data_PCOD8066684
_publ_section_title
;
Structure prediction by ZEFSAII (Michael W. Deem and Ramdas Pophale) SiO2 
 PCOD8066684
Probable space group: P 2/M
;
_chemical_formula_sum "Si O2"
_cell_formula_units_Z 28
_cell_length_a 9.265701
_cell_length_b 8.628945
_cell_length_c 22.392388
_cell_angle_alpha 90.000000
_cell_angle_beta 128.564730
_cell_angle_gamma 90.000000
_cell_volume 1399.877502
_symmetry_space_group_name_H-M "P 2/M"
_symmetry_group_IT_number 10
_symmetry_cell_setting 'monoclinic'
loop_
_space_group_symop_operation_xyz
x,y,z
-x,y,-z
-x,-y,-z
x,-y,z
loop_
_atom_site_type_symbol
_atom_site_label
_atom_site_fract_x
_atom_site_fract_y
_atom_site_fract_z
Si Si1 0.370026 0.678585 0.139103
Si Si2 0.705662 0.679264 0.696473
Si Si3 0.707264 0.819784 0.570120
Si Si4 0.974976 0.680571 0.425048
Si Si5 0.024680 0.323001 0.127235
Si Si6 0.593596 0.820125 0.297880
Si Si7 0.341974 0.177934 0.005521
O O1 0.420492 0.500000 0.163809
O O2 0.165184 0.714628 0.109910
O O3 0.518888 0.781313 0.212643
O O4 0.375020 0.714374 0.070829
O O5 0.691538 0.500000 0.674532
O O6 0.743045 0.782382 0.648389
O O7 0.877088 0.710106 0.784515
O O8 0.514964 0.724977 0.679420
O O9 0.500000 0.772337 0.500000
O O10 0.839687 0.719588 0.562613
O O11 0.744988 0.000000 0.568062
O O12 0.930130 0.500000 0.406903
O O13 0.808060 0.777906 0.354269
O O14 0.000000 0.729279 0.500000
O O15 0.956392 0.500000 0.105752
O O16 0.852227 0.210056 0.076400
O O17 0.565668 0.000000 0.304152
O O18 0.350054 0.000000 0.027762
O O19 0.500000 0.220561 0.000000
#
# Coordination Sequence:
#
# PCOD8066684 Si02
#       7
#     4   4   4   4   4   4   4
#     4  10  21  39  62  86 114 149 193 239 286 346
#     4  10  21  39  62  88 119 153 194 241 290 349
#     4  11  24  40  60  88 121 156 195 242 295 346
#     4  11  24  41  62  87 117 156 199 241 289 347
#     4   9  20  38  60  85 111 146 191 237 285 341
#     4  11  22  38  62  90 120 152 191 240 294 349
#     4  11  24  38  54  82 118 153 191 237 289 343
#
# _framework density 20.001750000000001
#
# number of rings (size 3 to 8) (size 9 to 14) (size 15 to 20)
#    0.000    1.571    0.000    5.571    0.000   12.000 
#    0.000    2.857    0.000    0.000    0.000    0.000 
#    0.000    0.000    0.000    0.000    0.000    0.000 
#
# Total GULP energy -347409.786737 kJ/mol
# GULP energy per Si atom -12407.492383 kJ/mol
# Density = 1.995622 g / cm^3
# Si number density = 20.001750 Si / 1000 Ang^3
#
#
#
# Elastic Constant Matrix: (Units=GPa)
#
#
# Indices 1 2 3 4 5 6 
#
# 1 105.4526 26.6244 61.4819 0.0000 -0.0082 0.0000
# 2 26.6244 60.7692 34.7281 0.0000 6.4645 0.0000
# 3 61.4819 34.7281 102.1314 0.0000 -1.3323 0.0000
# 4 0.0000 0.0000 0.0000 31.2836 0.0000 1.4753
# 5 -0.0082 6.4645 -1.3323 0.0000 32.4787 0.0000
# 6 0.0000 0.0000 0.0000 1.4753 0.0000 34.3322
#
#
#
# Elastic Compliance Matrix: (Units=1/GPa)
#
#
# Indices 1 2 3 4 5 6 
#
# 1 0.014755 -0.001724 -0.008296 0.000000 0.000007 0.000000
# 2 -0.001724 0.021260 -0.006250 0.000000 -0.004488 0.000000
# 3 -0.008296 -0.006250 0.016936 0.000000 0.001937 0.000000
# 4 0.000000 0.000000 0.000000 0.032031 0.000000 -0.001376
# 5 0.000007 -0.004488 0.001937 0.000000 0.031762 0.000000
# 6 0.000000 0.000000 0.000000 -0.001376 0.000000 0.029186
#
#
# Mechanical properties :
#
#
# Convention : Reuss Voigt Hill
#
# Bulk Modulus (GPa) = 48.99308 57.11355 53.05332
# Shear Modulus (GPa) = 26.98708 29.32015 28.15361
#
# Velocity S-wave (km/s) = 3.67718 3.83283 3.75581
# Velocity P-wave (km/s) = 6.52506 6.94289 6.73722
#
# Compressibility (1/GPa) = 0.02041104
#
# Stress axis : x y z
#
# Youngs Moduli (GPa) = 67.77338 47.03621 59.04667
#
# Poissons Ratio (x) = 0.08110 0.48985
# Poissons Ratio (y) = 0.11686 0.36903
# Poissons Ratio (z) = 0.56225 0.29396
#
# Static dielectric constant tensor:
#      x y z
#    x 3.563610 0.000000 -0.006710 
#    y 0.000000 3.614320 0.000000 
#    z -0.006710 0.000000 3.663830 
# 
# 
# High freq. dielectric constant tensor:
#      x y z
#    x 1.778540 0.000000 -0.000690 
#    y 0.000000 1.788750 0.000000 
#    z -0.000690 0.000000 1.790180 
# 
# From -- ./inp_files/82261.got.cif
#   From: 2010.06.25/outbox.cif.g09.slc.cpg/sg10_42_cif.got.tgz:82261.got - 2010.06.27 22:07:45.
