data_PCOD8066142
_publ_section_title
;
Structure prediction by ZEFSAII (Michael W. Deem and Ramdas Pophale) SiO2 
 PCOD8066142
Probable space group: P 2/M
;
_chemical_formula_sum "Si O2"
_cell_formula_units_Z 30
_cell_length_a 22.216217
_cell_length_b 16.825993
_cell_length_c 8.023870
_cell_angle_alpha 90.000000
_cell_angle_beta 34.222400
_cell_angle_gamma 90.000000
_cell_volume 1686.883813
_symmetry_space_group_name_H-M "P 2/M"
_symmetry_group_IT_number 10
_symmetry_cell_setting 'monoclinic'
loop_
_space_group_symop_operation_xyz
x,y,z
-x,y,-z
-x,-y,-z
x,-y,z
loop_
_atom_site_type_symbol
_atom_site_label
_atom_site_fract_x
_atom_site_fract_y
_atom_site_fract_z
Si Si1 0.126133 0.906844 0.020836
Si Si2 0.715367 0.586781 0.379297
Si Si3 0.000000 0.693461 0.000000
Si Si4 0.394442 0.712236 0.152969
Si Si5 0.959318 0.408918 0.769653
Si Si6 0.492091 0.588693 0.337225
Si Si7 0.801459 0.811774 0.459136
Si Si8 0.877861 0.907037 0.593928
O O1 0.158226 0.880088 0.136313
O O2 0.001778 0.886866 0.279282
O O3 0.147584 0.000000 0.948935
O O4 0.192985 0.861053 0.726528
O O5 0.706283 0.500000 0.493146
O O6 0.689156 0.663936 0.544834
O O7 0.632978 0.586676 0.416262
O O8 0.832855 0.598149 0.040809
O O9 0.003768 0.640008 0.825082
O O10 0.107661 0.744847 0.751411
O O11 0.320315 0.779845 0.242855
O O12 0.500000 0.750127 0.000000
O O13 0.437739 0.645731 0.932972
O O14 0.997372 0.500000 0.706262
O O15 0.000000 0.373847 0.500000
O O16 0.500000 0.625348 0.500000
O O17 0.541401 0.500000 0.211562
O O18 0.811427 0.864647 0.601698
O O19 0.857862 0.000000 0.621909
#
# Coordination Sequence:
#
# PCOD8066142 Si02
#       8
#     4   4   2   4   4   4   4   4
#     4   9  18  34  57  84 115 148 181 220 263 321
#     4   9  17  34  55  72  99 141 183 231 279 322
#     4  12  23  34  51  84 114 144 184 222 285 334
#     4  10  21  37  52  76 108 143 184 227 283 327
#     4  10  22  39  54  73 109 156 196 225 267 336
#     4   9  18  34  57  80  98 130 192 248 283 319
#     4  12  21  34  54  84 116 147 174 221 281 338
#     4   9  18  34  57  85 114 145 184 222 261 319
#
# _framework density 17.784272999999999
#
# number of rings (size 3 to 8) (size 9 to 14) (size 15 to 20)
#    0.000    2.133    2.667    1.800    0.000    4.800 
#    4.800    1.333    0.000    1.600    0.000    1.867 
#    0.000    0.000    0.000    0.000    0.000    0.000 
#
# Total GULP energy -371736.843265 kJ/mol
# GULP energy per Si atom -12391.228109 kJ/mol
# Density = 1.774380 g / cm^3
# Si number density = 17.784273 Si / 1000 Ang^3
#
#
#
# Elastic Constant Matrix: (Units=GPa)
#
#
# Indices 1 2 3 4 5 6 
#
# 1 117.7202 47.7869 48.9005 0.0000 11.2042 0.0000
# 2 47.7869 52.3703 27.4867 0.0000 -3.8601 0.0000
# 3 48.9005 27.4867 70.8010 0.0000 -7.8617 0.0000
# 4 0.0000 0.0000 0.0000 64.1260 0.0000 11.5860
# 5 11.2042 -3.8601 -7.8617 0.0000 27.0888 0.0000
# 6 0.0000 0.0000 0.0000 11.5860 0.0000 36.3056
#
#
#
# Elastic Compliance Matrix: (Units=1/GPa)
#
#
# Indices 1 2 3 4 5 6 
#
# 1 0.018950 -0.013330 -0.009294 0.000000 -0.012435 0.000000
# 2 -0.013330 0.033373 -0.002696 0.000000 0.009487 0.000000
# 3 -0.009294 -0.002696 0.022706 0.000000 0.010050 0.000000
# 4 0.000000 0.000000 0.000000 0.016548 0.000000 -0.005281
# 5 -0.012435 0.009487 0.010050 0.000000 0.046327 0.000000
# 6 0.000000 0.000000 0.000000 -0.005281 0.000000 0.029229
#
#
# Mechanical properties :
#
#
# Convention : Reuss Voigt Hill
#
# Bulk Modulus (GPa) = 41.00322 54.35999 47.68160
# Shear Modulus (GPa) = 22.13338 33.28524 27.70931
#
# Velocity S-wave (km/s) = 3.53164 4.33091 3.95153
# Velocity P-wave (km/s) = 6.30364 7.45933 6.90571
#
# Compressibility (1/GPa) = 0.02438833
#
# Stress axis : x y z
#
# Youngs Moduli (GPa) = 52.76989 29.96478 44.04168
#
# Poissons Ratio (x) = 0.39944 0.40933
# Poissons Ratio (y) = 0.70344 0.11872
# Poissons Ratio (z) = 0.49045 0.08078
#
# Static dielectric constant tensor:
#      x y z
#    x 3.367530 0.000000 0.015870 
#    y 0.000000 3.308410 0.000000 
#    z 0.015870 0.000000 3.139990 
# 
# 
# High freq. dielectric constant tensor:
#      x y z
#    x 1.692570 0.000000 0.007100 
#    y 0.000000 1.683050 0.000000 
#    z 0.007100 0.000000 1.671020 
# 
# From -- ./inp_files/36300.got.cif
#   From: 2010.06.25/outbox.cif.g09.slc.cpg/sg10_19_cif.got.tgz:36300.got - 2010.06.27 22:07:45.
