data_PCOD8066351
_publ_section_title
;
Structure prediction by ZEFSAII (Michael W. Deem and Ramdas Pophale) SiO2 
 PCOD8066351
Probable space group: P 2/M
;
_chemical_formula_sum "Si O2"
_cell_formula_units_Z 28
_cell_length_a 13.572930
_cell_length_b 23.049076
_cell_length_c 8.569788
_cell_angle_alpha 90.000000
_cell_angle_beta 148.068831
_cell_angle_gamma 90.000000
_cell_volume 1417.982450
_symmetry_space_group_name_H-M "P 2/M"
_symmetry_group_IT_number 10
_symmetry_cell_setting 'monoclinic'
loop_
_space_group_symop_operation_xyz
x,y,z
-x,y,-z
-x,-y,-z
x,-y,z
loop_
_atom_site_type_symbol
_atom_site_label
_atom_site_fract_x
_atom_site_fract_y
_atom_site_fract_z
Si Si1 0.970294 0.154935 0.638274
Si Si2 0.311320 0.137778 0.329932
Si Si3 0.025919 0.566033 0.351652
Si Si4 0.369255 0.641431 0.688825
Si Si5 0.187448 0.243395 0.338777
Si Si6 0.685362 0.068009 0.347100
Si Si7 0.621874 0.563444 0.811481
O O1 0.000000 0.174356 0.500000
O O2 0.862305 0.209686 0.568488
O O3 0.846404 0.097302 0.462172
O O4 0.147045 0.135943 0.980899
O O5 0.500000 0.121715 0.500000
O O6 0.317059 0.202312 0.407643
O O7 0.295334 0.092387 0.450578
O O8 0.068672 0.500000 0.357596
O O9 0.000000 0.573132 0.500000
O O10 0.191473 0.604859 0.507152
O O11 0.822117 0.587561 0.018027
O O12 0.300926 0.698011 0.509468
O O13 0.511748 0.604585 0.778276
O O14 0.500000 0.664932 0.000000
O O15 0.000000 0.260587 0.000000
O O16 0.718226 0.000000 0.401491
O O17 0.500000 0.083039 0.000000
O O18 0.500000 0.552817 0.500000
O O19 0.657359 0.500000 0.941132
#
# Coordination Sequence:
#
# PCOD8066351 Si02
#       7
#     4   4   4   4   4   4   4
#     4  10  21  40  63  87 117 160 202 244 299 356
#     4  10  21  40  63  86 118 161 202 243 300 354
#     4  10  21  39  61  86 119 153 193 245 297 364
#     4  12  24  38  61  89 116 155 199 244 303 360
#     4   9  23  42  57  83 118 151 196 248 296 350
#     4  10  21  37  60  92 127 159 200 249 293 347
#     4  10  23  41  60  88 119 151 195 243 301 367
#
# _framework density 19.746365999999998
#
# number of rings (size 3 to 8) (size 9 to 14) (size 15 to 20)
#    0.000    1.857    1.429    2.571    2.000    6.857 
#    2.571    2.143    0.000    0.000    0.000    0.000 
#    0.000    0.000    0.000    0.000    0.000    0.000 
#
# Total GULP energy -346950.429728 kJ/mol
# GULP energy per Si atom -12391.086776 kJ/mol
# Density = 1.970142 g / cm^3
# Si number density = 19.746366 Si / 1000 Ang^3
#
#
#
# Elastic Constant Matrix: (Units=GPa)
#
#
# Indices 1 2 3 4 5 6 
#
# 1 71.4861 27.1606 23.7706 0.0000 1.8279 0.0000
# 2 27.1606 106.0791 44.9039 0.0000 6.9820 0.0000
# 3 23.7706 44.9039 102.2606 0.0000 1.6020 0.0000
# 4 0.0000 0.0000 0.0000 2.6491 0.0000 -14.0677
# 5 1.8279 6.9820 1.6020 0.0000 39.6974 0.0000
# 6 0.0000 0.0000 0.0000 -14.0677 0.0000 4.3381
#
#
#
# Elastic Compliance Matrix: (Units=1/GPa)
#
#
# Indices 1 2 3 4 5 6 
#
# 1 0.015944 -0.003080 -0.002352 0.000000 -0.000097 0.000000
# 2 -0.003080 0.012309 -0.004660 0.000000 -0.001835 0.000000
# 3 -0.002352 -0.004660 0.012365 0.000000 0.000429 0.000000
# 4 0.000000 0.000000 0.000000 -0.023272 0.000000 -0.075467
# 5 -0.000097 -0.001835 0.000429 0.000000 0.025501 0.000000
# 6 0.000000 0.000000 0.000000 -0.075467 0.000000 -0.014212
#
#
# Mechanical properties :
#
#
# Convention : Reuss Voigt Hill
#
# Bulk Modulus (GPa) = 48.94051 52.38843 50.66447
# Shear Modulus (GPa) = 89.87807 21.60297 55.74052
#
# Velocity S-wave (km/s) = 6.75389 3.31119 5.31879
# Velocity P-wave (km/s) = 9.25519 6.41926 7.96446
#
# Compressibility (1/GPa) = 0.02043297
#
# Stress axis : x y z
#
# Youngs Moduli (GPa) = 62.72108 81.24066 80.87101
#
# Poissons Ratio (x) = 0.25023 0.19021
# Poissons Ratio (y) = 0.19319 0.37689
# Poissons Ratio (z) = 0.14752 0.37861
#
# Static dielectric constant tensor:
#      x y z
#    x 3.554910 0.000000 0.144570 
#    y 0.000000 3.515320 0.000000 
#    z 0.144570 0.000000 4.189290 
# 
# 
# High freq. dielectric constant tensor:
#      x y z
#    x 1.767160 0.000000 0.002850 
#    y 0.000000 1.763250 0.000000 
#    z 0.002850 0.000000 1.794400 
# 
# From -- ./inp_files/30471.got.cif
#   From: 2010.06.25/outbox.cif.g09.slc.cpg/sg10_16_cif.got.tgz:30471.got - 2010.06.27 22:07:45.
