data_PCOD8066839
_publ_section_title
;
Structure prediction by ZEFSAII (Michael W. Deem and Ramdas Pophale) SiO2 
 PCOD8066839
Probable space group: P 2/M
;
_chemical_formula_sum "Si O2"
_cell_formula_units_Z 20
_cell_length_a 5.123057
_cell_length_b 8.159279
_cell_length_c 20.916147
_cell_angle_alpha 90.000000
_cell_angle_beta 60.100994
_cell_angle_gamma 90.000000
_cell_volume 757.939191
_symmetry_space_group_name_H-M "P 2/M"
_symmetry_group_IT_number 10
_symmetry_cell_setting 'monoclinic'
loop_
_space_group_symop_operation_xyz
x,y,z
-x,y,-z
-x,-y,-z
x,-y,z
loop_
_atom_site_type_symbol
_atom_site_label
_atom_site_fract_x
_atom_site_fract_y
_atom_site_fract_z
Si Si1 0.844995 0.677317 0.143294
Si Si2 0.638327 0.187434 0.047536
Si Si3 0.007737 0.000000 0.833369
Si Si4 0.722110 0.000000 0.734444
Si Si5 0.596570 0.680772 0.688727
Si Si6 0.328993 0.689877 0.461704
O O1 0.998699 0.500000 0.111357
O O2 0.588492 0.710421 0.119745
O O3 0.093683 0.829010 0.117176
O O4 0.698099 0.674806 0.231155
O O5 0.507960 0.000000 0.072566
O O6 0.500000 0.270841 0.000000
O O7 0.000000 0.184751 0.000000
O O8 0.370674 0.000000 0.798078
O O9 0.936867 0.000000 0.768592
O O10 0.803411 0.166193 0.685587
O O11 0.760453 0.500000 0.673343
O O12 0.500812 0.714175 0.626958
O O13 0.500000 0.776286 0.500000
O O14 0.291328 0.500000 0.483184
O O15 0.000000 0.772159 0.500000
#
# Coordination Sequence:
#
# PCOD8066839 Si02
#       6
#     4   4   2   2   4   4
#     4  10  21  40  66  94 125 163 207 257 309 365
#     4  10  22  41  64  90 124 163 203 250 306 366
#     4  10  22  40  58  88 124 156 199 250 303 364
#     4  10  22  38  60  86 122 160 197 250 311 354
#     4   9  20  39  63  93 124 161 210 256 305 366
#     4   9  18  34  57  84 119 161 201 247 303 360
#
# _framework density 26.387342
#
# number of rings (size 3 to 8) (size 9 to 14) (size 15 to 20)
#    0.000    2.400    1.000    0.000    0.000    8.000 
#    0.000   11.000    0.000    0.000    0.000    0.000 
#    0.000    0.000    0.000    0.000    0.000    0.000 
#
# Total GULP energy -247766.275223 kJ/mol
# GULP energy per Si atom -12388.313761 kJ/mol
# Density = 2.632728 g / cm^3
# Si number density = 26.387342 Si / 1000 Ang^3
#
#
#
# Elastic Constant Matrix: (Units=GPa)
#
#
# Indices 1 2 3 4 5 6 
#
# 1 113.3960 58.9713 58.7339 0.0000 47.2874 0.0000
# 2 58.9713 230.6641 40.9291 0.0000 39.8540 0.0000
# 3 58.7339 40.9291 166.1608 0.0000 40.7910 0.0000
# 4 0.0000 0.0000 0.0000 26.7002 0.0000 8.7484
# 5 47.2874 39.8540 40.7910 0.0000 52.5738 0.0000
# 6 0.0000 0.0000 0.0000 8.7484 0.0000 11.9535
#
#
#
# Elastic Compliance Matrix: (Units=1/GPa)
#
#
# Indices 1 2 3 4 5 6 
#
# 1 0.015399 -0.001657 -0.002400 0.000000 -0.010732 0.000000
# 2 -0.001657 0.005186 -0.000114 0.000000 -0.002352 0.000000
# 3 -0.002400 -0.000114 0.007836 0.000000 -0.003834 0.000000
# 4 0.000000 0.000000 0.000000 0.049267 0.000000 -0.036057
# 5 -0.010732 -0.002352 -0.003834 0.000000 0.033432 0.000000
# 6 0.000000 0.000000 0.000000 -0.036057 0.000000 0.110047
#
#
# Mechanical properties :
#
#
# Convention : Reuss Voigt Hill
#
# Bulk Modulus (GPa) = 49.80565 91.94326 70.87446
# Shear Modulus (GPa) = 21.16832 41.68463 31.42647
#
# Velocity S-wave (km/s) = 2.83541 3.97888 3.45478
# Velocity P-wave (km/s) = 5.44382 7.48519 6.54459
#
# Compressibility (1/GPa) = 0.02007804
#
# Stress axis : x y z
#
# Youngs Moduli (GPa) = 64.93931 192.84425 127.61321
#
# Poissons Ratio (x) = 0.31947 0.30632
# Poissons Ratio (y) = 0.10758 0.01458
# Poissons Ratio (z) = 0.15588 0.02204
#
# Static dielectric constant tensor:
#      x y z
#    x 4.884800 0.000000 0.381290 
#    y 0.000000 5.882080 0.000000 
#    z 0.381290 0.000000 4.983220 
# 
# 
# High freq. dielectric constant tensor:
#      x y z
#    x 2.043000 0.000000 0.020540 
#    y 0.000000 2.048170 0.000000 
#    z 0.020540 0.000000 2.072640 
# 
# From -- ./inp_files/72895.got.cif
#   From: 2010.06.25/outbox.cif.g09.slc.cpg/sg10_37_cif.got.tgz:72895.got - 2010.06.27 22:07:45.
