data_PCOD8066882
_publ_section_title
;
Structure prediction by ZEFSAII (Michael W. Deem and Ramdas Pophale) SiO2 
 PCOD8066882
Probable space group: P 2/M
;
_chemical_formula_sum "Si O2"
_cell_formula_units_Z 28
_cell_length_a 26.988998
_cell_length_b 8.921906
_cell_length_c 9.201463
_cell_angle_alpha 90.000000
_cell_angle_beta 38.448484
_cell_angle_gamma 90.000000
_cell_volume 1377.715346
_symmetry_space_group_name_H-M "P 2/M"
_symmetry_group_IT_number 10
_symmetry_cell_setting 'monoclinic'
loop_
_space_group_symop_operation_xyz
x,y,z
-x,y,-z
-x,-y,-z
x,-y,z
loop_
_atom_site_type_symbol
_atom_site_label
_atom_site_fract_x
_atom_site_fract_y
_atom_site_fract_z
Si Si1 0.429489 0.668444 0.775923
Si Si2 0.530134 0.833317 0.769793
Si Si3 0.868149 0.823688 0.460137
Si Si4 0.698089 0.675003 0.347714
Si Si5 0.993598 0.325630 0.679074
Si Si6 0.723750 0.176905 0.994010
Si Si7 0.843313 0.328681 0.213655
O O1 0.500000 0.666285 0.500000
O O2 0.397439 0.500000 0.877602
O O3 0.462337 0.736769 0.848332
O O4 0.360680 0.773809 0.874685
O O5 0.614805 0.753445 0.569155
O O6 0.538332 0.000000 0.681484
O O7 0.500000 0.848510 0.000000
O O8 0.946424 0.755216 0.350653
O O9 0.791397 0.770204 0.726726
O O10 0.859329 0.775316 0.313979
O O11 0.877357 0.000000 0.442458
O O12 0.682794 0.500000 0.355215
O O13 0.755273 0.703121 0.353801
O O14 0.740328 0.742824 0.108705
O O15 0.015465 0.500000 0.628492
O O16 0.000000 0.261223 0.500000
O O17 0.905282 0.294376 0.941941
O O18 0.724164 0.000000 0.016793
O O19 0.851805 0.500000 0.245785
#
# Coordination Sequence:
#
# PCOD8066882 Si02
#       7
#     4   4   4   4   4   4   4
#     4  11  23  40  64  93 120 157 209 260 306 359
#     4  11  25  42  62  89 125 165 203 250 311 372
#     4  11  25  41  61  93 128 162 203 249 302 363
#     4  11  23  41  64  92 121 158 209 258 305 361
#     4  10  21  41  68  94 123 161 204 248 301 362
#     4  11  24  41  62  89 123 163 205 252 310 371
#     4  10  23  41  63  92 125 162 203 250 304 361
#
# _framework density 20.323502999999999
#
# number of rings (size 3 to 8) (size 9 to 14) (size 15 to 20)
#    0.000    1.286    1.429    3.429    2.000    8.857 
#    0.000    0.000    0.000    0.000    0.000    0.000 
#    0.000    0.000    0.000    0.000    0.000    0.000 
#
# Total GULP energy -347338.346686 kJ/mol
# GULP energy per Si atom -12404.940953 kJ/mol
# Density = 2.027725 g / cm^3
# Si number density = 20.323503 Si / 1000 Ang^3
#
#
#
# Elastic Constant Matrix: (Units=GPa)
#
#
# Indices 1 2 3 4 5 6 
#
# 1 98.8667 27.4636 21.2204 0.0000 6.1985 0.0000
# 2 27.4636 79.9607 36.0919 0.0000 4.6592 0.0000
# 3 21.2204 36.0919 73.8172 0.0000 7.6121 0.0000
# 4 0.0000 0.0000 0.0000 29.8612 0.0000 -0.4307
# 5 6.1985 4.6592 7.6121 0.0000 34.2550 0.0000
# 6 0.0000 0.0000 0.0000 -0.4307 0.0000 30.4318
#
#
#
# Elastic Compliance Matrix: (Units=1/GPa)
#
#
# Indices 1 2 3 4 5 6 
#
# 1 0.011408 -0.003109 -0.001627 0.000000 -0.001280 0.000000
# 2 -0.003109 0.016902 -0.007360 0.000000 -0.000101 0.000000
# 3 -0.001627 -0.007360 0.017890 0.000000 -0.002680 0.000000
# 4 0.000000 0.000000 0.000000 0.033495 0.000000 0.000474
# 5 -0.001280 -0.000101 -0.002680 0.000000 0.030034 0.000000
# 6 0.000000 0.000000 0.000000 0.000474 0.000000 0.032867
#
#
# Mechanical properties :
#
#
# Convention : Reuss Voigt Hill
#
# Bulk Modulus (GPa) = 45.44018 46.91069 46.17543
# Shear Modulus (GPa) = 28.71532 30.10082 29.40807
#
# Velocity S-wave (km/s) = 3.76295 3.85266 3.80807
# Velocity P-wave (km/s) = 6.42547 6.55155 6.48882
#
# Compressibility (1/GPa) = 0.02200696
#
# Stress axis : x y z
#
# Youngs Moduli (GPa) = 87.65933 59.16518 55.89842
#
# Poissons Ratio (x) = 0.18395 0.09096
# Poissons Ratio (y) = 0.27254 0.41140
# Poissons Ratio (z) = 0.14265 0.43544
#
# Static dielectric constant tensor:
#      x y z
#    x 3.753960 0.000000 0.059010 
#    y 0.000000 3.883660 0.000000 
#    z 0.059010 0.000000 3.720150 
# 
# 
# High freq. dielectric constant tensor:
#      x y z
#    x 1.805670 0.000000 -0.000370 
#    y 0.000000 1.802150 0.000000 
#    z -0.000370 0.000000 1.802550 
# 
# From -- ./inp_files/37107.got.cif
#   From: 2010.06.25/outbox.cif.g09.slc.cpg/sg10_19_cif.got.tgz:37107.got - 2010.06.27 22:07:45.
