data_PCOD8066193
_publ_section_title
;
Structure prediction by ZEFSAII (Michael W. Deem and Ramdas Pophale) SiO2 
 PCOD8066193
Probable space group: P 2/M
;
_chemical_formula_sum "Si O2"
_cell_formula_units_Z 28
_cell_length_a 16.297119
_cell_length_b 8.630147
_cell_length_c 12.341221
_cell_angle_alpha 90.000000
_cell_angle_beta 55.998368
_cell_angle_gamma 90.000000
_cell_volume 1438.974271
_symmetry_space_group_name_H-M "P 2/M"
_symmetry_group_IT_number 10
_symmetry_cell_setting 'monoclinic'
loop_
_space_group_symop_operation_xyz
x,y,z
-x,y,-z
-x,-y,-z
x,-y,z
loop_
_atom_site_type_symbol
_atom_site_label
_atom_site_fract_x
_atom_site_fract_y
_atom_site_fract_z
Si Si1 0.126163 0.318124 0.993870
Si Si2 0.232558 0.680702 0.535679
Si Si3 0.498562 0.823265 0.168977
Si Si4 0.570379 0.822234 0.542401
Si Si5 0.300751 0.319270 0.249419
Si Si6 0.720495 0.818804 0.955526
Si Si7 0.080632 0.181721 0.804352
O O1 0.124771 0.500000 0.973596
O O2 0.139825 0.233953 0.868103
O O3 0.216183 0.275065 0.004797
O O4 0.024220 0.267488 0.125504
O O5 0.209537 0.500000 0.562154
O O6 0.331715 0.718233 0.529164
O O7 0.247010 0.732987 0.400213
O O8 0.141601 0.776032 0.651900
O O9 0.491672 0.804526 0.302513
O O10 0.417355 0.719229 0.168779
O O11 0.479131 0.000000 0.147230
O O12 0.606914 0.767973 0.054505
O O13 0.500000 0.759159 0.500000
O O14 0.602202 0.000000 0.498119
O O15 0.287366 0.500000 0.238979
O O16 0.248619 0.227856 0.189446
O O17 0.737359 0.000000 0.962486
O O18 0.061107 0.000000 0.823267
#
# Coordination Sequence:
#
# PCOD8066193 Si02
#       7
#     4   4   4   4   4   4   4
#     4  11  23  40  61  88 118 147 184 233 285 338
#     4  10  21  37  57  82 112 150 189 233 289 341
#     4   9  19  34  52  78 113 152 192 233 281 333
#     4   9  18  32  51  78 111 149 190 233 278 336
#     4  10  21  37  56  81 115 153 194 238 284 337
#     4  11  22  36  57  84 116 152 194 239 283 335
#     4  11  22  40  64  87 114 148 187 231 283 343
#
# _framework density 19.458304999999999
#
# number of rings (size 3 to 8) (size 9 to 14) (size 15 to 20)
#    0.000    1.857    0.000    5.143    2.000    4.857 
#    0.000    0.714    0.000    4.286    0.000    0.000 
#    0.000    0.000    0.000    0.000    0.000    0.000 
#
# Total GULP energy -347320.965413 kJ/mol
# GULP energy per Si atom -12404.320193 kJ/mol
# Density = 1.941402 g / cm^3
# Si number density = 19.458305 Si / 1000 Ang^3
#
#
#
# Elastic Constant Matrix: (Units=GPa)
#
#
# Indices 1 2 3 4 5 6 
#
# 1 50.7643 16.4189 31.1010 0.0000 9.3156 0.0000
# 2 16.4189 60.3567 18.6964 0.0000 1.0280 0.0000
# 3 31.1010 18.6964 92.2617 0.0000 -6.6660 0.0000
# 4 0.0000 0.0000 0.0000 28.1277 0.0000 0.6558
# 5 9.3156 1.0280 -6.6660 0.0000 22.4992 0.0000
# 6 0.0000 0.0000 0.0000 0.6558 0.0000 34.4483
#
#
#
# Elastic Compliance Matrix: (Units=1/GPa)
#
#
# Indices 1 2 3 4 5 6 
#
# 1 0.030477 -0.004799 -0.010420 0.000000 -0.015487 0.000000
# 2 -0.004799 0.018514 -0.002097 0.000000 0.000520 0.000000
# 3 -0.010420 -0.002097 0.015425 0.000000 0.008980 0.000000
# 4 0.000000 0.000000 0.000000 0.035568 0.000000 -0.000677
# 5 -0.015487 0.000520 0.008980 0.000000 0.053495 0.000000
# 6 0.000000 0.000000 0.000000 -0.000677 0.000000 0.029042
#
#
# Mechanical properties :
#
#
# Convention : Reuss Voigt Hill
#
# Bulk Modulus (GPa) = 33.57416 37.31279 35.44348
# Shear Modulus (GPa) = 22.01865 26.15945 24.08905
#
# Velocity S-wave (km/s) = 3.36755 3.67056 3.52232
# Velocity P-wave (km/s) = 5.69319 6.09766 5.89889
#
# Compressibility (1/GPa) = 0.02978481
#
# Stress axis : x y z
#
# Youngs Moduli (GPa) = 32.81185 54.01246 64.83013
#
# Poissons Ratio (x) = 0.25921 0.67553
# Poissons Ratio (y) = 0.15747 0.13592
# Poissons Ratio (z) = 0.34190 0.11324
#
# Static dielectric constant tensor:
#      x y z
#    x 3.427550 0.000000 0.095010 
#    y 0.000000 3.545070 0.000000 
#    z 0.095010 0.000000 3.675080 
# 
# 
# High freq. dielectric constant tensor:
#      x y z
#    x 1.745530 0.000000 0.008860 
#    y 0.000000 1.762230 0.000000 
#    z 0.008860 0.000000 1.764250 
# 
# From -- ./inp_files/49651.got.cif
#   From: 2010.06.25/outbox.cif.g09.slc.cpg/sg10_25_cif.got.tgz:49651.got - 2010.06.27 22:07:45.
