data_PCOD8066234
_publ_section_title
;
Structure prediction by ZEFSAII (Michael W. Deem and Ramdas Pophale) SiO2 
 PCOD8066234
Probable space group: P 2/M
;
_chemical_formula_sum "Si O2"
_cell_formula_units_Z 32
_cell_length_a 30.525488
_cell_length_b 9.521286
_cell_length_c 11.869198
_cell_angle_alpha 90.000000
_cell_angle_beta 151.753951
_cell_angle_gamma 90.000000
_cell_volume 1632.594807
_symmetry_space_group_name_H-M "P 2/M"
_symmetry_group_IT_number 10
_symmetry_cell_setting 'monoclinic'
loop_
_space_group_symop_operation_xyz
x,y,z
-x,y,-z
-x,-y,-z
x,-y,z
loop_
_atom_site_type_symbol
_atom_site_label
_atom_site_fract_x
_atom_site_fract_y
_atom_site_fract_z
Si Si1 0.989061 0.657443 0.162402
Si Si2 0.409195 0.665751 0.472143
Si Si3 0.313569 0.160928 0.696645
Si Si4 0.402647 0.343227 0.718849
Si Si5 0.854069 0.657388 0.665835
Si Si6 0.943505 0.835458 0.482790
Si Si7 0.729207 0.163917 0.984909
Si Si8 0.583843 0.840640 0.846305
O O1 0.989149 0.500000 0.212546
O O2 0.068637 0.675318 0.252001
O O3 0.001745 0.765411 0.291365
O O4 0.893190 0.687764 0.879926
O O5 0.409353 0.500000 0.445772
O O6 0.411200 0.698817 0.608696
O O7 0.317754 0.739164 0.216217
O O8 0.500788 0.735894 0.624266
O O9 0.335552 0.235030 0.628442
O O10 0.222197 0.229783 0.540395
O O11 0.294213 0.000000 0.626223
O O12 0.393533 0.180023 0.970639
O O13 0.361323 0.500000 0.636592
O O14 0.500000 0.334050 0.000000
O O15 0.812493 0.500000 0.567503
O O16 0.000000 0.790905 0.500000
O O17 0.947985 0.000000 0.513445
O O18 0.836073 0.786726 0.235901
O O19 0.675637 0.191523 0.981073
O O20 0.723632 0.000000 0.937352
O O21 0.550091 0.000000 0.747282
#
# Coordination Sequence:
#
# PCOD8066234 Si02
#       8
#     4   4   4   4   4   4   4   4
#     4   9  19  37  60  84 112 149 189 233 284 341
#     4  11  23  38  59  85 112 148 196 241 280 332
#     4  11  22  34  56  88 116 148 194 235 274 335
#     4  10  21  39  57  76 111 153 186 226 283 331
#     4   9  19  36  57  84 118 150 183 230 291 342
#     4  10  22  40  61  84 115 153 191 236 290 343
#     4  10  22  40  59  82 116 153 187 231 290 344
#     4  10  21  37  57  82 116 154 188 231 288 340
#
# _framework density 19.600698999999999
#
# number of rings (size 3 to 8) (size 9 to 14) (size 15 to 20)
#    0.000    2.000    1.250    2.625    0.000    7.500 
#    0.000    3.750    0.000    0.000    0.000    0.000 
#    0.000    0.000    0.000    0.000    0.000    0.000 
#
# Total GULP energy -396810.580473 kJ/mol
# GULP energy per Si atom -12400.330640 kJ/mol
# Density = 1.955609 g / cm^3
# Si number density = 19.600699 Si / 1000 Ang^3
#
#
#
# Elastic Constant Matrix: (Units=GPa)
#
#
# Indices 1 2 3 4 5 6 
#
# 1 81.7752 38.3939 23.5013 0.0000 -11.3997 0.0000
# 2 38.3939 90.2242 38.0936 0.0000 -7.1842 0.0000
# 3 23.5013 38.0936 53.7466 0.0000 -6.1567 0.0000
# 4 0.0000 0.0000 0.0000 30.8360 0.0000 1.4552
# 5 -11.3997 -7.1842 -6.1567 0.0000 30.7154 0.0000
# 6 0.0000 0.0000 0.0000 1.4552 0.0000 29.3307
#
#
#
# Elastic Compliance Matrix: (Units=1/GPa)
#
#
# Indices 1 2 3 4 5 6 
#
# 1 0.016123 -0.005357 -0.002775 0.000000 0.004175 0.000000
# 2 -0.005357 0.017663 -0.010164 0.000000 0.000106 0.000000
# 3 -0.002775 -0.010164 0.027259 0.000000 0.002057 0.000000
# 4 0.000000 0.000000 0.000000 0.032506 0.000000 -0.001613
# 5 0.004175 0.000106 0.002057 0.000000 0.034543 0.000000
# 6 0.000000 0.000000 0.000000 -0.001613 0.000000 0.034174
#
#
# Mechanical properties :
#
#
# Convention : Reuss Voigt Hill
#
# Bulk Modulus (GPa) = 40.89572 47.30262 44.09917
# Shear Modulus (GPa) = 24.15321 26.56024 25.35672
#
# Velocity S-wave (km/s) = 3.51417 3.68512 3.60066
# Velocity P-wave (km/s) = 6.11355 6.50325 6.31141
#
# Compressibility (1/GPa) = 0.02445244
#
# Stress axis : x y z
#
# Youngs Moduli (GPa) = 62.02221 56.61545 36.68523
#
# Poissons Ratio (x) = 0.30329 0.10180
# Poissons Ratio (y) = 0.33225 0.37288
# Poissons Ratio (z) = 0.17211 0.57546
#
# Static dielectric constant tensor:
#      x y z
#    x 3.844770 0.000000 -0.445640 
#    y 0.000000 3.595300 0.000000 
#    z -0.445640 0.000000 4.205400 
# 
# 
# High freq. dielectric constant tensor:
#      x y z
#    x 1.763560 0.000000 -0.002830 
#    y 0.000000 1.763150 0.000000 
#    z -0.002830 0.000000 1.763170 
# 
# From -- ./inp_files/58126.got.cif
#   From: 2010.06.25/outbox.cif.g09.slc.cpg/sg10_30_cif.got.tgz:58126.got - 2010.06.27 22:07:45.
