data_PCOD8066523
_publ_section_title
;
Structure prediction by ZEFSAII (Michael W. Deem and Ramdas Pophale) SiO2 
 PCOD8066523
Probable space group: P 2/M
;
_chemical_formula_sum "Si O2"
_cell_formula_units_Z 32
_cell_length_a 12.044136
_cell_length_b 8.737039
_cell_length_c 28.847229
_cell_angle_alpha 90.000000
_cell_angle_beta 32.533983
_cell_angle_gamma 90.000000
_cell_volume 1632.542954
_symmetry_space_group_name_H-M "P 2/M"
_symmetry_group_IT_number 10
_symmetry_cell_setting 'monoclinic'
loop_
_space_group_symop_operation_xyz
x,y,z
-x,y,-z
-x,-y,-z
x,-y,z
loop_
_atom_site_type_symbol
_atom_site_label
_atom_site_fract_x
_atom_site_fract_y
_atom_site_fract_z
Si Si1 0.866202 0.181662 0.749928
Si Si2 0.589454 0.174664 0.335998
Si Si3 0.704834 0.319422 0.900869
Si Si4 0.318384 0.319475 0.599403
Si Si5 0.145107 0.818787 0.908730
Si Si6 0.390528 0.817644 0.249400
Si Si7 0.793424 0.825218 0.591152
Si Si8 0.933647 0.321095 0.157924
O O1 0.738756 0.238280 0.839590
O O2 0.739460 0.237470 0.749391
O O3 0.097237 0.248041 0.664330
O O4 0.883004 0.000000 0.746228
O O5 0.601795 0.254985 0.380621
O O6 0.358542 0.182526 0.398856
O O7 0.716145 0.269503 0.254163
O O8 0.669681 0.000000 0.311139
O O9 0.697103 0.500000 0.894436
O O10 0.892933 0.269672 0.867016
O O11 0.500000 0.263460 0.000000
O O12 0.500000 0.274625 0.500000
O O13 0.286745 0.500000 0.614193
O O14 0.375884 0.752435 0.834888
O O15 0.032528 0.763325 0.902113
O O16 0.153209 0.000000 0.905141
O O17 0.000000 0.754670 0.000000
O O18 0.289901 0.748864 0.331987
O O19 0.399471 0.000000 0.248333
O O20 0.000000 0.741278 0.500000
O O21 0.844499 0.000000 0.586190
O O22 0.938663 0.500000 0.147294
#
# Coordination Sequence:
#
# PCOD8066523 Si02
#       8
#     4   4   4   4   4   4   4   4
#     4  11  23  38  62  91 120 154 199 253 300 353
#     4  11  21  37  65  91 115 151 200 250 297 350
#     4  10  23  42  61  83 119 164 201 242 301 361
#     4  11  25  43  61  84 122 164 199 243 302 361
#     4  10  21  38  61  86 117 156 197 245 296 345
#     4   9  19  36  54  83 121 151 188 239 294 346
#     4   9  18  33  57  87 118 150 184 234 296 346
#     4  11  22  38  61  86 119 157 197 246 297 354
#
# _framework density 19.601322
#
# number of rings (size 3 to 8) (size 9 to 14) (size 15 to 20)
#    0.000    1.750    2.500    1.500    3.500    2.000 
#    0.000    1.250    0.000    1.500    0.000    0.000 
#    0.000    0.000    0.000    0.000    0.000    0.000 
#
# Total GULP energy -396764.797413 kJ/mol
# GULP energy per Si atom -12398.899919 kJ/mol
# Density = 1.955671 g / cm^3
# Si number density = 19.601322 Si / 1000 Ang^3
#
#
#
# Elastic Constant Matrix: (Units=GPa)
#
#
# Indices 1 2 3 4 5 6 
#
# 1 141.4006 21.3481 66.5242 0.0000 14.1480 0.0000
# 2 21.3481 30.3905 29.1166 0.0000 3.8218 0.0000
# 3 66.5242 29.1166 150.3257 0.0000 7.3169 0.0000
# 4 0.0000 0.0000 0.0000 20.0057 0.0000 5.5983
# 5 14.1480 3.8218 7.3169 0.0000 35.6512 0.0000
# 6 0.0000 0.0000 0.0000 5.5983 0.0000 15.6101
#
#
#
# Elastic Compliance Matrix: (Units=1/GPa)
#
#
# Indices 1 2 3 4 5 6 
#
# 1 0.009419 -0.002957 -0.003464 0.000000 -0.002710 0.000000
# 2 -0.002957 0.041600 -0.006655 0.000000 -0.001920 0.000000
# 3 -0.003464 -0.006655 0.009467 0.000000 0.000145 0.000000
# 4 0.000000 0.000000 0.000000 0.055562 0.000000 -0.019926
# 5 -0.002710 -0.001920 0.000145 0.000000 0.029301 0.000000
# 6 0.000000 0.000000 0.000000 -0.019926 0.000000 0.071207
#
#
# Mechanical properties :
#
#
# Convention : Reuss Voigt Hill
#
# Bulk Modulus (GPa) = 29.12579 61.78830 45.45704
# Shear Modulus (GPa) = 19.67307 27.92859 23.80083
#
# Velocity S-wave (km/s) = 3.17150 3.77879 3.48838
# Velocity P-wave (km/s) = 5.32001 7.11547 6.28222
#
# Compressibility (1/GPa) = 0.03433384
#
# Stress axis : x y z
#
# Youngs Moduli (GPa) = 106.16514 24.03826 105.63006
#
# Poissons Ratio (x) = 0.07109 0.36586
# Poissons Ratio (y) = 0.31398 0.70300
# Poissons Ratio (z) = 0.36772 0.15998
#
# Static dielectric constant tensor:
#      x y z
#    x 3.673690 0.000000 -0.024770 
#    y 0.000000 3.351550 0.000000 
#    z -0.024770 0.000000 3.852040 
# 
# 
# High freq. dielectric constant tensor:
#      x y z
#    x 1.778280 0.000000 0.001930 
#    y 0.000000 1.738330 0.000000 
#    z 0.001930 0.000000 1.778230 
# 
# From -- ./inp_files/95009.got.cif
#   From: 2010.06.25/outbox.cif.g09.slc.cpg/sg10_48_cif.got.tgz:95009.got - 2010.06.27 22:07:45.
