data_PCOD8066267
_publ_section_title
;
Structure prediction by ZEFSAII (Michael W. Deem and Ramdas Pophale) SiO2 
 PCOD8066267
Probable space group: P 2/M
;
_chemical_formula_sum "Si O2"
_cell_formula_units_Z 28
_cell_length_a 8.907893
_cell_length_b 8.729764
_cell_length_c 28.635737
_cell_angle_alpha 90.000000
_cell_angle_beta 141.153989
_cell_angle_gamma 90.000000
_cell_volume 1396.729489
_symmetry_space_group_name_H-M "P 2/M"
_symmetry_group_IT_number 10
_symmetry_cell_setting 'monoclinic'
loop_
_space_group_symop_operation_xyz
x,y,z
-x,y,-z
-x,-y,-z
x,-y,z
loop_
_atom_site_type_symbol
_atom_site_label
_atom_site_fract_x
_atom_site_fract_y
_atom_site_fract_z
Si Si1 0.608669 0.822179 0.212362
Si Si2 0.234664 0.318437 0.926319
Si Si3 0.898986 0.318826 0.926953
Si Si4 0.346842 0.823578 0.507952
Si Si5 0.793345 0.823182 0.359001
Si Si6 0.040722 0.178406 0.785737
Si Si7 0.464591 0.322336 0.354511
O O1 0.374894 0.725225 0.145212
O O2 0.707323 0.777474 0.286787
O O3 0.811609 0.777225 0.224502
O O4 0.542211 0.000000 0.193175
O O5 0.236746 0.500000 0.929139
O O6 0.056291 0.250870 0.922490
O O7 0.148210 0.269871 0.854787
O O8 0.500000 0.252712 0.000000
O O9 0.919716 0.500000 0.932328
O O10 0.000000 0.250877 0.000000
O O11 0.500000 0.780643 0.500000
O O12 0.428600 0.714587 0.569233
O O13 0.073323 0.790416 0.429764
O O14 0.387817 0.000000 0.532606
O O15 0.662668 0.715034 0.363966
O O16 0.735635 0.000000 0.356466
O O17 0.767456 0.221629 0.711437
O O18 0.057100 0.000000 0.801099
O O19 0.396303 0.500000 0.335104
#
# Coordination Sequence:
#
# PCOD8066267 Si02
#       7
#     4   4   4   4   4   4   4
#     4  10  22  39  60  86 113 146 191 241 287 336
#     4  10  21  38  60  87 119 153 191 236 289 347
#     4  10  21  37  58  84 115 153 192 231 282 343
#     4  10  21  40  65  89 116 153 195 237 285 342
#     4  10  21  39  62  86 115 152 192 235 286 342
#     4  11  23  40  61  85 115 152 197 242 288 344
#     4  12  25  39  58  87 121 154 192 238 289 343
#
# _framework density 20.046831999999998
#
# number of rings (size 3 to 8) (size 9 to 14) (size 15 to 20)
#    0.000    1.571    0.000    4.714    0.000   11.143 
#    0.000    1.429    0.000    0.000    0.000    0.000 
#    0.000    0.000    0.000    0.000    0.000    0.000 
#
# Total GULP energy -347365.597403 kJ/mol
# GULP energy per Si atom -12405.914193 kJ/mol
# Density = 2.000120 g / cm^3
# Si number density = 20.046832 Si / 1000 Ang^3
#
#
#
# Elastic Constant Matrix: (Units=GPa)
#
#
# Indices 1 2 3 4 5 6 
#
# 1 140.2623 23.7299 44.2329 0.0000 -1.0395 0.0000
# 2 23.7299 21.3641 10.2532 0.0000 -1.1181 0.0000
# 3 44.2329 10.2532 131.1415 0.0000 -2.5741 0.0000
# 4 0.0000 0.0000 0.0000 33.6695 0.0000 -0.7840
# 5 -1.0395 -1.1181 -2.5741 0.0000 41.4516 0.0000
# 6 0.0000 0.0000 0.0000 -0.7840 0.0000 26.3640
#
#
#
# Elastic Compliance Matrix: (Units=1/GPa)
#
#
# Indices 1 2 3 4 5 6 
#
# 1 0.009493 -0.009366 -0.002473 0.000000 -0.000168 0.000000
# 2 -0.009366 0.057921 -0.001345 0.000000 0.001244 0.000000
# 3 -0.002473 -0.001345 0.008573 0.000000 0.000434 0.000000
# 4 0.000000 0.000000 0.000000 0.029721 0.000000 0.000884
# 5 -0.000168 0.001244 0.000434 0.000000 0.024181 0.000000
# 6 0.000000 0.000000 0.000000 0.000884 0.000000 0.037957
#
#
# Mechanical properties :
#
#
# Convention : Reuss Voigt Hill
#
# Bulk Modulus (GPa) = 20.15341 49.91109 35.03225
# Shear Modulus (GPa) = 23.72449 34.60049 29.16249
#
# Velocity S-wave (km/s) = 3.44387 4.15900 3.81821
# Velocity P-wave (km/s) = 5.08809 6.92924 6.07877
#
# Compressibility (1/GPa) = 0.04961939
#
# Stress axis : x y z
#
# Youngs Moduli (GPa) = 105.34517 17.26485 116.64398
#
# Poissons Ratio (x) = 0.16170 0.28844
# Poissons Ratio (y) = 0.98664 0.15690
# Poissons Ratio (z) = 0.26050 0.02322
#
# Static dielectric constant tensor:
#      x y z
#    x 3.923780 0.000000 -0.052390 
#    y 0.000000 3.459030 0.000000 
#    z -0.052390 0.000000 3.651940 
# 
# 
# High freq. dielectric constant tensor:
#      x y z
#    x 1.803130 0.000000 -0.000420 
#    y 0.000000 1.766900 0.000000 
#    z -0.000420 0.000000 1.799730 
# 
# From -- ./inp_files/34285.got.cif
#   From: 2010.06.25/outbox.cif.g09.slc.cpg/sg10_18_cif.got.tgz:34285.got - 2010.06.27 22:07:45.
