data_PCOD8066520
_publ_section_title
;
Structure prediction by ZEFSAII (Michael W. Deem and Ramdas Pophale) SiO2 
 PCOD8066520
Probable space group: P 2/M
;
_chemical_formula_sum "Si O2"
_cell_formula_units_Z 32
_cell_length_a 14.284106
_cell_length_b 17.359113
_cell_length_c 12.269157
_cell_angle_alpha 90.000000
_cell_angle_beta 148.479508
_cell_angle_gamma 90.000000
_cell_volume 1590.500422
_symmetry_space_group_name_H-M "P 2/M"
_symmetry_group_IT_number 10
_symmetry_cell_setting 'monoclinic'
loop_
_space_group_symop_operation_xyz
x,y,z
-x,y,-z
-x,-y,-z
x,-y,z
loop_
_atom_site_type_symbol
_atom_site_label
_atom_site_fract_x
_atom_site_fract_y
_atom_site_fract_z
Si Si1 0.009055 0.909476 0.347978
Si Si2 0.283408 0.302197 0.388210
Si Si3 0.789543 0.414407 0.085129
Si Si4 0.286608 0.154098 0.790429
Si Si5 0.672782 0.711741 0.808697
Si Si6 0.193054 0.585286 0.469501
Si Si7 0.295084 0.665105 0.786968
Si Si8 0.013905 0.179692 0.887531
O O1 0.819990 0.881694 0.212380
O O2 0.184406 0.873217 0.579890
O O3 0.019041 0.889732 0.229171
O O4 0.021018 0.000000 0.374380
O O5 0.257063 0.324039 0.235571
O O6 0.470349 0.257977 0.595185
O O7 0.290798 0.382476 0.459837
O O8 0.127108 0.247294 0.275761
O O9 0.701483 0.500000 0.993851
O O10 0.810571 0.385561 0.229899
O O11 0.986376 0.418273 0.231216
O O12 0.673130 0.353500 0.901807
O O13 0.265496 0.245328 0.780177
O O14 0.500000 0.130975 0.000000
O O15 0.792253 0.786363 0.952393
O O16 0.266682 0.500000 0.570835
O O17 0.223728 0.644268 0.597746
O O18 0.500000 0.641414 0.000000
O O19 0.000000 0.150928 0.000000
#
# Coordination Sequence:
#
# PCOD8066520 Si02
#       8
#     4   4   4   4   4   4   4   4
#     4  11  24  39  63  95 121 155 194 228 288 364
#     4  10  21  38  61  86 111 149 200 243 286 339
#     4  11  23  36  53  80 116 155 194 242 298 345
#     4  10  23  41  63  91 121 154 196 246 290 339
#     4  10  21  38  61  86 111 149 200 243 286 339
#     4  11  23  36  53  80 116 155 194 242 298 345
#     4  11  23  37  57  82 110 153 201 238 285 345
#     4  10  21  40  63  87 122 156 189 245 294 339
#
# _framework density 20.119454000000001
#
# number of rings (size 3 to 8) (size 9 to 14) (size 15 to 20)
#    0.000    1.500    1.250    3.750    3.500    8.250 
#    0.000    2.500    0.000    0.000    0.000    5.250 
#    0.000    0.000    0.000    0.000    0.000    0.000 
#
# Total GULP energy -396753.911208 kJ/mol
# GULP energy per Si atom -12398.559725 kJ/mol
# Density = 2.007366 g / cm^3
# Si number density = 20.119454 Si / 1000 Ang^3
#
#
#
# Elastic Constant Matrix: (Units=GPa)
#
#
# Indices 1 2 3 4 5 6 
#
# 1 81.2441 25.4002 30.9345 0.0000 -11.1657 0.0000
# 2 25.4002 65.6447 21.9383 0.0000 -1.7628 0.0000
# 3 30.9345 21.9383 93.1730 0.0000 2.8221 0.0000
# 4 0.0000 0.0000 0.0000 15.1274 0.0000 -3.0740
# 5 -11.1657 -1.7628 2.8221 0.0000 41.3227 0.0000
# 6 0.0000 0.0000 0.0000 -3.0740 0.0000 18.4363
#
#
#
# Elastic Compliance Matrix: (Units=1/GPa)
#
#
# Indices 1 2 3 4 5 6 
#
# 1 0.016025 -0.004623 -0.004366 0.000000 0.004431 0.000000
# 2 -0.004623 0.017907 -0.002672 0.000000 -0.000303 0.000000
# 3 -0.004366 -0.002672 0.012878 0.000000 -0.002173 0.000000
# 4 0.000000 0.000000 0.000000 0.068423 0.000000 0.011409
# 5 0.004431 -0.000303 -0.002173 0.000000 0.025533 0.000000
# 6 0.000000 0.000000 0.000000 0.011409 0.000000 0.056143
#
#
# Mechanical properties :
#
#
# Convention : Reuss Voigt Hill
#
# Bulk Modulus (GPa) = 42.57642 44.06753 43.32198
# Shear Modulus (GPa) = 21.92398 25.76320 23.84359
#
# Velocity S-wave (km/s) = 3.30463 3.58231 3.44626
# Velocity P-wave (km/s) = 5.98068 6.24988 6.11676
#
# Compressibility (1/GPa) = 0.02348718
#
# Stress axis : x y z
#
# Youngs Moduli (GPa) = 62.40125 55.84363 77.65475
#
# Poissons Ratio (x) = 0.25814 0.33907
# Poissons Ratio (y) = 0.28845 0.20753
# Poissons Ratio (z) = 0.27247 0.14924
#
# Static dielectric constant tensor:
#      x y z
#    x 3.770800 0.000000 0.074610 
#    y 0.000000 3.456410 0.000000 
#    z 0.074610 0.000000 3.797130 
# 
# 
# High freq. dielectric constant tensor:
#      x y z
#    x 1.793610 0.000000 0.002470 
#    y 0.000000 1.761510 0.000000 
#    z 0.002470 0.000000 1.797280 
# 
# From -- ./inp_files/52020.got.cif
#   From: 2010.06.25/outbox.cif.g09.slc.cpg/sg10_27_cif.got.tgz:52020.got - 2010.06.27 22:07:45.
