data_PCOD8066020
_publ_section_title
;
Structure prediction by ZEFSAII (Michael W. Deem and Ramdas Pophale) SiO2 
 PCOD8066020
Probable space group: P 2/M
;
_chemical_formula_sum "Si O2"
_cell_formula_units_Z 18
_cell_length_a 8.579950
_cell_length_b 21.520315
_cell_length_c 7.662719
_cell_angle_alpha 90.000000
_cell_angle_beta 143.867127
_cell_angle_gamma 90.000000
_cell_volume 834.291521
_symmetry_space_group_name_H-M "P 2/M"
_symmetry_group_IT_number 10
_symmetry_cell_setting 'monoclinic'
loop_
_space_group_symop_operation_xyz
x,y,z
-x,y,-z
-x,-y,-z
x,-y,z
loop_
_atom_site_type_symbol
_atom_site_label
_atom_site_fract_x
_atom_site_fract_y
_atom_site_fract_z
Si Si1 0.771058 0.068389 0.654079
Si Si2 0.275696 0.611251 0.160294
Si Si3 0.437871 0.740116 0.148260
Si Si4 0.226960 0.500000 0.851304
Si Si5 0.936583 0.808923 0.641541
O O1 0.500000 0.089408 0.500000
O O2 0.861445 0.118886 0.594609
O O3 0.734269 0.000000 0.532210
O O4 0.000000 0.064189 0.000000
O O5 0.500000 0.587699 0.500000
O O6 0.388076 0.670652 0.163112
O O7 0.206700 0.559741 0.955295
O O8 0.000000 0.628881 0.000000
O O9 0.691766 0.766135 0.481190
O O10 0.500000 0.740414 0.000000
O O11 0.194800 0.786071 0.980348
O O12 0.000000 0.500000 0.500000
O O13 0.500000 0.500000 0.000000
O O14 0.000000 0.796789 0.500000
#
# Coordination Sequence:
#
# PCOD8066020 Si02
#       5
#     4   4   4   2   4
#     4  10  21  36  55  80 112 150 192 240 296 356
#     4  12  25  42  65  96 127 157 203 256 300 350
#     4  10  22  39  59  86 120 157 196 239 297 361
#     4  12  26  46  70  92 124 170 206 242 302 362
#     4  10  21  37  58  84 115 152 197 245 290 350
#
# _framework density 21.575191
#
# number of rings (size 3 to 8) (size 9 to 14) (size 15 to 20)
#    0.000    1.333    0.000    5.333    0.000    8.444 
#    0.000    0.000    0.000    8.000    0.000    0.000 
#    0.000    0.000    0.000    0.000    0.000    0.000 
#
# Total GULP energy -223176.369560 kJ/mol
# GULP energy per Si atom -12398.687198 kJ/mol
# Density = 2.152608 g / cm^3
# Si number density = 21.575191 Si / 1000 Ang^3
#
#
#
# Elastic Constant Matrix: (Units=GPa)
#
#
# Indices 1 2 3 4 5 6 
#
# 1 54.0621 48.6079 52.5063 0.0000 27.6573 0.0000
# 2 48.6079 166.4775 46.6295 0.0000 14.1197 0.0000
# 3 52.5063 46.6295 163.1323 0.0000 23.5580 0.0000
# 4 0.0000 0.0000 0.0000 33.4875 0.0000 2.9234
# 5 27.6573 14.1197 23.5580 0.0000 34.1797 0.0000
# 6 0.0000 0.0000 0.0000 2.9234 0.0000 37.4702
#
#
#
# Elastic Compliance Matrix: (Units=1/GPa)
#
#
# Indices 1 2 3 4 5 6 
#
# 1 0.053775 -0.010225 -0.009675 0.000000 -0.032622 0.000000
# 2 -0.010225 0.008550 0.000180 0.000000 0.004617 0.000000
# 3 -0.009675 0.000180 0.008965 0.000000 0.001575 0.000000
# 4 0.000000 0.000000 0.000000 0.030067 0.000000 -0.002346
# 5 -0.032622 0.004617 0.001575 0.000000 0.052661 0.000000
# 6 0.000000 0.000000 0.000000 -0.002346 0.000000 0.026871
#
#
# Mechanical properties :
#
#
# Convention : Reuss Voigt Hill
#
# Bulk Modulus (GPa) = 31.39518 75.46214 53.42866
# Shear Modulus (GPa) = 21.65020 36.75601 29.20311
#
# Velocity S-wave (km/s) = 3.17121 4.13198 3.68305
# Velocity P-wave (km/s) = 5.29073 7.60372 6.55013
#
# Compressibility (1/GPa) = 0.03185202
#
# Stress axis : x y z
#
# Youngs Moduli (GPa) = 18.59584 116.95758 111.54490
#
# Poissons Ratio (x) = 1.19585 1.07918
# Poissons Ratio (y) = 0.19014 -0.02010
# Poissons Ratio (z) = 0.17991 -0.02108
#
# Static dielectric constant tensor:
#      x y z
#    x 3.846960 0.000000 0.305110 
#    y 0.000000 4.150580 0.000000 
#    z 0.305110 0.000000 4.377930 
# 
# 
# High freq. dielectric constant tensor:
#      x y z
#    x 1.843600 0.000000 0.022250 
#    y 0.000000 1.858720 0.000000 
#    z 0.022250 0.000000 1.864020 
# 
# From -- ./inp_files/20028.got.cif
#   From: 2010.06.25/outbox.cif.g09.slc.cpg/sg10_11_cif.got.tgz:20028.got - 2010.06.27 22:07:45.
