data_PCOD8066061
_publ_section_title
;
Structure prediction by ZEFSAII (Michael W. Deem and Ramdas Pophale) SiO2 
 PCOD8066061
Probable space group: P 2/M
;
_chemical_formula_sum "Si O2"
_cell_formula_units_Z 32
_cell_length_a 12.162568
_cell_length_b 8.840828
_cell_length_c 15.171193
_cell_angle_alpha 90.000000
_cell_angle_beta 86.857743
_cell_angle_gamma 90.000000
_cell_volume 1628.862816
_symmetry_space_group_name_H-M "P 2/M"
_symmetry_group_IT_number 10
_symmetry_cell_setting 'monoclinic'
loop_
_space_group_symop_operation_xyz
x,y,z
-x,y,-z
-x,-y,-z
x,-y,z
loop_
_atom_site_type_symbol
_atom_site_label
_atom_site_fract_x
_atom_site_fract_y
_atom_site_fract_z
Si Si1 0.913643 0.324072 0.260145
Si Si2 0.535188 0.177554 0.669102
Si Si3 0.671388 0.179804 0.024340
Si Si4 0.092470 0.821789 0.925065
Si Si5 0.946504 0.821216 0.592844
Si Si6 0.273642 0.674776 0.440817
Si Si7 0.459879 0.179493 0.134479
Si Si8 0.311211 0.327379 0.639930
O O1 0.942013 0.500000 0.263122
O O2 0.940851 0.260340 0.163079
O O3 0.785691 0.293674 0.286838
O O4 0.989436 0.240429 0.326559
O O5 0.607952 0.267734 0.596242
O O6 0.565389 0.236494 0.765981
O O7 0.408029 0.211119 0.655921
O O8 0.556239 0.000000 0.657339
O O9 0.790999 0.243991 0.044669
O O10 0.579469 0.240175 0.097203
O O11 0.675745 0.000000 0.024891
O O12 0.636155 0.235782 0.927692
O O13 0.099197 0.000000 0.906840
O O14 0.000000 0.781280 0.000000
O O15 0.820734 0.767395 0.604846
O O16 0.000000 0.758450 0.500000
O O17 0.950306 0.000000 0.595488
O O18 0.260242 0.500000 0.417579
O O19 0.263609 0.703671 0.545129
O O20 0.465837 0.000000 0.132977
O O21 0.354039 0.500000 0.645622
#
# Coordination Sequence:
#
# PCOD8066061 Si02
#       8
#     4   4   4   4   4   4   4   4
#     4  11  23  40  63  88 117 159 203 244 298 365
#     4  11  22  34  54  87 121 150 192 247 298 348
#     4   8  14  29  52  75 104 143 185 228 284 342
#     4  10  21  36  56  85 118 152 192 244 302 354
#     4  11  23  40  64  91 117 146 193 254 303 350
#     4  11  23  40  59  80 115 159 198 237 291 362
#     4   8  15  28  49  77 106 140 182 232 284 338
#     4  10  22  39  58  80 112 156 200 240 292 359
#
# _framework density 19.645606999999998
#
# number of rings (size 3 to 8) (size 9 to 14) (size 15 to 20)
#    0.000    2.000    1.250    3.375    0.000    6.250 
#    0.000    2.500    0.000    1.500    0.000    6.125 
#    0.000    0.000    0.000    0.000    0.000    0.000 
#
# Total GULP energy -396871.266073 kJ/mol
# GULP energy per Si atom -12402.227065 kJ/mol
# Density = 1.960089 g / cm^3
# Si number density = 19.645607 Si / 1000 Ang^3
#
#
#
# Elastic Constant Matrix: (Units=GPa)
#
#
# Indices 1 2 3 4 5 6 
#
# 1 87.2594 31.8424 43.9721 0.0000 11.3945 0.0000
# 2 31.8424 57.1699 46.6649 0.0000 1.4587 0.0000
# 3 43.9721 46.6649 98.3359 0.0000 1.3599 0.0000
# 4 0.0000 0.0000 0.0000 18.7592 0.0000 3.1830
# 5 11.3945 1.4587 1.3599 0.0000 32.3835 0.0000
# 6 0.0000 0.0000 0.0000 3.1830 0.0000 26.9998
#
#
#
# Elastic Compliance Matrix: (Units=1/GPa)
#
#
# Indices 1 2 3 4 5 6 
#
# 1 0.016467 -0.005036 -0.004900 0.000000 -0.005361 0.000000
# 2 -0.005036 0.030107 -0.012048 0.000000 0.000922 0.000000
# 3 -0.004900 -0.012048 0.018057 0.000000 0.001508 0.000000
# 4 0.000000 0.000000 0.000000 0.054395 0.000000 -0.006413
# 5 -0.005361 0.000922 0.001508 0.000000 0.032662 0.000000
# 6 0.000000 0.000000 0.000000 -0.006413 0.000000 0.037793
#
#
# Mechanical properties :
#
#
# Convention : Reuss Voigt Hill
#
# Bulk Modulus (GPa) = 48.39354 54.19156 51.29255
# Shear Modulus (GPa) = 20.80420 23.64755 22.22588
#
# Velocity S-wave (km/s) = 3.25772 3.47321 3.36719
# Velocity P-wave (km/s) = 6.23194 6.61277 6.42518
#
# Compressibility (1/GPa) = 0.02066392
#
# Stress axis : x y z
#
# Youngs Moduli (GPa) = 60.72845 33.21445 55.38086
#
# Poissons Ratio (x) = 0.16725 0.27134
# Poissons Ratio (y) = 0.30580 0.66725
# Poissons Ratio (z) = 0.29754 0.40018
#
# Static dielectric constant tensor:
#      x y z
#    x 3.628380 0.000000 0.025350 
#    y 0.000000 3.292700 0.000000 
#    z 0.025350 0.000000 3.788030 
# 
# 
# High freq. dielectric constant tensor:
#      x y z
#    x 1.769860 0.000000 0.004410 
#    y 0.000000 1.740990 0.000000 
#    z 0.004410 0.000000 1.774160 
# 
# From -- ./inp_files/63839.got.cif
#   From: 2010.06.25/outbox.cif.g09.slc.cpg/sg10_32_cif.got.tgz:63839.got - 2010.06.27 22:07:45.
