data_PCOD8066114
_publ_section_title
;
Structure prediction by ZEFSAII (Michael W. Deem and Ramdas Pophale) SiO2 
 PCOD8066114
Probable space group: P 2/M
;
_chemical_formula_sum "Si O2"
_cell_formula_units_Z 32
_cell_length_a 9.709745
_cell_length_b 18.270820
_cell_length_c 14.717630
_cell_angle_alpha 90.000000
_cell_angle_beta 41.173286
_cell_angle_gamma 90.000000
_cell_volume 1718.909646
_symmetry_space_group_name_H-M "P 2/M"
_symmetry_group_IT_number 10
_symmetry_cell_setting 'monoclinic'
loop_
_space_group_symop_operation_xyz
x,y,z
-x,y,-z
-x,-y,-z
x,-y,z
loop_
_atom_site_type_symbol
_atom_site_label
_atom_site_fract_x
_atom_site_fract_y
_atom_site_fract_z
Si Si1 0.995826 0.919042 0.396028
Si Si2 0.237638 0.150972 0.884460
Si Si3 0.777714 0.320065 0.109963
Si Si4 0.569441 0.156167 0.865588
Si Si5 0.545903 0.670969 0.873619
Si Si6 0.759119 0.580285 0.627237
Si Si7 0.465743 0.330689 0.414385
Si Si8 0.432827 0.161676 0.434648
O O1 0.783023 0.877623 0.479105
O O2 0.000000 0.927894 0.500000
O O3 0.200645 0.875669 0.263088
O O4 0.995448 0.000000 0.350996
O O5 0.199774 0.235179 0.925173
O O6 0.390928 0.121169 0.888438
O O7 0.371099 0.138692 0.726421
O O8 0.000000 0.114646 0.000000
O O9 0.645495 0.355699 0.094759
O O10 0.689502 0.331887 0.254343
O O11 0.000000 0.359728 0.000000
O O12 0.590825 0.243177 0.841238
O O13 0.500000 0.135105 0.000000
O O14 0.733773 0.626379 0.733720
O O15 0.500000 0.647897 0.000000
O O16 0.649278 0.500000 0.688290
O O17 0.687380 0.620431 0.570255
O O18 0.000000 0.567389 0.500000
O O19 0.500000 0.360462 0.500000
O O20 0.380676 0.247800 0.456562
O O21 0.500000 0.136092 0.500000
#
# Coordination Sequence:
#
# PCOD8066114 Si02
#       8
#     4   4   4   4   4   4   4   4
#     4  11  24  40  60  83 117 159 190 236 292 347
#     4   9  17  32  52  78 114 142 176 236 285 329
#     4   8  15  29  48  73 107 134 169 222 277 326
#     4  10  21  36  59  88 111 146 196 238 288 340
#     4   9  19  34  54  83 107 143 186 232 278 323
#     4  10  22  36  53  80 115 153 184 224 285 341
#     4   9  19  34  54  83 107 143 186 232 278 323
#     4  10  21  36  59  88 111 146 196 238 288 340
#
# _framework density 18.616453
#
# number of rings (size 3 to 8) (size 9 to 14) (size 15 to 20)
#    0.000    2.500    1.250    0.750    3.500    2.000 
#    4.500    0.000    0.000    6.750    0.000    0.000 
#    0.000    0.000    0.000    0.000    0.000    0.000 
#
# Total GULP energy -396449.857891 kJ/mol
# GULP energy per Si atom -12389.058059 kJ/mol
# Density = 1.857408 g / cm^3
# Si number density = 18.616453 Si / 1000 Ang^3
#
#
#
# Elastic Constant Matrix: (Units=GPa)
#
#
# Indices 1 2 3 4 5 6 
#
# 1 108.7651 39.7841 67.4777 0.0000 11.1663 0.0000
# 2 39.7841 64.7312 42.9275 0.0000 -0.8951 0.0000
# 3 67.4777 42.9275 126.2579 0.0000 -2.7034 0.0000
# 4 0.0000 0.0000 0.0000 14.0283 0.0000 -2.4675
# 5 11.1663 -0.8951 -2.7034 0.0000 45.6280 0.0000
# 6 0.0000 0.0000 0.0000 -2.4675 0.0000 14.8410
#
#
#
# Elastic Compliance Matrix: (Units=1/GPa)
#
#
# Indices 1 2 3 4 5 6 
#
# 1 0.015733 -0.005283 -0.006706 0.000000 -0.004351 0.000000
# 2 -0.005283 0.021720 -0.004530 0.000000 0.001451 0.000000
# 3 -0.006706 -0.004530 0.013094 0.000000 0.002328 0.000000
# 4 0.000000 0.000000 0.000000 0.073432 0.000000 0.012209
# 5 -0.004351 0.001451 0.002328 0.000000 0.023148 0.000000
# 6 0.000000 0.000000 0.000000 0.012209 0.000000 0.069411
#
#
# Mechanical properties :
#
#
# Convention : Reuss Voigt Hill
#
# Bulk Modulus (GPa) = 57.11095 66.68143 61.89619
# Shear Modulus (GPa) = 19.57619 24.87043 22.22331
#
# Velocity S-wave (km/s) = 3.24628 3.65901 3.45881
# Velocity P-wave (km/s) = 6.69294 7.33127 7.01936
#
# Compressibility (1/GPa) = 0.01750978
#
# Stress axis : x y z
#
# Youngs Moduli (GPa) = 63.55895 46.04096 76.37029
#
# Poissons Ratio (x) = 0.24324 0.51210
# Poissons Ratio (y) = 0.33579 0.34596
# Poissons Ratio (z) = 0.42620 0.20857
#
# Static dielectric constant tensor:
#      x y z
#    x 3.644130 0.000000 0.030020 
#    y 0.000000 3.271480 0.000000 
#    z 0.030020 0.000000 3.720530 
# 
# 
# High freq. dielectric constant tensor:
#      x y z
#    x 1.728330 0.000000 0.000050 
#    y 0.000000 1.692240 0.000000 
#    z 0.000050 0.000000 1.730750 
# 
# From -- ./inp_files/62484.got.cif
#   From: 2010.06.25/outbox.cif.g09.slc.cpg/sg10_32_cif.got.tgz:62484.got - 2010.06.27 22:07:45.
