data_PCOD8066573
_publ_section_title
;
Structure prediction by ZEFSAII (Michael W. Deem and Ramdas Pophale) SiO2 
 PCOD8066573
Probable space group: P 2/M
;
_chemical_formula_sum "Si O2"
_cell_formula_units_Z 28
_cell_length_a 9.251176
_cell_length_b 8.499752
_cell_length_c 26.947494
_cell_angle_alpha 90.000000
_cell_angle_beta 141.241945
_cell_angle_gamma 90.000000
_cell_volume 1326.535518
_symmetry_space_group_name_H-M "P 2/M"
_symmetry_group_IT_number 10
_symmetry_cell_setting 'monoclinic'
loop_
_space_group_symop_operation_xyz
x,y,z
-x,y,-z
-x,-y,-z
x,-y,z
loop_
_atom_site_type_symbol
_atom_site_label
_atom_site_fract_x
_atom_site_fract_y
_atom_site_fract_z
Si Si1 0.771470 0.679400 0.461760
Si Si2 0.560139 0.183054 0.871133
Si Si3 0.943752 0.684957 0.262620
Si Si4 0.208635 0.683348 0.164353
Si Si5 0.709654 0.185626 0.020628
Si Si6 0.319575 0.183094 0.294788
Si Si7 0.747665 0.321685 0.567398
O O1 0.729746 0.500000 0.432786
O O2 0.546660 0.778308 0.387613
O O3 0.844567 0.684729 0.538506
O O4 0.000000 0.756011 0.500000
O O5 0.691678 0.273361 0.862737
O O6 0.291265 0.219873 0.801807
O O7 0.599123 0.000000 0.872069
O O8 0.664870 0.234816 0.951885
O O9 0.889073 0.500000 0.251367
O O10 0.099552 0.720891 0.256386
O O11 0.075344 0.754290 0.346377
O O12 0.240800 0.500000 0.180956
O O13 0.354956 0.770334 0.246681
O O14 0.941621 0.728398 0.099400
O O15 0.745620 0.000000 0.035875
O O16 0.500000 0.242196 0.000000
O O17 0.266412 0.000000 0.285345
O O18 0.500000 0.233479 0.500000
O O19 0.707224 0.500000 0.576120
#
# Coordination Sequence:
#
# PCOD8066573 Si02
#       7
#     4   4   4   4   4   4   4
#     4  10  21  38  62  89 122 163 210 261 318 380
#     4  11  24  42  65  97 135 171 205 253 316 376
#     4  11  22  39  65  94 126 167 217 264 311 374
#     4  12  26  43  66  94 127 167 215 266 314 369
#     4  10  22  43  70  97 130 169 205 248 314 382
#     4  12  25  42  62  89 127 168 213 266 325 381
#     4   9  17  34  59  88 120 159 205 257 312 367
#
# _framework density 21.107614000000002
#
# number of rings (size 3 to 8) (size 9 to 14) (size 15 to 20)
#    0.000    1.286    1.429    4.714    2.000    4.571 
#    0.000    2.143    0.000    0.000    0.000    0.000 
#    0.000    0.000    0.000    0.000    0.000    0.000 
#
# Total GULP energy -347241.802173 kJ/mol
# GULP energy per Si atom -12401.492935 kJ/mol
# Density = 2.105957 g / cm^3
# Si number density = 21.107614 Si / 1000 Ang^3
#
#
#
# Elastic Constant Matrix: (Units=GPa)
#
#
# Indices 1 2 3 4 5 6 
#
# 1 109.7371 14.0246 18.1228 0.0000 0.7098 0.0000
# 2 14.0246 56.2344 26.6341 0.0000 -6.0230 0.0000
# 3 18.1228 26.6341 90.5642 0.0000 -8.9700 0.0000
# 4 0.0000 0.0000 0.0000 22.6026 0.0000 10.1047
# 5 0.7098 -6.0230 -8.9700 0.0000 42.1626 0.0000
# 6 0.0000 0.0000 0.0000 10.1047 0.0000 24.6829
#
#
#
# Elastic Compliance Matrix: (Units=1/GPa)
#
#
# Indices 1 2 3 4 5 6 
#
# 1 0.009587 -0.001773 -0.001469 0.000000 -0.000727 0.000000
# 2 -0.001773 0.021108 -0.005671 0.000000 0.001839 0.000000
# 3 -0.001469 -0.005671 0.013204 0.000000 0.002024 0.000000
# 4 0.000000 0.000000 0.000000 0.054154 0.000000 -0.022169
# 5 -0.000727 0.001839 0.002024 0.000000 0.024423 0.000000
# 6 0.000000 0.000000 0.000000 -0.022169 0.000000 0.049590
#
#
# Mechanical properties :
#
#
# Convention : Reuss Voigt Hill
#
# Bulk Modulus (GPa) = 38.35394 41.56652 39.96023
# Shear Modulus (GPa) = 25.17865 31.07323 28.12594
#
# Velocity S-wave (km/s) = 3.45754 3.84100 3.65431
# Velocity P-wave (km/s) = 5.84376 6.27746 6.06449
#
# Compressibility (1/GPa) = 0.02607294
#
# Stress axis : x y z
#
# Youngs Moduli (GPa) = 104.31248 47.37632 75.73471
#
# Poissons Ratio (x) = 0.08400 0.11125
# Poissons Ratio (y) = 0.18494 0.42947
# Poissons Ratio (z) = 0.15323 0.26865
#
# Static dielectric constant tensor:
#      x y z
#    x 3.938540 0.000000 -0.109870 
#    y 0.000000 3.580780 0.000000 
#    z -0.109870 0.000000 3.988790 
# 
# 
# High freq. dielectric constant tensor:
#      x y z
#    x 1.839820 0.000000 -0.005400 
#    y 0.000000 1.806000 0.000000 
#    z -0.005400 0.000000 1.840960 
# 
# From -- ./inp_files/92089.got.cif
#   From: 2010.06.25/outbox.cif.g09.slc.cpg/sg10_47_cif.got.tgz:92089.got - 2010.06.27 22:07:45.
