data_PCOD8066494
_publ_section_title
;
Structure prediction by ZEFSAII (Michael W. Deem and Ramdas Pophale) SiO2 
 PCOD8066494
Probable space group: P 2/M
;
_chemical_formula_sum "Si O2"
_cell_formula_units_Z 28
_cell_length_a 7.800802
_cell_length_b 17.597071
_cell_length_c 8.832373
_cell_angle_alpha 90.000000
_cell_angle_beta 91.028130
_cell_angle_gamma 90.000000
_cell_volume 1212.235835
_symmetry_space_group_name_H-M "P 2/M"
_symmetry_group_IT_number 10
_symmetry_cell_setting 'monoclinic'
loop_
_space_group_symop_operation_xyz
x,y,z
-x,y,-z
-x,-y,-z
x,-y,z
loop_
_atom_site_type_symbol
_atom_site_label
_atom_site_fract_x
_atom_site_fract_y
_atom_site_fract_z
Si Si1 0.073262 0.084721 0.657564
Si Si2 0.058825 0.350173 0.838336
Si Si3 0.563403 0.193165 0.670087
Si Si4 0.277705 0.654012 0.353414
Si Si5 0.758396 0.086129 0.866909
Si Si6 0.749177 0.803718 0.152970
Si Si7 0.636528 0.587815 0.327025
O O1 0.226803 0.138867 0.705496
O O2 0.000000 0.117627 0.500000
O O3 0.947733 0.086427 0.800579
O O4 0.141654 0.000000 0.629224
O O5 0.105111 0.260577 0.850006
O O6 0.229977 0.397837 0.805560
O O7 0.905033 0.370221 0.719302
O O8 0.000000 0.379179 0.000000
O O9 0.500000 0.180556 0.500000
O O10 0.714911 0.255309 0.668857
O O11 0.630733 0.112035 0.731465
O O12 0.432121 0.229761 0.793349
O O13 0.443498 0.613467 0.278700
O O14 0.287637 0.635764 0.531418
O O15 0.711992 0.000000 0.920296
O O16 0.741342 0.147912 0.999200
O O17 0.631584 0.500000 0.372234
#
# Coordination Sequence:
#
# PCOD8066494 Si02
#       7
#     4   4   4   4   4   4   4
#     4  10  21  38  60  87 121 164 222 286 342 397
#     4  12  26  42  69 105 144 186 230 284 347 417
#     4  12  23  40  66  95 134 176 233 298 351 404
#     4  11  22  46  73 102 140 181 234 288 345 413
#     4  11  25  42  63  94 134 186 235 284 350 417
#     4  12  23  41  63  93 133 180 234 280 341 419
#     4  11  25  48  76 107 138 181 232 283 350 423
#
# _framework density 23.097814
#
# number of rings (size 3 to 8) (size 9 to 14) (size 15 to 20)
#    0.000    0.714    2.857    6.000    0.000    6.857 
#    0.000    0.714    0.000    0.000    0.000    0.000 
#    0.000    0.000    0.000    0.000    0.000    0.000 
#
# Total GULP energy -347107.364551 kJ/mol
# GULP energy per Si atom -12396.691591 kJ/mol
# Density = 2.304524 g / cm^3
# Si number density = 23.097814 Si / 1000 Ang^3
#
#
#
# Elastic Constant Matrix: (Units=GPa)
#
#
# Indices 1 2 3 4 5 6 
#
# 1 92.2478 27.2313 13.3054 0.0000 -10.1961 0.0000
# 2 27.2313 93.8553 32.4404 0.0000 1.0192 0.0000
# 3 13.3054 32.4404 84.1381 0.0000 -14.3020 0.0000
# 4 0.0000 0.0000 0.0000 13.1136 0.0000 -3.7900
# 5 -10.1961 1.0192 -14.3020 0.0000 40.0676 0.0000
# 6 0.0000 0.0000 0.0000 -3.7900 0.0000 21.1529
#
#
#
# Elastic Compliance Matrix: (Units=1/GPa)
#
#
# Indices 1 2 3 4 5 6 
#
# 1 0.012255 -0.003587 -0.000010 0.000000 0.003206 0.000000
# 2 -0.003587 0.013517 -0.005172 0.000000 -0.003103 0.000000
# 3 -0.000010 -0.005172 0.014801 0.000000 0.005412 0.000000
# 4 0.000000 0.000000 0.000000 0.080421 0.000000 0.014409
# 5 0.003206 -0.003103 0.005412 0.000000 0.027785 0.000000
# 6 0.000000 0.000000 0.000000 0.014409 0.000000 0.049857
#
#
# Mechanical properties :
#
#
# Convention : Reuss Voigt Hill
#
# Bulk Modulus (GPa) = 43.41189 46.24394 44.82791
# Shear Modulus (GPa) = 22.33633 28.01775 25.17704
#
# Velocity S-wave (km/s) = 3.11309 3.48660 3.30512
# Velocity P-wave (km/s) = 5.63537 6.02270 5.83225
#
# Compressibility (1/GPa) = 0.02303516
#
# Stress axis : x y z
#
# Youngs Moduli (GPa) = 81.59871 73.98258 67.56420
#
# Poissons Ratio (x) = 0.26538 0.00067
# Poissons Ratio (y) = 0.29270 0.34942
# Poissons Ratio (z) = 0.00081 0.38261
#
# Static dielectric constant tensor:
#      x y z
#    x 4.229550 0.000000 -0.124690 
#    y 0.000000 4.116520 0.000000 
#    z -0.124690 0.000000 4.058480 
# 
# 
# High freq. dielectric constant tensor:
#      x y z
#    x 1.914590 0.000000 -0.011030 
#    y 0.000000 1.907250 0.000000 
#    z -0.011030 0.000000 1.915250 
# 
# From -- ./inp_files/19660.got.cif
#   From: 2010.06.25/outbox.cif.g09.slc.cpg/sg10_10_cif.got.tgz:19660.got - 2010.06.27 22:07:45.
