data_PCOD8066018
_publ_section_title
;
Structure prediction by ZEFSAII (Michael W. Deem and Ramdas Pophale) SiO2 
 PCOD8066018
Probable space group: P 2/M
;
_chemical_formula_sum "Si O2"
_cell_formula_units_Z 28
_cell_length_a 29.131558
_cell_length_b 9.006725
_cell_length_c 9.317132
_cell_angle_alpha 90.000000
_cell_angle_beta 37.284490
_cell_angle_gamma 90.000000
_cell_volume 1480.890020
_symmetry_space_group_name_H-M "P 2/M"
_symmetry_group_IT_number 10
_symmetry_cell_setting 'monoclinic'
loop_
_space_group_symop_operation_xyz
x,y,z
-x,y,-z
-x,-y,-z
x,-y,z
loop_
_atom_site_type_symbol
_atom_site_label
_atom_site_fract_x
_atom_site_fract_y
_atom_site_fract_z
Si Si1 0.135882 0.675252 0.002567
Si Si2 0.300141 0.829185 0.912021
Si Si3 0.871208 0.171415 0.686663
Si Si4 0.424337 0.673455 0.103631
Si Si5 0.009575 0.170952 0.142002
Si Si6 0.571747 0.674837 0.235432
Si Si7 0.706146 0.174347 0.399455
O O1 0.144816 0.500000 0.982821
O O2 0.215293 0.746478 0.759325
O O3 0.108075 0.730727 0.227032
O O4 0.074171 0.721809 0.039560
O O5 0.350191 0.733189 0.894176
O O6 0.319221 0.788001 0.699829
O O7 0.317933 0.000000 0.898814
O O8 0.212601 0.790616 0.162648
O O9 0.929895 0.207901 0.415532
O O10 0.874328 0.000000 0.728254
O O11 0.405010 0.500000 0.166931
O O12 0.356152 0.768184 0.336143
O O13 0.500000 0.715352 0.000000
O O14 0.435719 0.722127 0.911126
O O15 0.032772 0.000000 0.110978
O O16 0.000000 0.206837 0.000000
O O17 0.500000 0.742342 0.500000
O O18 0.572770 0.500000 0.250016
O O19 0.718160 0.000000 0.389865
#
# Coordination Sequence:
#
# PCOD8066018 Si02
#       7
#     4   4   4   4   4   4   4
#     4  11  22  36  57  84 112 143 183 229 277 327
#     4   9  19  35  55  80 107 139 182 229 272 317
#     4   9  19  37  58  80 109 145 185 225 269 327
#     4  10  21  37  57  82 113 147 183 225 274 326
#     4  10  21  37  57  81 112 150 187 225 273 326
#     4  10  21  36  55  80 110 146 183 219 267 325
#     4  10  21  38  59  82 109 143 185 227 272 328
#
# _framework density 18.907548999999999
#
# number of rings (size 3 to 8) (size 9 to 14) (size 15 to 20)
#    0.000    2.143    0.000    3.857    0.000    8.857 
#    0.000    1.429    0.000    0.000    0.000    0.000 
#    0.000    0.000    0.000    0.000    0.000    0.000 
#
# Total GULP energy -347320.440787 kJ/mol
# GULP energy per Si atom -12404.301457 kJ/mol
# Density = 1.886451 g / cm^3
# Si number density = 18.907549 Si / 1000 Ang^3
#
#
#
# Elastic Constant Matrix: (Units=GPa)
#
#
# Indices 1 2 3 4 5 6 
#
# 1 144.2937 58.6765 82.9940 0.0000 0.1198 0.0000
# 2 58.6765 80.5382 67.1815 0.0000 2.0979 0.0000
# 3 82.9940 67.1815 149.4213 0.0000 6.0954 0.0000
# 4 0.0000 0.0000 0.0000 27.0577 0.0000 -3.3102
# 5 0.1198 2.0979 6.0954 0.0000 23.2760 0.0000
# 6 0.0000 0.0000 0.0000 -3.3102 0.0000 34.1410
#
#
#
# Elastic Compliance Matrix: (Units=1/GPa)
#
#
# Indices 1 2 3 4 5 6 
#
# 1 0.011269 -0.004764 -0.004177 0.000000 0.001465 0.000000
# 2 -0.004764 0.021889 -0.007193 0.000000 -0.000065 0.000000
# 3 -0.004177 -0.007193 0.012351 0.000000 -0.002565 0.000000
# 4 0.000000 0.000000 0.000000 0.037402 0.000000 0.003626
# 5 0.001465 -0.000065 -0.002565 0.000000 0.043633 0.000000
# 6 0.000000 0.000000 0.000000 0.003626 0.000000 0.029642
#
#
# Mechanical properties :
#
#
# Convention : Reuss Voigt Hill
#
# Bulk Modulus (GPa) = 75.52042 87.99526 81.75784
# Shear Modulus (GPa) = 25.92474 27.92168 26.92321
#
# Velocity S-wave (km/s) = 3.70690 3.84702 3.77761
# Velocity P-wave (km/s) = 7.63872 8.14699 7.89695
#
# Compressibility (1/GPa) = 0.01324145
#
# Stress axis : x y z
#
# Youngs Moduli (GPa) = 88.74075 45.68551 80.96427
#
# Poissons Ratio (x) = 0.21764 0.33819
# Poissons Ratio (y) = 0.42275 0.58236
# Poissons Ratio (z) = 0.37067 0.32861
#
# Static dielectric constant tensor:
#      x y z
#    x 3.424440 0.000000 -0.014340 
#    y 0.000000 3.358540 0.000000 
#    z -0.014340 0.000000 3.648190 
# 
# 
# High freq. dielectric constant tensor:
#      x y z
#    x 1.736690 0.000000 -0.004850 
#    y 0.000000 1.727680 0.000000 
#    z -0.004850 0.000000 1.744390 
# 
# From -- ./inp_files/37089.got.cif
#   From: 2010.06.25/outbox.cif.g09.slc.cpg/sg10_19_cif.got.tgz:37089.got - 2010.06.27 22:07:45.
