data_PCOD8066095
_publ_section_title
;
Structure prediction by ZEFSAII (Michael W. Deem and Ramdas Pophale) SiO2 
 PCOD8066095
Probable space group: P 2/M
;
_chemical_formula_sum "Si O2"
_cell_formula_units_Z 28
_cell_length_a 17.273255
_cell_length_b 8.883127
_cell_length_c 13.908803
_cell_angle_alpha 90.000000
_cell_angle_beta 44.111552
_cell_angle_gamma 90.000000
_cell_volume 1485.507926
_symmetry_space_group_name_H-M "P 2/M"
_symmetry_group_IT_number 10
_symmetry_cell_setting 'monoclinic'
loop_
_space_group_symop_operation_xyz
x,y,z
-x,y,-z
-x,-y,-z
x,-y,z
loop_
_atom_site_type_symbol
_atom_site_label
_atom_site_fract_x
_atom_site_fract_y
_atom_site_fract_z
Si Si1 0.731013 0.172947 0.413368
Si Si2 0.381947 0.325455 0.652845
Si Si3 0.216569 0.322803 0.338452
Si Si4 0.352774 0.824936 0.881350
Si Si5 0.596948 0.173725 0.718237
Si Si6 0.837363 0.677224 0.828668
Si Si7 0.930939 0.174639 0.370179
O O1 0.714510 0.279050 0.336015
O O2 0.640974 0.220637 0.573965
O O3 0.853989 0.200205 0.345530
O O4 0.713522 0.000000 0.398237
O O5 0.500000 0.289055 0.500000
O O6 0.369341 0.500000 0.691245
O O7 0.369311 0.224334 0.757587
O O8 0.206834 0.500000 0.358751
O O9 0.340755 0.271005 0.256405
O O10 0.195072 0.269865 0.249150
O O11 0.122666 0.249030 0.488148
O O12 0.465790 0.795433 0.840628
O O13 0.320704 0.000000 0.912377
O O14 0.256907 0.727224 0.013803
O O15 0.627295 0.000000 0.710048
O O16 0.851876 0.500000 0.821596
O O17 0.951688 0.752580 0.759262
O O18 0.945918 0.000000 0.379764
#
# Coordination Sequence:
#
# PCOD8066095 Si02
#       7
#     4   4   4   4   4   4   4
#     4   9  18  35  58  85 114 144 185 235 281 328
#     4  11  22  35  57  89 118 147 184 227 280 341
#     4  10  21  36  58  85 115 151 189 234 287 336
#     4  11  23  39  59  82 114 154 192 234 283 336
#     4   9  19  35  56  84 114 147 190 236 281 332
#     4  11  24  40  56  81 117 154 191 234 286 340
#     4  10  21  38  61  87 113 147 194 239 278 329
#
# _framework density 18.848770999999999
#
# number of rings (size 3 to 8) (size 9 to 14) (size 15 to 20)
#    0.000    1.857    1.429    3.429    0.000    9.143 
#    0.000    3.571    0.000    4.286    0.000    0.000 
#    0.000    0.000    0.000    0.000    0.000    0.000 
#
# Total GULP energy -347324.618266 kJ/mol
# GULP energy per Si atom -12404.450652 kJ/mol
# Density = 1.880587 g / cm^3
# Si number density = 18.848771 Si / 1000 Ang^3
#
#
#
# Elastic Constant Matrix: (Units=GPa)
#
#
# Indices 1 2 3 4 5 6 
#
# 1 95.1000 39.0983 35.9894 0.0000 -8.3106 0.0000
# 2 39.0983 62.4318 20.1192 0.0000 -5.1111 0.0000
# 3 35.9894 20.1192 73.2903 0.0000 -15.4739 0.0000
# 4 0.0000 0.0000 0.0000 23.2271 0.0000 0.9400
# 5 -8.3106 -5.1111 -15.4739 0.0000 19.5650 0.0000
# 6 0.0000 0.0000 0.0000 0.9400 0.0000 34.6836
#
#
#
# Elastic Compliance Matrix: (Units=1/GPa)
#
#
# Indices 1 2 3 4 5 6 
#
# 1 0.016020 -0.008221 -0.005554 0.000000 0.000265 0.000000
# 2 -0.008221 0.021805 -0.001781 0.000000 0.000796 0.000000
# 3 -0.005554 -0.001781 0.019525 0.000000 0.012618 0.000000
# 4 0.000000 0.000000 0.000000 0.043100 0.000000 -0.001168
# 5 0.000265 0.000796 0.012618 0.000000 0.061411 0.000000
# 6 0.000000 0.000000 0.000000 -0.001168 0.000000 0.028864
#
#
# Mechanical properties :
#
#
# Convention : Reuss Voigt Hill
#
# Bulk Modulus (GPa) = 38.11310 46.80399 42.45855
# Shear Modulus (GPa) = 21.68416 24.53616 23.11016
#
# Velocity S-wave (km/s) = 3.39548 3.61187 3.50535
# Velocity P-wave (km/s) = 5.96965 6.50226 6.24164
#
# Compressibility (1/GPa) = 0.02623770
#
# Stress axis : x y z
#
# Youngs Moduli (GPa) = 62.42120 45.86086 51.21766
#
# Poissons Ratio (x) = 0.37703 0.28447
# Poissons Ratio (y) = 0.51318 0.09121
# Poissons Ratio (z) = 0.34669 0.08167
#
# Static dielectric constant tensor:
#      x y z
#    x 3.578710 0.000000 -0.106530 
#    y 0.000000 3.472150 0.000000 
#    z -0.106530 0.000000 3.279370 
# 
# 
# High freq. dielectric constant tensor:
#      x y z
#    x 1.741250 0.000000 -0.006670 
#    y 0.000000 1.741230 0.000000 
#    z -0.006670 0.000000 1.715390 
# 
# From -- ./inp_files/68589.got.cif
#   From: 2010.06.25/outbox.cif.g09.slc.cpg/sg10_35_cif.got.tgz:68589.got - 2010.06.27 22:07:45.
