data_PCOD8066685
_publ_section_title
;
Structure prediction by ZEFSAII (Michael W. Deem and Ramdas Pophale) SiO2 
 PCOD8066685
Probable space group: P 2/M
;
_chemical_formula_sum "Si O2"
_cell_formula_units_Z 18
_cell_length_a 9.553415
_cell_length_b 7.393209
_cell_length_c 25.492723
_cell_angle_alpha 90.000000
_cell_angle_beta 30.707418
_cell_angle_gamma 90.000000
_cell_volume 919.464137
_symmetry_space_group_name_H-M "P 2/M"
_symmetry_group_IT_number 10
_symmetry_cell_setting 'monoclinic'
loop_
_space_group_symop_operation_xyz
x,y,z
-x,y,-z
-x,-y,-z
x,-y,z
loop_
_atom_site_type_symbol
_atom_site_label
_atom_site_fract_x
_atom_site_fract_y
_atom_site_fract_z
Si Si1 0.212864 0.000000 0.121278
Si Si2 0.255640 0.710014 0.452969
Si Si3 0.757175 0.000000 0.454813
Si Si4 0.722499 0.289885 0.119391
Si Si5 0.802465 0.709775 0.213574
Si Si6 0.311637 0.000000 0.211993
O O1 0.052119 0.180105 0.157147
O O2 0.254359 0.000000 0.169396
O O3 0.500000 0.000000 0.000000
O O4 0.236760 0.500000 0.474067
O O5 0.252124 0.819740 0.507646
O O6 0.528517 0.756842 0.333249
O O7 0.000000 0.770083 0.500000
O O8 0.500000 0.000000 0.500000
O O9 0.028363 0.000000 0.333454
O O10 0.647445 0.500000 0.138080
O O11 0.756377 0.231675 0.168599
O O12 0.475772 0.180322 0.173505
O O13 0.000000 0.240388 0.000000
O O14 0.880979 0.500000 0.192424
#
# Coordination Sequence:
#
# PCOD8066685 Si02
#       6
#     2   4   2   4   4   2
#     4  12  25  40  59  84 119 158 193 232 282 344
#     4  10  21  39  63  88 114 149 194 240 286 339
#     4  12  25  39  56  84 122 157 191 234 286 340
#     4  10  21  39  63  89 116 147 189 242 293 340
#     4  10  21  39  62  86 115 152 194 238 284 340
#     4  12  24  37  59  88 119 153 190 236 286 342
#
# _framework density 19.576619999999998
#
# number of rings (size 3 to 8) (size 9 to 14) (size 15 to 20)
#    0.000    1.333    0.000    6.000    0.000    4.444 
#    0.000    0.000    0.000    0.000    0.000    0.000 
#    0.000    0.000    0.000    0.000    0.000    0.000 
#
# Total GULP energy -223324.339297 kJ/mol
# GULP energy per Si atom -12406.907739 kJ/mol
# Density = 1.953206 g / cm^3
# Si number density = 19.576620 Si / 1000 Ang^3
#
#
#
# Elastic Constant Matrix: (Units=GPa)
#
#
# Indices 1 2 3 4 5 6 
#
# 1 200.1944 87.7749 106.7354 0.0000 3.3437 0.0000
# 2 87.7749 108.5691 70.8549 0.0000 -5.4221 0.0000
# 3 106.7354 70.8549 190.9821 0.0000 2.8463 0.0000
# 4 0.0000 0.0000 0.0000 37.7363 0.0000 1.1481
# 5 3.3437 -5.4221 2.8463 0.0000 42.6705 0.0000
# 6 0.0000 0.0000 0.0000 1.1481 0.0000 35.2752
#
#
#
# Elastic Compliance Matrix: (Units=1/GPa)
#
#
# Indices 1 2 3 4 5 6 
#
# 1 0.008960 -0.005339 -0.003009 0.000000 -0.001180 0.000000
# 2 -0.005339 0.015482 -0.002798 0.000000 0.002572 0.000000
# 3 -0.003009 -0.002798 0.007966 0.000000 -0.000651 0.000000
# 4 0.000000 0.000000 0.000000 0.026526 0.000000 -0.000863
# 5 -0.001180 0.002572 -0.000651 0.000000 0.023898 0.000000
# 6 0.000000 0.000000 0.000000 -0.000863 0.000000 0.028377
#
#
# Mechanical properties :
#
#
# Convention : Reuss Voigt Hill
#
# Bulk Modulus (GPa) = 98.86646 114.49736 106.68191
# Shear Modulus (GPa) = 36.53017 38.76175 37.64596
#
# Velocity S-wave (km/s) = 4.32442 4.45455 4.38997
# Velocity P-wave (km/s) = 8.69173 9.22340 8.96151
#
# Compressibility (1/GPa) = 0.01011465
#
# Stress axis : x y z
#
# Youngs Moduli (GPa) = 111.60549 64.59168 125.53724
#
# Poissons Ratio (x) = 0.34486 0.37777
# Poissons Ratio (y) = 0.59586 0.35129
# Poissons Ratio (z) = 0.33585 0.18075
#
# Static dielectric constant tensor:
#      x y z
#    x 3.596670 0.000000 0.071620 
#    y 0.000000 3.668660 0.000000 
#    z 0.071620 0.000000 3.777480 
# 
# 
# High freq. dielectric constant tensor:
#      x y z
#    x 1.766800 0.000000 0.004590 
#    y 0.000000 1.778370 0.000000 
#    z 0.004590 0.000000 1.783760 
# 
# From -- ./inp_files/87673.got.cif
#   From: 2010.06.25/outbox.cif.g09.slc.cpg/sg10_44_cif.got.tgz:87673.got - 2010.06.27 22:07:45.
