data_PCOD8066614
_publ_section_title
;
Structure prediction by ZEFSAII (Michael W. Deem and Ramdas Pophale) SiO2 
 PCOD8066614
Probable space group: P 2/M
;
_chemical_formula_sum "Si O2"
_cell_formula_units_Z 24
_cell_length_a 10.083335
_cell_length_b 18.920346
_cell_length_c 9.685431
_cell_angle_alpha 90.000000
_cell_angle_beta 40.216748
_cell_angle_gamma 90.000000
_cell_volume 1193.081681
_symmetry_space_group_name_H-M "P 2/M"
_symmetry_group_IT_number 10
_symmetry_cell_setting 'monoclinic'
loop_
_space_group_symop_operation_xyz
x,y,z
-x,y,-z
-x,-y,-z
x,-y,z
loop_
_atom_site_type_symbol
_atom_site_label
_atom_site_fract_x
_atom_site_fract_y
_atom_site_fract_z
Si Si1 0.445822 0.190905 0.883289
Si Si2 0.642690 0.285476 0.514173
Si Si3 0.719470 0.421130 0.827385
Si Si4 0.136563 0.579296 0.597049
Si Si5 0.983017 0.178203 0.175775
Si Si6 0.637376 0.918289 0.524788
O O1 0.520178 0.264058 0.751086
O O2 0.552370 0.124750 0.722880
O O3 0.500000 0.193130 0.000000
O O4 0.202932 0.180972 0.071108
O O5 0.500000 0.265130 0.500000
O O6 0.706415 0.367806 0.452484
O O7 0.851503 0.241721 0.343355
O O8 0.677711 0.500000 0.917071
O O9 0.802972 0.424058 0.608566
O O10 0.898982 0.390989 0.786900
O O11 0.500000 0.379130 0.000000
O O12 0.152562 0.500000 0.649615
O O13 0.870332 0.104585 0.303822
O O14 0.000000 0.187167 0.000000
O O15 0.500000 0.901672 0.500000
O O16 0.634407 0.000000 0.567583
#
# Coordination Sequence:
#
# PCOD8066614 Si02
#       6
#     4   4   4   4   4   4
#     4  11  24  41  62  91 124 157 200 250 295 344
#     4  11  23  39  59  83 115 157 205 247 294 366
#     4   8  15  31  52  76 109 144 178 229 296 363
#     4   9  19  33  53  81 112 146 190 247 306 353
#     4  11  20  41  65  84 117 165 203 237 292 353
#     4  10  21  38  65  98 125 157 202 239 283 356
#
# _framework density 20.115974000000001
#
# number of rings (size 3 to 8) (size 9 to 14) (size 15 to 20)
#    0.000    2.000    3.333    2.000    0.000    9.000 
#    0.000    0.833    0.000    0.500    0.000    0.000 
#    0.000    0.000    0.000    0.000    0.000    0.000 
#
# Total GULP energy -297389.484314 kJ/mol
# GULP energy per Si atom -12391.228513 kJ/mol
# Density = 2.007019 g / cm^3
# Si number density = 20.115974 Si / 1000 Ang^3
#
#
#
# Elastic Constant Matrix: (Units=GPa)
#
#
# Indices 1 2 3 4 5 6 
#
# 1 130.3168 37.2792 64.3173 0.0000 -12.0747 0.0000
# 2 37.2792 101.5436 29.1253 0.0000 -9.1667 0.0000
# 3 64.3173 29.1253 103.7117 0.0000 -18.2535 0.0000
# 4 0.0000 0.0000 0.0000 35.2657 0.0000 21.6779
# 5 -12.0747 -9.1667 -18.2535 0.0000 46.0012 0.0000
# 6 0.0000 0.0000 0.0000 21.6779 0.0000 50.0547
#
#
#
# Elastic Compliance Matrix: (Units=1/GPa)
#
#
# Indices 1 2 3 4 5 6 
#
# 1 0.011564 -0.002381 -0.006507 0.000000 -0.000021 0.000000
# 2 -0.002381 0.011245 -0.001502 0.000000 0.001020 0.000000
# 3 -0.006507 -0.001502 0.014778 0.000000 0.003857 0.000000
# 4 0.000000 0.000000 0.000000 0.038644 0.000000 -0.016736
# 5 -0.000021 0.001020 0.003857 0.000000 0.023467 0.000000
# 6 0.000000 0.000000 0.000000 -0.016736 0.000000 0.027226
#
#
# Mechanical properties :
#
#
# Convention : Reuss Voigt Hill
#
# Bulk Modulus (GPa) = 59.49558 66.33509 62.91533
# Shear Modulus (GPa) = 32.61471 39.92098 36.26784
#
# Velocity S-wave (km/s) = 4.03095 4.45965 4.25071
# Velocity P-wave (km/s) = 7.16277 7.71789 7.44551
#
# Compressibility (1/GPa) = 0.01680797
#
# Stress axis : x y z
#
# Youngs Moduli (GPa) = 86.47458 88.92865 67.66953
#
# Poissons Ratio (x) = 0.21175 0.44029
# Poissons Ratio (y) = 0.20591 0.10162
# Poissons Ratio (z) = 0.56265 0.13355
#
# Static dielectric constant tensor:
#      x y z
#    x 3.327170 0.000000 -0.223910 
#    y 0.000000 3.700570 0.000000 
#    z -0.223910 0.000000 3.713590 
# 
# 
# High freq. dielectric constant tensor:
#      x y z
#    x 1.776910 0.000000 -0.025080 
#    y 0.000000 1.774830 0.000000 
#    z -0.025080 0.000000 1.789110 
# 
# From -- ./inp_files/20139.got.cif
#   From: 2010.06.25/outbox.cif.g09.slc.cpg/sg10_11_cif.got.tgz:20139.got - 2010.06.27 22:07:45.
