data_PCOD8066707
_publ_section_title
;
Structure prediction by ZEFSAII (Michael W. Deem and Ramdas Pophale) SiO2 
 PCOD8066707
Probable space group: P 2/M
;
_chemical_formula_sum "Si O2"
_cell_formula_units_Z 32
_cell_length_a 8.648803
_cell_length_b 21.987884
_cell_length_c 14.436140
_cell_angle_alpha 90.000000
_cell_angle_beta 31.546777
_cell_angle_gamma 90.000000
_cell_volume 1436.328224
_symmetry_space_group_name_H-M "P 2/M"
_symmetry_group_IT_number 10
_symmetry_cell_setting 'monoclinic'
loop_
_space_group_symop_operation_xyz
x,y,z
-x,y,-z
-x,-y,-z
x,-y,z
loop_
_atom_site_type_symbol
_atom_site_label
_atom_site_fract_x
_atom_site_fract_y
_atom_site_fract_z
Si Si1 0.675862 0.567165 0.686089
Si Si2 0.650181 0.157876 0.660354
Si Si3 0.287138 0.871509 0.029658
Si Si4 0.339031 0.929164 0.677392
Si Si5 0.371972 0.267500 0.467615
Si Si6 0.836865 0.357718 0.986908
Si Si7 0.824287 0.741849 0.854675
Si Si8 0.608740 0.402269 0.347693
O O1 0.695713 0.500000 0.723227
O O2 0.511020 0.556125 0.672955
O O3 0.000000 0.594242 0.500000
O O4 0.497022 0.616249 0.839444
O O5 0.479585 0.153070 0.845030
O O6 0.520973 0.103646 0.664962
O O7 0.581109 0.221761 0.643019
O O8 0.000000 0.149779 0.500000
O O9 0.500000 0.902512 0.000000
O O10 0.138036 0.813588 0.153924
O O11 0.013354 0.914424 0.141563
O O12 0.500000 0.911185 0.500000
O O13 0.368888 0.000000 0.682745
O O14 0.500000 0.240308 0.500000
O O15 0.513562 0.332395 0.373155
O O16 0.024670 0.277947 0.665173
O O17 0.890354 0.291066 0.917585
O O18 0.034657 0.405100 0.826235
O O19 0.000000 0.355066 0.000000
O O20 0.500000 0.718984 0.000000
O O21 0.500000 0.428089 0.500000
#
# Coordination Sequence:
#
# PCOD8066707 Si02
#       8
#     4   4   4   4   4   4   4   4
#     4  10  24  43  63  89 126 170 219 276 324 386
#     4  12  25  41  67  98 136 182 223 276 341 407
#     4  11  25  43  65  99 138 177 227 277 338 402
#     4  11  25  46  72  98 132 182 231 285 338 391
#     4  11  22  40  62  93 136 168 214 273 335 404
#     4  10  22  37  61  89 123 164 213 257 322 389
#     4  11  22  37  59  91 131 166 204 268 328 395
#     4  10  21  39  62  92 123 166 212 267 326 394
#
# _framework density 22.279031
#
# number of rings (size 3 to 8) (size 9 to 14) (size 15 to 20)
#    0.000    1.250    2.500    4.500    5.250    4.500 
#    0.000    0.000    0.000    1.875    0.000    0.000 
#    0.000    0.000    0.000    0.000    0.000    0.000 
#
# Total GULP energy -396511.186603 kJ/mol
# GULP energy per Si atom -12390.974581 kJ/mol
# Density = 2.222832 g / cm^3
# Si number density = 22.279031 Si / 1000 Ang^3
#
#
#
# Elastic Constant Matrix: (Units=GPa)
#
#
# Indices 1 2 3 4 5 6 
#
# 1 69.9872 14.3074 13.4950 0.0000 -5.2333 0.0000
# 2 14.3074 65.9111 15.8430 0.0000 -0.2143 0.0000
# 3 13.4950 15.8430 127.6701 0.0000 -6.9685 0.0000
# 4 0.0000 0.0000 0.0000 8.3078 0.0000 -7.0673
# 5 -5.2333 -0.2143 -6.9685 0.0000 46.2540 0.0000
# 6 0.0000 0.0000 0.0000 -7.0673 0.0000 16.0662
#
#
#
# Elastic Compliance Matrix: (Units=1/GPa)
#
#
# Indices 1 2 3 4 5 6 
#
# 1 0.015244 -0.003027 -0.001152 0.000000 0.001537 0.000000
# 2 -0.003027 0.016242 -0.001724 0.000000 -0.000527 0.000000
# 3 -0.001152 -0.001724 0.008229 0.000000 0.001101 0.000000
# 4 0.000000 0.000000 0.000000 0.192347 0.000000 0.084611
# 5 0.001537 -0.000527 0.001101 0.000000 0.021957 0.000000
# 6 0.000000 0.000000 0.000000 0.084611 0.000000 0.099462
#
#
# Mechanical properties :
#
#
# Convention : Reuss Voigt Hill
#
# Bulk Modulus (GPa) = 35.83205 38.98435 37.40820
# Shear Modulus (GPa) = 13.34791 28.78712 21.06752
#
# Velocity S-wave (km/s) = 2.45036 3.59850 3.07843
# Velocity P-wave (km/s) = 4.91161 5.89931 5.42797
#
# Compressibility (1/GPa) = 0.02790797
#
# Stress axis : x y z
#
# Youngs Moduli (GPa) = 65.59864 61.56941 121.52847
#
# Poissons Ratio (x) = 0.18638 0.13997
# Poissons Ratio (y) = 0.19858 0.20955
# Poissons Ratio (z) = 0.07556 0.10616
#
# Static dielectric constant tensor:
#      x y z
#    x 5.050850 0.000000 0.770850 
#    y 0.000000 3.691850 0.000000 
#    z 0.770850 0.000000 5.419370 
# 
# 
# High freq. dielectric constant tensor:
#      x y z
#    x 1.872070 0.000000 -0.006230 
#    y 0.000000 1.858340 0.000000 
#    z -0.006230 0.000000 1.904290 
# 
# From -- ./inp_files/62693.got.cif
#   From: 2010.06.25/outbox.cif.g09.slc.cpg/sg10_32_cif.got.tgz:62693.got - 2010.06.27 22:07:45.
