data_PCOD8066190
_publ_section_title
;
Structure prediction by ZEFSAII (Michael W. Deem and Ramdas Pophale) SiO2 
 PCOD8066190
Probable space group: P 2/M
;
_chemical_formula_sum "Si O2"
_cell_formula_units_Z 32
_cell_length_a 21.925694
_cell_length_b 14.087565
_cell_length_c 15.619818
_cell_angle_alpha 90.000000
_cell_angle_beta 160.546994
_cell_angle_gamma 90.000000
_cell_volume 1606.768441
_symmetry_space_group_name_H-M "P 2/M"
_symmetry_group_IT_number 10
_symmetry_cell_setting 'monoclinic'
loop_
_space_group_symop_operation_xyz
x,y,z
-x,y,-z
-x,-y,-z
x,-y,z
loop_
_atom_site_type_symbol
_atom_site_label
_atom_site_fract_x
_atom_site_fract_y
_atom_site_fract_z
Si Si1 0.122831 0.779488 0.922129
Si Si2 0.110874 0.392069 0.399727
Si Si3 0.790342 0.888591 0.408234
Si Si4 0.522733 0.779514 0.722900
Si Si5 0.679362 0.106801 0.679662
Si Si6 0.169678 0.387382 0.669977
Si Si7 0.465924 0.392096 0.754185
Si Si8 0.446728 0.111431 0.064997
O O1 0.044561 0.676146 0.845272
O O2 0.979664 0.835541 0.674064
O O3 0.307271 0.763226 0.114073
O O4 0.159678 0.838397 0.057441
O O5 0.035937 0.500000 0.302057
O O6 0.155622 0.352678 0.553755
O O7 0.293293 0.384927 0.586744
O O8 0.644370 0.859883 0.288216
O O9 0.827956 0.000000 0.460524
O O10 0.712268 0.858945 0.212016
O O11 0.362974 0.838467 0.464491
O O12 0.441291 0.676246 0.639866
O O13 0.588756 0.835722 0.893617
O O14 0.500000 0.102444 0.500000
O O15 0.745999 0.000000 0.746378
O O16 0.167037 0.500000 0.667364
O O17 0.000000 0.345948 0.500000
O O18 0.359652 0.352558 0.962325
O O19 0.495051 0.500000 0.760437
O O20 0.438696 0.000000 0.071697
#
# Coordination Sequence:
#
# PCOD8066190 Si02
#       8
#     4   4   4   4   4   4   4   4
#     4  11  22  36  59  86 113 148 194 244 293 343
#     4  10  21  37  56  80 115 157 195 234 286 345
#     4   9  19  36  56  80 114 152 186 227 285 350
#     4  11  22  36  59  86 113 148 194 244 293 343
#     4   9  20  40  62  85 114 148 189 241 296 347
#     4   9  17  31  53  81 112 147 190 237 279 327
#     4  10  21  37  56  80 115 157 195 234 286 345
#     4   9  19  36  56  80 114 152 186 227 285 350
#
# _framework density 19.915751
#
# number of rings (size 3 to 8) (size 9 to 14) (size 15 to 20)
#    0.000    2.250    0.000    3.375    1.750    5.000 
#    0.000    4.375    0.000    8.250    0.000    0.000 
#    0.000    0.000    0.000    0.000    0.000    0.000 
#
# Total GULP energy -396855.701832 kJ/mol
# GULP energy per Si atom -12401.740682 kJ/mol
# Density = 1.987042 g / cm^3
# Si number density = 19.915751 Si / 1000 Ang^3
#
#
#
# Elastic Constant Matrix: (Units=GPa)
#
#
# Indices 1 2 3 4 5 6 
#
# 1 73.7383 50.9032 52.5741 0.0000 -4.8210 0.0000
# 2 50.9032 119.8322 64.1235 0.0000 -21.1996 0.0000
# 3 52.5741 64.1235 84.7778 0.0000 -14.8905 0.0000
# 4 0.0000 0.0000 0.0000 35.9649 0.0000 -1.9910
# 5 -4.8210 -21.1996 -14.8905 0.0000 27.1037 0.0000
# 6 0.0000 0.0000 0.0000 -1.9910 0.0000 34.6784
#
#
#
# Elastic Compliance Matrix: (Units=1/GPa)
#
#
# Indices 1 2 3 4 5 6 
#
# 1 0.026416 -0.005075 -0.013741 0.000000 -0.006820 0.000000
# 2 -0.005075 0.015834 -0.007540 0.000000 0.007340 0.000000
# 3 -0.013741 -0.007540 0.027178 0.000000 0.006589 0.000000
# 4 0.000000 0.000000 0.000000 0.027894 0.000000 0.001601
# 5 -0.006820 0.007340 0.006589 0.000000 0.045043 0.000000
# 6 0.000000 0.000000 0.000000 0.001601 0.000000 0.028928
#
#
# Mechanical properties :
#
#
# Convention : Reuss Voigt Hill
#
# Bulk Modulus (GPa) = 59.82489 68.17222 63.99856
# Shear Modulus (GPa) = 21.77928 26.93255 24.35592
#
# Velocity S-wave (km/s) = 3.31051 3.68139 3.50086
# Velocity P-wave (km/s) = 6.68706 7.23704 6.96748
#
# Compressibility (1/GPa) = 0.01671545
#
# Stress axis : x y z
#
# Youngs Moduli (GPa) = 37.85607 63.15543 36.79510
#
# Poissons Ratio (x) = 0.32049 0.50560
# Poissons Ratio (y) = 0.19210 0.27745
# Poissons Ratio (z) = 0.52018 0.47621
#
# Static dielectric constant tensor:
#      x y z
#    x 3.505290 0.000000 -0.062640 
#    y 0.000000 3.837380 0.000000 
#    z -0.062640 0.000000 3.544170 
# 
# 
# High freq. dielectric constant tensor:
#      x y z
#    x 1.764120 0.000000 0.004120 
#    y 0.000000 1.791960 0.000000 
#    z 0.004120 0.000000 1.761010 
# 
# From -- ./inp_files/25320.got.cif
#   From: 2010.06.25/outbox.cif.g09.slc.cpg/sg10_13_cif.got.tgz:25320.got - 2010.06.27 22:07:45.
