data_PCOD8066469
_publ_section_title
;
Structure prediction by ZEFSAII (Michael W. Deem and Ramdas Pophale) SiO2 
 PCOD8066469
Probable space group: P 2/M
;
_chemical_formula_sum "Si O2"
_cell_formula_units_Z 28
_cell_length_a 21.700719
_cell_length_b 8.624914
_cell_length_c 14.703170
_cell_angle_alpha 90.000000
_cell_angle_beta 30.997253
_cell_angle_gamma 90.000000
_cell_volume 1417.243768
_symmetry_space_group_name_H-M "P 2/M"
_symmetry_group_IT_number 10
_symmetry_cell_setting 'monoclinic'
loop_
_space_group_symop_operation_xyz
x,y,z
-x,y,-z
-x,-y,-z
x,-y,z
loop_
_atom_site_type_symbol
_atom_site_label
_atom_site_fract_x
_atom_site_fract_y
_atom_site_fract_z
Si Si1 0.627945 0.679073 0.034019
Si Si2 0.850982 0.683188 0.275747
Si Si3 0.360318 0.680920 0.330856
Si Si4 0.736080 0.819544 0.719195
Si Si5 0.206758 0.819910 0.032471
Si Si6 0.881734 0.316480 0.034135
Si Si7 0.987190 0.322092 0.409652
O O1 0.656207 0.500000 0.977137
O O2 0.686693 0.780266 0.880684
O O3 0.685269 0.726300 0.057364
O O4 0.486793 0.710749 0.219242
O O5 0.841548 0.500000 0.283819
O O6 0.743245 0.750730 0.472925
O O7 0.978880 0.730656 0.156686
O O8 0.839746 0.743521 0.186347
O O9 0.340269 0.500000 0.336152
O O10 0.360399 0.771669 0.235056
O O11 0.855454 0.724509 0.544549
O O12 0.764905 0.000000 0.678917
O O13 0.199798 0.769354 0.936396
O O14 0.082073 0.784908 0.239434
O O15 0.235832 0.000000 0.002449
O O16 0.865760 0.500000 0.043917
O O17 0.011201 0.500000 0.351907
O O18 0.000000 0.294556 0.500000
#
# Coordination Sequence:
#
# PCOD8066469 Si02
#       7
#     4   4   4   4   4   4   4
#     4  11  23  39  57  78 109 155 201 239 277 329
#     4   8  16  34  61  90 112 139 184 237 282 328
#     4  10  21  38  60  83 111 149 198 242 279 330
#     4  12  24  37  57  85 117 150 186 233 289 342
#     4  12  24  37  56  84 118 151 186 232 289 343
#     4   9  17  34  62  89 115 145 181 227 285 346
#     4  11  22  37  59  82 110 147 187 229 275 331
#
# _framework density 19.756658000000002
#
# number of rings (size 3 to 8) (size 9 to 14) (size 15 to 20)
#    0.000    1.571    1.429    5.571    0.000    4.571 
#    0.000    2.857    0.000    4.286    0.000    0.000 
#    0.000    0.000    0.000    0.000    0.000    0.000 
#
# Total GULP energy -347317.320210 kJ/mol
# GULP energy per Si atom -12404.190008 kJ/mol
# Density = 1.971169 g / cm^3
# Si number density = 19.756658 Si / 1000 Ang^3
#
#
#
# Elastic Constant Matrix: (Units=GPa)
#
#
# Indices 1 2 3 4 5 6 
#
# 1 135.4330 27.5300 37.0768 0.0000 -7.7788 0.0000
# 2 27.5300 50.6641 16.4110 0.0000 -0.7928 0.0000
# 3 37.0768 16.4110 65.1588 0.0000 -10.8216 0.0000
# 4 0.0000 0.0000 0.0000 16.9451 0.0000 1.6424
# 5 -7.7788 -0.7928 -10.8216 0.0000 25.1106 0.0000
# 6 0.0000 0.0000 0.0000 1.6424 0.0000 15.3611
#
#
#
# Elastic Compliance Matrix: (Units=1/GPa)
#
#
# Indices 1 2 3 4 5 6 
#
# 1 0.009348 -0.003694 -0.004230 0.000000 0.000956 0.000000
# 2 -0.003694 0.023025 -0.004057 0.000000 -0.002166 0.000000
# 3 -0.004230 -0.004057 0.019966 0.000000 0.007166 0.000000
# 4 0.000000 0.000000 0.000000 0.059632 0.000000 -0.006376
# 5 0.000956 -0.002166 0.007166 0.000000 0.043140 0.000000
# 6 0.000000 0.000000 0.000000 -0.006376 0.000000 0.065781
#
#
# Mechanical properties :
#
#
# Convention : Reuss Voigt Hill
#
# Bulk Modulus (GPa) = 35.23947 45.92128 40.58038
# Shear Modulus (GPa) = 19.66087 22.83259 21.24673
#
# Velocity S-wave (km/s) = 3.15802 3.40323 3.28292
# Velocity P-wave (km/s) = 5.58328 6.22387 5.91226
#
# Compressibility (1/GPa) = 0.02837727
#
# Stress axis : x y z
#
# Youngs Moduli (GPa) = 106.98002 43.43030 50.08565
#
# Poissons Ratio (x) = 0.16044 0.21185
# Poissons Ratio (y) = 0.39521 0.20319
# Poissons Ratio (z) = 0.45249 0.17619
#
# Static dielectric constant tensor:
#      x y z
#    x 3.780800 0.000000 0.042420 
#    y 0.000000 3.371690 0.000000 
#    z 0.042420 0.000000 3.713480 
# 
# 
# High freq. dielectric constant tensor:
#      x y z
#    x 1.782450 0.000000 -0.002060 
#    y 0.000000 1.753290 0.000000 
#    z -0.002060 0.000000 1.757370 
# 
# From -- ./inp_files/49089.got.cif
#   From: 2010.06.25/outbox.cif.g09.slc.cpg/sg10_25_cif.got.tgz:49089.got - 2010.06.27 22:07:45.
