data_PCOD8066830
_publ_section_title
;
Structure prediction by ZEFSAII (Michael W. Deem and Ramdas Pophale) SiO2 
 PCOD8066830
Probable space group: P 2/M
;
_chemical_formula_sum "Si O2"
_cell_formula_units_Z 24
_cell_length_a 11.676487
_cell_length_b 14.686385
_cell_length_c 14.069816
_cell_angle_alpha 90.000000
_cell_angle_beta 148.435582
_cell_angle_gamma 90.000000
_cell_volume 1262.979860
_symmetry_space_group_name_H-M "P 2/M"
_symmetry_group_IT_number 10
_symmetry_cell_setting 'monoclinic'
loop_
_space_group_symop_operation_xyz
x,y,z
-x,y,-z
-x,-y,-z
x,-y,z
loop_
_atom_site_type_symbol
_atom_site_label
_atom_site_fract_x
_atom_site_fract_y
_atom_site_fract_z
Si Si1 0.230116 0.826907 0.177658
Si Si2 0.059276 0.100887 0.879447
Si Si3 0.070011 0.714197 0.796615
Si Si4 0.610804 0.398450 0.869836
Si Si5 0.799005 0.395385 0.289509
Si Si6 0.563085 0.328175 0.442421
O O1 0.446037 0.769097 0.346727
O O2 0.178549 0.886795 0.236367
O O3 0.250514 0.888126 0.095866
O O4 0.000000 0.768297 0.000000
O O5 0.088256 0.176053 0.816350
O O6 0.074555 0.000000 0.844865
O O7 0.192120 0.675063 0.790919
O O8 0.820835 0.683291 0.619042
O O9 0.190112 0.671709 0.974276
O O10 0.698094 0.500000 0.949307
O O11 0.421282 0.374019 0.810178
O O12 0.516930 0.394639 0.696900
O O13 0.803804 0.500000 0.255683
O O14 0.000000 0.375807 0.500000
O O15 0.500000 0.370561 0.500000
#
# Coordination Sequence:
#
# PCOD8066830 Si02
#       6
#     4   4   4   4   4   4
#     4   8  16  35  57  79 116 158 197 244 285 348
#     4   9  18  35  61  88 119 160 202 247 297 358
#     4  12  22  37  64  90 125 156 202 256 302 355
#     4  11  24  42  63  87 120 162 208 252 300 357
#     4  10  21  40  65  91 115 154 211 257 298 353
#     4  12  22  37  60  90 125 164 198 243 305 362
#
# _framework density 19.002679000000001
#
# number of rings (size 3 to 8) (size 9 to 14) (size 15 to 20)
#    1.000    0.500    5.000    2.000    0.000    2.333 
#    0.000    3.333    0.000    2.500    0.000    0.000 
#    0.000    0.000    0.000    0.000    0.000    0.000 
#
# Total GULP energy -297329.440037 kJ/mol
# GULP energy per Si atom -12388.726668 kJ/mol
# Density = 1.895943 g / cm^3
# Si number density = 19.002679 Si / 1000 Ang^3
#
#
#
# Elastic Constant Matrix: (Units=GPa)
#
#
# Indices 1 2 3 4 5 6 
#
# 1 85.4258 37.8876 21.9891 0.0000 -18.1387 0.0000
# 2 37.8876 97.0244 30.1558 0.0000 -5.8155 0.0000
# 3 21.9891 30.1558 102.2824 0.0000 2.6543 0.0000
# 4 0.0000 0.0000 0.0000 17.7759 0.0000 -6.0332
# 5 -18.1387 -5.8155 2.6543 0.0000 26.6472 0.0000
# 6 0.0000 0.0000 0.0000 -6.0332 0.0000 19.2948
#
#
#
# Elastic Compliance Matrix: (Units=1/GPa)
#
#
# Indices 1 2 3 4 5 6 
#
# 1 0.016878 -0.005222 -0.002364 0.000000 0.010585 0.000000
# 2 -0.005222 0.013177 -0.002752 0.000000 -0.000405 0.000000
# 3 -0.002364 -0.002752 0.011183 0.000000 -0.003323 0.000000
# 4 0.000000 0.000000 0.000000 0.062935 0.000000 0.019679
# 5 0.010585 -0.000405 -0.003323 0.000000 0.044975 0.000000
# 6 0.000000 0.000000 0.000000 0.019679 0.000000 0.057981
#
#
# Mechanical properties :
#
#
# Convention : Reuss Voigt Hill
#
# Bulk Modulus (GPa) = 48.63130 51.64418 50.13774
# Shear Modulus (GPa) = 21.30774 25.72358 23.51566
#
# Velocity S-wave (km/s) = 3.35222 3.68323 3.52162
# Velocity P-wave (km/s) = 6.37421 6.73235 6.55573
#
# Compressibility (1/GPa) = 0.02056289
#
# Stress axis : x y z
#
# Youngs Moduli (GPa) = 59.24939 75.89125 89.42506
#
# Poissons Ratio (x) = 0.39628 0.21137
# Poissons Ratio (y) = 0.30938 0.24608
# Poissons Ratio (z) = 0.14004 0.20884
#
# Static dielectric constant tensor:
#      x y z
#    x 3.466550 0.000000 -0.148970 
#    y 0.000000 3.187180 0.000000 
#    z -0.148970 0.000000 3.523690 
# 
# 
# High freq. dielectric constant tensor:
#      x y z
#    x 1.723920 0.000000 -0.010390 
#    y 0.000000 1.709540 0.000000 
#    z -0.010390 0.000000 1.743980 
# 
# From -- ./inp_files/51700.got.cif
#   From: 2010.06.25/outbox.cif.g09.slc.cpg/sg10_26_cif.got.tgz:51700.got - 2010.06.27 22:07:45.
