data_PCOD8066544
_publ_section_title
;
Structure prediction by ZEFSAII (Michael W. Deem and Ramdas Pophale) SiO2 
 PCOD8066544
Probable space group: P 2/M
;
_chemical_formula_sum "Si O2"
_cell_formula_units_Z 32
_cell_length_a 12.286661
_cell_length_b 13.311824
_cell_length_c 15.911769
_cell_angle_alpha 90.000000
_cell_angle_beta 141.940249
_cell_angle_gamma 90.000000
_cell_volume 1604.393730
_symmetry_space_group_name_H-M "P 2/M"
_symmetry_group_IT_number 10
_symmetry_cell_setting 'monoclinic'
loop_
_space_group_symop_operation_xyz
x,y,z
-x,y,-z
-x,-y,-z
x,-y,z
loop_
_atom_site_type_symbol
_atom_site_label
_atom_site_fract_x
_atom_site_fract_y
_atom_site_fract_z
Si Si1 0.609118 0.251269 0.147582
Si Si2 0.257153 0.767622 0.518475
Si Si3 0.206749 0.609797 0.629437
Si Si4 0.909911 0.882945 0.267214
Si Si5 0.070072 0.886761 0.916466
Si Si6 0.589340 0.803132 0.805401
Si Si7 0.297489 0.388971 0.398684
Si Si8 0.147760 0.297592 0.147366
O O1 0.735101 0.345940 0.245016
O O2 0.732138 0.154813 0.204260
O O3 0.477014 0.231869 0.143885
O O4 0.500000 0.281885 0.000000
O O5 0.274835 0.683603 0.599965
O O6 0.426077 0.839745 0.645104
O O7 0.263170 0.707265 0.435587
O O8 0.080030 0.832176 0.414059
O O9 0.292579 0.500000 0.668983
O O10 0.000000 0.600920 0.500000
O O11 0.899476 0.858237 0.162356
O O12 0.924651 0.000000 0.294081
O O13 0.925369 0.811531 0.866465
O O14 0.995494 0.000000 0.878994
O O15 0.256336 0.883458 0.080550
O O16 0.678155 0.714314 0.804310
O O17 0.500000 0.390724 0.500000
O O18 0.242998 0.500000 0.402263
O O19 0.184524 0.371444 0.246318
O O20 0.000000 0.350577 0.000000
#
# Coordination Sequence:
#
# PCOD8066544 Si02
#       8
#     4   4   4   4   4   4   4   4
#     4  11  22  40  62  85 124 162 205 251 306 355
#     4  11  21  40  63  88 127 158 198 251 302 360
#     4  10  21  38  61  89 119 157 201 249 299 357
#     4  11  23  39  62  91 121 161 209 253 300 356
#     4  10  21  39  63  89 119 160 204 247 303 366
#     4  10  22  36  60  88 118 161 198 249 300 356
#     4  11  22  38  63  91 121 162 203 244 305 372
#     4  10  21  39  61  89 126 157 198 254 303 353
#
# _framework density 19.945228
#
# number of rings (size 3 to 8) (size 9 to 14) (size 15 to 20)
#    0.000    1.500    5.000    0.375    0.000    4.000 
#    0.000    4.375    0.000    4.500    0.000    0.000 
#    0.000    0.000    0.000    0.000    0.000    0.000 
#
# Total GULP energy -396537.052712 kJ/mol
# GULP energy per Si atom -12391.782897 kJ/mol
# Density = 1.989983 g / cm^3
# Si number density = 19.945228 Si / 1000 Ang^3
#
#
#
# Elastic Constant Matrix: (Units=GPa)
#
#
# Indices 1 2 3 4 5 6 
#
# 1 94.2749 29.2779 31.4654 0.0000 -2.9602 0.0000
# 2 29.2779 96.2102 45.0619 0.0000 -1.3860 0.0000
# 3 31.4654 45.0619 145.3895 0.0000 -6.0679 0.0000
# 4 0.0000 0.0000 0.0000 29.4000 0.0000 -3.3484
# 5 -2.9602 -1.3860 -6.0679 0.0000 31.1769 0.0000
# 6 0.0000 0.0000 0.0000 -3.3484 0.0000 19.6602
#
#
#
# Elastic Compliance Matrix: (Units=1/GPa)
#
#
# Indices 1 2 3 4 5 6 
#
# 1 0.012088 -0.002874 -0.001697 0.000000 0.000690 0.000000
# 2 -0.002874 0.012843 -0.003374 0.000000 -0.000359 0.000000
# 3 -0.001697 -0.003374 0.008346 0.000000 0.001313 0.000000
# 4 0.000000 0.000000 0.000000 0.034686 0.000000 0.005907
# 5 0.000690 -0.000359 0.001313 0.000000 0.032380 0.000000
# 6 0.000000 0.000000 0.000000 0.005907 0.000000 0.051870
#
#
# Mechanical properties :
#
#
# Convention : Reuss Voigt Hill
#
# Bulk Modulus (GPa) = 57.50884 60.83166 59.17025
# Shear Modulus (GPa) = 28.75252 31.38541 30.06896
#
# Velocity S-wave (km/s) = 3.80093 3.97114 3.88696
# Velocity P-wave (km/s) = 6.93965 7.18277 7.06225
#
# Compressibility (1/GPa) = 0.01738863
#
# Stress axis : x y z
#
# Youngs Moduli (GPa) = 82.72891 77.86079 119.82252
#
# Poissons Ratio (x) = 0.22376 0.20328
# Poissons Ratio (y) = 0.23775 0.40424
# Poissons Ratio (z) = 0.14035 0.26268
#
# Static dielectric constant tensor:
#      x y z
#    x 3.672560 0.000000 -0.038160 
#    y 0.000000 3.708000 0.000000 
#    z -0.038160 0.000000 4.191690 
# 
# 
# High freq. dielectric constant tensor:
#      x y z
#    x 1.779520 0.000000 -0.003070 
#    y 0.000000 1.754070 0.000000 
#    z -0.003070 0.000000 1.800610 
# 
# From -- ./inp_files/65146.got.cif
#   From: 2010.06.25/outbox.cif.g09.slc.cpg/sg10_33_cif.got.tgz:65146.got - 2010.06.27 22:07:45.
