data_PCOD8066824
_publ_section_title
;
Structure prediction by ZEFSAII (Michael W. Deem and Ramdas Pophale) SiO2 
 PCOD8066824
Probable space group: P 2/M
;
_chemical_formula_sum "Si O2"
_cell_formula_units_Z 32
_cell_length_a 16.465366
_cell_length_b 8.447013
_cell_length_c 27.001355
_cell_angle_alpha 90.000000
_cell_angle_beta 155.943487
_cell_angle_gamma 90.000000
_cell_volume 1530.855680
_symmetry_space_group_name_H-M "P 2/M"
_symmetry_group_IT_number 10
_symmetry_cell_setting 'monoclinic'
loop_
_space_group_symop_operation_xyz
x,y,z
-x,y,-z
-x,-y,-z
x,-y,z
loop_
_atom_site_type_symbol
_atom_site_label
_atom_site_fract_x
_atom_site_fract_y
_atom_site_fract_z
Si Si1 0.491835 0.319005 0.275439
Si Si2 0.165244 0.683178 0.732541
Si Si3 0.224558 0.181727 0.043757
Si Si4 0.081922 0.182848 0.492629
Si Si5 0.296412 0.188135 0.363847
Si Si6 0.615719 0.315880 0.966277
Si Si7 0.766452 0.184972 0.782532
Si Si8 0.907755 0.184759 0.204115
O O1 0.562664 0.500000 0.315014
O O2 0.352183 0.292451 0.150356
O O3 0.682102 0.206505 0.377676
O O4 0.374778 0.283336 0.260400
O O5 0.162902 0.500000 0.746369
O O6 0.387328 0.738762 0.842514
O O7 0.083305 0.785234 0.732498
O O8 0.023027 0.710508 0.606893
O O9 0.276351 0.213933 0.015664
O O10 0.272125 0.000000 0.082927
O O11 0.993307 0.218191 0.924139
O O12 0.000000 0.238477 0.500000
O O13 0.030797 0.000000 0.454245
O O14 0.500000 0.258439 0.500000
O O15 0.272498 0.248352 0.294466
O O16 0.111676 0.249956 0.293540
O O17 0.300991 0.000000 0.367555
O O18 0.632434 0.500000 0.962438
O O19 0.721809 0.279165 0.077447
O O20 0.715304 0.000000 0.758719
O O21 0.880116 0.000000 0.177766
#
# Coordination Sequence:
#
# PCOD8066824 Si02
#       8
#     4   4   4   4   4   4   4   4
#     4  12  26  41  62  94 130 166 206 256 319 380
#     4  11  25  42  62  92 129 167 207 259 324 380
#     4  11  22  40  65  93 125 164 215 266 315 371
#     4  11  25  46  70  95 122 162 213 260 311 373
#     4   9  19  37  62  92 125 163 206 256 311 365
#     4  11  23  40  63  91 129 171 207 258 326 381
#     4  10  21  40  64  92 126 166 212 262 313 367
#     4  11  22  39  64  95 125 166 218 264 311 370
#
# _framework density 20.903343
#
# number of rings (size 3 to 8) (size 9 to 14) (size 15 to 20)
#    0.000    1.250    1.250    4.500    1.750    9.000 
#    0.000    0.000    0.000    1.875    0.000    0.000 
#    0.000    0.000    0.000    0.000    0.000    0.000 
#
# Total GULP energy -397062.155353 kJ/mol
# GULP energy per Si atom -12408.192355 kJ/mol
# Density = 2.085577 g / cm^3
# Si number density = 20.903343 Si / 1000 Ang^3
#
#
#
# Elastic Constant Matrix: (Units=GPa)
#
#
# Indices 1 2 3 4 5 6 
#
# 1 130.6388 24.0672 43.9254 0.0000 0.2311 0.0000
# 2 24.0672 46.0443 20.8585 0.0000 6.2689 0.0000
# 3 43.9254 20.8585 124.9064 0.0000 0.9359 0.0000
# 4 0.0000 0.0000 0.0000 27.0776 0.0000 -3.0629
# 5 0.2311 6.2689 0.9359 0.0000 33.9717 0.0000
# 6 0.0000 0.0000 0.0000 -3.0629 0.0000 27.0174
#
#
#
# Elastic Compliance Matrix: (Units=1/GPa)
#
#
# Indices 1 2 3 4 5 6 
#
# 1 0.009223 -0.003726 -0.002626 0.000000 0.000697 0.000000
# 2 -0.003726 0.025624 -0.002934 0.000000 -0.004622 0.000000
# 3 -0.002626 -0.002934 0.009417 0.000000 0.000300 0.000000
# 4 0.000000 0.000000 0.000000 0.037411 0.000000 0.004241
# 5 0.000697 -0.004622 0.000300 0.000000 0.030276 0.000000
# 6 0.000000 0.000000 0.000000 0.004241 0.000000 0.037494
#
#
# Mechanical properties :
#
#
# Convention : Reuss Voigt Hill
#
# Bulk Modulus (GPa) = 38.92330 53.25463 46.08897
# Shear Modulus (GPa) = 28.31541 31.79591 30.05566
#
# Velocity S-wave (km/s) = 3.68447 3.90435 3.79600
# Velocity P-wave (km/s) = 6.06312 6.77179 6.42723
#
# Compressibility (1/GPa) = 0.02569155
#
# Stress axis : x y z
#
# Youngs Moduli (GPa) = 108.42482 39.02553 106.18692
#
# Poissons Ratio (x) = 0.14541 0.27889
# Poissons Ratio (y) = 0.40398 0.31157
# Poissons Ratio (z) = 0.28477 0.11451
#
# Static dielectric constant tensor:
#      x y z
#    x 3.828730 0.000000 0.034020 
#    y 0.000000 3.505330 0.000000 
#    z 0.034020 0.000000 3.863670 
# 
# 
# High freq. dielectric constant tensor:
#      x y z
#    x 1.831660 0.000000 0.000070 
#    y 0.000000 1.806070 0.000000 
#    z 0.000070 0.000000 1.829520 
# 
# From -- ./inp_files/89651.got.cif
#   From: 2010.06.25/outbox.cif.g09.slc.cpg/sg10_45_cif.got.tgz:89651.got - 2010.06.27 22:07:45.
