data_PCOD8066101
_publ_section_title
;
Structure prediction by ZEFSAII (Michael W. Deem and Ramdas Pophale) SiO2 
 PCOD8066101
Probable space group: P 2/M
;
_chemical_formula_sum "Si O2"
_cell_formula_units_Z 28
_cell_length_a 28.612327
_cell_length_b 9.415199
_cell_length_c 8.075848
_cell_angle_alpha 90.000000
_cell_angle_beta 139.786214
_cell_angle_gamma 90.000000
_cell_volume 1404.630912
_symmetry_space_group_name_H-M "P 2/M"
_symmetry_group_IT_number 10
_symmetry_cell_setting 'monoclinic'
loop_
_space_group_symop_operation_xyz
x,y,z
-x,y,-z
-x,-y,-z
x,-y,z
loop_
_atom_site_type_symbol
_atom_site_label
_atom_site_fract_x
_atom_site_fract_y
_atom_site_fract_z
Si Si1 0.919103 0.168410 0.277419
Si Si2 0.562248 0.155490 0.038599
Si Si3 0.174824 0.164780 0.666619
Si Si4 0.302949 0.661503 0.135288
Si Si5 0.698759 0.663059 0.492976
Si Si6 0.827676 0.164947 0.712682
Si Si7 0.465882 0.348342 0.575193
O O1 0.877649 0.225088 0.330167
O O2 0.000000 0.232665 0.500000
O O3 0.922318 0.000000 0.294513
O O4 0.883255 0.216645 0.005884
O O5 0.523502 0.231447 0.783464
O O6 0.593897 0.000000 0.073360
O O7 0.500000 0.132266 0.000000
O O8 0.622663 0.257695 0.276489
O O9 0.140959 0.187282 0.389807
O O10 0.190069 0.000000 0.740678
O O11 0.251937 0.243278 0.882058
O O12 0.298956 0.500000 0.059744
O O13 0.274171 0.672701 0.245226
O O14 0.385314 0.718126 0.344757
O O15 0.690178 0.500000 0.411702
O O16 0.755586 0.741748 0.529370
O O17 0.807947 0.000000 0.688038
O O18 0.500000 0.399375 0.500000
O O19 0.460539 0.500000 0.664979
#
# Coordination Sequence:
#
# PCOD8066101 Si02
#       7
#     4   4   4   4   4   4   4
#     4   9  18  35  60  89 122 156 189 232 285 342
#     4  11  23  37  55  80 108 143 188 240 297 347
#     4  10  21  36  58  87 119 155 192 238 291 341
#     4  10  21  37  57  81 111 152 198 242 289 348
#     4  11  22  37  59  81 108 150 196 240 291 347
#     4  10  21  37  58  88 120 150 191 237 286 345
#     4  10  22  39  56  78 111 150 196 246 295 344
#
# _framework density 19.934061
#
# number of rings (size 3 to 8) (size 9 to 14) (size 15 to 20)
#    0.000    1.857    2.857    0.857    2.000    3.143 
#    0.000    2.857    0.000    1.714    0.000    2.000 
#    0.000    0.000    0.000    0.000    0.000    0.000 
#
# Total GULP energy -346972.900359 kJ/mol
# GULP energy per Si atom -12391.889299 kJ/mol
# Density = 1.988869 g / cm^3
# Si number density = 19.934061 Si / 1000 Ang^3
#
#
#
# Elastic Constant Matrix: (Units=GPa)
#
#
# Indices 1 2 3 4 5 6 
#
# 1 93.9065 26.0844 52.7361 0.0000 -8.7370 0.0000
# 2 26.0844 91.6841 48.0041 0.0000 -0.5229 0.0000
# 3 52.7361 48.0041 118.8239 0.0000 -2.3720 0.0000
# 4 0.0000 0.0000 0.0000 322.0419 0.0000 27.2528
# 5 -8.7370 -0.5229 -2.3720 0.0000 30.3473 0.0000
# 6 0.0000 0.0000 0.0000 27.2528 0.0000 19.3507
#
#
#
# Elastic Compliance Matrix: (Units=1/GPa)
#
#
# Indices 1 2 3 4 5 6 
#
# 1 0.014658 -0.000992 -0.006030 0.000000 0.003732 0.000000
# 2 -0.000992 0.013901 -0.005185 0.000000 -0.000451 0.000000
# 3 -0.006030 -0.005185 0.013171 0.000000 -0.000796 0.000000
# 4 0.000000 0.000000 0.000000 0.003525 0.000000 -0.004965
# 5 0.003732 -0.000451 -0.000796 0.000000 0.033956 0.000000
# 6 0.000000 0.000000 0.000000 -0.004965 0.000000 0.058670
#
#
# Mechanical properties :
#
#
# Convention : Reuss Voigt Hill
#
# Bulk Modulus (GPa) = 57.74846 62.00710 59.87778
# Shear Modulus (GPa) = 29.74981 86.18731 57.96856
#
# Velocity S-wave (km/s) = 3.86736 6.58256 5.39845
# Velocity P-wave (km/s) = 6.99819 9.43117 8.30427
#
# Compressibility (1/GPa) = 0.01731648
#
# Stress axis : x y z
#
# Youngs Moduli (GPa) = 68.22175 71.93567 75.92417
#
# Poissons Ratio (x) = 0.07133 0.45786
# Poissons Ratio (y) = 0.06765 0.39367
# Poissons Ratio (z) = 0.41141 0.37299
#
# Static dielectric constant tensor:
#      x y z
#    x 3.648390 0.000000 -0.025070 
#    y 0.000000 3.708990 0.000000 
#    z -0.025070 0.000000 3.571430 
# 
# 
# High freq. dielectric constant tensor:
#      x y z
#    x 1.775160 0.000000 -0.005730 
#    y 0.000000 1.764430 0.000000 
#    z -0.005730 0.000000 1.767750 
# 
# From -- ./inp_files/38052.got.cif
#   From: 2010.06.25/outbox.cif.g09.slc.cpg/sg10_20_cif.got.tgz:38052.got - 2010.06.27 22:07:45.
