data_PCOD8066249
_publ_section_title
;
Structure prediction by ZEFSAII (Michael W. Deem and Ramdas Pophale) SiO2 
 PCOD8066249
Probable space group: P 2/M
;
_chemical_formula_sum "Si O2"
_cell_formula_units_Z 32
_cell_length_a 27.416285
_cell_length_b 8.832941
_cell_length_c 26.394198
_cell_angle_alpha 90.000000
_cell_angle_beta 15.772373
_cell_angle_gamma 90.000000
_cell_volume 1737.392027
_symmetry_space_group_name_H-M "P 2/M"
_symmetry_group_IT_number 10
_symmetry_cell_setting 'monoclinic'
loop_
_space_group_symop_operation_xyz
x,y,z
-x,y,-z
-x,-y,-z
x,-y,z
loop_
_atom_site_type_symbol
_atom_site_label
_atom_site_fract_x
_atom_site_fract_y
_atom_site_fract_z
Si Si1 0.703799 0.820140 0.296059
Si Si2 0.287867 0.820053 0.980177
Si Si3 0.684913 0.822851 0.576422
Si Si4 0.999688 0.819828 0.922834
Si Si5 0.696098 0.677798 0.930666
Si Si6 0.990483 0.819211 0.200332
Si Si7 0.982594 0.176386 0.576086
Si Si8 0.682120 0.176310 0.692622
O O1 0.500000 0.751911 0.500000
O O2 0.818231 0.765370 0.230702
O O3 0.690036 0.000000 0.309632
O O4 0.817645 0.764587 0.133160
O O5 0.485183 0.757722 0.768988
O O6 0.227538 0.752620 0.094265
O O7 0.283678 0.000000 0.990594
O O8 0.161740 0.763852 0.060956
O O9 0.816592 0.750856 0.402889
O O10 0.754364 0.787840 0.563744
O O11 0.681125 0.000000 0.570380
O O12 0.000324 0.751856 0.865528
O O13 0.998837 0.000000 0.922780
O O14 0.700856 0.500000 0.932710
O O15 0.495248 0.729144 0.118330
O O16 0.819659 0.726698 0.760554
O O17 0.985000 0.000000 0.203894
O O18 0.000000 0.215342 0.500000
O O19 0.166765 0.225858 0.418962
O O20 0.943108 0.000000 0.625092
O O21 0.631635 0.000000 0.747960
#
# Coordination Sequence:
#
# PCOD8066249 Si02
#       8
#     4   4   4   4   4   4   4   4
#     4   8  13  21  30  40  65 108 149 182 220 273
#     4   9  17  30  47  66  89 119 157 195 234 284
#     4   8  14  24  40  61  81 106 142 184 229 273
#     4   8  14  21  29  47  72 102 145 188 227 273
#     4  11  22  35  53  76 104 135 165 201 246 298
#     4   9  15  23  38  60  85 110 144 197 244 275
#     4  10  21  37  58  81 102 129 168 210 249 290
#     4   9  18  35  56  74  97 130 167 204 242 291
#
# _framework density 18.418413000000001
#
# number of rings (size 3 to 8) (size 9 to 14) (size 15 to 20)
#    0.000    3.000    0.000    3.375    0.000    4.250 
#    0.000    7.500    0.000    0.000    0.000    0.000 
#    0.000    0.000    0.000    2.250    0.000   29.000 
#
# Total GULP energy -396641.387078 kJ/mol
# GULP energy per Si atom -12395.043346 kJ/mol
# Density = 1.837649 g / cm^3
# Si number density = 18.418413 Si / 1000 Ang^3
#
#
#
# Elastic Constant Matrix: (Units=GPa)
#
#
# Indices 1 2 3 4 5 6 
#
# 1 141.4094 16.1267 85.5656 0.0000 14.4394 0.0000
# 2 16.1267 28.5653 20.9358 0.0000 5.5998 0.0000
# 3 85.5656 20.9358 136.8054 0.0000 4.8324 0.0000
# 4 0.0000 0.0000 0.0000 2.9183 0.0000 -0.5349
# 5 14.4394 5.5998 4.8324 0.0000 20.3356 0.0000
# 6 0.0000 0.0000 0.0000 -0.5349 0.0000 3.5706
#
#
#
# Elastic Compliance Matrix: (Units=1/GPa)
#
#
# Indices 1 2 3 4 5 6 
#
# 1 0.012281 -0.000142 -0.007415 0.000000 -0.006919 0.000000
# 2 -0.000142 0.041341 -0.005888 0.000000 -0.009884 0.000000
# 3 -0.007415 -0.005888 0.012712 0.000000 0.003866 0.000000
# 4 0.000000 0.000000 0.000000 0.352342 0.000000 0.052786
# 5 -0.006919 -0.009884 0.003866 0.000000 0.055891 0.000000
# 6 0.000000 0.000000 0.000000 0.052786 0.000000 0.287971
#
#
# Mechanical properties :
#
#
# Convention : Reuss Voigt Hill
#
# Bulk Modulus (GPa) = 25.35333 61.33736 43.34535
# Shear Modulus (GPa) = 6.22992 17.64171 11.93582
#
# Velocity S-wave (km/s) = 1.84114 3.09824 2.54842
# Velocity P-wave (km/s) = 4.27958 6.79509 5.67838
#
# Compressibility (1/GPa) = 0.03944255
#
# Stress axis : x y z
#
# Youngs Moduli (GPa) = 81.42474 24.18897 78.66536
#
# Poissons Ratio (x) = 0.00345 0.58332
# Poissons Ratio (y) = 0.01160 0.46321
# Poissons Ratio (z) = 0.60378 0.14243
#
# Static dielectric constant tensor:
#      x y z
#    x 3.640110 0.000000 0.008250 
#    y 0.000000 2.748550 0.000000 
#    z 0.008250 0.000000 3.690240 
# 
# 
# High freq. dielectric constant tensor:
#      x y z
#    x 1.717350 0.000000 -0.001340 
#    y 0.000000 1.647750 0.000000 
#    z -0.001340 0.000000 1.725480 
# 
# From -- ./inp_files/90589.got.cif
#   From: 2010.06.25/outbox.cif.g09.slc.cpg/sg10_46_cif.got.tgz:90589.got - 2010.06.27 22:07:45.
