data_PCOD8066311
_publ_section_title
;
Structure prediction by ZEFSAII (Michael W. Deem and Ramdas Pophale) SiO2 
 PCOD8066311
Probable space group: P 2/M
;
_chemical_formula_sum "Si O2"
_cell_formula_units_Z 32
_cell_length_a 14.084995
_cell_length_b 27.853564
_cell_length_c 10.056307
_cell_angle_alpha 90.000000
_cell_angle_beta 26.211946
_cell_angle_gamma 90.000000
_cell_volume 1742.594866
_symmetry_space_group_name_H-M "P 2/M"
_symmetry_group_IT_number 10
_symmetry_cell_setting 'monoclinic'
loop_
_space_group_symop_operation_xyz
x,y,z
-x,y,-z
-x,-y,-z
x,-y,z
loop_
_atom_site_type_symbol
_atom_site_label
_atom_site_fract_x
_atom_site_fract_y
_atom_site_fract_z
Si Si1 0.822466 0.123449 0.835212
Si Si2 0.527635 0.443721 0.619787
Si Si3 0.519073 0.308009 0.131764
Si Si4 0.140511 0.628862 0.701604
Si Si5 0.884828 0.870820 0.285410
Si Si6 0.520403 0.803388 0.818855
Si Si7 0.850741 0.618410 0.807632
Si Si8 0.474206 0.055605 0.188329
O O1 0.000000 0.128092 0.500000
O O2 0.923707 0.124042 0.851994
O O3 0.664118 0.168554 0.026591
O O4 0.692534 0.073713 0.982991
O O5 0.500000 0.430425 0.500000
O O6 0.538547 0.500000 0.630564
O O7 0.748267 0.421688 0.399702
O O8 0.327420 0.422604 0.952199
O O9 0.318000 0.330791 0.458316
O O10 0.514811 0.252044 0.169400
O O11 0.500000 0.319013 0.000000
O O12 0.739346 0.330591 0.912085
O O13 0.992332 0.622992 0.760366
O O14 0.000000 0.647631 0.000000
O O15 0.752787 0.821517 0.476113
O O16 0.728421 0.916429 0.496843
O O17 0.000000 0.869683 0.000000
O O18 0.500000 0.814691 0.000000
O O19 0.000000 0.601343 0.500000
O O20 0.441215 0.000000 0.261214
O O21 0.500000 0.066309 0.000000
#
# Coordination Sequence:
#
# PCOD8066311 Si02
#       8
#     4   4   4   4   4   4   4   4
#     4  11  19  37  62  85 110 155 194 234 286 342
#     4  10  22  39  61  89 117 152 198 239 283 345
#     4  10  22  38  60  88 117 150 194 242 285 345
#     4  11  22  39  60  86 118 154 188 237 290 340
#     4  11  23  39  58  85 122 151 187 243 297 339
#     4  10  21  38  60  88 114 147 198 239 279 346
#     4  11  22  39  60  87 119 153 190 235 292 342
#     4  10  21  37  59  88 116 149 199 243 280 346
#
# _framework density 18.363417999999999
#
# number of rings (size 3 to 8) (size 9 to 14) (size 15 to 20)
#    0.000    1.500    5.000    0.750    0.000    6.000 
#    0.000    2.500    0.000    0.000    0.000    0.000 
#    0.000    0.000    0.000    0.000    0.000    0.000 
#
# Total GULP energy -396911.082191 kJ/mol
# GULP energy per Si atom -12403.471318 kJ/mol
# Density = 1.832162 g / cm^3
# Si number density = 18.363418 Si / 1000 Ang^3
#
#
#
# Elastic Constant Matrix: (Units=GPa)
#
#
# Indices 1 2 3 4 5 6 
#
# 1 146.7992 46.8117 60.5922 0.0000 -5.6914 0.0000
# 2 46.8117 122.9046 50.3473 0.0000 -0.2731 0.0000
# 3 60.5922 50.3473 134.9580 0.0000 13.7531 0.0000
# 4 0.0000 0.0000 0.0000 18.5986 0.0000 -1.6618
# 5 -5.6914 -0.2731 13.7531 0.0000 40.3383 0.0000
# 6 0.0000 0.0000 0.0000 -1.6618 0.0000 14.2425
#
#
#
# Elastic Compliance Matrix: (Units=1/GPa)
#
#
# Indices 1 2 3 4 5 6 
#
# 1 0.009005 -0.001965 -0.003561 0.000000 0.002471 0.000000
# 2 -0.001965 0.010103 -0.002968 0.000000 0.000803 0.000000
# 3 -0.003561 -0.002968 0.010535 0.000000 -0.004115 0.000000
# 4 0.000000 0.000000 0.000000 0.054334 0.000000 0.006340
# 5 0.002471 0.000803 -0.004115 0.000000 0.026547 0.000000
# 6 0.000000 0.000000 0.000000 0.006340 0.000000 0.070952
#
#
# Mechanical properties :
#
#
# Convention : Reuss Voigt Hill
#
# Bulk Modulus (GPa) = 79.03641 80.01825 79.52733
# Shear Modulus (GPa) = 24.66899 31.09658 27.88279
#
# Velocity S-wave (km/s) = 3.66919 4.11956 3.90088
# Velocity P-wave (km/s) = 7.81563 8.14230 7.98064
#
# Compressibility (1/GPa) = 0.01265240
#
# Stress axis : x y z
#
# Youngs Moduli (GPa) = 111.05520 98.98362 94.91789
#
# Poissons Ratio (x) = 0.19452 0.33805
# Poissons Ratio (y) = 0.21824 0.28176
# Poissons Ratio (z) = 0.39552 0.29383
#
# Static dielectric constant tensor:
#      x y z
#    x 3.324330 0.000000 -0.120630 
#    y 0.000000 3.340120 0.000000 
#    z -0.120630 0.000000 3.535380 
# 
# 
# High freq. dielectric constant tensor:
#      x y z
#    x 1.717140 0.000000 -0.007840 
#    y 0.000000 1.709290 0.000000 
#    z -0.007840 0.000000 1.725770 
# 
# From -- ./inp_files/26215.got.cif
#   From: 2010.06.25/outbox.cif.g09.slc.cpg/sg10_14_cif.got.tgz:26215.got - 2010.06.27 22:07:45.
