data_PCOD8066738
_publ_section_title
;
Structure prediction by ZEFSAII (Michael W. Deem and Ramdas Pophale) SiO2 
 PCOD8066738
Probable space group: P 2/M
;
_chemical_formula_sum "Si O2"
_cell_formula_units_Z 32
_cell_length_a 13.806906
_cell_length_b 17.762886
_cell_length_c 11.685708
_cell_angle_alpha 90.000000
_cell_angle_beta 146.886584
_cell_angle_gamma 90.000000
_cell_volume 1565.649766
_symmetry_space_group_name_H-M "P 2/M"
_symmetry_group_IT_number 10
_symmetry_cell_setting 'monoclinic'
loop_
_space_group_symop_operation_xyz
x,y,z
-x,y,-z
-x,-y,-z
x,-y,z
loop_
_atom_site_type_symbol
_atom_site_label
_atom_site_fract_x
_atom_site_fract_y
_atom_site_fract_z
Si Si1 0.713578 0.191590 0.905282
Si Si2 0.978154 0.191455 0.603587
Si Si3 0.200761 0.660548 0.160980
Si Si4 0.318968 0.818751 0.535434
Si Si5 0.000854 0.363541 0.624885
Si Si6 0.670414 0.586670 0.921179
Si Si7 0.293540 0.648036 0.498336
Si Si8 0.207223 0.912883 0.210235
O O1 0.732679 0.263156 0.837846
O O2 0.521612 0.190717 0.775388
O O3 0.717684 0.115620 0.835530
O O4 0.854007 0.185887 0.146104
O O5 0.808295 0.148407 0.490866
O O6 0.936428 0.278749 0.541170
O O7 0.000000 0.153074 0.500000
O O8 0.231738 0.592426 0.104058
O O9 0.306288 0.629297 0.376105
O O10 0.000000 0.673398 0.000000
O O11 0.241574 0.735680 0.438194
O O12 0.301730 0.868322 0.405362
O O13 0.860388 0.395891 0.580842
O O14 0.000000 0.405269 0.500000
O O15 0.203245 0.369908 0.865478
O O16 0.647243 0.500000 0.932403
O O17 0.481751 0.628414 0.740707
O O18 0.252995 0.000000 0.271005
O O19 0.000000 0.896224 0.000000
#
# Coordination Sequence:
#
# PCOD8066738 Si02
#       8
#     4   4   4   4   4   4   4   4
#     4  12  21  37  64  93 127 162 204 252 304 363
#     4  10  21  39  63  93 121 158 217 263 298 351
#     4  12  21  39  64  89 122 162 203 248 309 371
#     4  11  21  36  64  92 123 166 202 249 306 363
#     4  10  22  43  65  85 116 160 213 265 304 356
#     4  12  26  41  59  90 124 160 205 254 316 378
#     4  11  22  39  63  92 120 159 204 250 308 365
#     4  11  23  38  61  97 136 166 197 247 310 369
#
# _framework density 20.438798999999999
#
# number of rings (size 3 to 8) (size 9 to 14) (size 15 to 20)
#    0.000    0.875    6.250    1.875    0.000    4.000 
#    0.000    4.375    0.000    1.500    0.000    1.750 
#    0.000    0.000    0.000    0.000    0.000    0.000 
#
# Total GULP energy -396520.388871 kJ/mol
# GULP energy per Si atom -12391.262152 kJ/mol
# Density = 2.039228 g / cm^3
# Si number density = 20.438799 Si / 1000 Ang^3
#
#
#
# Elastic Constant Matrix: (Units=GPa)
#
#
# Indices 1 2 3 4 5 6 
#
# 1 123.4208 14.1816 77.5077 0.0000 -12.8730 0.0000
# 2 14.1816 53.1402 8.0192 0.0000 2.2465 0.0000
# 3 77.5077 8.0192 125.8604 0.0000 7.1912 0.0000
# 4 0.0000 0.0000 0.0000 11.5837 0.0000 6.1559
# 5 -12.8730 2.2465 7.1912 0.0000 40.9023 0.0000
# 6 0.0000 0.0000 0.0000 6.1559 0.0000 6.6891
#
#
#
# Elastic Compliance Matrix: (Units=1/GPa)
#
#
# Indices 1 2 3 4 5 6 
#
# 1 0.015062 -0.002868 -0.009468 0.000000 0.006563 0.000000
# 2 -0.002868 0.019576 0.000639 0.000000 -0.002090 0.000000
# 3 -0.009468 0.000639 0.014049 0.000000 -0.005485 0.000000
# 4 0.000000 0.000000 0.000000 0.168960 0.000000 -0.155491
# 5 0.006563 -0.002090 -0.005485 0.000000 0.027593 0.000000
# 6 0.000000 0.000000 0.000000 -0.155491 0.000000 0.292591
#
#
# Mechanical properties :
#
#
# Convention : Reuss Voigt Hill
#
# Bulk Modulus (GPa) = 39.53962 55.75980 47.64971
# Shear Modulus (GPa) = 8.77722 25.34922 17.06322
#
# Velocity S-wave (km/s) = 2.07454 3.52554 2.89250
# Velocity P-wave (km/s) = 5.01255 6.62670 5.87532
#
# Compressibility (1/GPa) = 0.02529109
#
# Stress axis : x y z
#
# Youngs Moduli (GPa) = 66.39122 51.08390 71.18175
#
# Poissons Ratio (x) = 0.14653 0.67394
# Poissons Ratio (y) = 0.19043 -0.04545
# Poissons Ratio (z) = 0.62858 -0.03262
#
# Static dielectric constant tensor:
#      x y z
#    x 4.268190 0.000000 -0.040430 
#    y 0.000000 3.408480 0.000000 
#    z -0.040430 0.000000 3.748070 
# 
# 
# High freq. dielectric constant tensor:
#      x y z
#    x 1.808330 0.000000 0.009160 
#    y 0.000000 1.757210 0.000000 
#    z 0.009160 0.000000 1.806250 
# 
# From -- ./inp_files/51976.got.cif
#   From: 2010.06.25/outbox.cif.g09.slc.cpg/sg10_26_cif.got.tgz:51976.got - 2010.06.27 22:07:45.
