data_PCOD8066641
_publ_section_title
;
Structure prediction by ZEFSAII (Michael W. Deem and Ramdas Pophale) SiO2 
 PCOD8066641
Probable space group: P 2/M
;
_chemical_formula_sum "Si O2"
_cell_formula_units_Z 28
_cell_length_a 25.548125
_cell_length_b 8.461037
_cell_length_c 9.467330
_cell_angle_alpha 90.000000
_cell_angle_beta 43.153755
_cell_angle_gamma 90.000000
_cell_volume 1399.715917
_symmetry_space_group_name_H-M "P 2/M"
_symmetry_group_IT_number 10
_symmetry_cell_setting 'monoclinic'
loop_
_space_group_symop_operation_xyz
x,y,z
-x,y,-z
-x,-y,-z
x,-y,z
loop_
_atom_site_type_symbol
_atom_site_label
_atom_site_fract_x
_atom_site_fract_y
_atom_site_fract_z
Si Si1 0.908303 0.185080 0.321293
Si Si2 0.494027 0.317098 0.173385
Si Si3 0.215050 0.317329 0.236612
Si Si4 0.068588 0.316872 0.025596
Si Si5 0.625856 0.816841 0.099793
Si Si6 0.363172 0.183001 0.601892
Si Si7 0.189800 0.818364 0.987232
O O1 0.834941 0.270130 0.530774
O O2 0.905438 0.214809 0.159764
O O3 0.905681 0.000000 0.357772
O O4 0.984864 0.258874 0.239533
O O5 0.515723 0.500000 0.144793
O O6 0.551314 0.214341 0.154357
O O7 0.408393 0.287169 0.398567
O O8 0.500000 0.260751 0.000000
O O9 0.204396 0.500000 0.220864
O O10 0.303372 0.283040 0.100920
O O11 0.188257 0.213846 0.156630
O O12 0.065131 0.500000 0.990342
O O13 0.127915 0.292463 0.035008
O O14 0.609583 0.769077 0.294244
O O15 0.648810 0.000000 0.047843
O O16 0.273476 0.220701 0.759974
O O17 0.380648 0.000000 0.538293
O O18 0.168126 0.000000 0.003594
#
# Coordination Sequence:
#
# PCOD8066641 Si02
#       7
#     4   4   4   4   4   4   4
#     4  11  22  39  60  83 114 155 195 233 284 344
#     4  11  24  38  54  82 117 149 186 232 280 331
#     4  11  22  38  60  88 117 147 188 238 288 337
#     4  11  22  38  59  86 117 151 192 239 287 336
#     4  10  21  39  61  84 111 146 188 231 281 342
#     4   9  20  38  60  83 109 144 187 231 277 335
#     4  10  21  39  60  86 117 150 190 235 285 343
#
# _framework density 20.004059999999999
#
# number of rings (size 3 to 8) (size 9 to 14) (size 15 to 20)
#    0.000    1.571    0.000    7.286    0.000    8.000 
#    0.000    5.714    0.000    0.000    0.000    0.000 
#    0.000    0.000    0.000    0.000    0.000    0.000 
#
# Total GULP energy -347376.478543 kJ/mol
# GULP energy per Si atom -12406.302805 kJ/mol
# Density = 1.995853 g / cm^3
# Si number density = 20.004060 Si / 1000 Ang^3
#
#
#
# Elastic Constant Matrix: (Units=GPa)
#
#
# Indices 1 2 3 4 5 6 
#
# 1 40.1460 14.4103 -4.0147 0.0000 -3.7098 0.0000
# 2 14.4103 85.4005 26.5352 0.0000 -3.7781 0.0000
# 3 -4.0147 26.5352 103.8230 0.0000 -3.5660 0.0000
# 4 0.0000 0.0000 0.0000 30.9542 0.0000 1.0667
# 5 -3.7098 -3.7781 -3.5660 0.0000 18.3791 0.0000
# 6 0.0000 0.0000 0.0000 1.0667 0.0000 30.3320
#
#
#
# Elastic Compliance Matrix: (Units=1/GPa)
#
#
# Indices 1 2 3 4 5 6 
#
# 1 0.027499 -0.005218 0.002568 0.000000 0.004976 0.000000
# 2 -0.005218 0.013783 -0.003688 0.000000 0.001065 0.000000
# 3 0.002568 -0.003688 0.010737 0.000000 0.001843 0.000000
# 4 0.000000 0.000000 0.000000 0.032345 0.000000 -0.001137
# 5 0.004976 0.001065 0.001843 0.000000 0.055991 0.000000
# 6 0.000000 0.000000 0.000000 -0.001137 0.000000 0.033009
#
#
# Mechanical properties :
#
#
# Convention : Reuss Voigt Hill
#
# Bulk Modulus (GPa) = 25.41757 33.69232 29.55495
# Shear Modulus (GPa) = 25.10641 28.76231 26.93436
#
# Velocity S-wave (km/s) = 3.54653 3.79598 3.67337
# Velocity P-wave (km/s) = 5.43179 6.00765 5.72696
#
# Compressibility (1/GPa) = 0.03934286
#
# Stress axis : x y z
#
# Youngs Moduli (GPa) = 36.36551 72.55346 93.13642
#
# Poissons Ratio (x) = 0.37857 -0.23916
# Poissons Ratio (y) = 0.18975 0.34347
# Poissons Ratio (z) = -0.09338 0.26757
#
# Static dielectric constant tensor:
#      x y z
#    x 3.506660 0.000000 -0.109250 
#    y 0.000000 3.588370 0.000000 
#    z -0.109250 0.000000 3.651590 
# 
# 
# High freq. dielectric constant tensor:
#      x y z
#    x 1.774990 0.000000 -0.008960 
#    y 0.000000 1.790140 0.000000 
#    z -0.008960 0.000000 1.782260 
# 
# From -- ./inp_files/37052.got.cif
#   From: 2010.06.25/outbox.cif.g09.slc.cpg/sg10_19_cif.got.tgz:37052.got - 2010.06.27 22:07:45.
