data_PCOD8066323
_publ_section_title
;
Structure prediction by ZEFSAII (Michael W. Deem and Ramdas Pophale) SiO2 
 PCOD8066323
Probable space group: P 2/M
;
_chemical_formula_sum "Si O2"
_cell_formula_units_Z 24
_cell_length_a 23.693062
_cell_length_b 8.737462
_cell_length_c 12.219167
_cell_angle_alpha 90.000000
_cell_angle_beta 26.425765
_cell_angle_gamma 90.000000
_cell_volume 1125.758176
_symmetry_space_group_name_H-M "P 2/M"
_symmetry_group_IT_number 10
_symmetry_cell_setting 'monoclinic'
loop_
_space_group_symop_operation_xyz
x,y,z
-x,y,-z
-x,-y,-z
x,-y,z
loop_
_atom_site_type_symbol
_atom_site_label
_atom_site_fract_x
_atom_site_fract_y
_atom_site_fract_z
Si Si1 0.035968 0.180725 0.559441
Si Si2 0.509212 0.823399 0.154488
Si Si3 0.239797 0.320159 0.348493
Si Si4 0.221574 0.179870 0.603080
Si Si5 0.552605 0.325046 0.524293
Si Si6 0.155887 0.676401 0.938485
O O1 0.169165 0.256759 0.363345
O O2 0.000000 0.238344 0.500000
O O3 0.053015 0.000000 0.531450
O O4 0.929374 0.228924 0.830471
O O5 0.370304 0.778878 0.353027
O O6 0.516420 0.785095 0.270057
O O7 0.540485 0.000000 0.079423
O O8 0.612616 0.725490 0.909847
O O9 0.225151 0.500000 0.379651
O O10 0.173217 0.248108 0.571979
O O11 0.143870 0.257334 0.836624
O O12 0.196603 0.000000 0.651003
O O13 0.500000 0.272089 0.500000
O O14 0.515574 0.500000 0.615831
O O15 0.702478 0.302905 0.263998
O O16 0.112653 0.500000 0.012897
#
# Coordination Sequence:
#
# PCOD8066323 Si02
#       6
#     4   4   4   4   4   4
#     4  11  26  46  65  88 121 162 208 255 305 364
#     4  10  21  37  59  91 127 163 202 249 304 364
#     4  12  25  40  63  92 124 163 207 254 308 366
#     4  10  21  40  65  93 127 163 203 252 307 364
#     4   9  19  35  57  88 122 161 202 247 303 360
#     4  10  21  39  63  91 125 160 203 254 304 362
#
# _framework density 21.318966
#
# number of rings (size 3 to 8) (size 9 to 14) (size 15 to 20)
#    0.000    1.667    0.000    4.000    2.333    7.000 
#    0.000    3.333    0.000    0.000    0.000    0.000 
#    0.000    0.000    0.000    0.000    0.000    0.000 
#
# Total GULP energy -297716.730805 kJ/mol
# GULP energy per Si atom -12404.863784 kJ/mol
# Density = 2.127044 g / cm^3
# Si number density = 21.318966 Si / 1000 Ang^3
#
#
#
# Elastic Constant Matrix: (Units=GPa)
#
#
# Indices 1 2 3 4 5 6 
#
# 1 100.4970 32.2442 19.6196 0.0000 26.7393 0.0000
# 2 32.2442 78.5030 20.5392 0.0000 2.7883 0.0000
# 3 19.6196 20.5392 78.3956 0.0000 14.5356 0.0000
# 4 0.0000 0.0000 0.0000 30.0571 0.0000 7.0084
# 5 26.7393 2.7883 14.5356 0.0000 20.1715 0.0000
# 6 0.0000 0.0000 0.0000 7.0084 0.0000 32.2255
#
#
#
# Elastic Compliance Matrix: (Units=1/GPa)
#
#
# Indices 1 2 3 4 5 6 
#
# 1 0.018529 -0.007216 0.001873 0.000000 -0.024914 0.000000
# 2 -0.007216 0.016497 -0.004463 0.000000 0.010501 0.000000
# 3 0.001873 -0.004463 0.015931 0.000000 -0.013345 0.000000
# 4 0.000000 0.000000 0.000000 0.035047 0.000000 -0.007622
# 5 -0.024914 0.010501 -0.013345 0.000000 0.090766 0.000000
# 6 0.000000 0.000000 0.000000 -0.007622 0.000000 0.032689
#
#
# Mechanical properties :
#
#
# Convention : Reuss Voigt Hill
#
# Bulk Modulus (GPa) = 31.90368 44.68906 38.29637
# Shear Modulus (GPa) = 20.87509 28.82364 24.84937
#
# Velocity S-wave (km/s) = 3.13258 3.68097 3.41779
# Velocity P-wave (km/s) = 5.29920 6.25089 5.79462
#
# Compressibility (1/GPa) = 0.03134435
#
# Stress axis : x y z
#
# Youngs Moduli (GPa) = 53.96953 60.61748 62.77113
#
# Poissons Ratio (x) = 0.43739 -0.11755
# Poissons Ratio (y) = 0.38942 0.28017
# Poissons Ratio (z) = -0.10107 0.27055
#
# Static dielectric constant tensor:
#      x y z
#    x 4.071400 0.000000 0.084400 
#    y 0.000000 3.800450 0.000000 
#    z 0.084400 0.000000 3.782720 
# 
# 
# High freq. dielectric constant tensor:
#      x y z
#    x 1.845500 0.000000 0.005770 
#    y 0.000000 1.839870 0.000000 
#    z 0.005770 0.000000 1.837870 
# 
# From -- ./inp_files/56527.got.cif
#   From: 2010.06.25/outbox.cif.g09.slc.cpg/sg10_29_cif.got.tgz:56527.got - 2010.06.27 22:07:45.
