data_PCOD8066030
_publ_section_title
;
Structure prediction by ZEFSAII (Michael W. Deem and Ramdas Pophale) SiO2 
 PCOD8066030
Probable space group: P 2/M
;
_chemical_formula_sum "Si O2"
_cell_formula_units_Z 28
_cell_length_a 9.196254
_cell_length_b 8.816674
_cell_length_c 29.154578
_cell_angle_alpha 90.000000
_cell_angle_beta 37.656206
_cell_angle_gamma 90.000000
_cell_volume 1444.136782
_symmetry_space_group_name_H-M "P 2/M"
_symmetry_group_IT_number 10
_symmetry_cell_setting 'monoclinic'
loop_
_space_group_symop_operation_xyz
x,y,z
-x,y,-z
-x,-y,-z
x,-y,z
loop_
_atom_site_type_symbol
_atom_site_label
_atom_site_fract_x
_atom_site_fract_y
_atom_site_fract_z
Si Si1 0.819880 0.678374 0.637681
Si Si2 0.353975 0.176926 0.227201
Si Si3 0.334614 0.820985 0.499749
Si Si4 0.514130 0.677158 0.362780
Si Si5 0.997604 0.827372 0.767351
Si Si6 0.729291 0.676554 0.072281
Si Si7 0.548424 0.173357 0.935731
O O1 0.853339 0.500000 0.631118
O O2 0.687835 0.731916 0.716125
O O3 0.663285 0.727672 0.633200
O O4 0.075648 0.752473 0.569822
O O5 0.144758 0.214309 0.243437
O O6 0.606507 0.228224 0.143495
O O7 0.364156 0.000000 0.235979
O O8 0.500000 0.763195 0.500000
O O9 0.453111 0.770998 0.423024
O O10 0.309964 0.000000 0.506890
O O11 0.489540 0.500000 0.379552
O O12 0.782943 0.714471 0.280844
O O13 0.826571 0.805116 0.854016
O O14 0.091013 0.000000 0.741184
O O15 0.706216 0.500000 0.089859
O O16 0.606928 0.710459 0.054468
O O17 0.000000 0.729203 0.000000
O O18 0.473713 0.000000 0.942808
O O19 0.500000 0.214788 0.000000
#
# Coordination Sequence:
#
# PCOD8066030 Si02
#       7
#     4   4   4   4   4   4   4
#     4  11  24  40  58  85 119 149 183 228 277 331
#     4  10  21  38  60  84 110 146 192 234 277 333
#     4  11  24  41  62  87 113 145 188 232 274 327
#     4  11  24  39  57  84 116 149 185 227 277 332
#     4   9  19  36  57  82 111 144 187 234 277 330
#     4  10  21  36  55  82 115 149 187 233 284 337
#     4   9  19  36  57  82 112 147 190 237 282 333
#
# _framework density 19.388743999999999
#
# number of rings (size 3 to 8) (size 9 to 14) (size 15 to 20)
#    0.000    1.857    0.000    4.286    0.000   14.000 
#    0.000    2.857    0.000    0.000    0.000    0.000 
#    0.000    0.000    0.000    0.000    0.000    0.000 
#
# Total GULP energy -347323.941988 kJ/mol
# GULP energy per Si atom -12404.426500 kJ/mol
# Density = 1.934461 g / cm^3
# Si number density = 19.388744 Si / 1000 Ang^3
#
#
#
# Elastic Constant Matrix: (Units=GPa)
#
#
# Indices 1 2 3 4 5 6 
#
# 1 119.7773 44.5415 75.6756 0.0000 -3.0097 0.0000
# 2 44.5415 43.5119 28.9168 0.0000 -5.0003 0.0000
# 3 75.6756 28.9168 131.3874 0.0000 2.2824 0.0000
# 4 0.0000 0.0000 0.0000 15.0780 0.0000 -29.9648
# 5 -3.0097 -5.0003 2.2824 0.0000 40.6555 0.0000
# 6 0.0000 0.0000 0.0000 -29.9648 0.0000 -2.2340
#
#
#
# Elastic Compliance Matrix: (Units=1/GPa)
#
#
# Indices 1 2 3 4 5 6 
#
# 1 0.018098 -0.013573 -0.007438 0.000000 0.000088 0.000000
# 2 -0.013573 0.037650 -0.000532 0.000000 0.003656 0.000000
# 3 -0.007438 -0.000532 0.012035 0.000000 -0.001292 0.000000
# 4 0.000000 0.000000 0.000000 0.002398 0.000000 -0.032166
# 5 0.000088 0.003656 -0.001292 0.000000 0.025126 0.000000
# 6 0.000000 0.000000 0.000000 -0.032166 0.000000 -0.016185
#
#
# Mechanical properties :
#
#
# Convention : Reuss Voigt Hill
#
# Bulk Modulus (GPa) = 40.49195 65.88271 53.18733
# Shear Modulus (GPa) = 38.33197 20.40272 29.36735
#
# Velocity S-wave (km/s) = 4.45120 3.24743 3.89608
# Velocity P-wave (km/s) = 6.88092 6.93648 6.90876
#
# Compressibility (1/GPa) = 0.02469627
#
# Stress axis : x y z
#
# Youngs Moduli (GPa) = 55.25534 26.56042 83.09193
#
# Poissons Ratio (x) = 0.36050 0.61805
# Poissons Ratio (y) = 0.74997 0.04423
# Poissons Ratio (z) = 0.41100 0.01414
#
# Static dielectric constant tensor:
#      x y z
#    x 3.612510 0.000000 0.029290 
#    y 0.000000 3.550650 0.000000 
#    z 0.029290 0.000000 3.721150 
# 
# 
# High freq. dielectric constant tensor:
#      x y z
#    x 1.751650 0.000000 0.000350 
#    y 0.000000 1.760610 0.000000 
#    z 0.000350 0.000000 1.771500 
# 
# From -- ./inp_files/36776.got.cif
#   From: 2010.06.25/outbox.cif.g09.slc.cpg/sg10_19_cif.got.tgz:36776.got - 2010.06.27 22:07:45.
