data_PCOD8066541
_publ_section_title
;
Structure prediction by ZEFSAII (Michael W. Deem and Ramdas Pophale) SiO2 
 PCOD8066541
Probable space group: P 2/M
;
_chemical_formula_sum "Si O2"
_cell_formula_units_Z 24
_cell_length_a 14.845401
_cell_length_b 17.890607
_cell_length_c 12.770352
_cell_angle_alpha 90.000000
_cell_angle_beta 19.427813
_cell_angle_gamma 90.000000
_cell_volume 1128.150079
_symmetry_space_group_name_H-M "P 2/M"
_symmetry_group_IT_number 10
_symmetry_cell_setting 'monoclinic'
loop_
_space_group_symop_operation_xyz
x,y,z
-x,y,-z
-x,-y,-z
x,-y,z
loop_
_atom_site_type_symbol
_atom_site_label
_atom_site_fract_x
_atom_site_fract_y
_atom_site_fract_z
Si Si1 0.983703 0.848226 0.810342
Si Si2 0.594182 0.588264 0.785668
Si Si3 0.790021 0.914288 0.638141
Si Si4 0.208815 0.705978 0.865073
Si Si5 0.560069 0.913616 0.549927
Si Si6 0.818419 0.588187 0.934925
O O1 0.151522 0.856176 0.519443
O O2 0.176129 0.872635 0.695083
O O3 0.885744 0.764699 0.942440
O O4 0.718376 0.899916 0.082083
O O5 0.556117 0.500000 0.833147
O O6 0.900068 0.611352 0.427201
O O7 0.500000 0.623356 0.000000
O O8 0.410674 0.618904 0.892404
O O9 0.000000 0.902676 0.500000
O O10 0.793423 0.000000 0.591952
O O11 0.500000 0.892397 0.000000
O O12 0.500000 0.728709 0.500000
O O13 0.223087 0.626230 0.907014
O O14 0.000000 0.700093 0.000000
O O15 0.500000 0.881919 0.500000
O O16 0.634961 0.000000 0.467168
O O17 0.799873 0.500000 0.975123
#
# Coordination Sequence:
#
# PCOD8066541 Si02
#       6
#     4   4   4   4   4   4
#     4  12  23  40  61  85 120 159 197 242 302 360
#     4   9  17  33  60  92 123 152 188 243 305 362
#     4  10  21  38  61  88 117 151 192 237 286 346
#     4  12  26  43  62  85 119 162 205 255 315 367
#     4  11  22  36  59  90 119 151 195 242 288 347
#     4  10  21  38  61  90 121 160 211 257 305 366
#
# _framework density 21.273765000000001
#
# number of rings (size 3 to 8) (size 9 to 14) (size 15 to 20)
#    0.000    1.333    0.000    7.000    0.000    5.333 
#    0.000    2.500    0.000    0.000    0.000    0.000 
#    0.000    0.000    0.000    0.000    0.000    0.000 
#
# Total GULP energy -297687.211199 kJ/mol
# GULP energy per Si atom -12403.633800 kJ/mol
# Density = 2.122535 g / cm^3
# Si number density = 21.273765 Si / 1000 Ang^3
#
#
#
# Elastic Constant Matrix: (Units=GPa)
#
#
# Indices 1 2 3 4 5 6 
#
# 1 102.9924 44.6104 40.6022 0.0000 0.8111 0.0000
# 2 44.6104 70.1758 49.6573 0.0000 10.0237 0.0000
# 3 40.6022 49.6573 105.4759 0.0000 -0.0569 0.0000
# 4 0.0000 0.0000 0.0000 39.7387 0.0000 22.6259
# 5 0.8111 10.0237 -0.0569 0.0000 48.6670 0.0000
# 6 0.0000 0.0000 0.0000 22.6259 0.0000 48.0479
#
#
#
# Elastic Compliance Matrix: (Units=1/GPa)
#
#
# Indices 1 2 3 4 5 6 
#
# 1 0.013697 -0.007756 -0.001620 0.000000 0.001367 0.000000
# 2 -0.007756 0.026752 -0.009612 0.000000 -0.005392 0.000000
# 3 -0.001620 -0.009612 0.014631 0.000000 0.002024 0.000000
# 4 0.000000 0.000000 0.000000 0.034383 0.000000 -0.016191
# 5 0.001367 -0.005392 0.002024 0.000000 0.021638 0.000000
# 6 0.000000 0.000000 0.000000 -0.016191 0.000000 0.028437
#
#
# Mechanical properties :
#
#
# Convention : Reuss Voigt Hill
#
# Bulk Modulus (GPa) = 58.46771 60.93156 59.69963
# Shear Modulus (GPa) = 27.29030 36.87564 32.08297
#
# Velocity S-wave (km/s) = 3.58553 4.16791 3.88764
# Velocity P-wave (km/s) = 6.68464 7.20179 6.94803
#
# Compressibility (1/GPa) = 0.01710346
#
# Stress axis : x y z
#
# Youngs Moduli (GPa) = 73.00971 37.38045 68.34797
#
# Poissons Ratio (x) = 0.28991 0.11076
# Poissons Ratio (y) = 0.56624 0.65697
# Poissons Ratio (z) = 0.11831 0.35930
#
# Static dielectric constant tensor:
#      x y z
#    x 3.913920 0.000000 -0.097670 
#    y 0.000000 3.549140 0.000000 
#    z -0.097670 0.000000 3.949950 
# 
# 
# High freq. dielectric constant tensor:
#      x y z
#    x 1.844850 0.000000 -0.010430 
#    y 0.000000 1.806160 0.000000 
#    z -0.010430 0.000000 1.850870 
# 
# From -- ./inp_files/52050.got.cif
#   From: 2010.06.25/outbox.cif.g09.slc.cpg/sg10_27_cif.got.tgz:52050.got - 2010.06.27 22:07:45.
