data_PCOD8066644
_publ_section_title
;
Structure prediction by ZEFSAII (Michael W. Deem and Ramdas Pophale) SiO2 
 PCOD8066644
Probable space group: P 2/M
;
_chemical_formula_sum "Si O2"
_cell_formula_units_Z 32
_cell_length_a 15.104390
_cell_length_b 8.585718
_cell_length_c 25.970604
_cell_angle_alpha 90.000000
_cell_angle_beta 28.448173
_cell_angle_gamma 90.000000
_cell_volume 1604.354942
_symmetry_space_group_name_H-M "P 2/M"
_symmetry_group_IT_number 10
_symmetry_cell_setting 'monoclinic'
loop_
_space_group_symop_operation_xyz
x,y,z
-x,y,-z
-x,-y,-z
x,-y,z
loop_
_atom_site_type_symbol
_atom_site_label
_atom_site_fract_x
_atom_site_fract_y
_atom_site_fract_z
Si Si1 0.665029 0.317494 0.952277
Si Si2 0.231624 0.817638 0.998030
Si Si3 0.881834 0.817620 0.610184
Si Si4 0.855340 0.316438 0.444452
Si Si5 0.169740 0.816605 0.760602
Si Si6 0.931444 0.318024 0.290861
Si Si7 0.510442 0.681295 0.216141
Si Si8 0.515970 0.816879 0.322626
O O1 0.654106 0.500000 0.970956
O O2 0.854541 0.272128 0.826630
O O3 0.500000 0.263370 0.000000
O O4 0.644338 0.220790 0.015398
O O5 0.311088 0.723578 0.909212
O O6 0.237633 0.000000 0.982655
O O7 0.022086 0.756336 0.115720
O O8 0.666773 0.778933 0.711925
O O9 0.000000 0.765424 0.500000
O O10 0.955254 0.722787 0.622096
O O11 0.904332 0.000000 0.609185
O O12 0.815833 0.500000 0.467582
O O13 0.870660 0.256855 0.377891
O O14 0.692440 0.219847 0.554196
O O15 0.194589 0.755928 0.689612
O O16 0.342513 0.756923 0.705940
O O17 0.165347 0.000000 0.760313
O O18 0.901685 0.500000 0.302924
O O19 0.463185 0.500000 0.236069
O O20 0.565470 0.724521 0.245879
O O21 0.536583 0.000000 0.301682
#
# Coordination Sequence:
#
# PCOD8066644 Si02
#       8
#     4   4   4   4   4   4   4   4
#     4   9  18  34  56  82 114 154 196 239 291 348
#     4  10  21  39  60  86 118 152 195 244 296 352
#     4  11  23  40  62  87 119 158 197 243 294 347
#     4  11  23  38  59  90 123 159 198 240 296 354
#     4   9  21  41  64  86 115 156 198 247 299 347
#     4   9  20  37  57  85 120 155 193 241 292 349
#     4  12  25  40  61  89 120 156 196 241 296 358
#     4  11  23  41  62  86 116 154 202 250 296 348
#
# _framework density 19.945712
#
# number of rings (size 3 to 8) (size 9 to 14) (size 15 to 20)
#    0.000    1.750    1.250    2.625    1.750    4.250 
#    0.000    5.000    0.000    0.000    0.000    0.000 
#    0.000    0.000    0.000    0.000    0.000    0.000 
#
# Total GULP energy -396957.694246 kJ/mol
# GULP energy per Si atom -12404.927945 kJ/mol
# Density = 1.990031 g / cm^3
# Si number density = 19.945712 Si / 1000 Ang^3
#
#
#
# Elastic Constant Matrix: (Units=GPa)
#
#
# Indices 1 2 3 4 5 6 
#
# 1 134.7616 22.3039 33.5342 0.0000 10.4018 0.0000
# 2 22.3039 45.4392 22.3426 0.0000 9.0349 0.0000
# 3 33.5342 22.3426 58.2968 0.0000 26.3545 0.0000
# 4 0.0000 0.0000 0.0000 18.6872 0.0000 4.4014
# 5 10.4018 9.0349 26.3545 0.0000 35.3285 0.0000
# 6 0.0000 0.0000 0.0000 4.4014 0.0000 35.5407
#
#
#
# Elastic Compliance Matrix: (Units=1/GPa)
#
#
# Indices 1 2 3 4 5 6 
#
# 1 0.008914 -0.002235 -0.005044 0.000000 0.001710 0.000000
# 2 -0.002235 0.027714 -0.009701 0.000000 0.000807 0.000000
# 3 -0.005044 -0.009701 0.033164 0.000000 -0.020774 0.000000
# 4 0.000000 0.000000 0.000000 0.055120 0.000000 -0.006826
# 5 0.001710 0.000807 -0.020774 0.000000 0.043093 0.000000
# 6 0.000000 0.000000 0.000000 -0.006826 0.000000 0.028982
#
#
# Mechanical properties :
#
#
# Convention : Reuss Voigt Hill
#
# Bulk Modulus (GPa) = 27.90746 43.87322 35.89034
# Shear Modulus (GPa) = 20.58544 28.59907 24.59225
#
# Velocity S-wave (km/s) = 3.21607 3.79072 3.51516
# Velocity P-wave (km/s) = 5.27380 6.41900 5.87437
#
# Compressibility (1/GPa) = 0.03583272
#
# Stress axis : x y z
#
# Youngs Moduli (GPa) = 112.18879 36.08296 30.15309
#
# Poissons Ratio (x) = 0.08065 0.15208
# Poissons Ratio (y) = 0.25076 0.29250
# Poissons Ratio (z) = 0.56584 0.35003
#
# Static dielectric constant tensor:
#      x y z
#    x 3.861020 0.000000 0.099000 
#    y 0.000000 3.503010 0.000000 
#    z 0.099000 0.000000 3.692450 
# 
# 
# High freq. dielectric constant tensor:
#      x y z
#    x 1.787350 0.000000 0.005290 
#    y 0.000000 1.776000 0.000000 
#    z 0.005290 0.000000 1.775780 
# 
# From -- ./inp_files/66622.got.cif
#   From: 2010.06.25/outbox.cif.g09.slc.cpg/sg10_34_cif.got.tgz:66622.got - 2010.06.27 22:07:45.
