data_PCOD8066421
_publ_section_title
;
Structure prediction by ZEFSAII (Michael W. Deem and Ramdas Pophale) SiO2 
 PCOD8066421
Probable space group: P 2/M
;
_chemical_formula_sum "Si O2"
_cell_formula_units_Z 32
_cell_length_a 15.381061
_cell_length_b 8.876863
_cell_length_c 22.791254
_cell_angle_alpha 90.000000
_cell_angle_beta 30.557427
_cell_angle_gamma 90.000000
_cell_volume 1582.053027
_symmetry_space_group_name_H-M "P 2/M"
_symmetry_group_IT_number 10
_symmetry_cell_setting 'monoclinic'
loop_
_space_group_symop_operation_xyz
x,y,z
-x,y,-z
-x,-y,-z
x,-y,z
loop_
_atom_site_type_symbol
_atom_site_label
_atom_site_fract_x
_atom_site_fract_y
_atom_site_fract_z
Si Si1 0.119484 0.329335 0.688067
Si Si2 0.521145 0.822542 0.920579
Si Si3 0.320725 0.671910 0.687017
Si Si4 0.011041 0.176379 0.926229
Si Si5 0.659654 0.175526 0.527783
Si Si6 0.198539 0.321929 0.050541
Si Si7 0.203709 0.325466 0.443527
Si Si8 0.190897 0.674461 0.317645
O O1 0.103504 0.500000 0.673668
O O2 0.268654 0.318012 0.649499
O O3 0.164987 0.220014 0.607650
O O4 0.939801 0.274935 0.819735
O O5 0.706538 0.774374 0.788786
O O6 0.499142 0.000000 0.928462
O O7 0.500000 0.768143 0.000000
O O8 0.380750 0.744390 0.961410
O O9 0.307734 0.500000 0.716688
O O10 0.198001 0.775308 0.796901
O O11 0.511292 0.731638 0.582616
O O12 0.861025 0.259541 0.977719
O O13 0.987017 0.000000 0.930521
O O14 0.000000 0.223627 0.000000
O O15 0.675051 0.222336 0.586812
O O16 0.622134 0.000000 0.544566
O O17 0.211493 0.500000 0.037470
O O18 0.236230 0.500000 0.439061
O O19 0.253326 0.290894 0.347540
O O20 0.007778 0.283246 0.570905
O O21 0.220758 0.500000 0.285079
#
# Coordination Sequence:
#
# PCOD8066421 Si02
#       8
#     4   4   4   4   4   4   4   4
#     4   9  20  38  58  81 112 150 192 240 289 339
#     4  11  25  41  60  90 127 161 197 248 306 359
#     4  10  21  38  58  81 112 152 197 240 282 335
#     4  10  21  38  61  88 120 155 190 238 299 356
#     4  12  24  34  54  87 118 152 191 232 289 352
#     4  10  22  40  62  87 115 156 204 245 292 351
#     4   9  20  40  63  87 114 149 195 246 297 349
#     4   9  20  41  66  87 112 150 197 247 297 351
#
# _framework density 20.226882
#
# number of rings (size 3 to 8) (size 9 to 14) (size 15 to 20)
#    0.000    2.000    0.000    4.500    1.750    8.500 
#    0.000    1.250    0.000    0.000    0.000    0.000 
#    0.000    0.000    0.000    0.000    0.000    0.000 
#
# Total GULP energy -396918.338190 kJ/mol
# GULP energy per Si atom -12403.698068 kJ/mol
# Density = 2.018084 g / cm^3
# Si number density = 20.226882 Si / 1000 Ang^3
#
#
#
# Elastic Constant Matrix: (Units=GPa)
#
#
# Indices 1 2 3 4 5 6 
#
# 1 65.3360 39.8393 29.1035 0.0000 11.7710 0.0000
# 2 39.8393 61.2381 19.5173 0.0000 5.8614 0.0000
# 3 29.1035 19.5173 70.6681 0.0000 10.3511 0.0000
# 4 0.0000 0.0000 0.0000 22.0905 0.0000 7.9701
# 5 11.7710 5.8614 10.3511 0.0000 30.1511 0.0000
# 6 0.0000 0.0000 0.0000 7.9701 0.0000 22.4537
#
#
#
# Elastic Compliance Matrix: (Units=1/GPa)
#
#
# Indices 1 2 3 4 5 6 
#
# 1 0.029359 -0.016397 -0.006687 0.000000 -0.005979 0.000000
# 2 -0.016397 0.027165 -0.000962 0.000000 0.001451 0.000000
# 3 -0.006687 -0.000962 0.017648 0.000000 -0.003261 0.000000
# 4 0.000000 0.000000 0.000000 0.051917 0.000000 -0.018428
# 5 -0.005979 0.001451 -0.003261 0.000000 0.036338 0.000000
# 6 0.000000 0.000000 0.000000 -0.018428 0.000000 0.051077
#
#
# Mechanical properties :
#
#
# Convention : Reuss Voigt Hill
#
# Bulk Modulus (GPa) = 38.34320 41.57362 39.95841
# Shear Modulus (GPa) = 18.49871 22.19120 20.34496
#
# Velocity S-wave (km/s) = 3.02745 3.31587 3.17493
# Velocity P-wave (km/s) = 5.58734 5.93786 5.76526
#
# Compressibility (1/GPa) = 0.02608024
#
# Stress axis : x y z
#
# Youngs Moduli (GPa) = 34.06078 36.81274 56.66375
#
# Poissons Ratio (x) = 0.60360 0.37891
# Poissons Ratio (y) = 0.55848 0.05452
# Poissons Ratio (z) = 0.22776 0.03542
#
# Static dielectric constant tensor:
#      x y z
#    x 3.674440 0.000000 0.049780 
#    y 0.000000 3.549360 0.000000 
#    z 0.049780 0.000000 3.615920 
# 
# 
# High freq. dielectric constant tensor:
#      x y z
#    x 1.794570 0.000000 0.002060 
#    y 0.000000 1.786960 0.000000 
#    z 0.002060 0.000000 1.787540 
# 
# From -- ./inp_files/89532.got.cif
#   From: 2010.06.25/outbox.cif.g09.slc.cpg/sg10_45_cif.got.tgz:89532.got - 2010.06.27 22:07:45.
