data_PCOD8066690
_publ_section_title
;
Structure prediction by ZEFSAII (Michael W. Deem and Ramdas Pophale) SiO2 
 PCOD8066690
Probable space group: P 2/M
;
_chemical_formula_sum "Si O2"
_cell_formula_units_Z 32
_cell_length_a 25.027704
_cell_length_b 8.933382
_cell_length_c 14.441792
_cell_angle_alpha 90.000000
_cell_angle_beta 150.763062
_cell_angle_gamma 90.000000
_cell_volume 1577.079202
_symmetry_space_group_name_H-M "P 2/M"
_symmetry_group_IT_number 10
_symmetry_cell_setting 'monoclinic'
loop_
_space_group_symop_operation_xyz
x,y,z
-x,y,-z
-x,-y,-z
x,-y,z
loop_
_atom_site_type_symbol
_atom_site_label
_atom_site_fract_x
_atom_site_fract_y
_atom_site_fract_z
Si Si1 0.107717 0.826858 0.716444
Si Si2 0.292454 0.823616 0.321970
Si Si3 0.520523 0.824830 0.136577
Si Si4 0.491629 0.674507 0.380284
Si Si5 0.137068 0.677473 0.955363
Si Si6 0.264702 0.327388 0.460834
Si Si7 0.654633 0.827349 0.976230
Si Si8 0.971406 0.672676 0.856935
O O1 0.114056 0.729486 0.817683
O O2 0.000000 0.772275 0.500000
O O3 0.097638 0.000000 0.729601
O O4 0.215074 0.800809 0.813866
O O5 0.416121 0.772466 0.530962
O O6 0.227176 0.759709 0.311127
O O7 0.282766 0.000000 0.299606
O O8 0.250695 0.747870 0.163952
O O9 0.628953 0.739438 0.330732
O O10 0.413942 0.777950 0.036262
O O11 0.544168 0.000000 0.182184
O O12 0.500000 0.778178 0.000000
O O13 0.500000 0.715205 0.500000
O O14 0.510163 0.500000 0.390158
O O15 0.378620 0.727696 0.163243
O O16 0.148456 0.500000 0.973001
O O17 0.041572 0.741689 0.878563
O O18 0.287385 0.500000 0.470870
O O19 0.157393 0.309235 0.363369
O O20 0.630638 0.000000 0.916832
O O21 0.005686 0.500000 0.914958
O O22 0.000000 0.747305 0.000000
#
# Coordination Sequence:
#
# PCOD8066690 Si02
#       8
#     4   4   4   4   4   4   4   4
#     4  10  23  43  64  88 122 164 207 250 303 362
#     4  12  23  36  57  87 124 160 196 243 306 367
#     4  10  22  40  61  88 122 160 203 250 303 362
#     4  11  23  37  57  88 121 157 202 250 299 358
#     4  11  22  39  63  90 121 160 207 257 305 358
#     4  11  21  37  61  87 118 158 203 249 299 357
#     4  10  21  39  62  87 120 162 200 246 306 360
#     4   9  18  35  58  85 121 161 197 243 310 364
#
# _framework density 20.290672000000001
#
# number of rings (size 3 to 8) (size 9 to 14) (size 15 to 20)
#    0.000    1.500    2.500    3.000    0.000    5.000 
#    0.000    4.375    0.000    0.000    0.000    0.000 
#    0.000    0.000    0.000    0.000    0.000    0.000 
#
# Total GULP energy -396776.900143 kJ/mol
# GULP energy per Si atom -12399.278129 kJ/mol
# Density = 2.024449 g / cm^3
# Si number density = 20.290672 Si / 1000 Ang^3
#
#
#
# Elastic Constant Matrix: (Units=GPa)
#
#
# Indices 1 2 3 4 5 6 
#
# 1 99.9857 34.6274 52.7750 0.0000 -0.1137 0.0000
# 2 34.6274 85.0090 46.5357 0.0000 -8.7943 0.0000
# 3 52.7750 46.5357 137.0524 0.0000 1.8534 0.0000
# 4 0.0000 0.0000 0.0000 25.9905 0.0000 -3.4499
# 5 -0.1137 -8.7943 1.8534 0.0000 33.8734 0.0000
# 6 0.0000 0.0000 0.0000 -3.4499 0.0000 25.4663
#
#
#
# Elastic Compliance Matrix: (Units=1/GPa)
#
#
# Indices 1 2 3 4 5 6 
#
# 1 0.013234 -0.003275 -0.003976 0.000000 -0.000588 0.000000
# 2 -0.003275 0.015829 -0.004172 0.000000 0.004327 0.000000
# 3 -0.003976 -0.004172 0.010267 0.000000 -0.001658 0.000000
# 4 0.000000 0.000000 0.000000 0.039180 0.000000 0.005308
# 5 -0.000588 0.004327 -0.001658 0.000000 0.030734 0.000000
# 6 0.000000 0.000000 0.000000 0.005308 0.000000 0.039987
#
#
# Mechanical properties :
#
#
# Convention : Reuss Voigt Hill
#
# Bulk Modulus (GPa) = 60.66784 65.54702 63.10743
# Shear Modulus (GPa) = 28.15792 29.60662 28.88227
#
# Velocity S-wave (km/s) = 3.72926 3.82399 3.77692
# Velocity P-wave (km/s) = 6.96473 7.20218 7.08445
#
# Compressibility (1/GPa) = 0.01648320
#
# Stress axis : x y z
#
# Youngs Moduli (GPa) = 75.56567 63.17531 97.40368
#
# Poissons Ratio (x) = 0.20689 0.38727
# Poissons Ratio (y) = 0.24747 0.40638
# Poissons Ratio (z) = 0.30044 0.26358
#
# Static dielectric constant tensor:
#      x y z
#    x 3.857070 0.000000 0.197140 
#    y 0.000000 3.483510 0.000000 
#    z 0.197140 0.000000 3.706290 
# 
# 
# High freq. dielectric constant tensor:
#      x y z
#    x 1.795570 0.000000 0.015400 
#    y 0.000000 1.778510 0.000000 
#    z 0.015400 0.000000 1.794950 
# 
# From -- ./inp_files/71636.got.cif
#   From: 2010.06.25/outbox.cif.g09.slc.cpg/sg10_36_cif.got.tgz:71636.got - 2010.06.27 22:07:45.
