data_PCOD8066579
_publ_section_title
;
Structure prediction by ZEFSAII (Michael W. Deem and Ramdas Pophale) SiO2 
 PCOD8066579
Probable space group: P 2/M
;
_chemical_formula_sum "Si O2"
_cell_formula_units_Z 28
_cell_length_a 14.683548
_cell_length_b 10.686795
_cell_length_c 9.980342
_cell_angle_alpha 90.000000
_cell_angle_beta 58.708917
_cell_angle_gamma 90.000000
_cell_volume 1338.308202
_symmetry_space_group_name_H-M "P 2/M"
_symmetry_group_IT_number 10
_symmetry_cell_setting 'monoclinic'
loop_
_space_group_symop_operation_xyz
x,y,z
-x,y,-z
-x,-y,-z
x,-y,z
loop_
_atom_site_type_symbol
_atom_site_label
_atom_site_fract_x
_atom_site_fract_y
_atom_site_fract_z
Si Si1 0.446915 0.000000 0.396388
Si Si2 0.591737 0.360240 0.165698
Si Si3 0.091885 0.142196 0.822694
Si Si4 0.367989 0.749567 0.361070
Si Si5 0.732710 0.356502 0.310246
Si Si6 0.048563 0.856280 0.324645
Si Si7 0.406826 0.000000 0.964014
Si Si8 0.724391 0.762838 0.856436
O O1 0.500000 0.000000 0.500000
O O2 0.367566 0.883530 0.434691
O O3 0.545645 0.000000 0.219863
O O4 0.548270 0.500000 0.204309
O O5 0.488615 0.274755 0.220978
O O6 0.645447 0.323981 0.265020
O O7 0.675026 0.351710 0.978465
O O8 0.177245 0.251622 0.777168
O O9 0.043389 0.159569 0.713316
O O10 0.139256 0.000000 0.802319
O O11 0.000000 0.163307 0.000000
O O12 0.322670 0.650034 0.501728
O O13 0.292946 0.749071 0.288769
O O14 0.775678 0.500000 0.259240
O O15 0.149956 0.771086 0.210589
O O16 0.000000 0.807254 0.500000
O O17 0.086859 0.000000 0.307765
O O18 0.500000 0.000000 0.000000
O O19 0.332666 0.118024 0.038430
#
# Coordination Sequence:
#
# PCOD8066579 Si02
#       8
#     2   4   4   4   4   4   2   4
#     4  12  24  38  58  96 135 172 210 259 322 375
#     4  11  24  42  62  89 127 172 219 261 314 395
#     4  10  22  43  66  95 124 158 217 278 331 389
#     4  12  24  39  62  94 135 170 211 263 318 390
#     4  11  25  44  66  92 128 176 218 264 334 395
#     4  10  21  38  62  90 124 162 206 262 330 389
#     4  12  20  40  59  94 134 169 208 258 323 380
#     4  12  22  39  65  92 127 169 213 266 321 387
#
# _framework density 20.921937
#
# number of rings (size 3 to 8) (size 9 to 14) (size 15 to 20)
#    0.000    0.857    3.571    3.857    1.000    3.143 
#    2.571    0.714    0.000    1.714    0.000    0.000 
#    0.000    0.000    0.000    0.000    0.000    0.000 
#
# Total GULP energy -347278.025852 kJ/mol
# GULP energy per Si atom -12402.786638 kJ/mol
# Density = 2.087432 g / cm^3
# Si number density = 20.921937 Si / 1000 Ang^3
#
#
#
# Elastic Constant Matrix: (Units=GPa)
#
#
# Indices 1 2 3 4 5 6 
#
# 1 45.9426 36.1298 -4.4300 0.0000 -1.6192 0.0000
# 2 36.1298 94.2876 15.3381 0.0000 -6.9057 0.0000
# 3 -4.4300 15.3381 84.8338 0.0000 10.8852 0.0000
# 4 0.0000 0.0000 0.0000 36.7031 0.0000 -3.4040
# 5 -1.6192 -6.9057 10.8852 0.0000 43.9729 0.0000
# 6 0.0000 0.0000 0.0000 -3.4040 0.0000 25.2221
#
#
#
# Elastic Compliance Matrix: (Units=1/GPa)
#
#
# Indices 1 2 3 4 5 6 
#
# 1 0.032622 -0.013356 0.004372 0.000000 -0.001979 0.000000
# 2 -0.013356 0.016621 -0.004105 0.000000 0.003135 0.000000
# 3 0.004372 -0.004105 0.013241 0.000000 -0.003761 0.000000
# 4 0.000000 0.000000 0.000000 0.027591 0.000000 0.003724
# 5 -0.001979 0.003135 -0.003761 0.000000 0.024092 0.000000
# 6 0.000000 0.000000 0.000000 0.003724 0.000000 0.040150
#
#
# Mechanical properties :
#
#
# Convention : Reuss Voigt Hill
#
# Bulk Modulus (GPa) = 27.54375 35.45999 31.50187
# Shear Modulus (GPa) = 25.96095 33.04803 29.50449
#
# Velocity S-wave (km/s) = 3.52639 3.97871 3.75936
# Velocity P-wave (km/s) = 5.45657 6.17190 5.82523
#
# Compressibility (1/GPa) = 0.03630587
#
# Stress axis : x y z
#
# Youngs Moduli (GPa) = 30.65431 60.16414 75.52384
#
# Poissons Ratio (x) = 0.80358 -0.33021
# Poissons Ratio (y) = 0.40943 0.31001
# Poissons Ratio (z) = -0.13403 0.24696
#
# Static dielectric constant tensor:
#      x y z
#    x 3.848050 0.000000 0.120490 
#    y 0.000000 3.898820 0.000000 
#    z 0.120490 0.000000 3.863930 
# 
# 
# High freq. dielectric constant tensor:
#      x y z
#    x 1.814630 0.000000 0.009220 
#    y 0.000000 1.813580 0.000000 
#    z 0.009220 0.000000 1.834790 
# 
# From -- ./inp_files/28519.got.cif
#   From: 2010.06.25/outbox.cif.g09.slc.cpg/sg10_15_cif.got.tgz:28519.got - 2010.06.27 22:07:45.
