data_PCOD8066428
_publ_section_title
;
Structure prediction by ZEFSAII (Michael W. Deem and Ramdas Pophale) SiO2 
 PCOD8066428
Probable space group: P 2/M
;
_chemical_formula_sum "Si O2"
_cell_formula_units_Z 28
_cell_length_a 9.333786
_cell_length_b 14.084221
_cell_length_c 11.736000
_cell_angle_alpha 90.000000
_cell_angle_beta 119.980356
_cell_angle_gamma 90.000000
_cell_volume 1336.371902
_symmetry_space_group_name_H-M "P 2/M"
_symmetry_group_IT_number 10
_symmetry_cell_setting 'monoclinic'
loop_
_space_group_symop_operation_xyz
x,y,z
-x,y,-z
-x,-y,-z
x,-y,z
loop_
_atom_site_type_symbol
_atom_site_label
_atom_site_fract_x
_atom_site_fract_y
_atom_site_fract_z
Si Si1 0.343406 0.709285 0.645649
Si Si2 0.182125 0.107381 0.627209
Si Si3 0.230923 0.395054 0.806485
Si Si4 0.695044 0.891565 0.070830
Si Si5 0.868457 0.603263 0.594523
Si Si6 0.823921 0.280647 0.989718
Si Si7 0.340437 0.613057 0.274218
O O1 0.325339 0.823689 0.633338
O O2 0.355156 0.670313 0.781213
O O3 0.173413 0.675029 0.521997
O O4 0.485052 0.662248 0.622537
O O5 0.196452 0.123562 0.769922
O O6 0.000000 0.128594 0.500000
O O7 0.233533 0.000000 0.616957
O O8 0.309253 0.500000 0.857409
O O9 0.180016 0.347117 0.902819
O O10 0.063618 0.405693 0.669993
O O11 0.770907 0.825790 0.002110
O O12 0.714486 0.000000 0.038107
O O13 0.500000 0.866157 0.000000
O O14 0.788233 0.500000 0.537302
O O15 0.798077 0.638199 0.688513
O O16 0.696055 0.329730 0.854852
O O17 0.000000 0.278078 0.000000
O O18 0.357042 0.500000 0.259710
#
# Coordination Sequence:
#
# PCOD8066428 Si02
#       7
#     4   4   4   4   4   4   4
#     4  12  22  37  62  90 121 152 207 263 311 365
#     4  10  21  38  64  94 124 159 205 258 319 380
#     4  11  22  36  57  87 117 156 202 253 301 357
#     4  10  22  43  67  93 126 163 209 264 323 379
#     4  10  21  38  58  83 120 164 201 239 303 375
#     4  12  24  39  61  87 122 165 210 252 310 368
#     4  11  24  40  59  87 125 170 207 249 311 380
#
# _framework density 20.952251
#
# number of rings (size 3 to 8) (size 9 to 14) (size 15 to 20)
#    0.000    1.143    2.857    4.286    0.000    3.143 
#    0.000    1.429    0.000    2.571    0.000    0.000 
#    0.000    0.000    0.000    0.000    0.000    0.000 
#
# Total GULP energy -346951.655725 kJ/mol
# GULP energy per Si atom -12391.130562 kJ/mol
# Density = 2.090456 g / cm^3
# Si number density = 20.952251 Si / 1000 Ang^3
#
#
#
# Elastic Constant Matrix: (Units=GPa)
#
#
# Indices 1 2 3 4 5 6 
#
# 1 71.2784 29.5407 7.8265 0.0000 -6.2525 0.0000
# 2 29.5407 129.6055 22.5362 0.0000 -10.7036 0.0000
# 3 7.8265 22.5362 72.2062 0.0000 -0.0886 0.0000
# 4 0.0000 0.0000 0.0000 35.3943 0.0000 -4.0688
# 5 -6.2525 -10.7036 -0.0886 0.0000 24.1773 0.0000
# 6 0.0000 0.0000 0.0000 -4.0688 0.0000 30.8657
#
#
#
# Elastic Compliance Matrix: (Units=1/GPa)
#
#
# Indices 1 2 3 4 5 6 
#
# 1 0.015676 -0.003238 -0.000685 0.000000 0.002618 0.000000
# 2 -0.003238 0.009153 -0.002502 0.000000 0.003206 0.000000
# 3 -0.000685 -0.002502 0.014703 0.000000 -0.001231 0.000000
# 4 0.000000 0.000000 0.000000 0.028688 0.000000 0.003782
# 5 0.002618 0.003206 -0.001231 0.000000 0.043453 0.000000
# 6 0.000000 0.000000 0.000000 0.003782 0.000000 0.032897
#
#
# Mechanical properties :
#
#
# Convention : Reuss Voigt Hill
#
# Bulk Modulus (GPa) = 37.47787 43.65521 40.56654
# Shear Modulus (GPa) = 30.06347 32.29991 31.18169
#
# Velocity S-wave (km/s) = 3.79206 3.93058 3.86194
# Velocity P-wave (km/s) = 6.09090 6.44050 6.26814
#
# Compressibility (1/GPa) = 0.02668241
#
# Stress axis : x y z
#
# Youngs Moduli (GPa) = 63.79085 109.24794 68.01369
#
# Poissons Ratio (x) = 0.35370 0.04662
# Poissons Ratio (y) = 0.20653 0.17017
# Poissons Ratio (z) = 0.04373 0.27334
#
# Static dielectric constant tensor:
#      x y z
#    x 3.616810 0.000000 0.111240 
#    y 0.000000 4.103230 0.000000 
#    z 0.111240 0.000000 4.030600 
# 
# 
# High freq. dielectric constant tensor:
#      x y z
#    x 1.806030 0.000000 0.004980 
#    y 0.000000 1.826350 0.000000 
#    z 0.004980 0.000000 1.829270 
# 
# From -- ./inp_files/32840.got.cif
#   From: 2010.06.25/outbox.cif.g09.slc.cpg/sg10_17_cif.got.tgz:32840.got - 2010.06.27 22:07:45.
