data_PCOD8066450
_publ_section_title
;
Structure prediction by ZEFSAII (Michael W. Deem and Ramdas Pophale) SiO2 
 PCOD8066450
Probable space group: P 2/M
;
_chemical_formula_sum "Si O2"
_cell_formula_units_Z 22
_cell_length_a 5.211144
_cell_length_b 7.407710
_cell_length_c 26.637831
_cell_angle_alpha 90.000000
_cell_angle_beta 101.281509
_cell_angle_gamma 90.000000
_cell_volume 1008.421902
_symmetry_space_group_name_H-M "P 2/M"
_symmetry_group_IT_number 10
_symmetry_cell_setting 'monoclinic'
loop_
_space_group_symop_operation_xyz
x,y,z
-x,y,-z
-x,-y,-z
x,-y,z
loop_
_atom_site_type_symbol
_atom_site_label
_atom_site_fract_x
_atom_site_fract_y
_atom_site_fract_z
Si Si1 0.452916 0.715338 0.202916
Si Si2 0.105433 0.714937 0.855433
Si Si3 0.779095 0.284966 0.029095
Si Si4 0.567618 0.713000 0.317619
Si Si5 0.215579 0.000000 0.465579
Si Si6 0.870944 0.714241 0.620942
O O1 0.453706 0.500000 0.203707
O O2 0.673607 0.789175 0.173678
O O3 0.510465 0.794403 0.260465
O O4 0.173748 0.789175 0.173678
O O5 0.105800 0.500000 0.855800
O O6 0.163162 0.790219 0.913162
O O7 0.779346 0.500000 0.029346
O O8 0.500000 0.210423 0.000000
O O9 0.000000 0.210423 0.000000
O O10 0.563450 0.500000 0.313449
O O11 0.345510 0.778501 0.347408
O O12 0.849301 0.778503 0.347409
O O13 0.500000 0.000000 0.500000
O O14 0.182604 0.182796 0.432604
O O15 0.000000 0.000000 0.500000
O O16 0.860204 0.500000 0.610202
#
# Coordination Sequence:
#
# PCOD8066450 Si02
#       6
#     4   4   4   4   2   4
#     4   9  15  23  37  58  82 108 145 198 257 309
#     4   9  15  21  30  47  72 103 145 203 260 305
#     4   9  15  21  27  36  57  96 146 198 251 303
#     4   9  17  31  52  76 102 134 170 213 268 324
#     4  12  26  42  62  88 116 148 186 226 264 306
#     4  10  21  38  59  83 112 145 181 222 267 316
#
# _framework density 21.816261999999998
#
# number of rings (size 3 to 8) (size 9 to 14) (size 15 to 20)
#    0.000    2.545    0.000    3.273    0.000    9.455 
#    0.000    0.000    0.000    0.000    0.000    0.000 
#    0.000    0.000    0.000    0.000    0.000    0.000 
#
# Total GULP energy -272807.166701 kJ/mol
# GULP energy per Si atom -12400.325759 kJ/mol
# Density = 2.176661 g / cm^3
# Si number density = 21.816262 Si / 1000 Ang^3
#
#
#
# Elastic Constant Matrix: (Units=GPa)
#
#
# Indices 1 2 3 4 5 6 
#
# 1 253.9621 16.4927 133.5134 0.0000 0.5222 0.0000
# 2 16.4927 48.1054 29.6393 0.0000 -0.5530 0.0000
# 3 133.5134 29.6393 231.3490 0.0000 0.4304 0.0000
# 4 0.0000 0.0000 0.0000 -21.2348 0.0000 0.7556
# 5 0.5222 -0.5530 0.4304 0.0000 54.0335 0.0000
# 6 0.0000 0.0000 0.0000 0.7556 0.0000 -3.2559
#
#
#
# Elastic Compliance Matrix: (Units=1/GPa)
#
#
# Indices 1 2 3 4 5 6 
#
# 1 0.005653 0.000078 -0.003272 0.000000 -0.000028 0.000000
# 2 0.000078 0.022574 -0.002937 0.000000 0.000254 0.000000
# 3 -0.003272 -0.002937 0.006587 0.000000 -0.000051 0.000000
# 4 0.000000 0.000000 0.000000 -0.047485 0.000000 -0.011020
# 5 -0.000028 0.000254 -0.000051 0.000000 0.018510 0.000000
# 6 0.000000 0.000000 0.000000 -0.011020 0.000000 -0.309691
#
#
# Mechanical properties :
#
#
# Convention : Reuss Voigt Hill
#
# Bulk Modulus (GPa) = 44.34540 99.18969 71.76754
# Shear Modulus (GPa) = -17.60124 29.49329 5.94602
#
# Velocity S-wave (km/s) = -2.84349 3.68080 1.65270
# Velocity P-wave (km/s) = 3.09682 7.97678 6.05059
#
# Compressibility (1/GPa) = 0.02255025
#
# Stress axis : x y z
#
# Youngs Moduli (GPa) = 176.90073 44.29918 151.80666
#
# Poissons Ratio (x) = -0.00344 0.49675
# Poissons Ratio (y) = -0.01375 0.44592
# Poissons Ratio (z) = 0.57886 0.13012
#
# Static dielectric constant tensor:
#      x y z
#    x 4.276730 0.000000 0.007600 
#    y 0.000000 3.273290 0.000000 
#    z 0.007600 0.000000 4.096030 
# 
# 
# High freq. dielectric constant tensor:
#      x y z
#    x 1.874810 0.000000 0.000410 
#    y 0.000000 1.822960 0.000000 
#    z 0.000410 0.000000 1.865060 
# 
# From -- ./inp_files/13026.got.cif
#   From: 2010.06.25/outbox.cif.g09.slc.cpg/sg10_7_cif.got.tgz:13026.got - 2010.06.27 22:07:45.
