data_PCOD8066130
_publ_section_title
;
Structure prediction by ZEFSAII (Michael W. Deem and Ramdas Pophale) SiO2 
 PCOD8066130
Probable space group: P 2/M
;
_chemical_formula_sum "Si O2"
_cell_formula_units_Z 32
_cell_length_a 20.036873
_cell_length_b 8.937028
_cell_length_c 24.912071
_cell_angle_alpha 90.000000
_cell_angle_beta 156.989451
_cell_angle_gamma 90.000000
_cell_volume 1743.810284
_symmetry_space_group_name_H-M "P 2/M"
_symmetry_group_IT_number 10
_symmetry_cell_setting 'monoclinic'
loop_
_space_group_symop_operation_xyz
x,y,z
-x,y,-z
-x,-y,-z
x,-y,z
loop_
_atom_site_type_symbol
_atom_site_label
_atom_site_fract_x
_atom_site_fract_y
_atom_site_fract_z
Si Si1 0.019436 0.824670 0.675103
Si Si2 0.346990 0.175533 0.849788
Si Si3 0.650461 0.326103 0.797946
Si Si4 0.153344 0.334796 0.155453
Si Si5 0.473407 0.324929 0.840697
Si Si6 0.941280 0.824086 0.080739
Si Si7 0.862429 0.322533 0.130837
Si Si8 0.684894 0.327175 0.390497
O O1 0.843025 0.781426 0.516557
O O2 0.168818 0.779584 0.744723
O O3 0.038206 0.731495 0.743242
O O4 0.024216 0.000000 0.691964
O O5 0.354321 0.248920 0.796844
O O6 0.366717 0.000000 0.856666
O O7 0.500000 0.238681 0.000000
O O8 0.698241 0.500000 0.844128
O O9 0.682048 0.284727 0.758365
O O10 0.453005 0.296484 0.664775
O O11 0.768144 0.228331 0.923965
O O12 0.182305 0.500000 0.201771
O O13 0.109596 0.220622 0.170837
O O14 0.000000 0.339217 0.000000
O O15 0.469982 0.500000 0.848438
O O16 0.400009 0.282628 0.728561
O O17 0.667080 0.264728 0.988345
O O18 0.957992 0.747828 0.150827
O O19 0.937551 0.000000 0.085108
O O20 0.871445 0.500000 0.132928
O O21 0.744110 0.500000 0.434585
#
# Coordination Sequence:
#
# PCOD8066130 Si02
#       8
#     4   4   4   4   4   4   4   4
#     4  11  24  40  57  83 113 146 185 226 280 341
#     4  10  21  38  58  80 113 148 180 224 279 336
#     4   9  17  33  54  76 109 150 190 227 271 327
#     4   8  15  28  48  74 107 147 185 226 272 323
#     4  10  21  36  60  86 108 140 189 235 271 321
#     4  11  20  29  49  82 116 145 180 231 280 327
#     4  11  21  37  59  82 109 145 188 234 276 324
#     4  10  21  39  58  82 114 148 187 231 276 327
#
# _framework density 18.350619999999999
#
# number of rings (size 3 to 8) (size 9 to 14) (size 15 to 20)
#    0.000    2.000    2.500    2.625    0.000    5.500 
#    0.000    2.500    0.000    0.750    0.000    5.250 
#    0.000    0.000    0.000    0.000    0.000    0.000 
#
# Total GULP energy -396842.226394 kJ/mol
# GULP energy per Si atom -12401.319575 kJ/mol
# Density = 1.830885 g / cm^3
# Si number density = 18.350620 Si / 1000 Ang^3
#
#
#
# Elastic Constant Matrix: (Units=GPa)
#
#
# Indices 1 2 3 4 5 6 
#
# 1 136.7443 47.9136 38.6888 0.0000 17.2371 0.0000
# 2 47.9136 71.0773 22.7126 0.0000 3.0014 0.0000
# 3 38.6888 22.7126 72.4564 0.0000 9.3662 0.0000
# 4 0.0000 0.0000 0.0000 25.7875 0.0000 -1.4626
# 5 17.2371 3.0014 9.3662 0.0000 24.2008 0.0000
# 6 0.0000 0.0000 0.0000 -1.4626 0.0000 19.7873
#
#
#
# Elastic Compliance Matrix: (Units=1/GPa)
#
#
# Indices 1 2 3 4 5 6 
#
# 1 0.011162 -0.006239 -0.003239 0.000000 -0.005923 0.000000
# 2 -0.006239 0.019123 -0.003085 0.000000 0.003266 0.000000
# 3 -0.003239 -0.003085 0.017001 0.000000 -0.003890 0.000000
# 4 0.000000 0.000000 0.000000 0.038942 0.000000 0.002878
# 5 -0.005923 0.003266 -0.003890 0.000000 0.046640 0.000000
# 6 0.000000 0.000000 0.000000 0.002878 0.000000 0.050750
#
#
# Mechanical properties :
#
#
# Convention : Reuss Voigt Hill
#
# Bulk Modulus (GPa) = 45.12712 55.43422 50.28067
# Shear Modulus (GPa) = 23.13416 25.35265 24.24341
#
# Velocity S-wave (km/s) = 3.55445 3.72098 3.63867
# Velocity P-wave (km/s) = 6.44131 6.98104 6.71660
#
# Compressibility (1/GPa) = 0.02215962
#
# Stress axis : x y z
#
# Youngs Moduli (GPa) = 89.58946 52.29283 58.82138
#
# Poissons Ratio (x) = 0.32627 0.19050
# Poissons Ratio (y) = 0.55898 0.18147
# Poissons Ratio (z) = 0.29014 0.16133
#
# Static dielectric constant tensor:
#      x y z
#    x 3.725940 0.000000 0.250500 
#    y 0.000000 3.262210 0.000000 
#    z 0.250500 0.000000 3.139070 
# 
# 
# High freq. dielectric constant tensor:
#      x y z
#    x 1.728500 0.000000 0.013870 
#    y 0.000000 1.706590 0.000000 
#    z 0.013870 0.000000 1.678470 
# 
# From -- ./inp_files/93766.got.cif
#   From: 2010.06.25/outbox.cif.g09.slc.cpg/sg10_47_cif.got.tgz:93766.got - 2010.06.27 22:07:45.
