data_PCOD8066669
_publ_section_title
;
Structure prediction by ZEFSAII (Michael W. Deem and Ramdas Pophale) SiO2 
 PCOD8066669
Probable space group: P 2/M
;
_chemical_formula_sum "Si O2"
_cell_formula_units_Z 28
_cell_length_a 27.083121
_cell_length_b 8.653375
_cell_length_c 9.298147
_cell_angle_alpha 90.000000
_cell_angle_beta 37.938494
_cell_angle_gamma 90.000000
_cell_volume 1339.754555
_symmetry_space_group_name_H-M "P 2/M"
_symmetry_group_IT_number 10
_symmetry_cell_setting 'monoclinic'
loop_
_space_group_symop_operation_xyz
x,y,z
-x,y,-z
-x,-y,-z
x,-y,z
loop_
_atom_site_type_symbol
_atom_site_label
_atom_site_fract_x
_atom_site_fract_y
_atom_site_fract_z
Si Si1 0.431497 0.682051 0.763150
Si Si2 0.527687 0.818238 0.783564
Si Si3 0.865069 0.821787 0.466853
Si Si4 0.708290 0.817071 0.331524
Si Si5 0.976672 0.178168 0.714088
Si Si6 0.737011 0.318321 0.968096
Si Si7 0.841379 0.318415 0.210608
O O1 0.500000 0.741821 0.500000
O O2 0.430233 0.500000 0.781233
O O3 0.453820 0.756191 0.861742
O O4 0.346222 0.744437 0.906024
O O5 0.616388 0.753487 0.539798
O O6 0.531382 0.000000 0.763919
O O7 0.500000 0.757868 0.000000
O O8 0.951842 0.799411 0.337391
O O9 0.804860 0.718304 0.697073
O O10 0.867398 0.766304 0.297179
O O11 0.838105 0.000000 0.534480
O O12 0.753605 0.738863 0.362096
O O13 0.712071 0.000000 0.343321
O O14 0.752578 0.769516 0.082004
O O15 0.000000 0.235964 0.500000
O O16 0.949025 0.000000 0.769819
O O17 0.903172 0.279433 0.940720
O O18 0.734370 0.500000 0.005569
O O19 0.839482 0.500000 0.243922
#
# Coordination Sequence:
#
# PCOD8066669 Si02
#       7
#     4   4   4   4   4   4   4
#     4  10  21  39  61  88 123 164 205 253 314 375
#     4  10  23  40  60  89 121 159 211 265 311 365
#     4  11  24  42  66  95 129 168 207 254 309 370
#     4  11  23  41  63  89 124 167 212 260 315 374
#     4  10  22  43  70  97 126 163 208 253 306 372
#     4  11  23  40  63  93 127 163 210 261 312 373
#     4  12  26  42  64  94 130 167 207 259 312 367
#
# _framework density 20.899349999999998
#
# number of rings (size 3 to 8) (size 9 to 14) (size 15 to 20)
#    0.000    1.286    1.429    3.857    2.000    6.571 
#    0.000    0.000    0.000    0.000    0.000    0.000 
#    0.000    0.000    0.000    0.000    0.000    0.000 
#
# Total GULP energy -347298.935206 kJ/mol
# GULP energy per Si atom -12403.533400 kJ/mol
# Density = 2.085178 g / cm^3
# Si number density = 20.899350 Si / 1000 Ang^3
#
#
#
# Elastic Constant Matrix: (Units=GPa)
#
#
# Indices 1 2 3 4 5 6 
#
# 1 127.7588 31.0159 16.1002 0.0000 13.7374 0.0000
# 2 31.0159 57.1042 13.4688 0.0000 -1.1999 0.0000
# 3 16.1002 13.4688 79.3404 0.0000 9.8921 0.0000
# 4 0.0000 0.0000 0.0000 29.0431 0.0000 -0.0746
# 5 13.7374 -1.1999 9.8921 0.0000 39.6875 0.0000
# 6 0.0000 0.0000 0.0000 -0.0746 0.0000 29.0905
#
#
#
# Elastic Compliance Matrix: (Units=1/GPa)
#
#
# Indices 1 2 3 4 5 6 
#
# 1 0.009493 -0.005070 -0.000657 0.000000 -0.003275 0.000000
# 2 -0.005070 0.021022 -0.002929 0.000000 0.003120 0.000000
# 3 -0.000657 -0.002929 0.013641 0.000000 -0.003261 0.000000
# 4 0.000000 0.000000 0.000000 0.034432 0.000000 0.000088
# 5 -0.003275 0.003120 -0.003261 0.000000 0.027238 0.000000
# 6 0.000000 0.000000 0.000000 0.000088 0.000000 0.034376
#
#
# Mechanical properties :
#
#
# Convention : Reuss Voigt Hill
#
# Bulk Modulus (GPa) = 37.25260 42.81924 40.03592
# Shear Modulus (GPa) = 30.03697 33.13881 31.58789
#
# Velocity S-wave (km/s) = 3.79518 3.98633 3.89193
# Velocity P-wave (km/s) = 6.08835 6.45914 6.27649
#
# Compressibility (1/GPa) = 0.02684377
#
# Stress axis : x y z
#
# Youngs Moduli (GPa) = 105.33984 47.56940 73.30777
#
# Poissons Ratio (x) = 0.24117 0.04819
# Poissons Ratio (y) = 0.53406 0.21471
# Poissons Ratio (z) = 0.06925 0.13933
#
# Static dielectric constant tensor:
#      x y z
#    x 4.114820 0.000000 -0.029270 
#    y 0.000000 3.626200 0.000000 
#    z -0.029270 0.000000 3.900170 
# 
# 
# High freq. dielectric constant tensor:
#      x y z
#    x 1.838060 0.000000 0.000490 
#    y 0.000000 1.812030 0.000000 
#    z 0.000490 0.000000 1.822930 
# 
# From -- ./inp_files/37106.got.cif
#   From: 2010.06.25/outbox.cif.g09.slc.cpg/sg10_19_cif.got.tgz:37106.got - 2010.06.27 22:07:45.
