data_PCOD8066498
_publ_section_title
;
Structure prediction by ZEFSAII (Michael W. Deem and Ramdas Pophale) SiO2 
 PCOD8066498
Probable space group: P 2/M
;
_chemical_formula_sum "Si O2"
_cell_formula_units_Z 28
_cell_length_a 9.113423
_cell_length_b 13.624173
_cell_length_c 14.857792
_cell_angle_alpha 90.000000
_cell_angle_beta 129.156928
_cell_angle_gamma 90.000000
_cell_volume 1430.482710
_symmetry_space_group_name_H-M "P 2/M"
_symmetry_group_IT_number 10
_symmetry_cell_setting 'monoclinic'
loop_
_space_group_symop_operation_xyz
x,y,z
-x,y,-z
-x,-y,-z
x,-y,z
loop_
_atom_site_type_symbol
_atom_site_label
_atom_site_fract_x
_atom_site_fract_y
_atom_site_fract_z
Si Si1 0.092619 0.110735 0.122826
Si Si2 0.686602 0.390120 0.013924
Si Si3 0.497748 0.385896 0.758788
Si Si4 0.506062 0.111603 0.334421
Si Si5 0.179669 0.230070 0.634854
Si Si6 0.379695 0.301136 0.375271
Si Si7 0.031308 0.750822 0.772730
O O1 0.017299 0.156305 0.185416
O O2 0.319202 0.118143 0.199773
O O3 0.020624 0.000000 0.099466
O O4 0.000000 0.163377 0.000000
O O5 0.772515 0.500000 0.040459
O O6 0.630233 0.350780 0.892822
O O7 0.500000 0.391473 0.000000
O O8 0.836485 0.321047 0.119780
O O9 0.449756 0.500000 0.750040
O O10 0.297230 0.330865 0.677960
O O11 0.614168 0.362936 0.713938
O O12 0.689714 0.139285 0.346537
O O13 0.472968 0.191887 0.400021
O O14 0.530860 0.000000 0.382029
O O15 0.120639 0.210340 0.714791
O O16 0.000000 0.239851 0.500000
O O17 0.500000 0.354258 0.500000
O O18 0.164946 0.302829 0.326212
#
# Coordination Sequence:
#
# PCOD8066498 Si02
#       7
#     4   4   4   4   4   4   4
#     4   9  20  37  58  86 119 152 190 234 287 354
#     4  10  21  38  60  88 118 148 193 241 289 354
#     4  10  22  41  61  82 117 157 191 239 295 344
#     4   9  20  39  60  82 117 157 192 235 288 338
#     4  11  23  39  58  87 119 151 197 242 283 347
#     4  10  22  40  59  87 120 153 198 241 281 345
#     4  11  22  34  63  88 115 156 189 241 300 334
#
# _framework density 19.573813000000001
#
# number of rings (size 3 to 8) (size 9 to 14) (size 15 to 20)
#    0.000    2.000    1.429    1.714    6.000    2.286 
#    0.000    5.714    0.000    3.000    0.000    0.000 
#    0.000    0.000    0.000    0.000    0.000    0.000 
#
# Total GULP energy -347110.127304 kJ/mol
# GULP energy per Si atom -12396.790261 kJ/mol
# Density = 1.952926 g / cm^3
# Si number density = 19.573813 Si / 1000 Ang^3
#
#
#
# Elastic Constant Matrix: (Units=GPa)
#
#
# Indices 1 2 3 4 5 6 
#
# 1 99.6149 17.0944 39.2143 0.0000 4.5197 0.0000
# 2 17.0944 69.0778 33.6546 0.0000 7.2541 0.0000
# 3 39.2143 33.6546 135.0627 0.0000 -0.9624 0.0000
# 4 0.0000 0.0000 0.0000 29.2858 0.0000 5.1099
# 5 4.5197 7.2541 -0.9624 0.0000 34.1519 0.0000
# 6 0.0000 0.0000 0.0000 5.1099 0.0000 14.0191
#
#
#
# Elastic Compliance Matrix: (Units=1/GPa)
#
#
# Indices 1 2 3 4 5 6 
#
# 1 0.011509 -0.001222 -0.003047 0.000000 -0.001349 0.000000
# 2 -0.001222 0.017065 -0.003923 0.000000 -0.003574 0.000000
# 3 -0.003047 -0.003923 0.009277 0.000000 0.001498 0.000000
# 4 0.000000 0.000000 0.000000 0.036465 0.000000 -0.013292
# 5 -0.001349 -0.003574 0.001498 0.000000 0.030261 0.000000
# 6 0.000000 0.000000 0.000000 -0.013292 0.000000 0.076176
#
#
# Mechanical properties :
#
#
# Convention : Reuss Voigt Hill
#
# Bulk Modulus (GPa) = 46.58150 53.74244 50.16197
# Shear Modulus (GPa) = 24.47469 29.74416 27.10943
#
# Velocity S-wave (km/s) = 3.53991 3.90242 3.72558
# Velocity P-wave (km/s) = 6.36847 6.91528 6.64750
#
# Compressibility (1/GPa) = 0.02146775
#
# Stress axis : x y z
#
# Youngs Moduli (GPa) = 86.88906 58.59821 107.79675
#
# Poissons Ratio (x) = 0.07161 0.32842
# Poissons Ratio (y) = 0.10618 0.42288
# Poissons Ratio (z) = 0.26472 0.22988
#
# Static dielectric constant tensor:
#      x y z
#    x 3.425400 0.000000 -0.171110 
#    y 0.000000 3.577050 0.000000 
#    z -0.171110 0.000000 3.576950 
# 
# 
# High freq. dielectric constant tensor:
#      x y z
#    x 1.762970 0.000000 0.000030 
#    y 0.000000 1.751160 0.000000 
#    z 0.000030 0.000000 1.775870 
# 
# From -- ./inp_files/61907.got.cif
#   From: 2010.06.25/outbox.cif.g09.slc.cpg/sg10_31_cif.got.tgz:61907.got - 2010.06.27 22:07:45.
