data_PCOD8066178
_publ_section_title
;
Structure prediction by ZEFSAII (Michael W. Deem and Ramdas Pophale) SiO2 
 PCOD8066178
Probable space group: P 2/M
;
_chemical_formula_sum "Si O2"
_cell_formula_units_Z 32
_cell_length_a 12.688633
_cell_length_b 8.991252
_cell_length_c 32.061175
_cell_angle_alpha 90.000000
_cell_angle_beta 154.259178
_cell_angle_gamma 90.000000
_cell_volume 1588.565924
_symmetry_space_group_name_H-M "P 2/M"
_symmetry_group_IT_number 10
_symmetry_cell_setting 'monoclinic'
loop_
_space_group_symop_operation_xyz
x,y,z
-x,y,-z
-x,-y,-z
x,-y,z
loop_
_atom_site_type_symbol
_atom_site_label
_atom_site_fract_x
_atom_site_fract_y
_atom_site_fract_z
Si Si1 0.036736 0.838243 0.895895
Si Si2 0.664556 0.176471 0.303069
Si Si3 0.033564 0.325019 0.734291
Si Si4 0.460828 0.823943 0.317573
Si Si5 0.087406 0.175971 0.394102
Si Si6 0.492754 0.324662 0.950712
Si Si7 0.517949 0.674246 0.589019
Si Si8 0.804213 0.836787 0.901672
O O1 0.823801 0.780659 0.789154
O O2 0.909389 0.859215 0.893949
O O3 0.134802 0.000000 0.915781
O O4 0.254317 0.722859 0.979603
O O5 0.625394 0.232154 0.336813
O O6 0.456508 0.244143 0.197567
O O7 0.923645 0.219854 0.376151
O O8 0.624469 0.000000 0.288973
O O9 0.053693 0.500000 0.732114
O O10 0.262666 0.264448 0.842690
O O11 0.034679 0.237862 0.691226
O O12 0.793950 0.288209 0.675460
O O13 0.553229 0.740211 0.391451
O O14 0.492793 0.000000 0.335358
O O15 0.348514 0.250867 0.493597
O O16 0.117044 0.000000 0.400567
O O17 0.476219 0.500000 0.946241
O O18 0.500000 0.257835 0.000000
O O19 0.467499 0.500000 0.571212
O O20 0.764299 0.000000 0.908591
O O21 0.000000 0.746263 0.000000
#
# Coordination Sequence:
#
# PCOD8066178 Si02
#       8
#     4   4   4   4   4   4   4   4
#     4   9  18  31  52  83 111 139 178 226 271 313
#     4   8  17  33  52  81 116 149 180 222 280 334
#     4  10  23  41  58  79 112 152 191 233 280 334
#     4   9  18  36  59  84 116 148 186 233 279 330
#     4  11  23  38  60  87 114 144 185 235 286 338
#     4  10  21  37  56  78 109 150 189 223 269 330
#     4  11  23  40  61  81 107 148 194 235 285 340
#     4   8  14  26  48  76 108 142 175 210 256 321
#
# _framework density 20.143955999999999
#
# number of rings (size 3 to 8) (size 9 to 14) (size 15 to 20)
#    0.000    2.500    0.000    3.375    1.750    5.250 
#    0.000    3.750    0.000    1.875    0.000    0.000 
#    0.000    0.000    0.000    0.000    0.000    0.000 
#
# Total GULP energy -396590.345784 kJ/mol
# GULP energy per Si atom -12393.448306 kJ/mol
# Density = 2.009811 g / cm^3
# Si number density = 20.143956 Si / 1000 Ang^3
#
#
#
# Elastic Constant Matrix: (Units=GPa)
#
#
# Indices 1 2 3 4 5 6 
#
# 1 77.3846 34.6183 40.5732 0.0000 -2.3063 0.0000
# 2 34.6183 45.7745 38.1227 0.0000 -1.8993 0.0000
# 3 40.5732 38.1227 125.8350 0.0000 -10.4150 0.0000
# 4 0.0000 0.0000 0.0000 52.3831 0.0000 12.3741
# 5 -2.3063 -1.8993 -10.4150 0.0000 32.2251 0.0000
# 6 0.0000 0.0000 0.0000 12.3741 0.0000 31.9858
#
#
#
# Elastic Compliance Matrix: (Units=1/GPa)
#
#
# Indices 1 2 3 4 5 6 
#
# 1 0.020106 -0.013110 -0.002523 0.000000 -0.000149 0.000000
# 2 -0.013110 0.037810 -0.007317 0.000000 -0.001074 0.000000
# 3 -0.002523 -0.007317 0.011227 0.000000 0.003017 0.000000
# 4 0.000000 0.000000 0.000000 0.021010 0.000000 -0.008128
# 5 -0.000149 -0.001074 0.003017 0.000000 0.031933 0.000000
# 6 0.000000 0.000000 0.000000 -0.008128 0.000000 0.034408
#
#
# Mechanical properties :
#
#
# Convention : Reuss Voigt Hill
#
# Bulk Modulus (GPa) = 43.02475 52.84693 47.93584
# Shear Modulus (GPa) = 23.79340 32.36414 28.07877
#
# Velocity S-wave (km/s) = 3.44054 4.01264 3.73755
# Velocity P-wave (km/s) = 6.09821 6.91086 6.51721
#
# Compressibility (1/GPa) = 0.02324244
#
# Stress axis : x y z
#
# Youngs Moduli (GPa) = 49.73649 26.44782 89.07262
#
# Poissons Ratio (x) = 0.34674 0.22475
# Poissons Ratio (y) = 0.65207 0.65171
# Poissons Ratio (z) = 0.12550 0.19351
#
# Static dielectric constant tensor:
#      x y z
#    x 3.648080 0.000000 0.048840 
#    y 0.000000 3.262620 0.000000 
#    z 0.048840 0.000000 4.149540 
# 
# 
# High freq. dielectric constant tensor:
#      x y z
#    x 1.784340 0.000000 -0.003370 
#    y 0.000000 1.746220 0.000000 
#    z -0.003370 0.000000 1.802760 
# 
# From -- ./inp_files/95040.got.cif
#   From: 2010.06.25/outbox.cif.g09.slc.cpg/sg10_48_cif.got.tgz:95040.got - 2010.06.27 22:07:45.
