data_PCOD8066126
_publ_section_title
;
Structure prediction by ZEFSAII (Michael W. Deem and Ramdas Pophale) SiO2 
 PCOD8066126
Probable space group: P 2/M
;
_chemical_formula_sum "Si O2"
_cell_formula_units_Z 28
_cell_length_a 10.089468
_cell_length_b 13.771224
_cell_length_c 10.100080
_cell_angle_alpha 90.000000
_cell_angle_beta 71.237724
_cell_angle_gamma 90.000000
_cell_volume 1328.776568
_symmetry_space_group_name_H-M "P 2/M"
_symmetry_group_IT_number 10
_symmetry_cell_setting 'monoclinic'
loop_
_space_group_symop_operation_xyz
x,y,z
-x,y,-z
-x,-y,-z
x,-y,z
loop_
_atom_site_type_symbol
_atom_site_label
_atom_site_fract_x
_atom_site_fract_y
_atom_site_fract_z
Si Si1 0.379126 0.187634 0.864143
Si Si2 0.316914 0.115126 0.162002
Si Si3 0.165524 0.798562 0.448480
Si Si4 0.646466 0.111640 0.403241
Si Si5 0.636244 0.606546 0.045576
Si Si6 0.887345 0.605846 0.426185
Si Si7 0.054811 0.612381 0.120307
O O1 0.529701 0.138006 0.831667
O O2 0.305743 0.155020 0.752908
O O3 0.386219 0.304756 0.846709
O O4 0.291461 0.154256 0.021212
O O5 0.211000 0.176024 0.285669
O O6 0.289350 0.000000 0.177697
O O7 0.232180 0.875242 0.528250
O O8 0.214523 0.690283 0.482798
O O9 0.000000 0.806632 0.500000
O O10 0.500000 0.159616 0.500000
O O11 0.619827 0.000000 0.386644
O O12 0.650591 0.500000 0.111673
O O13 0.500000 0.605390 0.000000
O O14 0.777891 0.627390 0.915708
O O15 0.812532 0.500000 0.421792
O O16 0.000000 0.582972 0.500000
O O17 0.966523 0.653118 0.272939
O O18 0.016722 0.500000 0.129805
O O19 0.000000 0.660571 0.000000
#
# Coordination Sequence:
#
# PCOD8066126 Si02
#       7
#     4   4   4   4   4   4   4
#     4  11  22  39  66  95 122 161 216 260 304 377
#     4  11  22  41  65  89 121 166 217 263 310 377
#     4  11  25  41  64  96 130 167 208 262 327 380
#     4  11  23  43  68  91 122 166 217 266 318 384
#     4  10  21  36  59  93 130 162 200 254 314 369
#     4   9  20  38  60  88 125 168 211 246 296 381
#     4   9  19  36  59  83 116 164 210 246 295 366
#
# _framework density 21.072013999999999
#
# number of rings (size 3 to 8) (size 9 to 14) (size 15 to 20)
#    0.000    1.714    2.857    2.143    6.000    1.143 
#    0.000    1.429    0.000    2.571    0.000    0.000 
#    0.000    0.000    0.000    0.000    0.000    0.000 
#
# Total GULP energy -346928.640911 kJ/mol
# GULP energy per Si atom -12390.308604 kJ/mol
# Density = 2.102405 g / cm^3
# Si number density = 21.072014 Si / 1000 Ang^3
#
#
#
# Elastic Constant Matrix: (Units=GPa)
#
#
# Indices 1 2 3 4 5 6 
#
# 1 71.0486 22.2487 42.0477 0.0000 -3.3673 0.0000
# 2 22.2487 134.9747 53.2369 0.0000 -12.4986 0.0000
# 3 42.0477 53.2369 156.8576 0.0000 0.2151 0.0000
# 4 0.0000 0.0000 0.0000 29.7834 0.0000 -2.9611
# 5 -3.3673 -12.4986 0.2151 0.0000 25.9713 0.0000
# 6 0.0000 0.0000 0.0000 -2.9611 0.0000 26.7129
#
#
#
# Elastic Compliance Matrix: (Units=1/GPa)
#
#
# Indices 1 2 3 4 5 6 
#
# 1 0.016959 -0.000967 -0.004220 0.000000 0.001768 0.000000
# 2 -0.000967 0.009079 -0.002828 0.000000 0.004267 0.000000
# 3 -0.004220 -0.002828 0.008469 0.000000 -0.001978 0.000000
# 4 0.000000 0.000000 0.000000 0.033950 0.000000 0.003763
# 5 0.001768 0.004267 -0.001978 0.000000 0.040803 0.000000
# 6 0.000000 0.000000 0.000000 0.003763 0.000000 0.037852
#
#
# Mechanical properties :
#
#
# Convention : Reuss Voigt Hill
#
# Bulk Modulus (GPa) = 54.12361 66.43859 60.28110
# Shear Modulus (GPa) = 29.53309 32.85004 31.19157
#
# Velocity S-wave (km/s) = 3.74777 3.95263 3.85156
# Velocity P-wave (km/s) = 6.66847 7.24077 6.96050
#
# Compressibility (1/GPa) = 0.01847623
#
# Stress axis : x y z
#
# Youngs Moduli (GPa) = 58.96511 110.14761 118.07775
#
# Poissons Ratio (x) = 0.10653 0.49832
# Poissons Ratio (y) = 0.05703 0.33391
# Poissons Ratio (z) = 0.24885 0.31148
#
# Static dielectric constant tensor:
#      x y z
#    x 3.520720 0.000000 -0.004240 
#    y 0.000000 4.295400 0.000000 
#    z -0.004240 0.000000 4.184020 
# 
# 
# High freq. dielectric constant tensor:
#      x y z
#    x 1.792890 0.000000 0.005120 
#    y 0.000000 1.834950 0.000000 
#    z 0.005120 0.000000 1.825270 
# 
# From -- ./inp_files/24916.got.cif
#   From: 2010.06.25/outbox.cif.g09.slc.cpg/sg10_13_cif.got.tgz:24916.got - 2010.06.27 22:07:45.
