data_PCOD8066159
_publ_section_title
;
Structure prediction by ZEFSAII (Michael W. Deem and Ramdas Pophale) SiO2 
 PCOD8066159
Probable space group: P 2/M
;
_chemical_formula_sum "Si O2"
_cell_formula_units_Z 24
_cell_length_a 24.369437
_cell_length_b 8.977789
_cell_length_c 11.641625
_cell_angle_alpha 90.000000
_cell_angle_beta 150.751208
_cell_angle_gamma 90.000000
_cell_volume 1244.470162
_symmetry_space_group_name_H-M "P 2/M"
_symmetry_group_IT_number 10
_symmetry_cell_setting 'monoclinic'
loop_
_space_group_symop_operation_xyz
x,y,z
-x,y,-z
-x,-y,-z
x,-y,z
loop_
_atom_site_type_symbol
_atom_site_label
_atom_site_fract_x
_atom_site_fract_y
_atom_site_fract_z
Si Si1 0.253167 0.826683 0.570211
Si Si2 0.600547 0.826836 0.941644
Si Si3 0.158417 0.824146 0.985405
Si Si4 0.649848 0.175668 0.490999
Si Si5 0.789452 0.327080 0.155105
Si Si6 0.936745 0.326931 0.646415
O O1 0.300671 0.760964 0.537790
O O2 0.140939 0.735838 0.394092
O O3 0.220829 0.000000 0.502017
O O4 0.348099 0.799960 0.839062
O O5 0.474498 0.761007 0.712109
O O6 0.603923 0.000000 0.913500
O O7 0.668637 0.738058 0.969094
O O8 0.162128 0.755058 0.866596
O O9 0.053735 0.759674 0.864470
O O10 0.144852 0.000000 0.950652
O O11 0.270938 0.778880 0.258853
O O12 0.639796 0.000000 0.457806
O O13 0.775926 0.500000 0.102354
O O14 0.878372 0.297415 0.417798
O O15 0.958720 0.500000 0.708058
#
# Coordination Sequence:
#
# PCOD8066159 Si02
#       6
#     4   4   4   4   4   4
#     4   9  17  33  58  82 103 133 174 214 253 303
#     4   9  17  33  58  82 103 133 174 214 253 303
#     4  11  22  35  53  77 106 139 174 212 256 309
#     4   9  19  34  53  80 110 137 168 212 260 301
#     4  10  21  37  55  76 104 136 172 217 263 304
#     4  10  21  37  55  76 104 136 172 217 263 304
#
# _framework density 19.285316000000002
#
# number of rings (size 3 to 8) (size 9 to 14) (size 15 to 20)
#    0.000    2.333    0.000    2.500    0.000    7.333 
#    0.000   10.833    0.000    4.000    0.000    0.000 
#    0.000    0.000    0.000    0.000    0.000    0.000 
#
# Total GULP energy -297689.035137 kJ/mol
# GULP energy per Si atom -12403.709797 kJ/mol
# Density = 1.924142 g / cm^3
# Si number density = 19.285316 Si / 1000 Ang^3
#
#
#
# Elastic Constant Matrix: (Units=GPa)
#
#
# Indices 1 2 3 4 5 6 
#
# 1 66.5336 26.6215 23.8108 0.0000 24.0401 0.0000
# 2 26.6215 71.0238 36.2612 0.0000 11.5346 0.0000
# 3 23.8108 36.2612 62.1024 0.0000 25.3079 0.0000
# 4 0.0000 0.0000 0.0000 9.5913 0.0000 -8.7422
# 5 24.0401 11.5346 25.3079 0.0000 28.8421 0.0000
# 6 0.0000 0.0000 0.0000 -8.7422 0.0000 6.3314
#
#
#
# Elastic Compliance Matrix: (Units=1/GPa)
#
#
# Indices 1 2 3 4 5 6 
#
# 1 0.024035 -0.007426 0.003229 0.000000 -0.019897 0.000000
# 2 -0.007426 0.022585 -0.014292 0.000000 0.009699 0.000000
# 3 0.003229 -0.014292 0.034210 0.000000 -0.026994 0.000000
# 4 0.000000 0.000000 0.000000 -0.403278 0.000000 -0.556835
# 5 -0.019897 0.009699 -0.026994 0.000000 0.071063 0.000000
# 6 0.000000 0.000000 0.000000 -0.556835 0.000000 -0.610918
#
#
# Mechanical properties :
#
#
# Convention : Reuss Voigt Hill
#
# Bulk Modulus (GPa) = 22.80432 41.44962 32.12697
# Shear Modulus (GPa) = -6.16746 16.48403 5.15829
#
# Velocity S-wave (km/s) = -1.79024 2.92677 1.63723
# Velocity P-wave (km/s) = 2.75266 5.74115 4.50211
#
# Compressibility (1/GPa) = 0.04385133
#
# Stress axis : x y z
#
# Youngs Moduli (GPa) = 41.60609 44.27673 29.23120
#
# Poissons Ratio (x) = 0.32881 -0.09439
# Poissons Ratio (y) = 0.30898 0.41778
# Poissons Ratio (z) = -0.13435 0.63282
#
# Static dielectric constant tensor:
#      x y z
#    x 3.591720 0.000000 0.158380 
#    y 0.000000 3.364580 0.000000 
#    z 0.158380 0.000000 3.561310 
# 
# 
# High freq. dielectric constant tensor:
#      x y z
#    x 1.759310 0.000000 0.011400 
#    y 0.000000 1.733690 0.000000 
#    z 0.011400 0.000000 1.749540 
# 
# From -- ./inp_files/45148.got.cif
#   From: 2010.06.25/outbox.cif.g09.slc.cpg/sg10_23_cif.got.tgz:45148.got - 2010.06.27 22:07:45.
