data_PCOD8066767
_publ_section_title
;
Structure prediction by ZEFSAII (Michael W. Deem and Ramdas Pophale) SiO2 
 PCOD8066767
Probable space group: P 2/M
;
_chemical_formula_sum "Si O2"
_cell_formula_units_Z 24
_cell_length_a 5.145370
_cell_length_b 13.237578
_cell_length_c 18.704620
_cell_angle_alpha 90.000000
_cell_angle_beta 101.692028
_cell_angle_gamma 90.000000
_cell_volume 1247.579020
_symmetry_space_group_name_H-M "P 2/M"
_symmetry_group_IT_number 10
_symmetry_cell_setting 'monoclinic'
loop_
_space_group_symop_operation_xyz
x,y,z
-x,y,-z
-x,-y,-z
x,-y,z
loop_
_atom_site_type_symbol
_atom_site_label
_atom_site_fract_x
_atom_site_fract_y
_atom_site_fract_z
Si Si1 0.851158 0.500000 0.145253
Si Si2 0.050691 0.183614 0.812392
Si Si3 0.791961 0.615998 0.546862
Si Si4 0.216665 0.305836 0.951392
Si Si5 0.278635 0.698446 0.307178
Si Si6 0.574352 0.500000 0.758837
Si Si7 0.481881 0.889310 0.256574
O O1 0.758002 0.404739 0.094839
O O2 0.694106 0.500000 0.210943
O O3 0.167000 0.500000 0.176055
O O4 0.133405 0.212833 0.896695
O O5 0.285618 0.125263 0.786890
O O6 0.969684 0.283624 0.760856
O O7 0.794504 0.111146 0.803093
O O8 0.500000 0.628489 0.500000
O O9 0.854706 0.500000 0.570460
O O10 0.827649 0.685177 0.618641
O O11 0.000000 0.656033 0.500000
O O12 0.500000 0.279216 0.000000
O O13 0.000000 0.323373 0.000000
O O14 0.436490 0.598475 0.292157
O O15 0.471524 0.798028 0.314410
O O16 0.516140 0.000000 0.295231
#
# Coordination Sequence:
#
# PCOD8066767 Si02
#       7
#     2   4   4   4   4   2   4
#     4  12  22  37  50  85 116 165 195 240 288 358
#     4  10  22  38  61  88 109 158 197 245 302 334
#     4  10  22  37  56  88 127 164 194 229 286 350
#     4  12  23  37  55  80 122 158 197 242 294 361
#     4  10  23  38  64  90 119 161 191 254 283 356
#     4  12  22  35  62  87 126 143 209 238 292 349
#     4  10  21  39  65  91 113 147 205 256 295 343
#
# _framework density 19.237258000000001
#
# number of rings (size 3 to 8) (size 9 to 14) (size 15 to 20)
#    1.000    0.333    2.500    4.000    2.333    0.000 
#    0.000    0.000    0.000   11.000    0.000    0.000 
#    0.000    0.000    0.000    0.000    0.000    0.000 
#
# Total GULP energy -297529.987328 kJ/mol
# GULP energy per Si atom -12397.082805 kJ/mol
# Density = 1.919347 g / cm^3
# Si number density = 19.237258 Si / 1000 Ang^3
#
#
#
# Elastic Constant Matrix: (Units=GPa)
#
#
# Indices 1 2 3 4 5 6 
#
# 1 110.8034 19.5623 16.9992 0.0000 -20.6854 0.0000
# 2 19.5623 120.5840 31.5726 0.0000 -18.8507 0.0000
# 3 16.9992 31.5726 81.9195 0.0000 -19.9486 0.0000
# 4 0.0000 0.0000 0.0000 -5.6023 0.0000 68.7744
# 5 -20.6854 -18.8507 -19.9486 0.0000 30.0792 0.0000
# 6 0.0000 0.0000 0.0000 68.7744 0.0000 -243.9520
#
#
#
# Elastic Compliance Matrix: (Units=1/GPa)
#
#
# Indices 1 2 3 4 5 6 
#
# 1 0.010405 -0.000572 -0.000338 0.000000 0.006573 0.000000
# 2 -0.000572 0.009696 -0.002665 0.000000 0.003916 0.000000
# 3 -0.000338 -0.002665 0.015314 0.000000 0.008254 0.000000
# 4 0.000000 0.000000 0.000000 0.072535 0.000000 0.020449
# 5 0.006573 0.003916 0.008254 0.000000 0.045694 0.000000
# 6 0.000000 0.000000 0.000000 0.020449 0.000000 0.001666
#
#
# Mechanical properties :
#
#
# Convention : Reuss Voigt Hill
#
# Bulk Modulus (GPa) = 35.37893 49.95278 42.66586
# Shear Modulus (GPa) = 29.08999 -27.55017 0.76991
#
# Velocity S-wave (km/s) = 3.89288 -3.78845 0.63331
# Velocity P-wave (km/s) = 6.21585 2.62423 4.77092
#
# Compressibility (1/GPa) = 0.02826541
#
# Stress axis : x y z
#
# Youngs Moduli (GPa) = 96.10877 103.13995 65.29891
#
# Poissons Ratio (x) = 0.05899 0.02208
# Poissons Ratio (y) = 0.05497 0.17399
# Poissons Ratio (z) = 0.03250 0.27482
#
# Static dielectric constant tensor:
#      x y z
#    x 3.486360 0.000000 -0.034280 
#    y 0.000000 3.835530 0.000000 
#    z -0.034280 0.000000 3.327080 
# 
# 
# High freq. dielectric constant tensor:
#      x y z
#    x 1.762150 0.000000 -0.009410 
#    y 0.000000 1.733150 0.000000 
#    z -0.009410 0.000000 1.728220 
# 
# From -- ./inp_files/59097.got.cif
#   From: 2010.06.25/outbox.cif.g09.slc.cpg/sg10_30_cif.got.tgz:59097.got - 2010.06.27 22:07:45.
