data_PCOD8066842
_publ_section_title
;
Structure prediction by ZEFSAII (Michael W. Deem and Ramdas Pophale) SiO2 
 PCOD8066842
Probable space group: P 2/M
;
_chemical_formula_sum "Si O2"
_cell_formula_units_Z 32
_cell_length_a 15.772539
_cell_length_b 20.384470
_cell_length_c 9.256703
_cell_angle_alpha 90.000000
_cell_angle_beta 28.747097
_cell_angle_gamma 90.000000
_cell_volume 1431.370916
_symmetry_space_group_name_H-M "P 2/M"
_symmetry_group_IT_number 10
_symmetry_cell_setting 'monoclinic'
loop_
_space_group_symop_operation_xyz
x,y,z
-x,y,-z
-x,-y,-z
x,-y,z
loop_
_atom_site_type_symbol
_atom_site_label
_atom_site_fract_x
_atom_site_fract_y
_atom_site_fract_z
Si Si1 0.293393 0.572657 0.333850
Si Si2 0.195114 0.336062 0.244887
Si Si3 0.672509 0.925177 0.316022
Si Si4 0.352930 0.886716 0.320374
Si Si5 0.298049 0.573703 0.845053
Si Si6 0.518326 0.258845 0.813221
Si Si7 0.981184 0.077838 0.358145
Si Si8 0.806175 0.649910 0.259951
O O1 0.224621 0.500000 0.394550
O O2 0.188854 0.631916 0.412806
O O3 0.249906 0.585362 0.566472
O O4 0.500000 0.577660 0.000000
O O5 0.000000 0.310925 0.500000
O O6 0.271341 0.398452 0.044469
O O7 0.325933 0.273393 0.030232
O O8 0.500000 0.891020 0.500000
O O9 0.679208 0.923136 0.480187
O O10 0.671028 0.000000 0.268341
O O11 0.846884 0.894797 0.982613
O O12 0.433143 0.816788 0.245297
O O13 0.178020 0.883546 0.482922
O O14 0.500000 0.922672 0.000000
O O15 0.500000 0.573848 0.500000
O O16 0.220756 0.500000 0.953055
O O17 0.191640 0.625206 0.906979
O O18 0.668846 0.291519 0.491670
O O19 0.500000 0.291058 0.000000
O O20 0.000000 0.095432 0.500000
O O21 0.950315 0.000000 0.383601
O O22 0.000000 0.678114 0.000000
#
# Coordination Sequence:
#
# PCOD8066842 Si02
#       8
#     4   4   4   4   4   4   4   4
#     4  11  21  39  67  90 119 164 206 256 329 411
#     4  12  23  41  67  89 120 163 211 271 330 395
#     4  10  21  40  67 104 147 182 221 276 332 395
#     4  11  24  41  67  93 136 186 231 287 331 390
#     4  11  23  39  61  95 130 153 193 271 350 407
#     4  11  24  48  63  85 124 170 227 269 307 388
#     4  10  21  40  72 111 146 178 220 274 340 408
#     4  12  23  39  63  87 123 162 204 261 323 393
#
# _framework density 22.356190000000002
#
# number of rings (size 3 to 8) (size 9 to 14) (size 15 to 20)
#    0.000    1.000    3.750    3.000    0.000    9.000 
#    2.250    5.000    0.000    0.000    0.000    0.000 
#    0.000    0.000    0.000    0.000    0.000    0.000 
#
# Total GULP energy -396660.745780 kJ/mol
# GULP energy per Si atom -12395.648306 kJ/mol
# Density = 2.230531 g / cm^3
# Si number density = 22.356190 Si / 1000 Ang^3
#
#
#
# Elastic Constant Matrix: (Units=GPa)
#
#
# Indices 1 2 3 4 5 6 
#
# 1 109.9307 12.0218 48.2442 0.0000 -14.9562 0.0000
# 2 12.0218 65.6266 16.5808 0.0000 -12.9550 0.0000
# 3 48.2442 16.5808 148.6761 0.0000 -18.0002 0.0000
# 4 0.0000 0.0000 0.0000 12.2603 0.0000 0.9384
# 5 -14.9562 -12.9550 -18.0002 0.0000 52.2482 0.0000
# 6 0.0000 0.0000 0.0000 0.9384 0.0000 22.3866
#
#
#
# Elastic Compliance Matrix: (Units=1/GPa)
#
#
# Indices 1 2 3 4 5 6 
#
# 1 0.010838 -0.000821 -0.003208 0.000000 0.001794 0.000000
# 2 -0.000821 0.016353 -0.001143 0.000000 0.003426 0.000000
# 3 -0.003208 -0.001143 0.008086 0.000000 0.001584 0.000000
# 4 0.000000 0.000000 0.000000 0.081827 0.000000 -0.003430
# 5 0.001794 0.003426 0.001584 0.000000 0.021048 0.000000
# 6 0.000000 0.000000 0.000000 -0.003430 0.000000 0.044813
#
#
# Mechanical properties :
#
#
# Convention : Reuss Voigt Hill
#
# Bulk Modulus (GPa) = 40.10499 53.10298 46.60399
# Shear Modulus (GPa) = 24.79899 33.87145 29.33522
#
# Velocity S-wave (km/s) = 3.33418 3.89663 3.62632
# Velocity P-wave (km/s) = 5.72716 6.63699 6.19879
#
# Compressibility (1/GPa) = 0.02493456
#
# Stress axis : x y z
#
# Youngs Moduli (GPa) = 92.26431 61.15042 123.66578
#
# Poissons Ratio (x) = 0.05019 0.39675
# Poissons Ratio (y) = 0.07573 0.14130
# Poissons Ratio (z) = 0.29601 0.06987
#
# Static dielectric constant tensor:
#      x y z
#    x 3.921970 0.000000 0.046580 
#    y 0.000000 3.648190 0.000000 
#    z 0.046580 0.000000 4.238630 
# 
# 
# High freq. dielectric constant tensor:
#      x y z
#    x 1.886240 0.000000 0.002760 
#    y 0.000000 1.849570 0.000000 
#    z 0.002760 0.000000 1.898570 
# 
# From -- ./inp_files/30557.got.cif
#   From: 2010.06.25/outbox.cif.g09.slc.cpg/sg10_16_cif.got.tgz:30557.got - 2010.06.27 22:07:45.
