data_PCOD8066688
_publ_section_title
;
Structure prediction by ZEFSAII (Michael W. Deem and Ramdas Pophale) SiO2 
 PCOD8066688
Probable space group: P 2/M
;
_chemical_formula_sum "Si O2"
_cell_formula_units_Z 28
_cell_length_a 15.433829
_cell_length_b 8.771745
_cell_length_c 21.026687
_cell_angle_alpha 90.000000
_cell_angle_beta 151.578074
_cell_angle_gamma 90.000000
_cell_volume 1354.882761
_symmetry_space_group_name_H-M "P 2/M"
_symmetry_group_IT_number 10
_symmetry_cell_setting 'monoclinic'
loop_
_space_group_symop_operation_xyz
x,y,z
-x,y,-z
-x,-y,-z
x,-y,z
loop_
_atom_site_type_symbol
_atom_site_label
_atom_site_fract_x
_atom_site_fract_y
_atom_site_fract_z
Si Si1 0.193031 0.823201 0.101947
Si Si2 0.652969 0.668566 0.685850
Si Si3 0.562153 0.818064 0.855365
Si Si4 0.240626 0.330644 0.379797
Si Si5 0.827973 0.320224 0.431398
Si Si6 0.038972 0.823593 0.355281
Si Si7 0.657944 0.181184 0.057659
O O1 0.329967 0.794005 0.248346
O O2 0.290142 0.756054 0.101104
O O3 0.161152 0.000000 0.069665
O O4 0.000000 0.747283 0.000000
O O5 0.702393 0.500000 0.744314
O O6 0.785027 0.708527 0.711501
O O7 0.450636 0.669729 0.530990
O O8 0.358900 0.756280 0.712255
O O9 0.548418 0.000000 0.843370
O O10 0.633594 0.758298 0.969864
O O11 0.160330 0.500000 0.342614
O O12 0.147878 0.198384 0.360336
O O13 0.801790 0.500000 0.409940
O O14 0.000000 0.265008 0.500000
O O15 0.869246 0.275027 0.530409
O O16 0.839061 0.761129 0.209580
O O17 0.039467 0.000000 0.375790
O O18 0.655977 0.000000 0.054101
O O19 0.500000 0.247605 0.000000
#
# Coordination Sequence:
#
# PCOD8066688 Si02
#       7
#     4   4   4   4   4   4   4
#     4  10  22  36  54  81 116 154 192 240 292 339
#     4   9  19  36  56  77 108 151 193 231 278 336
#     4  10  21  39  62  87 119 158 199 244 297 356
#     4   9  19  36  56  80 112 147 184 235 288 335
#     4  11  24  41  61  87 120 156 195 245 302 355
#     4  11  22  35  60  91 115 147 193 238 291 353
#     4   9  19  36  58  85 116 149 189 239 291 347
#
# _framework density 20.665994999999999
#
# number of rings (size 3 to 8) (size 9 to 14) (size 15 to 20)
#    0.000    2.143    0.000    3.429    2.000    6.571 
#    0.000    2.857    0.000    3.857    0.000    0.000 
#    0.000    0.000    0.000    0.000    0.000    0.000 
#
# Total GULP energy -347045.460266 kJ/mol
# GULP energy per Si atom -12394.480724 kJ/mol
# Density = 2.061896 g / cm^3
# Si number density = 20.665995 Si / 1000 Ang^3
#
#
#
# Elastic Constant Matrix: (Units=GPa)
#
#
# Indices 1 2 3 4 5 6 
#
# 1 124.3838 17.3634 21.5040 0.0000 2.2807 0.0000
# 2 17.3634 27.7699 15.1311 0.0000 3.7704 0.0000
# 3 21.5040 15.1311 70.7726 0.0000 -4.2010 0.0000
# 4 0.0000 0.0000 0.0000 -2.8926 0.0000 29.1029
# 5 2.2807 3.7704 -4.2010 0.0000 38.1936 0.0000
# 6 0.0000 0.0000 0.0000 29.1029 0.0000 -24.4740
#
#
#
# Elastic Compliance Matrix: (Units=1/GPa)
#
#
# Indices 1 2 3 4 5 6 
#
# 1 0.008995 -0.004628 -0.001760 0.000000 -0.000274 0.000000
# 2 -0.004628 0.044117 -0.008322 0.000000 -0.004994 0.000000
# 3 -0.001760 -0.008322 0.016607 0.000000 0.002753 0.000000
# 4 0.000000 0.000000 0.000000 0.031531 0.000000 0.037495
# 5 -0.000274 -0.004994 0.002753 0.000000 0.026995 0.000000
# 6 0.000000 0.000000 0.000000 0.037495 0.000000 0.003727
#
#
# Mechanical properties :
#
#
# Convention : Reuss Voigt Hill
#
# Bulk Modulus (GPa) = 24.81495 36.76928 30.79211
# Shear Modulus (GPa) = 28.60008 13.42726 21.01367
#
# Velocity S-wave (km/s) = 3.72414 2.55174 3.19223
# Velocity P-wave (km/s) = 5.52504 5.14904 5.34035
#
# Compressibility (1/GPa) = 0.04029829
#
# Stress axis : x y z
#
# Youngs Moduli (GPa) = 111.17330 22.66714 60.21475
#
# Poissons Ratio (x) = 0.10491 0.10597
# Poissons Ratio (y) = 0.51452 0.50113
# Poissons Ratio (z) = 0.19565 0.18864
#
# Static dielectric constant tensor:
#      x y z
#    x 4.692400 0.000000 0.160300 
#    y 0.000000 3.485170 0.000000 
#    z 0.160300 0.000000 3.762890 
# 
# 
# High freq. dielectric constant tensor:
#      x y z
#    x 1.826500 0.000000 -0.000750 
#    y 0.000000 1.778830 0.000000 
#    z -0.000750 0.000000 1.811010 
# 
# From -- ./inp_files/69912.got.cif
#   From: 2010.06.25/outbox.cif.g09.slc.cpg/sg10_35_cif.got.tgz:69912.got - 2010.06.27 22:07:45.
