data_PCOD8066266
_publ_section_title
;
Structure prediction by ZEFSAII (Michael W. Deem and Ramdas Pophale) SiO2 
 PCOD8066266
Probable space group: P 2/M
;
_chemical_formula_sum "Si O2"
_cell_formula_units_Z 24
_cell_length_a 17.862014
_cell_length_b 8.334341
_cell_length_c 24.020030
_cell_angle_alpha 90.000000
_cell_angle_beta 19.282120
_cell_angle_gamma 90.000000
_cell_volume 1180.805621
_symmetry_space_group_name_H-M "P 2/M"
_symmetry_group_IT_number 10
_symmetry_cell_setting 'monoclinic'
loop_
_space_group_symop_operation_xyz
x,y,z
-x,y,-z
-x,-y,-z
x,-y,z
loop_
_atom_site_type_symbol
_atom_site_label
_atom_site_fract_x
_atom_site_fract_y
_atom_site_fract_z
Si Si1 0.755981 0.185702 0.830194
Si Si2 0.885509 0.313385 0.855039
Si Si3 0.056824 0.314063 0.522249
Si Si4 0.761079 0.813645 0.315810
Si Si5 0.080727 0.685416 0.002479
Si Si6 0.547683 0.814131 0.182011
O O1 0.858860 0.288530 0.808221
O O2 0.902852 0.212219 0.672021
O O3 0.761656 0.000000 0.843124
O O4 0.500000 0.244530 0.000000
O O5 0.898471 0.500000 0.860362
O O6 0.119704 0.227967 0.709166
O O7 0.673872 0.238980 0.037034
O O8 0.996233 0.500000 0.572512
O O9 0.320438 0.286991 0.349562
O O10 0.000000 0.254814 0.500000
O O11 0.500000 0.766661 0.500000
O O12 0.872213 0.704364 0.190673
O O13 0.798304 0.000000 0.275575
O O14 0.150575 0.500000 0.948506
O O15 0.296060 0.784311 0.873657
O O16 0.000000 0.755244 0.000000
O O17 0.484955 0.000000 0.221672
#
# Coordination Sequence:
#
# PCOD8066266 Si02
#       6
#     4   4   4   4   4   4
#     4  11  24  41  62  88 118 152 192 237 286 342
#     4  11  22  38  61  86 117 154 193 239 289 343
#     4  11  24  41  62  88 118 152 192 237 286 342
#     4  10  21  37  58  84 115 151 193 239 287 342
#     4  10  21  37  58  84 115 151 193 239 287 342
#     4  11  22  38  61  86 117 154 193 239 289 343
#
# _framework density 20.325106000000002
#
# number of rings (size 3 to 8) (size 9 to 14) (size 15 to 20)
#    0.000    1.333    0.000    8.000    0.000    9.333 
#    0.000    3.333    0.000    0.000    0.000    0.000 
#    0.000    0.000    0.000    0.000    0.000    0.000 
#
# Total GULP energy -297754.925823 kJ/mol
# GULP energy per Si atom -12406.455243 kJ/mol
# Density = 2.027885 g / cm^3
# Si number density = 20.325106 Si / 1000 Ang^3
#
#
#
# Elastic Constant Matrix: (Units=GPa)
#
#
# Indices 1 2 3 4 5 6 
#
# 1 137.7780 9.0485 57.8343 0.0000 -0.0783 0.0000
# 2 9.0485 57.1238 9.3042 0.0000 -3.0572 0.0000
# 3 57.8343 9.3042 121.4184 0.0000 -20.0714 0.0000
# 4 0.0000 0.0000 0.0000 21.1290 0.0000 6.8190
# 5 -0.0783 -3.0572 -20.0714 0.0000 26.4444 0.0000
# 6 0.0000 0.0000 0.0000 6.8190 0.0000 26.2883
#
#
#
# Elastic Compliance Matrix: (Units=1/GPa)
#
#
# Indices 1 2 3 4 5 6 
#
# 1 0.009447 -0.000879 -0.005082 0.000000 -0.003931 0.000000
# 2 -0.000879 0.017840 -0.000695 0.000000 0.001532 0.000000
# 3 -0.005082 -0.000695 0.012229 0.000000 0.009186 0.000000
# 4 0.000000 0.000000 0.000000 0.051652 0.000000 -0.013398
# 5 -0.003931 0.001532 0.009186 0.000000 0.044953 0.000000
# 6 0.000000 0.000000 0.000000 -0.013398 0.000000 0.041515
#
#
# Mechanical properties :
#
#
# Convention : Reuss Voigt Hill
#
# Bulk Modulus (GPa) = 38.16350 52.07714 45.12032
# Shear Modulus (GPa) = 25.03962 30.78119 27.91041
#
# Velocity S-wave (km/s) = 3.51373 3.89581 3.70969
# Velocity P-wave (km/s) = 5.93961 6.77599 6.37154
#
# Compressibility (1/GPa) = 0.02620305
#
# Stress axis : x y z
#
# Youngs Moduli (GPa) = 105.85491 56.05289 81.77570
#
# Poissons Ratio (x) = 0.04927 0.41560
# Poissons Ratio (y) = 0.09305 0.05684
# Poissons Ratio (z) = 0.53798 0.03896
#
# Static dielectric constant tensor:
#      x y z
#    x 3.805800 0.000000 -0.126300 
#    y 0.000000 3.649720 0.000000 
#    z -0.126300 0.000000 3.617300 
# 
# 
# High freq. dielectric constant tensor:
#      x y z
#    x 1.802620 0.000000 -0.009220 
#    y 0.000000 1.804550 0.000000 
#    z -0.009220 0.000000 1.790430 
# 
# From -- ./inp_files/90006.got.cif
#   From: 2010.06.25/outbox.cif.g09.slc.cpg/sg10_46_cif.got.tgz:90006.got - 2010.06.27 22:07:45.
