data_PCOD8066777
_publ_section_title
;
Structure prediction by ZEFSAII (Michael W. Deem and Ramdas Pophale) SiO2 
 PCOD8066777
Probable space group: P 2/M
;
_chemical_formula_sum "Si O2"
_cell_formula_units_Z 28
_cell_length_a 18.895327
_cell_length_b 13.769983
_cell_length_c 9.858217
_cell_angle_alpha 90.000000
_cell_angle_beta 147.098639
_cell_angle_gamma 90.000000
_cell_volume 1393.289837
_symmetry_space_group_name_H-M "P 2/M"
_symmetry_group_IT_number 10
_symmetry_cell_setting 'monoclinic'
loop_
_space_group_symop_operation_xyz
x,y,z
-x,y,-z
-x,-y,-z
x,-y,z
loop_
_atom_site_type_symbol
_atom_site_label
_atom_site_fract_x
_atom_site_fract_y
_atom_site_fract_z
Si Si1 0.247567 0.610227 0.556297
Si Si2 0.354560 0.391323 0.023946
Si Si3 0.787199 0.391513 0.946140
Si Si4 0.353281 0.110415 0.319920
Si Si5 0.613595 0.701842 0.473554
Si Si6 0.072610 0.112310 0.753344
Si Si7 0.997844 0.737828 0.838654
O O1 0.221383 0.500000 0.462963
O O2 0.324963 0.670369 0.569510
O O3 0.115406 0.664009 0.379130
O O4 0.326213 0.609189 0.820653
O O5 0.405726 0.500000 0.144345
O O6 0.229019 0.369610 0.918709
O O7 0.458209 0.306394 0.215378
O O8 0.840021 0.500000 0.008145
O O9 0.648775 0.373194 0.651044
O O10 0.874017 0.315882 0.005599
O O11 0.500000 0.125271 0.500000
O O12 0.341550 0.187223 0.424051
O O13 0.339107 0.000000 0.352180
O O14 0.231642 0.130629 0.018287
O O15 0.993620 0.162137 0.749373
O O16 0.000000 0.151029 0.500000
O O17 0.042419 0.000000 0.720594
O O18 0.000000 0.762897 0.000000
#
# Coordination Sequence:
#
# PCOD8066777 Si02
#       7
#     4   4   4   4   4   4   4
#     4  11  24  40  59  87 128 171 207 252 310 374
#     4  10  23  39  58  89 123 162 209 258 311 368
#     4  11  22  36  58  88 118 156 205 256 297 361
#     4  10  21  39  65  97 128 159 209 267 321 376
#     4  12  21  37  64  89 120 163 205 255 311 373
#     4  10  23  43  67  94 125 162 210 264 319 376
#     4  12  24  39  60  89 122 165 206 253 312 372
#
# _framework density 20.096319999999999
#
# number of rings (size 3 to 8) (size 9 to 14) (size 15 to 20)
#    0.000    1.143    2.857    3.429    2.000    3.143 
#    0.000    2.857    0.000    1.714    0.000    0.000 
#    0.000    0.000    0.000    0.000    0.000    0.000 
#
# Total GULP energy -346947.257776 kJ/mol
# GULP energy per Si atom -12390.973492 kJ/mol
# Density = 2.005058 g / cm^3
# Si number density = 20.096320 Si / 1000 Ang^3
#
#
#
# Elastic Constant Matrix: (Units=GPa)
#
#
# Indices 1 2 3 4 5 6 
#
# 1 119.6477 69.9658 48.0244 0.0000 -9.7093 0.0000
# 2 69.9658 100.6238 45.4240 0.0000 -15.7005 0.0000
# 3 48.0244 45.4240 94.2408 0.0000 -0.8648 0.0000
# 4 0.0000 0.0000 0.0000 34.0383 0.0000 0.9289
# 5 -9.7093 -15.7005 -0.8648 0.0000 27.8725 0.0000
# 6 0.0000 0.0000 0.0000 0.9289 0.0000 38.1295
#
#
#
# Elastic Compliance Matrix: (Units=1/GPa)
#
#
# Indices 1 2 3 4 5 6 
#
# 1 0.014852 -0.008811 -0.003320 0.000000 0.000107 0.000000
# 2 -0.008811 0.019443 -0.004810 0.000000 0.007733 0.000000
# 3 -0.003320 -0.004810 0.014590 0.000000 -0.003414 0.000000
# 4 0.000000 0.000000 0.000000 0.029398 0.000000 -0.000716
# 5 0.000107 0.007733 -0.003414 0.000000 0.040165 0.000000
# 6 0.000000 0.000000 0.000000 -0.000716 0.000000 0.026244
#
#
# Mechanical properties :
#
#
# Convention : Reuss Voigt Hill
#
# Bulk Modulus (GPa) = 66.66134 71.26008 68.96071
# Shear Modulus (GPa) = 27.23661 30.08125 28.65893
#
# Velocity S-wave (km/s) = 3.68544 3.87312 3.78044
# Velocity P-wave (km/s) = 7.16609 7.45236 7.31063
#
# Compressibility (1/GPa) = 0.01500120
#
# Stress axis : x y z
#
# Youngs Moduli (GPa) = 67.33214 51.43317 68.53803
#
# Poissons Ratio (x) = 0.45318 0.22757
# Poissons Ratio (y) = 0.59327 0.32969
# Poissons Ratio (z) = 0.22357 0.24741
#
# Static dielectric constant tensor:
#      x y z
#    x 3.818180 0.000000 0.097720 
#    y 0.000000 3.970590 0.000000 
#    z 0.097720 0.000000 3.987250 
# 
# 
# High freq. dielectric constant tensor:
#      x y z
#    x 1.781590 0.000000 0.002790 
#    y 0.000000 1.789300 0.000000 
#    z 0.002790 0.000000 1.785470 
# 
# From -- ./inp_files/32841.got.cif
#   From: 2010.06.25/outbox.cif.g09.slc.cpg/sg10_17_cif.got.tgz:32841.got - 2010.06.27 22:07:45.
