data_PCOD8066057
_publ_section_title
;
Structure prediction by ZEFSAII (Michael W. Deem and Ramdas Pophale) SiO2 
 PCOD8066057
Probable space group: P 2/M
;
_chemical_formula_sum "Si O2"
_cell_formula_units_Z 28
_cell_length_a 15.829395
_cell_length_b 8.935250
_cell_length_c 20.101204
_cell_angle_alpha 90.000000
_cell_angle_beta 29.966092
_cell_angle_gamma 90.000000
_cell_volume 1420.095748
_symmetry_space_group_name_H-M "P 2/M"
_symmetry_group_IT_number 10
_symmetry_cell_setting 'monoclinic'
loop_
_space_group_symop_operation_xyz
x,y,z
-x,y,-z
-x,-y,-z
x,-y,z
loop_
_atom_site_type_symbol
_atom_site_label
_atom_site_fract_x
_atom_site_fract_y
_atom_site_fract_z
Si Si1 0.360664 0.176184 0.646913
Si Si2 0.891943 0.323573 0.386906
Si Si3 0.081864 0.171708 0.374271
Si Si4 0.528132 0.172711 0.905261
Si Si5 0.015517 0.176720 0.812867
Si Si6 0.326262 0.675950 0.928780
Si Si7 0.489968 0.675870 0.330219
O O1 0.500000 0.237771 0.500000
O O2 0.177104 0.223780 0.746070
O O3 0.386548 0.249342 0.700775
O O4 0.379273 0.000000 0.642378
O O5 0.897811 0.500000 0.371394
O O6 0.970197 0.242284 0.270371
O O7 0.701098 0.266087 0.529514
O O8 0.005362 0.282287 0.372362
O O9 0.279961 0.201560 0.246376
O O10 0.000000 0.213296 0.500000
O O11 0.045031 0.000000 0.378930
O O12 0.408038 0.273029 0.941967
O O13 0.475628 0.000000 0.931633
O O14 0.500000 0.223825 0.000000
O O15 0.998131 0.000000 0.818783
O O16 0.852564 0.243504 0.960635
O O17 0.295224 0.500000 0.952280
O O18 0.448948 0.723070 0.784738
O O19 0.500493 0.500000 0.333211
#
# Coordination Sequence:
#
# PCOD8066057 Si02
#       7
#     4   4   4   4   4   4   4
#     4  10  21  39  63  91 118 152 200 247 293 349
#     4  11  22  37  60  89 118 155 200 244 296 353
#     4  10  21  36  56  84 117 154 196 243 295 349
#     4  10  21  38  59  83 114 154 199 244 293 347
#     4  11  23  40  62  88 119 153 196 248 296 349
#     4  11  24  41  60  88 123 159 200 241 294 357
#     4  10  23  40  60  88 124 161 195 241 297 355
#
# _framework density 19.716981000000001
#
# number of rings (size 3 to 8) (size 9 to 14) (size 15 to 20)
#    0.000    1.571    1.429    3.000    0.000    6.000 
#    0.000    2.857    0.000    0.000    0.000    0.000 
#    0.000    0.000    0.000    0.000    0.000    0.000 
#
# Total GULP energy -347394.800965 kJ/mol
# GULP energy per Si atom -12406.957177 kJ/mol
# Density = 1.967210 g / cm^3
# Si number density = 19.716981 Si / 1000 Ang^3
#
#
#
# Elastic Constant Matrix: (Units=GPa)
#
#
# Indices 1 2 3 4 5 6 
#
# 1 96.0270 29.7884 15.1063 0.0000 -3.9589 0.0000
# 2 29.7884 50.7078 21.9136 0.0000 -3.1853 0.0000
# 3 15.1063 21.9136 82.9056 0.0000 -0.2833 0.0000
# 4 0.0000 0.0000 0.0000 12.8777 0.0000 6.4874
# 5 -3.9589 -3.1853 -0.2833 0.0000 31.1374 0.0000
# 6 0.0000 0.0000 0.0000 6.4874 0.0000 30.8624
#
#
#
# Elastic Compliance Matrix: (Units=1/GPa)
#
#
# Indices 1 2 3 4 5 6 
#
# 1 0.012769 -0.007273 -0.000401 0.000000 0.000876 0.000000
# 2 -0.007273 0.026561 -0.005690 0.000000 0.001741 0.000000
# 3 -0.000401 -0.005690 0.013637 0.000000 -0.000509 0.000000
# 4 0.000000 0.000000 0.000000 0.086851 0.000000 -0.018257
# 5 0.000876 0.001741 -0.000509 0.000000 0.032401 0.000000
# 6 0.000000 0.000000 0.000000 -0.018257 0.000000 0.036239
#
#
# Mechanical properties :
#
#
# Convention : Reuss Voigt Hill
#
# Bulk Modulus (GPa) = 38.10940 40.36190 39.23565
# Shear Modulus (GPa) = 20.49746 25.83096 23.16421
#
# Velocity S-wave (km/s) = 3.22776 3.62344 3.43131
# Velocity P-wave (km/s) = 5.76727 6.16610 5.97002
#
# Compressibility (1/GPa) = 0.02624025
#
# Stress axis : x y z
#
# Youngs Moduli (GPa) = 78.31433 37.64873 73.32902
#
# Poissons Ratio (x) = 0.27381 0.02943
# Poissons Ratio (y) = 0.56956 0.41721
# Poissons Ratio (z) = 0.03143 0.21420
#
# Static dielectric constant tensor:
#      x y z
#    x 3.629070 0.000000 0.020530 
#    y 0.000000 3.522870 0.000000 
#    z 0.020530 0.000000 3.860390 
# 
# 
# High freq. dielectric constant tensor:
#      x y z
#    x 1.774900 0.000000 -0.001480 
#    y 0.000000 1.764900 0.000000 
#    z -0.001480 0.000000 1.783900 
# 
# From -- ./inp_files/84896.got.cif
#   From: 2010.06.25/outbox.cif.g09.slc.cpg/sg10_43_cif.got.tgz:84896.got - 2010.06.27 22:07:45.
