data_PCOD8066747
_publ_section_title
;
Structure prediction by ZEFSAII (Michael W. Deem and Ramdas Pophale) SiO2 
 PCOD8066747
Probable space group: P 2/M
;
_chemical_formula_sum "Si O2"
_cell_formula_units_Z 32
_cell_length_a 20.607021
_cell_length_b 15.214632
_cell_length_c 15.722965
_cell_angle_alpha 90.000000
_cell_angle_beta 162.064993
_cell_angle_gamma 90.000000
_cell_volume 1518.009047
_symmetry_space_group_name_H-M "P 2/M"
_symmetry_group_IT_number 10
_symmetry_cell_setting 'monoclinic'
loop_
_space_group_symop_operation_xyz
x,y,z
-x,y,-z
-x,-y,-z
x,-y,z
loop_
_atom_site_type_symbol
_atom_site_label
_atom_site_fract_x
_atom_site_fract_y
_atom_site_fract_z
Si Si1 0.267975 0.405125 0.679255
Si Si2 0.021276 0.751098 0.431573
Si Si3 0.278362 0.307100 0.077174
Si Si4 0.258197 0.171666 0.193870
Si Si5 0.263628 0.730164 0.370877
Si Si6 0.069556 0.600381 0.259332
Si Si7 0.186769 0.096301 0.370741
Si Si8 0.283188 0.098473 0.684806
O O1 0.150244 0.500000 0.543927
O O2 0.182449 0.329498 0.632780
O O3 0.247573 0.379236 0.553374
O O4 0.500000 0.418822 0.000000
O O5 0.097611 0.835686 0.476065
O O6 0.000000 0.784235 0.500000
O O7 0.809379 0.712543 0.126120
O O8 0.245957 0.219006 0.089206
O O9 0.524318 0.327940 0.372452
O O10 0.155710 0.384571 0.974237
O O11 0.500000 0.133371 0.500000
O O12 0.194859 0.241671 0.189747
O O13 0.070252 0.100607 0.955120
O O14 0.101545 0.666835 0.219617
O O15 0.296966 0.824131 0.458349
O O16 0.078333 0.500000 0.237025
O O17 0.292634 0.100566 0.595094
O O18 0.243065 0.000000 0.401573
O O19 0.229532 0.000000 0.650052
O O20 0.500000 0.130201 0.000000
#
# Coordination Sequence:
#
# PCOD8066747 Si02
#       8
#     4   4   4   4   4   4   4   4
#     4   9  19  36  56  83 119 156 199 256 313 366
#     4  11  22  34  59  87 118 158 207 249 303 373
#     4  10  22  41  58  90 126 165 200 260 317 367
#     4  10  21  41  64  88 126 168 204 259 320 368
#     4  11  23  38  67  91 126 162 210 262 315 368
#     4  10  21  39  64  90 124 168 211 257 316 380
#     4  11  22  40  66  94 125 165 211 260 312 376
#     4  10  22  40  61  87 125 165 202 249 309 367
#
# _framework density 21.080241999999998
#
# number of rings (size 3 to 8) (size 9 to 14) (size 15 to 20)
#    0.000    1.750    2.500    1.500    3.500    2.250 
#    0.000    3.750    0.000    2.250    0.000    0.000 
#    0.000    0.000    0.000    0.000    0.000    0.000 
#
# Total GULP energy -396434.557784 kJ/mol
# GULP energy per Si atom -12388.579931 kJ/mol
# Density = 2.103226 g / cm^3
# Si number density = 21.080242 Si / 1000 Ang^3
#
#
#
# Elastic Constant Matrix: (Units=GPa)
#
#
# Indices 1 2 3 4 5 6 
#
# 1 79.8804 27.7746 25.0515 0.0000 -1.8365 0.0000
# 2 27.7746 101.3828 23.0852 0.0000 8.0454 0.0000
# 3 25.0515 23.0852 96.8898 0.0000 -7.4741 0.0000
# 4 0.0000 0.0000 0.0000 6.9155 0.0000 -3.8053
# 5 -1.8365 8.0454 -7.4741 0.0000 21.1396 0.0000
# 6 0.0000 0.0000 0.0000 -3.8053 0.0000 75.9860
#
#
#
# Elastic Compliance Matrix: (Units=1/GPa)
#
#
# Indices 1 2 3 4 5 6 
#
# 1 0.014661 -0.003498 -0.002833 0.000000 0.001603 0.000000
# 2 -0.003498 0.011801 -0.002341 0.000000 -0.005623 0.000000
# 3 -0.002833 -0.002341 0.011988 0.000000 0.004883 0.000000
# 4 0.000000 0.000000 0.000000 0.148700 0.000000 0.007447
# 5 0.001603 -0.005623 0.004883 0.000000 0.051310 0.000000
# 6 0.000000 0.000000 0.000000 0.007447 0.000000 0.013533
#
#
# Mechanical properties :
#
#
# Convention : Reuss Voigt Hill
#
# Bulk Modulus (GPa) = 47.38374 47.77509 47.57941
# Shear Modulus (GPa) = 18.09145 34.29102 26.19124
#
# Velocity S-wave (km/s) = 2.93271 4.03760 3.52867
# Velocity P-wave (km/s) = 5.83047 6.66700 6.26272
#
# Compressibility (1/GPa) = 0.02110429
#
# Stress axis : x y z
#
# Youngs Moduli (GPa) = 68.21021 84.73631 83.41631
#
# Poissons Ratio (x) = 0.29645 0.23635
# Poissons Ratio (y) = 0.23863 0.19528
# Poissons Ratio (z) = 0.19326 0.19837
#
# Static dielectric constant tensor:
#      x y z
#    x 3.808080 0.000000 -0.058140 
#    y 0.000000 3.912870 0.000000 
#    z -0.058140 0.000000 4.021220 
# 
# 
# High freq. dielectric constant tensor:
#      x y z
#    x 1.810630 0.000000 -0.019390 
#    y 0.000000 1.821500 0.000000 
#    z -0.019390 0.000000 1.835030 
# 
# From -- ./inp_files/70775.got.cif
#   From: 2010.06.25/outbox.cif.g09.slc.cpg/sg10_36_cif.got.tgz:70775.got - 2010.06.27 22:07:45.
