data_PCOD8066965
_publ_section_title
;
Structure prediction by ZEFSAII (Michael W. Deem and Ramdas Pophale) SiO2 
 PCOD8066965
Probable space group: P 2/M
;
_chemical_formula_sum "Si O2"
_cell_formula_units_Z 22
_cell_length_a 5.262424
_cell_length_b 8.158941
_cell_length_c 24.479352
_cell_angle_alpha 90.000000
_cell_angle_beta 110.248508
_cell_angle_gamma 90.000000
_cell_volume 986.086781
_symmetry_space_group_name_H-M "P 2/M"
_symmetry_group_IT_number 10
_symmetry_cell_setting 'monoclinic'
loop_
_space_group_symop_operation_xyz
x,y,z
-x,y,-z
-x,-y,-z
x,-y,z
loop_
_atom_site_type_symbol
_atom_site_label
_atom_site_fract_x
_atom_site_fract_y
_atom_site_fract_z
Si Si1 0.193070 0.000000 0.461222
Si Si2 0.287770 0.695242 0.869257
Si Si3 0.102841 0.304088 0.737544
Si Si4 0.508315 0.311932 0.677218
Si Si5 0.107651 0.304566 0.065851
Si Si6 0.959470 0.321621 0.432672
O O1 0.500000 0.000000 0.500000
O O2 0.133167 0.167499 0.422751
O O3 0.000000 0.000000 0.500000
O O4 0.289665 0.500000 0.870210
O O5 0.589763 0.763093 0.902023
O O6 0.181914 0.760760 0.803268
O O7 0.088358 0.763312 0.901241
O O8 0.103678 0.500000 0.735590
O O9 0.806340 0.231469 0.699151
O O10 0.317207 0.232640 0.709808
O O11 0.551437 0.500000 0.695882
O O12 0.354969 0.291585 0.607288
O O13 0.107804 0.500000 0.066311
O O14 0.000000 0.237862 0.000000
O O15 0.052384 0.500000 0.414159
O O16 0.000000 0.332018 0.500000
#
# Coordination Sequence:
#
# PCOD8066965 Si02
#       6
#     2   4   4   4   4   4
#     4  10  22  38  56  80 108 138 174 214 259 320
#     4   9  15  22  32  45  66  97 133 181 234 278
#     4   9  16  26  39  57  80 108 146 192 242 291
#     4   9  17  28  43  63  86 113 149 194 241 294
#     4   9  15  21  29  43  64  94 135 182 231 280
#     4   9  19  36  57  80 107 139 174 217 270 319
#
# _framework density 22.310410999999998
#
# number of rings (size 3 to 8) (size 9 to 14) (size 15 to 20)
#    0.000    2.909    0.000    1.636    0.000    9.818 
#    0.000    5.455    0.000    0.000    0.000    0.000 
#    0.000    0.000    0.000    0.000    0.000    0.000 
#
# Total GULP energy -272576.284063 kJ/mol
# GULP energy per Si atom -12389.831094 kJ/mol
# Density = 2.225963 g / cm^3
# Si number density = 22.310411 Si / 1000 Ang^3
#
#
#
# Elastic Constant Matrix: (Units=GPa)
#
#
# Indices 1 2 3 4 5 6 
#
# 1 172.1297 3.4148 60.3096 0.0000 23.4980 0.0000
# 2 3.4148 76.9508 -10.3621 0.0000 17.8618 0.0000
# 3 60.3096 -10.3621 158.4301 0.0000 21.1848 0.0000
# 4 0.0000 0.0000 0.0000 -4.5599 0.0000 1.8009
# 5 23.4980 17.8618 21.1848 0.0000 48.9610 0.0000
# 6 0.0000 0.0000 0.0000 1.8009 0.0000 4.4433
#
#
#
# Elastic Compliance Matrix: (Units=1/GPa)
#
#
# Indices 1 2 3 4 5 6 
#
# 1 0.006945 -0.000094 -0.002344 0.000000 -0.002284 0.000000
# 2 -0.000094 0.014655 0.001808 0.000000 -0.006084 0.000000
# 3 -0.002344 0.001808 0.007706 0.000000 -0.002869 0.000000
# 4 0.000000 0.000000 0.000000 -0.189044 0.000000 0.076621
# 5 -0.002284 -0.006084 -0.002869 0.000000 0.024981 0.000000
# 6 0.000000 0.000000 0.000000 0.076621 0.000000 0.194003
#
#
# Mechanical properties :
#
#
# Convention : Reuss Voigt Hill
#
# Bulk Modulus (GPa) = 35.65653 57.13725 46.39689
# Shear Modulus (GPa) = 71.57616 33.37877 52.47746
#
# Velocity S-wave (km/s) = 5.67024 3.87215 4.85516
# Velocity P-wave (km/s) = 7.67369 6.75701 7.22989
#
# Compressibility (1/GPa) = 0.02804535
#
# Stress axis : x y z
#
# Youngs Moduli (GPa) = 143.99544 68.23603 129.76654
#
# Poissons Ratio (x) = 0.00639 0.30421
# Poissons Ratio (y) = 0.01348 -0.23457
# Poissons Ratio (z) = 0.33756 -0.12334
#
# Static dielectric constant tensor:
#      x y z
#    x 4.151560 0.000000 0.171390 
#    y 0.000000 4.438890 0.000000 
#    z 0.171390 0.000000 4.108960 
# 
# 
# High freq. dielectric constant tensor:
#      x y z
#    x 1.879130 0.000000 0.015060 
#    y 0.000000 1.810680 0.000000 
#    z 0.015060 0.000000 1.885940 
# 
# From -- ./inp_files/87355.got.cif
#   From: 2010.06.25/outbox.cif.g09.slc.cpg/sg10_44_cif.got.tgz:87355.got - 2010.06.27 22:07:45.
