data_PCOD8066618
_publ_section_title
;
Structure prediction by ZEFSAII (Michael W. Deem and Ramdas Pophale) SiO2 
 PCOD8066618
Probable space group: P 2/M
;
_chemical_formula_sum "Si O2"
_cell_formula_units_Z 32
_cell_length_a 15.000391
_cell_length_b 19.247483
_cell_length_c 9.595218
_cell_angle_alpha 90.000000
_cell_angle_beta 141.838737
_cell_angle_gamma 90.000000
_cell_volume 1711.722508
_symmetry_space_group_name_H-M "P 2/M"
_symmetry_group_IT_number 10
_symmetry_cell_setting 'monoclinic'
loop_
_space_group_symop_operation_xyz
x,y,z
-x,y,-z
-x,-y,-z
x,-y,z
loop_
_atom_site_type_symbol
_atom_site_label
_atom_site_fract_x
_atom_site_fract_y
_atom_site_fract_z
Si Si1 0.558278 0.173297 0.925030
Si Si2 0.791671 0.277009 0.167586
Si Si3 0.920412 0.693638 0.599990
Si Si4 0.082171 0.423095 0.958614
Si Si5 0.716641 0.221403 0.554042
Si Si6 0.612568 0.078131 0.744884
Si Si7 0.832206 0.921282 0.790842
Si Si8 0.336614 0.323642 0.267621
O O1 0.439970 0.224755 0.710554
O O2 0.599772 0.109216 0.880596
O O3 0.500000 0.145004 0.000000
O O4 0.710689 0.211367 0.134264
O O5 0.825122 0.324492 0.345281
O O6 0.942716 0.257885 0.276361
O O7 0.683159 0.310687 0.921851
O O8 0.832169 0.733839 0.609772
O O9 0.985747 0.621254 0.733401
O O10 0.107519 0.500000 0.925614
O O11 0.235228 0.387978 0.182641
O O12 0.000000 0.430130 0.000000
O O13 0.760558 0.139689 0.610727
O O14 0.707062 0.254829 0.696963
O O15 0.500000 0.115616 0.500000
O O16 0.772340 0.084266 0.875675
O O17 0.560741 0.000000 0.700825
O O18 0.798977 0.000000 0.692011
O O19 0.000000 0.906644 0.000000
O O20 0.500000 0.345624 0.500000
#
# Coordination Sequence:
#
# PCOD8066618 Si02
#       8
#     4   4   4   4   4   4   4   4
#     4  12  23  36  55  87 118 158 197 245 308 360
#     4  10  22  37  56  86 123 149 193 248 296 348
#     4  10  22  40  58  87 120 158 195 245 300 351
#     4  10  21  39  63  90 120 157 202 244 291 354
#     4  12  22  35  59  87 116 156 196 244 302 361
#     4  10  21  39  57  78 113 155 201 251 304 363
#     4  10  23  38  57  85 115 152 200 255 305 355
#     4  11  22  36  60  93 120 154 199 244 300 359
#
# _framework density 18.694618999999999
#
# number of rings (size 3 to 8) (size 9 to 14) (size 15 to 20)
#    0.000    1.375    5.000    0.750    5.250    0.500 
#    0.000    5.000    0.000    0.000    0.000    7.000 
#    0.000    0.000    0.000    0.000    0.000    0.000 
#
# Total GULP energy -396567.968230 kJ/mol
# GULP energy per Si atom -12392.749007 kJ/mol
# Density = 1.865207 g / cm^3
# Si number density = 18.694619 Si / 1000 Ang^3
#
#
#
# Elastic Constant Matrix: (Units=GPa)
#
#
# Indices 1 2 3 4 5 6 
#
# 1 111.0245 44.9340 48.8747 0.0000 3.2559 0.0000
# 2 44.9340 105.0517 48.7298 0.0000 1.9438 0.0000
# 3 48.8747 48.7298 120.7675 0.0000 -3.5530 0.0000
# 4 0.0000 0.0000 0.0000 140.6584 0.0000 90.8518
# 5 3.2559 1.9438 -3.5530 0.0000 34.0888 0.0000
# 6 0.0000 0.0000 0.0000 90.8518 0.0000 89.0737
#
#
#
# Elastic Compliance Matrix: (Units=1/GPa)
#
#
# Indices 1 2 3 4 5 6 
#
# 1 0.011991 -0.003489 -0.003484 0.000000 -0.001309 0.000000
# 2 -0.003489 0.012772 -0.003765 0.000000 -0.000787 0.000000
# 3 -0.003484 -0.003765 0.011260 0.000000 0.001721 0.000000
# 4 0.000000 0.000000 0.000000 0.020836 0.000000 -0.021252
# 5 -0.001309 -0.000787 0.001721 0.000000 0.029685 0.000000
# 6 0.000000 0.000000 0.000000 -0.021252 0.000000 0.032903
#
#
# Mechanical properties :
#
#
# Convention : Reuss Voigt Hill
#
# Bulk Modulus (GPa) = 68.73438 69.10231 68.91834
# Shear Modulus (GPa) = 34.30029 65.71785 50.00907
#
# Velocity S-wave (km/s) = 4.28807 5.93546 5.17770
# Velocity P-wave (km/s) = 7.83348 9.16607 8.52585
#
# Compressibility (1/GPa) = 0.01454876
#
# Stress axis : x y z
#
# Youngs Moduli (GPa) = 83.39652 78.29398 88.81045
#
# Poissons Ratio (x) = 0.27315 0.30937
# Poissons Ratio (y) = 0.29095 0.33436
# Poissons Ratio (z) = 0.29051 0.29477
#
# Static dielectric constant tensor:
#      x y z
#    x 3.709050 0.000000 0.089840 
#    y 0.000000 3.418820 0.000000 
#    z 0.089840 0.000000 3.606740 
# 
# 
# High freq. dielectric constant tensor:
#      x y z
#    x 1.743840 0.000000 0.010530 
#    y 0.000000 1.700230 0.000000 
#    z 0.010530 0.000000 1.722530 
# 
# From -- ./inp_files/30291.got.cif
#   From: 2010.06.25/outbox.cif.g09.slc.cpg/sg10_16_cif.got.tgz:30291.got - 2010.06.27 22:07:45.
