data_PCOD8066867
_publ_section_title
;
Structure prediction by ZEFSAII (Michael W. Deem and Ramdas Pophale) SiO2 
 PCOD8066867
Probable space group: P 2/M
;
_chemical_formula_sum "Si O2"
_cell_formula_units_Z 24
_cell_length_a 17.917090
_cell_length_b 11.652802
_cell_length_c 11.811883
_cell_angle_alpha 90.000000
_cell_angle_beta 149.400554
_cell_angle_gamma 90.000000
_cell_volume 1255.344709
_symmetry_space_group_name_H-M "P 2/M"
_symmetry_group_IT_number 10
_symmetry_cell_setting 'monoclinic'
loop_
_space_group_symop_operation_xyz
x,y,z
-x,y,-z
-x,-y,-z
x,-y,z
loop_
_atom_site_type_symbol
_atom_site_label
_atom_site_fract_x
_atom_site_fract_y
_atom_site_fract_z
Si Si1 0.347262 0.741559 0.986912
Si Si2 0.927491 0.256598 0.214934
Si Si3 0.624764 0.869175 0.414547
Si Si4 0.131464 0.131718 0.088571
Si Si5 0.774187 0.866193 0.375993
Si Si6 0.363570 0.500000 0.905225
Si Si7 0.039194 0.500000 0.419039
O O1 0.198880 0.766031 0.859862
O O2 0.340911 0.805788 0.858023
O O3 0.369447 0.607330 0.996744
O O4 0.483866 0.788080 0.237055
O O5 0.064015 0.181431 0.434008
O O6 0.972351 0.389876 0.269294
O O7 0.869943 0.218285 0.017630
O O8 0.714974 0.851204 0.647207
O O9 0.727918 0.836889 0.443442
O O10 0.570978 0.000000 0.332850
O O11 0.112513 0.000000 0.021769
O O12 0.000000 0.164427 0.000000
O O13 0.772546 0.000000 0.348169
O O14 0.215374 0.500000 0.636653
O O15 0.500000 0.500000 0.000000
O O16 0.000000 0.500000 0.500000
#
# Coordination Sequence:
#
# PCOD8066867 Si02
#       7
#     4   4   4   4   4   2   2
#     4  12  24  38  59  95 128 158 209 266 323 382
#     4  12  23  39  65  90 124 166 213 259 316 378
#     4  10  22  40  61  87 127 168 206 259 317 373
#     4  10  21  41  66  90 123 173 220 258 309 377
#     4  11  21  36  61  91 124 163 207 261 319 384
#     4  12  24  40  65  90 124 171 206 248 319 392
#     4  12  22  46  64  92 131 166 204 263 329 374
#
# _framework density 19.118254
#
# number of rings (size 3 to 8) (size 9 to 14) (size 15 to 20)
#    0.000    0.833    5.000    3.000    0.000    5.333 
#    0.000    2.917    0.000    2.000    0.000    0.000 
#    0.000    0.000    0.000    0.000    0.000    0.000 
#
# Total GULP energy -297762.234754 kJ/mol
# GULP energy per Si atom -12406.759781 kJ/mol
# Density = 1.907474 g / cm^3
# Si number density = 19.118254 Si / 1000 Ang^3
#
#
#
# Elastic Constant Matrix: (Units=GPa)
#
#
# Indices 1 2 3 4 5 6 
#
# 1 78.1287 39.2496 35.8230 0.0000 2.2595 0.0000
# 2 39.2496 123.2978 54.7443 0.0000 -6.9552 0.0000
# 3 35.8230 54.7443 104.7353 0.0000 1.4683 0.0000
# 4 0.0000 0.0000 0.0000 386.7825 0.0000 -146.8685
# 5 2.2595 -6.9552 1.4683 0.0000 39.8687 0.0000
# 6 0.0000 0.0000 0.0000 -146.8685 0.0000 90.9809
#
#
#
# Elastic Compliance Matrix: (Units=1/GPa)
#
#
# Indices 1 2 3 4 5 6 
#
# 1 0.016360 -0.003663 -0.003661 0.000000 -0.001431 0.000000
# 2 -0.003663 0.011551 -0.004819 0.000000 0.002400 0.000000
# 3 -0.003661 -0.004819 0.013334 0.000000 -0.001124 0.000000
# 4 0.000000 0.000000 0.000000 0.006680 0.000000 0.010784
# 5 -0.001431 0.002400 -0.001124 0.000000 0.025624 0.000000
# 6 0.000000 0.000000 0.000000 0.010784 0.000000 0.028399
#
#
# Mechanical properties :
#
#
# Convention : Reuss Voigt Hill
#
# Bulk Modulus (GPa) = 58.96083 62.86616 60.91350
# Shear Modulus (GPa) = 37.91134 115.28274 76.59704
#
# Velocity S-wave (km/s) = 4.45791 7.77372 6.33655
# Velocity P-wave (km/s) = 7.57656 10.65497 9.24480
#
# Compressibility (1/GPa) = 0.01696041
#
# Stress axis : x y z
#
# Youngs Moduli (GPa) = 61.12640 86.56975 74.99420
#
# Poissons Ratio (x) = 0.31712 0.27454
# Poissons Ratio (y) = 0.22391 0.36136
# Poissons Ratio (z) = 0.22377 0.41714
#
# Static dielectric constant tensor:
#      x y z
#    x 3.506470 0.000000 -0.002460 
#    y 0.000000 3.591380 0.000000 
#    z -0.002460 0.000000 3.705970 
# 
# 
# High freq. dielectric constant tensor:
#      x y z
#    x 1.738360 0.000000 0.011200 
#    y 0.000000 1.745340 0.000000 
#    z 0.011200 0.000000 1.751740 
# 
# From -- ./inp_files/46528.got.cif
#   From: 2010.06.25/outbox.cif.g09.slc.cpg/sg10_24_cif.got.tgz:46528.got - 2010.06.27 22:07:45.
