data_PCOD8066006
_publ_section_title
;
Structure prediction by ZEFSAII (Michael W. Deem and Ramdas Pophale) SiO2 
 PCOD8066006
Probable space group: P 2/M
;
_chemical_formula_sum "Si O2"
_cell_formula_units_Z 28
_cell_length_a 29.516651
_cell_length_b 8.875631
_cell_length_c 9.394668
_cell_angle_alpha 90.000000
_cell_angle_beta 37.371137
_cell_angle_gamma 90.000000
_cell_volume 1493.891201
_symmetry_space_group_name_H-M "P 2/M"
_symmetry_group_IT_number 10
_symmetry_cell_setting 'monoclinic'
loop_
_space_group_symop_operation_xyz
x,y,z
-x,y,-z
-x,-y,-z
x,-y,z
loop_
_atom_site_type_symbol
_atom_site_label
_atom_site_fract_x
_atom_site_fract_y
_atom_site_fract_z
Si Si1 0.289170 0.823779 0.612659
Si Si2 0.008847 0.825349 0.142744
Si Si3 0.429208 0.819873 0.765225
Si Si4 0.132979 0.322749 0.011191
Si Si5 0.292686 0.175685 0.927727
Si Si6 0.569576 0.179422 0.915998
Si Si7 0.127711 0.822295 0.320933
O O1 0.214212 0.735167 0.762600
O O2 0.315471 0.790702 0.708077
O O3 0.353759 0.764769 0.347065
O O4 0.272804 0.000000 0.632066
O O5 0.931797 0.778318 0.411166
O O6 0.027391 0.000000 0.125161
O O7 0.075835 0.723874 0.031369
O O8 0.000000 0.790105 0.000000
O O9 0.500000 0.759723 0.500000
O O10 0.354291 0.751970 0.878834
O O11 0.428223 0.000000 0.766314
O O12 0.434095 0.758479 0.913990
O O13 0.135108 0.500000 0.022175
O O14 0.104546 0.252528 0.230172
O O15 0.292356 0.000000 0.959379
O O16 0.209286 0.238997 0.166452
O O17 0.566527 0.000000 0.922151
O O18 0.500000 0.244738 0.000000
O O19 0.131707 0.000000 0.282980
#
# Coordination Sequence:
#
# PCOD8066006 Si02
#       7
#     4   4   4   4   4   4   4
#     4   9  17  31  50  70  97 130 165 207 252 299
#     4  10  21  36  55  79 105 133 168 211 259 309
#     4   9  15  22  36  63  99 130 155 192 244 297
#     4  11  22  35  53  76 103 136 174 211 252 306
#     4   8  14  25  41  62  89 123 158 193 237 286
#     4   9  16  25  41  68  99 130 163 202 250 300
#     4   9  18  34  55  76 100 131 169 212 256 305
#
# _framework density 18.742998
#
# number of rings (size 3 to 8) (size 9 to 14) (size 15 to 20)
#    0.000    2.714    0.000    3.429    0.000    7.143 
#    0.000    4.286    0.000    0.429    0.000    0.000 
#    0.000   14.286    0.000    0.000    0.000    0.000 
#
# Total GULP energy -347167.158398 kJ/mol
# GULP energy per Si atom -12398.827086 kJ/mol
# Density = 1.870034 g / cm^3
# Si number density = 18.742998 Si / 1000 Ang^3
#
#
#
# Elastic Constant Matrix: (Units=GPa)
#
#
# Indices 1 2 3 4 5 6 
#
# 1 144.8610 31.4637 72.9714 0.0000 -2.6554 0.0000
# 2 31.4637 38.5915 32.4335 0.0000 -3.2670 0.0000
# 3 72.9714 32.4335 155.4151 0.0000 6.3969 0.0000
# 4 0.0000 0.0000 0.0000 4.7879 0.0000 0.0771
# 5 -2.6554 -3.2670 6.3969 0.0000 25.3703 0.0000
# 6 0.0000 0.0000 0.0000 0.0771 0.0000 3.4303
#
#
#
# Elastic Compliance Matrix: (Units=1/GPa)
#
#
# Indices 1 2 3 4 5 6 
#
# 1 0.009817 -0.004816 -0.003659 0.000000 0.001330 0.000000
# 2 -0.004816 0.034642 -0.005185 0.000000 0.005264 0.000000
# 3 -0.003659 -0.005185 0.009375 0.000000 -0.003414 0.000000
# 4 0.000000 0.000000 0.000000 0.208936 0.000000 -0.004698
# 5 0.001330 0.005264 -0.003414 0.000000 0.041094 0.000000
# 6 0.000000 0.000000 0.000000 -0.004698 0.000000 0.291623
#
#
# Mechanical properties :
#
#
# Convention : Reuss Voigt Hill
#
# Bulk Modulus (GPa) = 37.71566 68.06721 52.89144
# Shear Modulus (GPa) = 7.91584 20.18430 14.05007
#
# Velocity S-wave (km/s) = 2.05731 3.28517 2.74088
# Velocity P-wave (km/s) = 5.08031 7.12634 6.18847
#
# Compressibility (1/GPa) = 0.02651418
#
# Stress axis : x y z
#
# Youngs Moduli (GPa) = 101.86752 28.86666 106.66779
#
# Poissons Ratio (x) = 0.13902 0.39029
# Poissons Ratio (y) = 0.49059 0.55306
# Poissons Ratio (z) = 0.37272 0.14967
#
# Static dielectric constant tensor:
#      x y z
#    x 3.648150 0.000000 -0.139670 
#    y 0.000000 2.856610 0.000000 
#    z -0.139670 0.000000 3.679430 
# 
# 
# High freq. dielectric constant tensor:
#      x y z
#    x 1.736280 0.000000 -0.007950 
#    y 0.000000 1.665820 0.000000 
#    z -0.007950 0.000000 1.738300 
# 
# From -- ./inp_files/37972.got.cif
#   From: 2010.06.25/outbox.cif.g09.slc.cpg/sg10_19_cif.got.tgz:37972.got - 2010.06.27 22:07:45.
