data_PCOD8066947
_publ_section_title
;
Structure prediction by ZEFSAII (Michael W. Deem and Ramdas Pophale) SiO2 
 PCOD8066947
Probable space group: P 2/M
;
_chemical_formula_sum "Si O2"
_cell_formula_units_Z 32
_cell_length_a 12.186215
_cell_length_b 14.249717
_cell_length_c 18.662942
_cell_angle_alpha 90.000000
_cell_angle_beta 30.215434
_cell_angle_gamma 90.000000
_cell_volume 1630.952569
_symmetry_space_group_name_H-M "P 2/M"
_symmetry_group_IT_number 10
_symmetry_cell_setting 'monoclinic'
loop_
_space_group_symop_operation_xyz
x,y,z
-x,y,-z
-x,-y,-z
x,-y,z
loop_
_atom_site_type_symbol
_atom_site_label
_atom_site_fract_x
_atom_site_fract_y
_atom_site_fract_z
Si Si1 0.946698 0.100166 0.890110
Si Si2 0.501203 0.103073 0.213832
Si Si3 0.328842 0.389955 0.402764
Si Si4 0.550426 0.298404 0.813220
Si Si5 0.600584 0.699061 0.370838
Si Si6 0.915716 0.295513 0.862293
Si Si7 0.118964 0.388659 0.270950
Si Si8 0.422214 0.103703 0.667188
O O1 0.921699 0.182596 0.844834
O O2 0.161066 0.107910 0.817908
O O3 0.941122 0.000000 0.851495
O O4 0.757457 0.105322 0.055186
O O5 0.392137 0.187693 0.230296
O O6 0.471251 0.120176 0.315231
O O7 0.403584 0.000000 0.247278
O O8 0.343434 0.500000 0.391721
O O9 0.364184 0.353516 0.303313
O O10 0.516944 0.353874 0.348452
O O11 0.092240 0.358594 0.564591
O O12 0.673172 0.335676 0.813965
O O13 0.292839 0.318428 0.970110
O O14 0.500000 0.654693 0.500000
O O15 0.512339 0.807613 0.418993
O O16 0.860352 0.681942 0.222261
O O17 0.908669 0.354044 0.794102
O O18 0.157919 0.500000 0.249414
O O19 0.497029 0.000000 0.595357
#
# Coordination Sequence:
#
# PCOD8066947 Si02
#       8
#     4   4   4   4   4   4   4   4
#     4   8  15  28  50  83 120 154 189 227 278 347
#     4   9  16  29  52  82 117 154 188 229 287 346
#     4  11  24  42  64  86 111 153 199 243 298 359
#     4  11  22  39  62  90 119 148 199 254 284 332
#     4  11  21  38  60  85 123 157 189 236 298 362
#     4  10  22  37  61  92 121 153 191 241 300 343
#     4  11  24  43  64  83 112 158 203 242 293 355
#     4   9  16  28  51  82 115 153 192 232 281 341
#
# _framework density 19.620436000000002
#
# number of rings (size 3 to 8) (size 9 to 14) (size 15 to 20)
#    0.000    2.000    2.500    1.500    0.000    5.500 
#    0.000    1.250    0.000    6.000    0.000    0.000 
#    0.000    0.000    0.000    0.000    0.000    0.000 
#
# Total GULP energy -396535.973430 kJ/mol
# GULP energy per Si atom -12391.749170 kJ/mol
# Density = 1.957578 g / cm^3
# Si number density = 19.620436 Si / 1000 Ang^3
#
#
#
# Elastic Constant Matrix: (Units=GPa)
#
#
# Indices 1 2 3 4 5 6 
#
# 1 62.4578 47.7722 15.4801 0.0000 -5.6586 0.0000
# 2 47.7722 71.1188 27.7473 0.0000 -6.6941 0.0000
# 3 15.4801 27.7473 65.2599 0.0000 -6.9179 0.0000
# 4 0.0000 0.0000 0.0000 29.3859 0.0000 7.8574
# 5 -5.6586 -6.6941 -6.9179 0.0000 24.8586 0.0000
# 6 0.0000 0.0000 0.0000 7.8574 0.0000 40.2234
#
#
#
# Elastic Compliance Matrix: (Units=1/GPa)
#
#
# Indices 1 2 3 4 5 6 
#
# 1 0.033221 -0.022943 0.002083 0.000000 0.001964 0.000000
# 2 -0.022943 0.032870 -0.008396 0.000000 0.001292 0.000000
# 3 0.002083 -0.008396 0.018763 0.000000 0.003435 0.000000
# 4 0.000000 0.000000 0.000000 0.035905 0.000000 -0.007014
# 5 0.001964 0.001292 0.003435 0.000000 0.041978 0.000000
# 6 0.000000 0.000000 0.000000 -0.007014 0.000000 0.026231
#
#
# Mechanical properties :
#
#
# Convention : Reuss Voigt Hill
#
# Bulk Modulus (GPa) = 37.96372 42.31509 40.13941
# Shear Modulus (GPa) = 19.51121 26.08271 22.79696
#
# Velocity S-wave (km/s) = 3.15688 3.65000 3.41236
# Velocity P-wave (km/s) = 5.71655 6.27511 6.00233
#
# Compressibility (1/GPa) = 0.02634094
#
# Stress axis : x y z
#
# Youngs Moduli (GPa) = 30.10144 30.42294 53.29532
#
# Poissons Ratio (x) = 0.69800 -0.11101
# Poissons Ratio (y) = 0.69062 0.44749
# Poissons Ratio (z) = -0.06270 0.25544
#
# Static dielectric constant tensor:
#      x y z
#    x 3.309530 0.000000 -0.088230 
#    y 0.000000 4.027320 0.000000 
#    z -0.088230 0.000000 3.551300 
# 
# 
# High freq. dielectric constant tensor:
#      x y z
#    x 1.742610 0.000000 -0.000030 
#    y 0.000000 1.779370 0.000000 
#    z -0.000030 0.000000 1.753690 
# 
# From -- ./inp_files/54048.got.cif
#   From: 2010.06.25/outbox.cif.g09.slc.cpg/sg10_28_cif.got.tgz:54048.got - 2010.06.27 22:07:45.
