data_PCOD8066899
_publ_section_title
;
Structure prediction by ZEFSAII (Michael W. Deem and Ramdas Pophale) SiO2 
 PCOD8066899
Probable space group: P 2/M
;
_chemical_formula_sum "Si O2"
_cell_formula_units_Z 32
_cell_length_a 11.793748
_cell_length_b 13.574740
_cell_length_c 17.347500
_cell_angle_alpha 90.000000
_cell_angle_beta 29.072649
_cell_angle_gamma 90.000000
_cell_volume 1349.532789
_symmetry_space_group_name_H-M "P 2/M"
_symmetry_group_IT_number 10
_symmetry_cell_setting 'monoclinic'
loop_
_space_group_symop_operation_xyz
x,y,z
-x,y,-z
-x,-y,-z
x,-y,z
loop_
_atom_site_type_symbol
_atom_site_label
_atom_site_fract_x
_atom_site_fract_y
_atom_site_fract_z
Si Si1 0.277630 0.767430 0.184350
Si Si2 0.242895 0.615872 0.321469
Si Si3 0.829828 0.784644 0.345867
Si Si4 0.857895 0.383889 0.208219
Si Si5 0.320615 0.616436 0.847021
Si Si6 0.985217 0.111993 0.903594
Si Si7 0.474068 0.113071 0.201880
Si Si8 0.528301 0.886558 0.338512
O O1 0.280112 0.654702 0.212534
O O2 0.293998 0.833442 0.251951
O O3 0.037423 0.784567 0.284009
O O4 0.500000 0.791114 0.000000
O O5 0.258207 0.500000 0.307943
O O6 0.441861 0.660552 0.259376
O O7 0.000000 0.653052 0.500000
O O8 0.802846 0.679504 0.317501
O O9 0.886073 0.872728 0.254291
O O10 0.586907 0.812056 0.531634
O O11 0.850259 0.500000 0.234778
O O12 0.681280 0.357586 0.242968
O O13 0.104787 0.346480 0.027226
O O14 0.310036 0.500000 0.860576
O O15 0.193243 0.143863 0.840598
O O16 0.919991 0.000000 0.958406
O O17 0.732781 0.165495 0.049364
O O18 0.388274 0.121540 0.341343
O O19 0.484329 0.000000 0.167964
O O20 0.521444 0.000000 0.372322
#
# Coordination Sequence:
#
# PCOD8066899 Si02
#       8
#     4   4   4   4   4   4   4   4
#     4  12  26  43  63  95 134 173 220 268 318 391
#     4  10  23  43  68  94 128 176 220 268 322 375
#     4  12  24  38  62 101 135 175 209 267 330 386
#     4   9  19  38  65  99 133 172 220 271 323 382
#     4   8  16  37  67  94 125 167 223 276 320 375
#     4  10  21  43  70  95 127 165 212 268 326 389
#     4  10  23  44  71  96 125 169 218 269 322 386
#     4  10  23  44  69  97 129 167 215 269 330 391
#
# _framework density 23.711911000000001
#
# number of rings (size 3 to 8) (size 9 to 14) (size 15 to 20)
#    0.000    1.875    1.250    2.625    1.750    5.500 
#    4.500    1.250    0.000    1.500    0.000    0.000 
#    0.000    0.125    0.000    0.000    0.000    0.000 
#
# Total GULP energy -396577.977246 kJ/mol
# GULP energy per Si atom -12393.061789 kJ/mol
# Density = 2.365794 g / cm^3
# Si number density = 23.711911 Si / 1000 Ang^3
#
#
#
# Elastic Constant Matrix: (Units=GPa)
#
#
# Indices 1 2 3 4 5 6 
#
# 1 103.6956 16.4393 -13.2267 0.0000 -12.1844 0.0000
# 2 16.4393 51.7860 12.6861 0.0000 8.8546 0.0000
# 3 -13.2267 12.6861 40.6296 0.0000 -7.5923 0.0000
# 4 0.0000 0.0000 0.0000 34.1419 0.0000 8.5495
# 5 -12.1844 8.8546 -7.5923 0.0000 36.7040 0.0000
# 6 0.0000 0.0000 0.0000 8.5495 0.0000 40.2479
#
#
#
# Elastic Compliance Matrix: (Units=1/GPa)
#
#
# Indices 1 2 3 4 5 6 
#
# 1 0.012672 -0.007225 0.007794 0.000000 0.007562 0.000000
# 2 -0.007225 0.026716 -0.012843 0.000000 -0.011500 0.000000
# 3 0.007794 -0.012843 0.033518 0.000000 0.012619 0.000000
# 4 0.000000 0.000000 0.000000 0.030935 0.000000 -0.006571
# 5 0.007562 -0.011500 0.012619 0.000000 0.035140 0.000000
# 6 0.000000 0.000000 0.000000 -0.006571 0.000000 0.026242
#
#
# Mechanical properties :
#
#
# Convention : Reuss Voigt Hill
#
# Bulk Modulus (GPa) = 20.67880 25.32316 23.00098
# Shear Modulus (GPa) = 24.28496 34.23295 29.25895
#
# Velocity S-wave (km/s) = 3.20373 3.80373 3.51655
# Velocity P-wave (km/s) = 4.73550 5.47666 5.11951
#
# Compressibility (1/GPa) = 0.04835869
#
# Stress axis : x y z
#
# Youngs Moduli (GPa) = 78.91631 37.43053 29.83484
#
# Poissons Ratio (x) = 0.27043 -0.23253
# Poissons Ratio (y) = 0.57016 0.38316
# Poissons Ratio (z) = -0.61508 0.48071
#
# Static dielectric constant tensor:
#      x y z
#    x 4.606770 0.000000 -0.253790 
#    y 0.000000 4.152160 0.000000 
#    z -0.253790 0.000000 4.224620 
# 
# 
# High freq. dielectric constant tensor:
#      x y z
#    x 1.950880 0.000000 -0.007460 
#    y 0.000000 1.942970 0.000000 
#    z -0.007460 0.000000 1.928240 
# 
# From -- ./inp_files/76970.got.cif
#   From: 2010.06.25/outbox.cif.g09.slc.cpg/sg10_39_cif.got.tgz:76970.got - 2010.06.27 22:07:45.
