data_PCOD8066730
_publ_section_title
;
Structure prediction by ZEFSAII (Michael W. Deem and Ramdas Pophale) SiO2 
 PCOD8066730
Probable space group: P 2/M
;
_chemical_formula_sum "Si O2"
_cell_formula_units_Z 28
_cell_length_a 12.593062
_cell_length_b 8.902687
_cell_length_c 15.191846
_cell_angle_alpha 90.000000
_cell_angle_beta 52.425537
_cell_angle_gamma 90.000000
_cell_volume 1349.882517
_symmetry_space_group_name_H-M "P 2/M"
_symmetry_group_IT_number 10
_symmetry_cell_setting 'monoclinic'
loop_
_space_group_symop_operation_xyz
x,y,z
-x,y,-z
-x,-y,-z
x,-y,z
loop_
_atom_site_type_symbol
_atom_site_label
_atom_site_fract_x
_atom_site_fract_y
_atom_site_fract_z
Si Si1 0.241563 0.323594 0.218027
Si Si2 0.831193 0.823724 0.266849
Si Si3 0.859685 0.174148 0.886631
Si Si4 0.448220 0.677553 0.263118
Si Si5 0.273961 0.324628 0.514251
Si Si6 0.269489 0.174809 0.867629
Si Si7 0.979162 0.836776 0.410973
O O1 0.214883 0.500000 0.241749
O O2 0.251997 0.275568 0.109620
O O3 0.362680 0.272781 0.220123
O O4 0.114982 0.223462 0.303917
O O5 0.724941 0.758943 0.391934
O O6 0.792438 0.757234 0.190930
O O7 0.984910 0.780245 0.214382
O O8 0.813796 0.000000 0.270712
O O9 0.833522 0.000000 0.878281
O O10 0.837608 0.204991 0.001166
O O11 0.455556 0.500000 0.262292
O O12 0.384703 0.734675 0.388233
O O13 0.593349 0.744415 0.177409
O O14 0.291248 0.500000 0.523064
O O15 0.132076 0.290672 0.541728
O O16 0.301337 0.000000 0.841567
O O17 0.000000 0.872736 0.500000
O O18 0.941314 0.000000 0.384828
#
# Coordination Sequence:
#
# PCOD8066730 Si02
#       7
#     4   4   4   4   4   4   4
#     4  11  22  37  59  88 122 158 196 240 295 355
#     4  10  21  39  63  91 119 151 196 251 306 351
#     4  10  21  39  63  91 119 151 196 251 306 351
#     4  10  24  42  58  83 123 165 198 237 291 356
#     4  11  22  37  59  88 122 158 196 240 295 355
#     4  10  23  42  63  85 116 159 204 250 296 352
#     4  11  21  33  55  88 121 154 193 243 298 350
#
# _framework density 20.742545
#
# number of rings (size 3 to 8) (size 9 to 14) (size 15 to 20)
#    0.000    1.571    2.857    1.714    0.000    6.857 
#    0.000    5.714    0.000    2.571    0.000    0.000 
#    0.000    0.000    0.000    0.000    0.000    0.000 
#
# Total GULP energy -347003.137110 kJ/mol
# GULP energy per Si atom -12392.969182 kJ/mol
# Density = 2.069533 g / cm^3
# Si number density = 20.742545 Si / 1000 Ang^3
#
#
#
# Elastic Constant Matrix: (Units=GPa)
#
#
# Indices 1 2 3 4 5 6 
#
# 1 90.0019 23.4742 23.2100 0.0000 15.7758 0.0000
# 2 23.4742 31.6081 16.4444 0.0000 4.2234 0.0000
# 3 23.2100 16.4444 77.0668 0.0000 16.9284 0.0000
# 4 0.0000 0.0000 0.0000 30.2749 0.0000 -0.8120
# 5 15.7758 4.2234 16.9284 0.0000 38.0767 0.0000
# 6 0.0000 0.0000 0.0000 -0.8120 0.0000 27.7326
#
#
#
# Elastic Compliance Matrix: (Units=1/GPa)
#
#
# Indices 1 2 3 4 5 6 
#
# 1 0.014765 -0.009636 -0.001420 0.000000 -0.004417 0.000000
# 2 -0.009636 0.041891 -0.006531 0.000000 0.002249 0.000000
# 3 -0.001420 -0.006531 0.016079 0.000000 -0.005836 0.000000
# 4 0.000000 0.000000 0.000000 0.033057 0.000000 0.000968
# 5 -0.004417 0.002249 -0.005836 0.000000 0.030438 0.000000
# 6 0.000000 0.000000 0.000000 0.000968 0.000000 0.036087
#
#
# Mechanical properties :
#
#
# Convention : Reuss Voigt Hill
#
# Bulk Modulus (GPa) = 26.62378 36.10377 31.36377
# Shear Modulus (GPa) = 22.72627 28.25339 25.48983
#
# Velocity S-wave (km/s) = 3.31363 3.69467 3.50932
# Velocity P-wave (km/s) = 5.24437 5.97028 5.61906
#
# Compressibility (1/GPa) = 0.03756041
#
# Stress axis : x y z
#
# Youngs Moduli (GPa) = 67.72949 23.87156 62.19346
#
# Poissons Ratio (x) = 0.23003 0.08833
# Poissons Ratio (y) = 0.65264 0.40616
# Poissons Ratio (z) = 0.09619 0.15590
#
# Static dielectric constant tensor:
#      x y z
#    x 3.740520 0.000000 0.313500 
#    y 0.000000 3.560180 0.000000 
#    z 0.313500 0.000000 4.089930 
# 
# 
# High freq. dielectric constant tensor:
#      x y z
#    x 1.807610 0.000000 0.024560 
#    y 0.000000 1.799780 0.000000 
#    z 0.024560 0.000000 1.825070 
# 
# From -- ./inp_files/63649.got.cif
#   From: 2010.06.25/outbox.cif.g09.slc.cpg/sg10_32_cif.got.tgz:63649.got - 2010.06.27 22:07:45.
