data_PCOD8066934
_publ_section_title
;
Structure prediction by ZEFSAII (Michael W. Deem and Ramdas Pophale) SiO2 
 PCOD8066934
Probable space group: P 2/M
;
_chemical_formula_sum "Si O2"
_cell_formula_units_Z 32
_cell_length_a 27.117654
_cell_length_b 8.627169
_cell_length_c 21.111460
_cell_angle_alpha 90.000000
_cell_angle_beta 19.476580
_cell_angle_gamma 90.000000
_cell_volume 1646.767615
_symmetry_space_group_name_H-M "P 2/M"
_symmetry_group_IT_number 10
_symmetry_cell_setting 'monoclinic'
loop_
_space_group_symop_operation_xyz
x,y,z
-x,y,-z
-x,-y,-z
x,-y,z
loop_
_atom_site_type_symbol
_atom_site_label
_atom_site_fract_x
_atom_site_fract_y
_atom_site_fract_z
Si Si1 0.011813 0.817210 0.255177
Si Si2 0.223481 0.316772 0.211018
Si Si3 0.508941 0.681177 0.192665
Si Si4 0.652671 0.181606 0.140411
Si Si5 0.950856 0.683379 0.459941
Si Si6 0.449251 0.679535 0.490356
Si Si7 0.835538 0.183500 0.220138
Si Si8 0.797198 0.182453 0.408955
O O1 0.928622 0.757892 0.418477
O O2 0.927763 0.749906 0.295173
O O3 0.001818 0.000000 0.267431
O O4 0.181017 0.761799 0.046862
O O5 0.210615 0.500000 0.222439
O O6 0.184962 0.264490 0.329433
O O7 0.102183 0.251873 0.308176
O O8 0.387171 0.263045 0.991765
O O9 0.473712 0.500000 0.231634
O O10 0.593707 0.716144 0.154607
O O11 0.357572 0.774268 0.371596
O O12 0.553015 0.213595 0.321881
O O13 0.644223 0.000000 0.133480
O O14 0.954458 0.500000 0.447391
O O15 0.500000 0.710156 0.500000
O O16 0.466490 0.500000 0.450637
O O17 0.279271 0.731814 0.687439
O O18 0.810068 0.248593 0.322204
O O19 0.809639 0.000000 0.247114
O O20 0.000000 0.229226 0.000000
O O21 0.811206 0.000000 0.387801
#
# Coordination Sequence:
#
# PCOD8066934 Si02
#       8
#     4   4   4   4   4   4   4   4
#     4  10  22  37  55  83 118 150 188 237 285 333
#     4   8  16  30  53  82 112 146 186 234 285 337
#     4  11  20  35  59  86 113 147 189 236 286 336
#     4  11  22  37  60  86 113 149 191 234 281 337
#     4   9  16  32  55  80 111 148 189 235 284 335
#     4  11  25  42  60  88 121 149 184 238 288 329
#     4  10  22  40  64  87 112 153 196 230 276 338
#     4  10  22  40  57  80 116 153 190 233 277 336
#
# _framework density 19.432006000000001
#
# number of rings (size 3 to 8) (size 9 to 14) (size 15 to 20)
#    0.000    2.000    2.500    1.875    1.750    2.250 
#    0.000    3.125    0.000    3.750    0.000    0.000 
#    0.000    0.000    0.000    0.000    0.000    0.000 
#
# Total GULP energy -396780.331641 kJ/mol
# GULP energy per Si atom -12399.385364 kJ/mol
# Density = 1.938778 g / cm^3
# Si number density = 19.432006 Si / 1000 Ang^3
#
#
#
# Elastic Constant Matrix: (Units=GPa)
#
#
# Indices 1 2 3 4 5 6 
#
# 1 104.3792 18.4559 50.9578 0.0000 -11.1437 0.0000
# 2 18.4559 11.2344 8.4993 0.0000 -0.6500 0.0000
# 3 50.9578 8.4993 130.9118 0.0000 0.5798 0.0000
# 4 0.0000 0.0000 0.0000 25.9136 0.0000 3.4739
# 5 -11.1437 -0.6500 0.5798 0.0000 32.7939 0.0000
# 6 0.0000 0.0000 0.0000 3.4739 0.0000 23.5535
#
#
#
# Elastic Compliance Matrix: (Units=1/GPa)
#
#
# Indices 1 2 3 4 5 6 
#
# 1 0.016732 -0.023384 -0.005018 0.000000 0.005311 0.000000
# 2 -0.023384 0.126416 0.000919 0.000000 -0.005456 0.000000
# 3 -0.005018 0.000919 0.009541 0.000000 -0.001856 0.000000
# 4 0.000000 0.000000 0.000000 0.039368 0.000000 -0.005806
# 5 0.005311 -0.005456 -0.001856 0.000000 0.032223 0.000000
# 6 0.000000 0.000000 0.000000 -0.005806 0.000000 0.043313
#
#
# Mechanical properties :
#
#
# Convention : Reuss Voigt Hill
#
# Bulk Modulus (GPa) = 10.23303 44.70574 27.46938
# Shear Modulus (GPa) = 14.07922 27.69301 20.88611
#
# Velocity S-wave (km/s) = 2.69464 3.77918 3.28202
# Velocity P-wave (km/s) = 3.86768 6.48838 5.34126
#
# Compressibility (1/GPa) = 0.09772278
#
# Stress axis : x y z
#
# Youngs Moduli (GPa) = 59.76572 7.91038 104.81406
#
# Poissons Ratio (x) = 0.18497 0.52599
# Poissons Ratio (y) = 1.39753 -0.09631
# Poissons Ratio (z) = 0.29993 -0.00727
#
# Static dielectric constant tensor:
#      x y z
#    x 3.700110 0.000000 0.093710 
#    y 0.000000 3.290720 0.000000 
#    z 0.093710 0.000000 4.018200 
# 
# 
# High freq. dielectric constant tensor:
#      x y z
#    x 1.751390 0.000000 0.007890 
#    y 0.000000 1.736500 0.000000 
#    z 0.007890 0.000000 1.767170 
# 
# From -- ./inp_files/86863.got.cif
#   From: 2010.06.25/outbox.cif.g09.slc.cpg/sg10_44_cif.got.tgz:86863.got - 2010.06.27 22:07:45.
