data_PCOD8066954
_publ_section_title
;
Structure prediction by ZEFSAII (Michael W. Deem and Ramdas Pophale) SiO2 
 PCOD8066954
Probable space group: P 2/M
;
_chemical_formula_sum "Si O2"
_cell_formula_units_Z 32
_cell_length_a 29.437902
_cell_length_b 9.013419
_cell_length_c 11.263470
_cell_angle_alpha 90.000000
_cell_angle_beta 34.558228
_cell_angle_gamma 90.000000
_cell_volume 1695.267102
_symmetry_space_group_name_H-M "P 2/M"
_symmetry_group_IT_number 10
_symmetry_cell_setting 'monoclinic'
loop_
_space_group_symop_operation_xyz
x,y,z
-x,y,-z
-x,-y,-z
x,-y,z
loop_
_atom_site_type_symbol
_atom_site_label
_atom_site_fract_x
_atom_site_fract_y
_atom_site_fract_z
Si Si1 0.999304 0.665702 0.813046
Si Si2 0.425746 0.172934 0.083439
Si Si3 0.868265 0.334878 0.297936
Si Si4 0.384155 0.324273 0.679414
Si Si5 0.228709 0.323403 0.877036
Si Si6 0.450581 0.324246 0.783695
Si Si7 0.259433 0.171846 0.562053
Si Si8 0.934630 0.827220 0.735601
O O1 0.000359 0.500000 0.753558
O O2 0.087641 0.705283 0.673218
O O3 0.974186 0.791719 0.776114
O O4 0.934758 0.668412 0.054624
O O5 0.348686 0.207339 0.328555
O O6 0.435987 0.000000 0.034890
O O7 0.500000 0.235103 0.000000
O O8 0.418450 0.252828 0.973059
O O9 0.830553 0.500000 0.387148
O O10 0.798942 0.216845 0.420335
O O11 0.384477 0.500000 0.675570
O O12 0.301957 0.262625 0.800071
O O13 0.394047 0.272775 0.795162
O O14 0.459074 0.268458 0.438772
O O15 0.225602 0.500000 0.881034
O O16 0.238535 0.267653 0.721967
O O17 0.147036 0.263056 0.109892
O O18 0.448042 0.500000 0.804051
O O19 0.247156 0.000000 0.619385
O O20 0.000000 0.776439 0.500000
O O21 0.914185 0.000000 0.771662
#
# Coordination Sequence:
#
# PCOD8066954 Si02
#       8
#     4   4   4   4   4   4   4   4
#     4   9  18  35  59  83 107 137 177 223 271 326
#     4  10  22  38  53  77 117 155 184 221 270 324
#     4   9  18  34  57  84 109 136 176 226 273 322
#     4   8  17  34  58  86 111 141 180 230 279 318
#     4  11  21  36  59  83 109 140 184 230 274 328
#     4   9  17  35  60  83 111 143 184 229 271 322
#     4  11  22  35  54  81 113 147 184 227 276 325
#     4  11  24  40  56  79 112 146 182 225 273 326
#
# _framework density 18.876082
#
# number of rings (size 3 to 8) (size 9 to 14) (size 15 to 20)
#    0.000    2.250    1.250    3.375    0.000    2.750 
#    2.250    4.375    0.000    0.000    0.000    0.000 
#    0.000    0.000    0.000    0.000    0.000    0.000 
#
# Total GULP energy -396750.939714 kJ/mol
# GULP energy per Si atom -12398.466866 kJ/mol
# Density = 1.883312 g / cm^3
# Si number density = 18.876082 Si / 1000 Ang^3
#
#
#
# Elastic Constant Matrix: (Units=GPa)
#
#
# Indices 1 2 3 4 5 6 
#
# 1 101.9868 28.1616 42.9729 0.0000 -25.5039 0.0000
# 2 28.1616 55.6730 40.3196 0.0000 -8.7114 0.0000
# 3 42.9729 40.3196 91.8713 0.0000 -17.6041 0.0000
# 4 0.0000 0.0000 0.0000 21.4938 0.0000 22.0904
# 5 -25.5039 -8.7114 -17.6041 0.0000 33.1417 0.0000
# 6 0.0000 0.0000 0.0000 22.0904 0.0000 -31.1911
#
#
#
# Elastic Compliance Matrix: (Units=1/GPa)
#
#
# Indices 1 2 3 4 5 6 
#
# 1 0.014315 -0.003293 -0.003680 0.000000 0.008195 0.000000
# 2 -0.003293 0.027111 -0.010552 0.000000 -0.001013 0.000000
# 3 -0.003680 -0.010552 0.017994 0.000000 0.003953 0.000000
# 4 0.000000 0.000000 0.000000 0.026926 0.000000 0.019070
# 5 0.008195 -0.001013 0.003953 0.000000 0.038313 0.000000
# 6 0.000000 0.000000 0.000000 0.019070 0.000000 -0.018555
#
#
# Mechanical properties :
#
#
# Convention : Reuss Voigt Hill
#
# Bulk Modulus (GPa) = 41.03448 52.49323 46.76386
# Shear Modulus (GPa) = 33.49429 13.89401 23.69415
#
# Velocity S-wave (km/s) = 4.21697 2.71599 3.54679
# Velocity P-wave (km/s) = 6.74511 6.14046 6.44987
#
# Compressibility (1/GPa) = 0.02436975
#
# Stress axis : x y z
#
# Youngs Moduli (GPa) = 69.85893 36.88474 55.57272
#
# Poissons Ratio (x) = 0.12148 0.20450
# Poissons Ratio (y) = 0.23008 0.58640
# Poissons Ratio (z) = 0.25707 0.38921
#
# Static dielectric constant tensor:
#      x y z
#    x 2.620590 0.000000 -0.418080 
#    y 0.000000 3.302170 0.000000 
#    z -0.418080 0.000000 3.434630 
# 
# 
# High freq. dielectric constant tensor:
#      x y z
#    x 1.742980 0.000000 -0.011830 
#    y 0.000000 1.718640 0.000000 
#    z -0.011830 0.000000 1.725140 
# 
# From -- ./inp_files/58170.got.cif
#   From: 2010.06.25/outbox.cif.g09.slc.cpg/sg10_30_cif.got.tgz:58170.got - 2010.06.27 22:07:45.
