data_PCOD8066151
_publ_section_title
;
Structure prediction by ZEFSAII (Michael W. Deem and Ramdas Pophale) SiO2 
 PCOD8066151
Probable space group: P 2/M
;
_chemical_formula_sum "Si O2"
_cell_formula_units_Z 32
_cell_length_a 18.237301
_cell_length_b 13.501426
_cell_length_c 7.218630
_cell_angle_alpha 90.000000
_cell_angle_beta 63.017153
_cell_angle_gamma 90.000000
_cell_volume 1583.952287
_symmetry_space_group_name_H-M "P 2/M"
_symmetry_group_IT_number 10
_symmetry_cell_setting 'monoclinic'
loop_
_space_group_symop_operation_xyz
x,y,z
-x,y,-z
-x,-y,-z
x,-y,z
loop_
_atom_site_type_symbol
_atom_site_label
_atom_site_fract_x
_atom_site_fract_y
_atom_site_fract_z
Si Si1 0.413451 0.891390 0.564226
Si Si2 0.982017 0.716466 0.802752
Si Si3 0.874990 0.113219 0.802087
Si Si4 0.141538 0.610426 0.526594
Si Si5 0.249321 0.196847 0.779376
Si Si6 0.826915 0.607002 0.078658
Si Si7 0.242155 0.790756 0.350876
Si Si8 0.592053 0.110477 0.857310
O O1 0.500000 0.835259 0.500000
O O2 0.340235 0.831988 0.744107
O O3 0.393928 0.901983 0.373870
O O4 0.418495 0.000000 0.652899
O O5 0.956484 0.820222 0.736964
O O6 0.057161 0.672273 0.596627
O O7 0.906943 0.638445 0.868668
O O8 0.000000 0.734547 0.000000
O O9 0.823991 0.141075 0.676655
O O10 0.903681 0.000000 0.754419
O O11 0.817430 0.126812 0.048581
O O12 0.139686 0.500000 0.438118
O O13 0.149958 0.597906 0.734777
O O14 0.216971 0.674508 0.350785
O O15 0.242160 0.308999 0.863830
O O16 0.235213 0.186130 0.576731
O O17 0.795262 0.500000 0.042601
O O18 0.334053 0.815238 0.163917
O O19 0.599919 0.000000 0.939853
O O20 0.500000 0.154200 0.000000
#
# Coordination Sequence:
#
# PCOD8066151 Si02
#       8
#     4   4   4   4   4   4   4   4
#     4   9  17  28  46  73 100 131 173 214 258 310
#     4   9  18  34  53  80 111 138 178 226 264 310
#     4  11  23  36  54  77 106 149 185 213 263 319
#     4   9  17  33  57  78 104 139 175 221 274 319
#     4   9  19  35  53  75 107 140 173 220 264 309
#     4   8  14  28  54  81 102 134 175 215 265 316
#     4  10  21  37  54  80 111 137 179 227 265 313
#     4   9  18  32  51  75 103 138 174 213 263 312
#
# _framework density 20.202628000000001
#
# number of rings (size 3 to 8) (size 9 to 14) (size 15 to 20)
#    0.000    2.750    0.000    1.875    1.750    3.750 
#    0.000    5.625    0.000    0.750    0.000    0.000 
#    0.000    0.000    0.000    0.000    0.000    0.000 
#
# Total GULP energy -396497.121223 kJ/mol
# GULP energy per Si atom -12390.535038 kJ/mol
# Density = 2.015665 g / cm^3
# Si number density = 20.202628 Si / 1000 Ang^3
#
#
#
# Elastic Constant Matrix: (Units=GPa)
#
#
# Indices 1 2 3 4 5 6 
#
# 1 101.4754 69.1276 26.3485 0.0000 -34.8385 0.0000
# 2 69.1276 170.5041 35.9795 0.0000 -29.7378 0.0000
# 3 26.3485 35.9795 62.2308 0.0000 -16.5137 0.0000
# 4 0.0000 0.0000 0.0000 11.9690 0.0000 -5.6042
# 5 -34.8385 -29.7378 -16.5137 0.0000 35.8329 0.0000
# 6 0.0000 0.0000 0.0000 -5.6042 0.0000 20.5300
#
#
#
# Elastic Compliance Matrix: (Units=1/GPa)
#
#
# Indices 1 2 3 4 5 6 
#
# 1 0.017801 -0.004689 -0.001442 0.000000 0.012751 0.000000
# 2 -0.004689 0.008548 -0.002602 0.000000 0.001336 0.000000
# 3 -0.001442 -0.002602 0.019641 0.000000 0.005490 0.000000
# 4 0.000000 0.000000 0.000000 0.095793 0.000000 0.026149
# 5 0.012751 0.001336 0.005490 0.000000 0.043943 0.000000
# 6 0.000000 0.000000 0.000000 0.026149 0.000000 0.055847
#
#
# Mechanical properties :
#
#
# Convention : Reuss Voigt Hill
#
# Bulk Modulus (GPa) = 35.05928 66.34684 50.70306
# Shear Modulus (GPa) = 18.61861 27.18335 22.90098
#
# Velocity S-wave (km/s) = 3.03907 3.67213 3.37050
# Velocity P-wave (km/s) = 5.45033 7.13382 6.34813
#
# Compressibility (1/GPa) = 0.02852312
#
# Stress axis : x y z
#
# Youngs Moduli (GPa) = 56.17702 116.98473 50.91319
#
# Poissons Ratio (x) = 0.54851 0.07344
# Poissons Ratio (y) = 0.26340 0.13250
# Poissons Ratio (z) = 0.08103 0.30444
#
# Static dielectric constant tensor:
#      x y z
#    x 3.769960 0.000000 -0.123920 
#    y 0.000000 3.968250 0.000000 
#    z -0.123920 0.000000 3.645130 
# 
# 
# High freq. dielectric constant tensor:
#      x y z
#    x 1.779410 0.000000 0.007950 
#    y 0.000000 1.768380 0.000000 
#    z 0.007950 0.000000 1.792910 
# 
# From -- ./inp_files/34597.got.cif
#   From: 2010.06.25/outbox.cif.g09.slc.cpg/sg10_18_cif.got.tgz:34597.got - 2010.06.27 22:07:45.
