data_PCOD8066021
_publ_section_title
;
Structure prediction by ZEFSAII (Michael W. Deem and Ramdas Pophale) SiO2 
 PCOD8066021
Probable space group: P 2/M
;
_chemical_formula_sum "Si O2"
_cell_formula_units_Z 28
_cell_length_a 11.044843
_cell_length_b 17.590972
_cell_length_c 19.557126
_cell_angle_alpha 90.000000
_cell_angle_beta 21.790834
_cell_angle_gamma 90.000000
_cell_volume 1410.538547
_symmetry_space_group_name_H-M "P 2/M"
_symmetry_group_IT_number 10
_symmetry_cell_setting 'monoclinic'
loop_
_space_group_symop_operation_xyz
x,y,z
-x,y,-z
-x,-y,-z
x,-y,z
loop_
_atom_site_type_symbol
_atom_site_label
_atom_site_fract_x
_atom_site_fract_y
_atom_site_fract_z
Si Si1 0.266451 0.223959 0.911971
Si Si2 0.169280 0.765545 0.588428
Si Si3 0.782181 0.085636 0.798189
Si Si4 0.641427 0.587114 0.000410
Si Si5 0.081500 0.276446 0.780972
Si Si6 0.651152 0.916119 0.710822
Si Si7 0.184250 0.667589 0.339358
O O1 0.376086 0.141091 0.827670
O O2 0.565441 0.280196 0.751289
O O3 0.000000 0.256746 0.000000
O O4 0.134291 0.220906 0.058932
O O5 0.547109 0.742225 0.395026
O O6 0.991753 0.736998 0.749607
O O7 0.091492 0.856342 0.631125
O O8 0.028796 0.724041 0.595951
O O9 0.624416 0.085026 0.806336
O O10 0.909212 0.000000 0.749778
O O11 0.500000 0.110728 0.000000
O O12 0.751660 0.500000 0.947100
O O13 0.350093 0.602643 0.206850
O O14 0.500000 0.607081 0.000000
O O15 0.961026 0.636229 0.854794
O O16 0.000000 0.888438 0.500000
O O17 0.576197 0.000000 0.720797
O O18 0.000000 0.628025 0.500000
#
# Coordination Sequence:
#
# PCOD8066021 Si02
#       7
#     4   4   4   4   4   4   4
#     4  11  22  35  57  85 121 155 204 256 302 358
#     4  11  21  38  62  89 124 159 208 253 301 357
#     4  10  21  36  60  88 119 160 209 256 307 360
#     4  10  21  41  66  92 125 162 200 244 303 371
#     4  10  23  38  59  93 119 157 201 254 296 361
#     4  10  21  36  55  80 113 158 202 250 309 359
#     4  11  22  37  64  91 123 161 204 252 302 362
#
# _framework density 19.850574000000002
#
# number of rings (size 3 to 8) (size 9 to 14) (size 15 to 20)
#    0.000    1.571    2.857    2.143    4.000    0.571 
#    0.000    4.286    0.000   14.571    0.000    0.000 
#    0.000    0.000    0.000    0.000    0.000    0.000 
#
# Total GULP energy -346954.918175 kJ/mol
# GULP energy per Si atom -12391.247078 kJ/mol
# Density = 1.980539 g / cm^3
# Si number density = 19.850574 Si / 1000 Ang^3
#
#
#
# Elastic Constant Matrix: (Units=GPa)
#
#
# Indices 1 2 3 4 5 6 
#
# 1 80.4543 20.4915 34.0720 0.0000 1.0224 0.0000
# 2 20.4915 106.8246 43.8220 0.0000 -16.9589 0.0000
# 3 34.0720 43.8220 92.5493 0.0000 6.8359 0.0000
# 4 0.0000 0.0000 0.0000 24.6174 0.0000 -2.1915
# 5 1.0224 -16.9589 6.8359 0.0000 41.0296 0.0000
# 6 0.0000 0.0000 0.0000 -2.1915 0.0000 19.1124
#
#
#
# Elastic Compliance Matrix: (Units=1/GPa)
#
#
# Indices 1 2 3 4 5 6 
#
# 1 0.014775 -0.000702 -0.005121 0.000000 0.000195 0.000000
# 2 -0.000702 0.013190 -0.006470 0.000000 0.006547 0.000000
# 3 -0.005121 -0.006470 0.016141 0.000000 -0.005236 0.000000
# 4 0.000000 0.000000 0.000000 0.041041 0.000000 0.004706
# 5 0.000195 0.006547 -0.005236 0.000000 0.027946 0.000000
# 6 0.000000 0.000000 0.000000 0.004706 0.000000 0.052862
#
#
# Mechanical properties :
#
#
# Convention : Reuss Voigt Hill
#
# Bulk Modulus (GPa) = 51.23615 52.95547 52.09581
# Shear Modulus (GPa) = 25.37472 29.04807 27.21139
#
# Velocity S-wave (km/s) = 3.57919 3.82951 3.70646
# Velocity P-wave (km/s) = 6.55345 6.80356 6.67968
#
# Compressibility (1/GPa) = 0.01951747
#
# Stress axis : x y z
#
# Youngs Moduli (GPa) = 67.68376 75.81781 61.95496
#
# Poissons Ratio (x) = 0.05326 0.31727
# Poissons Ratio (y) = 0.04754 0.40086
# Poissons Ratio (z) = 0.34661 0.49056
#
# Static dielectric constant tensor:
#      x y z
#    x 3.610320 0.000000 0.267160 
#    y 0.000000 3.574500 0.000000 
#    z 0.267160 0.000000 3.777340 
# 
# 
# High freq. dielectric constant tensor:
#      x y z
#    x 1.772900 0.000000 0.023880 
#    y 0.000000 1.760500 0.000000 
#    z 0.023880 0.000000 1.779960 
# 
# From -- ./inp_files/84201.got.cif
#   From: 2010.06.25/outbox.cif.g09.slc.cpg/sg10_43_cif.got.tgz:84201.got - 2010.06.27 22:07:45.
