data_PCOD8066869
_publ_section_title
;
Structure prediction by ZEFSAII (Michael W. Deem and Ramdas Pophale) SiO2 
 PCOD8066869
Probable space group: P 2/M
;
_chemical_formula_sum "Si O2"
_cell_formula_units_Z 24
_cell_length_a 22.097907
_cell_length_b 7.953245
_cell_length_c 8.097634
_cell_angle_alpha 90.000000
_cell_angle_beta 56.763599
_cell_angle_gamma 90.000000
_cell_volume 1190.353950
_symmetry_space_group_name_H-M "P 2/M"
_symmetry_group_IT_number 10
_symmetry_cell_setting 'monoclinic'
loop_
_space_group_symop_operation_xyz
x,y,z
-x,y,-z
-x,-y,-z
x,-y,z
loop_
_atom_site_type_symbol
_atom_site_label
_atom_site_fract_x
_atom_site_fract_y
_atom_site_fract_z
Si Si1 0.669674 0.817292 0.187338
Si Si2 0.173160 0.308791 0.056256
Si Si3 0.418825 0.500000 0.560827
Si Si4 0.163661 0.196783 0.431347
Si Si5 0.916687 0.801698 0.121440
Si Si6 0.670493 0.186865 0.804909
Si Si7 0.419414 0.500000 0.181920
O O1 0.623853 0.667643 0.330159
O O2 0.648041 0.000000 0.296753
O O3 0.755582 0.799959 0.086026
O O4 0.651295 0.820410 0.023867
O O5 0.198319 0.500000 0.014853
O O6 0.139533 0.271910 0.289190
O O7 0.116175 0.276821 0.995743
O O8 0.500000 0.500000 0.500000
O O9 0.426804 0.500000 0.359992
O O10 0.118550 0.269224 0.655196
O O11 0.246666 0.241532 0.345577
O O12 0.150919 0.000000 0.434306
O O13 0.905241 0.000000 0.129105
O O14 0.000000 0.749284 0.000000
O O15 0.620783 0.329185 0.803972
O O16 0.656622 0.000000 0.747583
O O17 0.500000 0.500000 0.000000
#
# Coordination Sequence:
#
# PCOD8066869 Si02
#       7
#     4   4   2   4   4   4   2
#     4  10  21  41  66  91 123 163 208 262 313 371
#     4  11  22  37  62  92 125 165 211 265 320 380
#     4  12  26  42  62  94 130 163 208 251 313 383
#     4   9  20  38  61  90 120 161 212 261 316 378
#     4  10  22  40  62  88 124 168 216 271 321 378
#     4   9  20  39  64  90 119 158 206 258 308 365
#     4  12  26  40  62  90 124 165 196 251 309 371
#
# _framework density 20.16207
#
# number of rings (size 3 to 8) (size 9 to 14) (size 15 to 20)
#    0.000    1.833    0.833    4.000    5.833    3.000 
#    0.000    3.333    0.000    0.000    0.000    0.000 
#    0.000    0.000    0.000    0.000    0.000    0.000 
#
# Total GULP energy -297465.088584 kJ/mol
# GULP energy per Si atom -12394.378691 kJ/mol
# Density = 2.011618 g / cm^3
# Si number density = 20.162070 Si / 1000 Ang^3
#
#
#
# Elastic Constant Matrix: (Units=GPa)
#
#
# Indices 1 2 3 4 5 6 
#
# 1 136.7180 59.9804 72.5091 0.0000 15.6123 0.0000
# 2 59.9804 121.9503 61.0043 0.0000 7.9672 0.0000
# 3 72.5091 61.0043 155.8917 0.0000 4.8125 0.0000
# 4 0.0000 0.0000 0.0000 32.0341 0.0000 2.5089
# 5 15.6123 7.9672 4.8125 0.0000 18.3534 0.0000
# 6 0.0000 0.0000 0.0000 2.5089 0.0000 35.0751
#
#
#
# Elastic Compliance Matrix: (Units=1/GPa)
#
#
# Indices 1 2 3 4 5 6 
#
# 1 0.011696 -0.003305 -0.003916 0.000000 -0.007488 0.000000
# 2 -0.003305 0.011345 -0.002861 0.000000 -0.001364 0.000000
# 3 -0.003916 -0.002861 0.009289 0.000000 0.002137 0.000000
# 4 0.000000 0.000000 0.000000 0.031393 0.000000 -0.002245
# 5 -0.007488 -0.001364 0.002137 0.000000 0.060887 0.000000
# 6 0.000000 0.000000 0.000000 -0.002245 0.000000 0.028671
#
#
# Mechanical properties :
#
#
# Convention : Reuss Voigt Hill
#
# Bulk Modulus (GPa) = 82.17593 89.06085 85.61839
# Shear Modulus (GPa) = 28.16910 31.83028 29.99969
#
# Velocity S-wave (km/s) = 3.74188 3.97762 3.86155
# Velocity P-wave (km/s) = 7.71460 8.08478 7.90186
#
# Compressibility (1/GPa) = 0.01216901
#
# Stress axis : x y z
#
# Youngs Moduli (GPa) = 85.50034 88.14069 107.64858
#
# Poissons Ratio (x) = 0.29126 0.42152
# Poissons Ratio (y) = 0.28254 0.30794
# Poissons Ratio (z) = 0.33480 0.25214
#
# Static dielectric constant tensor:
#      x y z
#    x 3.586140 0.000000 0.095530 
#    y 0.000000 3.792930 0.000000 
#    z 0.095530 0.000000 3.889540 
# 
# 
# High freq. dielectric constant tensor:
#      x y z
#    x 1.782550 0.000000 0.009710 
#    y 0.000000 1.797840 0.000000 
#    z 0.009710 0.000000 1.788430 
# 
# From -- ./inp_files/33835.got.cif
#   From: 2010.06.25/outbox.cif.g09.slc.cpg/sg10_17_cif.got.tgz:33835.got - 2010.06.27 22:07:45.
