data_PCOD8066765
_publ_section_title
;
Structure prediction by ZEFSAII (Michael W. Deem and Ramdas Pophale) SiO2 
 PCOD8066765
Probable space group: P 2/M
;
_chemical_formula_sum "Si O2"
_cell_formula_units_Z 32
_cell_length_a 14.409410
_cell_length_b 8.772747
_cell_length_c 12.338187
_cell_angle_alpha 90.000000
_cell_angle_beta 90.478997
_cell_angle_gamma 90.000000
_cell_volume 1559.617052
_symmetry_space_group_name_H-M "P 2/M"
_symmetry_group_IT_number 10
_symmetry_cell_setting 'monoclinic'
loop_
_space_group_symop_operation_xyz
x,y,z
-x,y,-z
-x,-y,-z
x,-y,z
loop_
_atom_site_type_symbol
_atom_site_label
_atom_site_fract_x
_atom_site_fract_y
_atom_site_fract_z
Si Si1 0.469232 0.175628 0.619132
Si Si2 0.229801 0.674075 0.459684
Si Si3 0.002986 0.320508 0.182890
Si Si4 0.209292 0.321333 0.110873
Si Si5 0.821458 0.820788 0.107107
Si Si6 0.662409 0.172901 0.712209
Si Si7 0.051309 0.169868 0.388523
Si Si8 0.283092 0.323800 0.695233
O O1 0.500000 0.234581 0.500000
O O2 0.551482 0.192590 0.708904
O O3 0.387480 0.277204 0.667135
O O4 0.437108 0.000000 0.609721
O O5 0.255840 0.500000 0.434959
O O6 0.308047 0.782463 0.409818
O O7 0.135289 0.712369 0.397164
O O8 0.220705 0.704079 0.587588
O O9 0.992182 0.500000 0.194998
O O10 0.105752 0.272511 0.146137
O O11 0.982863 0.237702 0.297149
O O12 0.922181 0.261397 0.102853
O O13 0.214296 0.500000 0.088434
O O14 0.286862 0.280002 0.200333
O O15 0.233384 0.231453 0.000933
O O16 0.759784 0.775859 0.209647
O O17 0.836750 0.000000 0.107854
O O18 0.691170 0.000000 0.737783
O O19 0.000000 0.161462 0.500000
O O20 0.085658 0.000000 0.356423
O O21 0.281397 0.500000 0.730496
#
# Coordination Sequence:
#
# PCOD8066765 Si02
#       8
#     4   4   4   4   4   4   4   4
#     4  10  21  39  64  96 130 166 204 253 313 374
#     4  11  22  36  57  87 123 163 203 251 310 368
#     4  11  23  40  63  91 124 163 209 260 311 369
#     4  11  24  43  66  92 126 165 211 262 312 367
#     4  12  26  43  65  91 124 166 213 262 313 371
#     4  11  22  38  64  94 126 161 204 254 305 367
#     4  11  23  36  54  84 122 165 209 255 308 369
#     4  11  24  41  64  93 128 167 209 260 315 375
#
# _framework density 20.517856999999999
#
# number of rings (size 3 to 8) (size 9 to 14) (size 15 to 20)
#    0.000    1.000    2.500    4.500    0.000    8.750 
#    0.000    0.625    0.000    3.750    0.000    0.000 
#    0.000    0.000    0.000    0.000    0.000    0.000 
#
# Total GULP energy -396886.353615 kJ/mol
# GULP energy per Si atom -12402.698550 kJ/mol
# Density = 2.047116 g / cm^3
# Si number density = 20.517857 Si / 1000 Ang^3
#
#
#
# Elastic Constant Matrix: (Units=GPa)
#
#
# Indices 1 2 3 4 5 6 
#
# 1 69.7573 27.8316 21.0129 0.0000 8.4865 0.0000
# 2 27.8316 97.0562 41.1855 0.0000 1.8063 0.0000
# 3 21.0129 41.1855 101.1022 0.0000 7.6057 0.0000
# 4 0.0000 0.0000 0.0000 33.0510 0.0000 0.4111
# 5 8.4865 1.8063 7.6057 0.0000 22.4503 0.0000
# 6 0.0000 0.0000 0.0000 0.4111 0.0000 30.9201
#
#
#
# Elastic Compliance Matrix: (Units=1/GPa)
#
#
# Indices 1 2 3 4 5 6 
#
# 1 0.017129 -0.004203 -0.001422 0.000000 -0.005655 0.000000
# 2 -0.004203 0.013500 -0.004786 0.000000 0.002124 0.000000
# 3 -0.001422 -0.004786 0.012382 0.000000 -0.003272 0.000000
# 4 0.000000 0.000000 0.000000 0.030261 0.000000 -0.000402
# 5 -0.005655 0.002124 -0.003272 0.000000 0.047618 0.000000
# 6 0.000000 0.000000 0.000000 -0.000402 0.000000 0.032347
#
#
# Mechanical properties :
#
#
# Convention : Reuss Voigt Hill
#
# Bulk Modulus (GPa) = 45.06782 49.77506 47.42144
# Shear Modulus (GPa) = 27.55505 29.14334 28.34920
#
# Velocity S-wave (km/s) = 3.66864 3.77289 3.72113
# Velocity P-wave (km/s) = 6.32124 6.57964 6.45174
#
# Compressibility (1/GPa) = 0.02218878
#
# Stress axis : x y z
#
# Youngs Moduli (GPa) = 58.38152 74.07555 80.76075
#
# Poissons Ratio (x) = 0.31133 0.11488
# Poissons Ratio (y) = 0.24537 0.38649
# Poissons Ratio (z) = 0.08305 0.35449
#
# Static dielectric constant tensor:
#      x y z
#    x 3.759170 0.000000 0.098760 
#    y 0.000000 3.761790 0.000000 
#    z 0.098760 0.000000 3.756750 
# 
# 
# High freq. dielectric constant tensor:
#      x y z
#    x 1.793460 0.000000 0.010950 
#    y 0.000000 1.812470 0.000000 
#    z 0.010950 0.000000 1.803270 
# 
# From -- ./inp_files/49895.got.cif
#   From: 2010.06.25/outbox.cif.g09.slc.cpg/sg10_25_cif.got.tgz:49895.got - 2010.06.27 22:07:45.
