data_PCOD8066549
_publ_section_title
;
Structure prediction by ZEFSAII (Michael W. Deem and Ramdas Pophale) SiO2 
 PCOD8066549
Probable space group: P 2/M
;
_chemical_formula_sum "Si O2"
_cell_formula_units_Z 32
_cell_length_a 25.773671
_cell_length_b 8.754607
_cell_length_c 19.970220
_cell_angle_alpha 90.000000
_cell_angle_beta 21.113999
_cell_angle_gamma 90.000000
_cell_volume 1623.189882
_symmetry_space_group_name_H-M "P 2/M"
_symmetry_group_IT_number 10
_symmetry_cell_setting 'monoclinic'
loop_
_space_group_symop_operation_xyz
x,y,z
-x,y,-z
-x,-y,-z
x,-y,z
loop_
_atom_site_type_symbol
_atom_site_label
_atom_site_fract_x
_atom_site_fract_y
_atom_site_fract_z
Si Si1 0.865698 0.178545 0.445277
Si Si2 0.102352 0.322822 0.729297
Si Si3 0.843681 0.679406 0.709642
Si Si4 0.824889 0.179829 0.873733
Si Si5 0.374279 0.321101 0.775910
Si Si6 0.666085 0.176808 0.808479
Si Si7 0.803376 0.178642 0.124475
Si Si8 0.707125 0.676559 0.373035
O O1 0.826581 0.275039 0.426506
O O2 0.744809 0.219154 0.644849
O O3 0.019506 0.234678 0.287934
O O4 0.867814 0.000000 0.425033
O O5 0.058003 0.500000 0.782395
O O6 0.219213 0.286966 0.645153
O O7 0.961599 0.221249 0.909255
O O8 0.851648 0.500000 0.709562
O O9 0.791986 0.751051 0.841193
O O10 0.727182 0.720722 0.794219
O O11 0.000000 0.745373 0.500000
O O12 0.819431 0.000000 0.873749
O O13 0.703771 0.233205 0.070711
O O14 0.348293 0.500000 0.816360
O O15 0.315699 0.269173 0.774524
O O16 0.541244 0.277235 0.578332
O O17 0.690991 0.000000 0.796891
O O18 0.500000 0.217465 0.000000
O O19 0.786458 0.221530 0.222298
O O20 0.779654 0.000000 0.142000
O O21 0.725729 0.500000 0.330306
#
# Coordination Sequence:
#
# PCOD8066549 Si02
#       8
#     4   4   4   4   4   4   4   4
#     4  10  21  38  61  89 122 157 199 249 299 358
#     4  11  23  40  64  89 119 160 203 248 301 361
#     4  11  23  38  61  91 122 159 203 248 296 354
#     4  11  22  38  63  91 122 159 201 251 301 356
#     4  11  23  41  64  89 122 160 201 251 303 359
#     4  10  22  41  64  91 124 162 201 246 305 363
#     4  12  24  39  62  92 122 158 204 250 299 358
#     4  10  24  43  61  88 123 160 201 248 305 360
#
# _framework density 19.714267
#
# number of rings (size 3 to 8) (size 9 to 14) (size 15 to 20)
#    0.000    1.250    2.500    3.375    0.000    7.750 
#    0.000    2.500    0.000    0.000    0.000    0.000 
#    0.000    0.000    0.000    0.000    0.000    0.000 
#
# Total GULP energy -397055.476097 kJ/mol
# GULP energy per Si atom -12407.983628 kJ/mol
# Density = 1.966940 g / cm^3
# Si number density = 19.714267 Si / 1000 Ang^3
#
#
#
# Elastic Constant Matrix: (Units=GPa)
#
#
# Indices 1 2 3 4 5 6 
#
# 1 136.2103 37.7464 53.7025 0.0000 5.7484 0.0000
# 2 37.7464 44.7887 24.0053 0.0000 -2.0878 0.0000
# 3 53.7025 24.0053 93.4848 0.0000 1.9743 0.0000
# 4 0.0000 0.0000 0.0000 14.9955 0.0000 16.1591
# 5 5.7484 -2.0878 1.9743 0.0000 35.8631 0.0000
# 6 0.0000 0.0000 0.0000 16.1591 0.0000 27.5963
#
#
#
# Elastic Compliance Matrix: (Units=1/GPa)
#
#
# Indices 1 2 3 4 5 6 
#
# 1 0.011184 -0.007068 -0.004568 0.000000 -0.001953 0.000000
# 2 -0.007068 0.030483 -0.003833 0.000000 0.003118 0.000000
# 3 -0.004568 -0.003833 0.014311 0.000000 -0.000279 0.000000
# 4 0.000000 0.000000 0.000000 0.180719 0.000000 -0.105821
# 5 -0.001953 0.003118 -0.000279 0.000000 0.028394 0.000000
# 6 0.000000 0.000000 0.000000 -0.105821 0.000000 0.098200
#
#
# Mechanical properties :
#
#
# Convention : Reuss Voigt Hill
#
# Bulk Modulus (GPa) = 39.93682 56.15468 48.04575
# Shear Modulus (GPa) = 12.41998 26.29294 19.35646
#
# Velocity S-wave (km/s) = 2.51270 3.65595 3.13685
# Velocity P-wave (km/s) = 5.35911 6.80936 6.12729
#
# Compressibility (1/GPa) = 0.02503955
#
# Stress axis : x y z
#
# Youngs Moduli (GPa) = 89.41556 32.80465 69.87389
#
# Poissons Ratio (x) = 0.23186 0.31921
# Poissons Ratio (y) = 0.63197 0.26786
# Poissons Ratio (z) = 0.40849 0.12575
#
# Static dielectric constant tensor:
#      x y z
#    x 3.878570 0.000000 0.008030 
#    y 0.000000 3.596200 0.000000 
#    z 0.008030 0.000000 3.633660 
# 
# 
# High freq. dielectric constant tensor:
#      x y z
#    x 1.780640 0.000000 0.005950 
#    y 0.000000 1.770610 0.000000 
#    z 0.005950 0.000000 1.772650 
# 
# From -- ./inp_files/86819.got.cif
#   From: 2010.06.25/outbox.cif.g09.slc.cpg/sg10_44_cif.got.tgz:86819.got - 2010.06.27 22:07:45.
