data_PCOD8066062
_publ_section_title
;
Structure prediction by ZEFSAII (Michael W. Deem and Ramdas Pophale) SiO2 
 PCOD8066062
Probable space group: P 2/M
;
_chemical_formula_sum "Si O2"
_cell_formula_units_Z 24
_cell_length_a 25.552628
_cell_length_b 9.082236
_cell_length_c 10.969874
_cell_angle_alpha 90.000000
_cell_angle_beta 29.922584
_cell_angle_gamma 90.000000
_cell_volume 1269.936594
_symmetry_space_group_name_H-M "P 2/M"
_symmetry_group_IT_number 10
_symmetry_cell_setting 'monoclinic'
loop_
_space_group_symop_operation_xyz
x,y,z
-x,y,-z
-x,-y,-z
x,-y,z
loop_
_atom_site_type_symbol
_atom_site_label
_atom_site_fract_x
_atom_site_fract_y
_atom_site_fract_z
Si Si1 0.969974 0.829556 0.426354
Si Si2 0.750128 0.828816 0.759357
Si Si3 0.344443 0.174714 0.511060
Si Si4 0.257364 0.333727 0.475092
Si Si5 0.143477 0.333778 0.938278
Si Si6 0.468377 0.825398 0.694963
O O1 0.000000 0.772970 0.500000
O O2 0.846952 0.800981 0.654501
O O3 0.999196 0.000000 0.351541
O O4 0.034535 0.739060 0.196166
O O5 0.770999 0.742929 0.593165
O O6 0.737769 0.000000 0.751636
O O7 0.646117 0.766963 0.035240
O O8 0.347760 0.243778 0.367365
O O9 0.243136 0.239897 0.788634
O O10 0.448524 0.225701 0.371288
O O11 0.334598 0.000000 0.523068
O O12 0.296720 0.500000 0.372085
O O13 0.152540 0.333664 0.771847
O O14 0.149258 0.500000 0.977785
O O15 0.500000 0.757639 0.500000
O O16 0.466490 0.000000 0.688570
#
# Coordination Sequence:
#
# PCOD8066062 Si02
#       6
#     4   4   4   4   4   4
#     4  10  22  37  58  86 114 146 186 233 279 329
#     4  10  21  36  56  86 115 143 186 233 279 332
#     4   9  17  33  60  85 109 144 187 229 275 328
#     4   9  20  37  56  82 115 149 185 228 280 334
#     4   9  20  37  57  81 112 150 187 224 277 333
#     4   9  19  34  57  86 115 147 182 230 282 330
#
# _framework density 18.898582999999999
#
# number of rings (size 3 to 8) (size 9 to 14) (size 15 to 20)
#    1.000    1.667    0.000    1.000    2.333    2.333 
#    0.000    8.333    0.000    2.500    0.000    0.000 
#    0.000    0.000    0.000    0.000    0.000    0.000 
#
# Total GULP energy -297452.086333 kJ/mol
# GULP energy per Si atom -12393.836931 kJ/mol
# Density = 1.885557 g / cm^3
# Si number density = 18.898583 Si / 1000 Ang^3
#
#
#
# Elastic Constant Matrix: (Units=GPa)
#
#
# Indices 1 2 3 4 5 6 
#
# 1 121.4256 46.0704 48.8406 0.0000 -0.7822 0.0000
# 2 46.0704 85.8232 43.9774 0.0000 -2.6958 0.0000
# 3 48.8406 43.9774 122.3923 0.0000 -4.5378 0.0000
# 4 0.0000 0.0000 0.0000 15.1512 0.0000 6.0252
# 5 -0.7822 -2.6958 -4.5378 0.0000 28.7039 0.0000
# 6 0.0000 0.0000 0.0000 6.0252 0.0000 9.2983
#
#
#
# Elastic Compliance Matrix: (Units=1/GPa)
#
#
# Indices 1 2 3 4 5 6 
#
# 1 0.011081 -0.004522 -0.002818 0.000000 -0.000568 0.000000
# 2 -0.004522 0.016135 -0.003965 0.000000 0.000765 0.000000
# 3 -0.002818 -0.003965 0.010766 0.000000 0.001253 0.000000
# 4 0.000000 0.000000 0.000000 0.088913 0.000000 -0.057615
# 5 -0.000568 0.000765 0.001253 0.000000 0.035093 0.000000
# 6 0.000000 0.000000 0.000000 -0.057615 0.000000 0.144881
#
#
# Mechanical properties :
#
#
# Convention : Reuss Voigt Hill
#
# Bulk Modulus (GPa) = 65.05194 67.49086 66.27140
# Shear Modulus (GPa) = 14.94309 23.34751 19.14530
#
# Velocity S-wave (km/s) = 2.81499 3.51865 3.18631
# Velocity P-wave (km/s) = 6.71281 7.23171 6.97708
#
# Compressibility (1/GPa) = 0.01537233
#
# Stress axis : x y z
#
# Youngs Moduli (GPa) = 90.24356 61.97712 92.88510
#
# Poissons Ratio (x) = 0.28027 0.26176
# Poissons Ratio (y) = 0.40810 0.36825
# Poissons Ratio (z) = 0.25431 0.24571
#
# Static dielectric constant tensor:
#      x y z
#    x 3.343460 0.000000 0.012700 
#    y 0.000000 3.290410 0.000000 
#    z 0.012700 0.000000 3.395420 
# 
# 
# High freq. dielectric constant tensor:
#      x y z
#    x 1.725580 0.000000 -0.000240 
#    y 0.000000 1.721400 0.000000 
#    z -0.000240 0.000000 1.726940 
# 
# From -- ./inp_files/56517.got.cif
#   From: 2010.06.25/outbox.cif.g09.slc.cpg/sg10_29_cif.got.tgz:56517.got - 2010.06.27 22:07:45.
