data_PCOD8066500
_publ_section_title
;
Structure prediction by ZEFSAII (Michael W. Deem and Ramdas Pophale) SiO2 
 PCOD8066500
Probable space group: P 2/M
;
_chemical_formula_sum "Si O2"
_cell_formula_units_Z 28
_cell_length_a 9.550557
_cell_length_b 8.837519
_cell_length_c 18.838936
_cell_angle_alpha 90.000000
_cell_angle_beta 119.519046
_cell_angle_gamma 90.000000
_cell_volume 1383.663542
_symmetry_space_group_name_H-M "P 2/M"
_symmetry_group_IT_number 10
_symmetry_cell_setting 'monoclinic'
loop_
_space_group_symop_operation_xyz
x,y,z
-x,y,-z
-x,-y,-z
x,-y,z
loop_
_atom_site_type_symbol
_atom_site_label
_atom_site_fract_x
_atom_site_fract_y
_atom_site_fract_z
Si Si1 0.482982 0.321378 0.189195
Si Si2 0.378008 0.175327 0.908898
Si Si3 0.291113 0.823275 0.645384
Si Si4 0.328515 0.176166 0.489526
Si Si5 0.989390 0.678054 0.646370
Si Si6 0.871420 0.325828 0.913142
Si Si7 0.935752 0.673017 0.175073
O O1 0.477597 0.500000 0.199688
O O2 0.599906 0.279019 0.154387
O O3 0.554311 0.247509 0.277612
O O4 0.306599 0.253201 0.126181
O O5 0.199980 0.215828 0.890556
O O6 0.397056 0.000000 0.894022
O O7 0.500000 0.225541 0.000000
O O8 0.319659 0.787813 0.570404
O O9 0.122404 0.754166 0.629336
O O10 0.284159 0.000000 0.659816
O O11 0.500000 0.227800 0.500000
O O12 0.189075 0.270708 0.417431
O O13 0.298772 0.000000 0.466676
O O14 0.005694 0.500000 0.640114
O O15 0.013749 0.726039 0.734135
O O16 0.857162 0.500000 0.932444
O O17 0.917381 0.307468 0.842355
O O18 0.000000 0.248776 0.000000
O O19 0.874203 0.500000 0.159854
#
# Coordination Sequence:
#
# PCOD8066500 Si02
#       7
#     4   4   4   4   4   4   4
#     4  11  22  37  62  91 119 157 202 250 304 360
#     4  11  23  38  58  87 122 160 203 249 296 352
#     4  11  23  41  64  89 122 161 200 247 300 360
#     4  10  24  44  65  91 123 163 203 241 298 366
#     4  11  23  39  63  94 124 158 202 252 300 355
#     4   9  19  36  58  85 118 157 201 249 302 358
#     4  10  21  38  60  88 120 158 202 247 302 358
#
# _framework density 20.236132999999999
#
# number of rings (size 3 to 8) (size 9 to 14) (size 15 to 20)
#    0.000    1.571    1.429    3.000    2.000    6.000 
#    0.000    1.429    0.000    3.857    0.000    0.000 
#    0.000    0.000    0.000    0.000    0.000    0.000 
#
# Total GULP energy -347251.238157 kJ/mol
# GULP energy per Si atom -12401.829934 kJ/mol
# Density = 2.019007 g / cm^3
# Si number density = 20.236133 Si / 1000 Ang^3
#
#
#
# Elastic Constant Matrix: (Units=GPa)
#
#
# Indices 1 2 3 4 5 6 
#
# 1 93.6479 24.3882 36.6364 0.0000 5.6359 0.0000
# 2 24.3882 61.8655 44.8619 0.0000 0.9895 0.0000
# 3 36.6364 44.8619 120.7292 0.0000 11.3738 0.0000
# 4 0.0000 0.0000 0.0000 30.0138 0.0000 6.9080
# 5 5.6359 0.9895 11.3738 0.0000 41.2163 0.0000
# 6 0.0000 0.0000 0.0000 6.9080 0.0000 21.8703
#
#
#
# Elastic Compliance Matrix: (Units=1/GPa)
#
#
# Indices 1 2 3 4 5 6 
#
# 1 0.012540 -0.003056 -0.002582 0.000000 -0.000929 0.000000
# 2 -0.003056 0.023000 -0.007809 0.000000 0.002021 0.000000
# 3 -0.002582 -0.007809 0.012236 0.000000 -0.002836 0.000000
# 4 0.000000 0.000000 0.000000 0.035930 0.000000 -0.011349
# 5 -0.000929 0.002021 -0.002836 0.000000 0.025123 0.000000
# 6 0.000000 0.000000 0.000000 -0.011349 0.000000 0.049309
#
#
# Mechanical properties :
#
#
# Convention : Reuss Voigt Hill
#
# Bulk Modulus (GPa) = 47.89302 54.22394 51.05848
# Shear Modulus (GPa) = 26.04256 29.97715 28.00985
#
# Velocity S-wave (km/s) = 3.59128 3.85303 3.72445
# Velocity P-wave (km/s) = 6.39647 6.82995 6.61676
#
# Compressibility (1/GPa) = 0.02087987
#
# Stress axis : x y z
#
# Youngs Moduli (GPa) = 79.74269 43.47916 81.72804
#
# Poissons Ratio (x) = 0.13288 0.21105
# Poissons Ratio (y) = 0.24370 0.63825
# Poissons Ratio (z) = 0.20592 0.33955
#
# Static dielectric constant tensor:
#      x y z
#    x 3.730420 0.000000 0.053200 
#    y 0.000000 3.498000 0.000000 
#    z 0.053200 0.000000 3.877920 
# 
# 
# High freq. dielectric constant tensor:
#      x y z
#    x 1.799590 0.000000 0.002160 
#    y 0.000000 1.774430 0.000000 
#    z 0.002160 0.000000 1.804900 
# 
# From -- ./inp_files/82262.got.cif
#   From: 2010.06.25/outbox.cif.g09.slc.cpg/sg10_42_cif.got.tgz:82262.got - 2010.06.27 22:07:45.
