data_PCOD8066815
_publ_section_title
;
Structure prediction by ZEFSAII (Michael W. Deem and Ramdas Pophale) SiO2 
 PCOD8066815
Probable space group: P 2/M
;
_chemical_formula_sum "Si O2"
_cell_formula_units_Z 28
_cell_length_a 29.154934
_cell_length_b 9.047004
_cell_length_c 9.687343
_cell_angle_alpha 90.000000
_cell_angle_beta 33.278811
_cell_angle_gamma 90.000000
_cell_volume 1402.062304
_symmetry_space_group_name_H-M "P 2/M"
_symmetry_group_IT_number 10
_symmetry_cell_setting 'monoclinic'
loop_
_space_group_symop_operation_xyz
x,y,z
-x,y,-z
-x,-y,-z
x,-y,z
loop_
_atom_site_type_symbol
_atom_site_label
_atom_site_fract_x
_atom_site_fract_y
_atom_site_fract_z
Si Si1 0.834082 0.827971 0.451269
Si Si2 0.511576 0.324946 0.129665
Si Si3 0.190365 0.168197 0.063465
Si Si4 0.065632 0.674107 0.574205
Si Si5 0.645335 0.172378 0.971726
Si Si6 0.895332 0.167136 0.000653
Si Si7 0.377352 0.827814 0.658871
O O1 0.904424 0.738634 0.355707
O O2 0.741972 0.777744 0.730346
O O3 0.847556 0.000000 0.448025
O O4 0.846401 0.787666 0.261155
O O5 0.513697 0.500000 0.133648
O O6 0.437073 0.266712 0.412271
O O7 0.500000 0.272795 0.000000
O O8 0.598244 0.262155 0.971127
O O9 0.126047 0.273474 0.301474
O O10 0.174262 0.181561 0.941867
O O11 0.178202 0.000000 0.147727
O O12 0.283689 0.221547 0.858730
O O13 0.066695 0.500000 0.579250
O O14 0.972242 0.726063 0.776007
O O15 0.638330 0.000000 0.952401
O O16 0.605350 0.204721 0.222742
O O17 0.930395 0.000000 0.921277
O O18 0.392236 0.000000 0.588937
#
# Coordination Sequence:
#
# PCOD8066815 Si02
#       7
#     4   4   4   4   4   4   4
#     4  10  21  40  64  90 119 155 203 256 303 352
#     4  11  26  43  60  90 130 165 194 233 294 364
#     4  10  21  40  64  90 119 155 203 256 303 352
#     4  12  24  38  58  87 124 165 204 244 300 362
#     4  10  21  40  67  94 119 152 202 255 298 347
#     4  10  22  38  62  89 118 159 205 254 308 352
#     4  10  21  40  67  94 119 152 202 255 298 347
#
# _framework density 19.970580999999999
#
# number of rings (size 3 to 8) (size 9 to 14) (size 15 to 20)
#    0.000    1.571    1.429    3.000    2.000    9.143 
#    0.000    0.000    0.000    0.000    0.000    0.000 
#    0.000    0.000    0.000    0.000    0.000    0.000 
#
# Total GULP energy -347328.878517 kJ/mol
# GULP energy per Si atom -12404.602804 kJ/mol
# Density = 1.992513 g / cm^3
# Si number density = 19.970581 Si / 1000 Ang^3
#
#
#
# Elastic Constant Matrix: (Units=GPa)
#
#
# Indices 1 2 3 4 5 6 
#
# 1 99.4376 27.4453 8.4518 0.0000 3.3606 0.0000
# 2 27.4453 68.7199 18.5689 0.0000 -3.1350 0.0000
# 3 8.4518 18.5689 40.7012 0.0000 -7.9005 0.0000
# 4 0.0000 0.0000 0.0000 0.2892 0.0000 16.1030
# 5 3.3606 -3.1350 -7.9005 0.0000 32.2477 0.0000
# 6 0.0000 0.0000 0.0000 16.1030 0.0000 16.8377
#
#
#
# Elastic Compliance Matrix: (Units=1/GPa)
#
#
# Indices 1 2 3 4 5 6 
#
# 1 0.011404 -0.004451 -0.000685 0.000000 -0.001789 0.000000
# 2 -0.004451 0.018337 -0.007355 0.000000 0.000445 0.000000
# 3 -0.000685 -0.007355 0.029337 0.000000 0.006544 0.000000
# 4 0.000000 0.000000 0.000000 -0.066176 0.000000 0.063289
# 5 -0.001789 0.000445 0.006544 0.000000 0.032843 0.000000
# 6 0.000000 0.000000 0.000000 0.063289 0.000000 -0.001137
#
#
# Mechanical properties :
#
#
# Convention : Reuss Voigt Hill
#
# Bulk Modulus (GPa) = 29.32863 35.31006 32.31934
# Shear Modulus (GPa) = 82.02657 20.16777 51.09717
#
# Velocity S-wave (km/s) = 6.41583 3.18130 5.06377
# Velocity P-wave (km/s) = 8.34276 5.58692 7.09983
#
# Compressibility (1/GPa) = 0.03409638
#
# Stress axis : x y z
#
# Youngs Moduli (GPa) = 87.69079 54.53383 34.08628
#
# Poissons Ratio (x) = 0.24273 0.02334
# Poissons Ratio (y) = 0.39031 0.25072
# Poissons Ratio (z) = 0.06003 0.40111
#
# Static dielectric constant tensor:
#      x y z
#    x 3.852180 0.000000 0.011760 
#    y 0.000000 3.469120 0.000000 
#    z 0.011760 0.000000 3.679380 
# 
# 
# High freq. dielectric constant tensor:
#      x y z
#    x 1.796260 0.000000 0.002670 
#    y 0.000000 1.761470 0.000000 
#    z 0.002670 0.000000 1.785920 
# 
# From -- ./inp_files/34202.got.cif
#   From: 2010.06.25/outbox.cif.g09.slc.cpg/sg10_18_cif.got.tgz:34202.got - 2010.06.27 22:07:45.
