data_PCOD8066515
_publ_section_title
;
Structure prediction by ZEFSAII (Michael W. Deem and Ramdas Pophale) SiO2 
 PCOD8066515
Probable space group: P 2/M
;
_chemical_formula_sum "Si O2"
_cell_formula_units_Z 28
_cell_length_a 24.007264
_cell_length_b 8.983201
_cell_length_c 21.563197
_cell_angle_alpha 90.000000
_cell_angle_beta 161.819881
_cell_angle_gamma 90.000000
_cell_volume 1450.938035
_symmetry_space_group_name_H-M "P 2/M"
_symmetry_group_IT_number 10
_symmetry_cell_setting 'monoclinic'
loop_
_space_group_symop_operation_xyz
x,y,z
-x,y,-z
-x,-y,-z
x,-y,z
loop_
_atom_site_type_symbol
_atom_site_label
_atom_site_fract_x
_atom_site_fract_y
_atom_site_fract_z
Si Si1 0.397422 0.825826 0.829790
Si Si2 0.605791 0.325239 0.822138
Si Si3 0.141856 0.330863 0.021122
Si Si4 0.252649 0.668343 0.379060
Si Si5 0.308738 0.825116 0.959713
Si Si6 0.027159 0.676255 0.457887
Si Si7 0.302024 0.175267 0.304478
O O1 0.213719 0.736651 0.628898
O O2 0.351966 0.000000 0.784242
O O3 0.500000 0.774395 0.000000
O O4 0.522774 0.783388 0.904794
O O5 0.629834 0.500000 0.862699
O O6 0.406187 0.285244 0.589347
O O7 0.740441 0.270189 0.911004
O O8 0.645783 0.226377 0.923566
O O9 0.197595 0.500000 0.094375
O O10 0.934509 0.317788 0.782569
O O11 0.169466 0.238724 0.112835
O O12 0.285768 0.500000 0.390543
O O13 0.245138 0.774214 0.312113
O O14 0.132167 0.741661 0.751044
O O15 0.270475 0.000000 0.917323
O O16 0.026035 0.500000 0.450142
O O17 0.000000 0.727894 0.500000
O O18 0.500000 0.234607 0.500000
O O19 0.289914 0.000000 0.288502
#
# Coordination Sequence:
#
# PCOD8066515 Si02
#       7
#     4   4   4   4   4   4   4
#     4  10  21  39  63  90 122 160 198 241 297 360
#     4  10  22  40  59  83 119 157 197 246 294 347
#     4  10  21  38  61  86 114 153 199 240 291 352
#     4  10  21  38  61  85 112 152 198 241 291 351
#     4  11  24  41  63  90 123 161 202 246 299 363
#     4  11  23  38  62  94 124 155 196 247 300 352
#     4  11  22  35  56  87 119 151 192 245 300 346
#
# _framework density 19.297861000000001
#
# number of rings (size 3 to 8) (size 9 to 14) (size 15 to 20)
#    0.000    1.571    2.857    1.714    0.000    7.143 
#    0.000    1.429    0.000    0.000    0.000    0.000 
#    0.000    0.000    0.000    0.000    0.000    0.000 
#
# Total GULP energy -347341.307447 kJ/mol
# GULP energy per Si atom -12405.046695 kJ/mol
# Density = 1.925394 g / cm^3
# Si number density = 19.297861 Si / 1000 Ang^3
#
#
#
# Elastic Constant Matrix: (Units=GPa)
#
#
# Indices 1 2 3 4 5 6 
#
# 1 60.6334 32.6512 63.2634 0.0000 -12.5825 0.0000
# 2 32.6512 60.1018 46.6654 0.0000 1.2722 0.0000
# 3 63.2634 46.6654 154.0460 0.0000 7.1943 0.0000
# 4 0.0000 0.0000 0.0000 26.2512 0.0000 -5.8982
# 5 -12.5825 1.2722 7.1943 0.0000 32.6990 0.0000
# 6 0.0000 0.0000 0.0000 -5.8982 0.0000 26.5451
#
#
#
# Elastic Compliance Matrix: (Units=1/GPa)
#
#
# Indices 1 2 3 4 5 6 
#
# 1 0.042579 -0.012096 -0.014761 0.000000 0.020103 0.000000
# 2 -0.012096 0.025204 -0.002429 0.000000 -0.005101 0.000000
# 3 -0.014761 -0.002429 0.013691 0.000000 -0.008598 0.000000
# 4 0.000000 0.000000 0.000000 0.040095 0.000000 0.008909
# 5 0.020103 -0.005101 -0.008598 0.000000 0.040407 0.000000
# 6 0.000000 0.000000 0.000000 0.008909 0.000000 0.039651
#
#
# Mechanical properties :
#
#
# Convention : Reuss Voigt Hill
#
# Bulk Modulus (GPa) = 43.66543 62.21568 52.94055
# Shear Modulus (GPa) = 18.66823 25.91249 22.29036
#
# Velocity S-wave (km/s) = 3.11364 3.66835 3.40232
# Velocity P-wave (km/s) = 5.96678 7.08887 6.55189
#
# Compressibility (1/GPa) = 0.02290141
#
# Stress axis : x y z
#
# Youngs Moduli (GPa) = 23.48563 39.67618 73.04109
#
# Poissons Ratio (x) = 0.47994 1.07815
# Poissons Ratio (y) = 0.28409 0.17743
# Poissons Ratio (z) = 0.34667 0.09638
#
# Static dielectric constant tensor:
#      x y z
#    x 3.504310 0.000000 0.149820 
#    y 0.000000 3.445860 0.000000 
#    z 0.149820 0.000000 3.692950 
# 
# 
# High freq. dielectric constant tensor:
#      x y z
#    x 1.749200 0.000000 0.010390 
#    y 0.000000 1.748100 0.000000 
#    z 0.010390 0.000000 1.765090 
# 
# From -- ./inp_files/86537.got.cif
#   From: 2010.06.25/outbox.cif.g09.slc.cpg/sg10_44_cif.got.tgz:86537.got - 2010.06.27 22:07:45.
