data_PCOD8066405
_publ_section_title
;
Structure prediction by ZEFSAII (Michael W. Deem and Ramdas Pophale) SiO2 
 PCOD8066405
Probable space group: P 2/M
;
_chemical_formula_sum "Si O2"
_cell_formula_units_Z 18
_cell_length_a 12.777325
_cell_length_b 16.492095
_cell_length_c 14.703293
_cell_angle_alpha 90.000000
_cell_angle_beta 19.488064
_cell_angle_gamma 90.000000
_cell_volume 1033.641801
_symmetry_space_group_name_H-M "P 2/M"
_symmetry_group_IT_number 10
_symmetry_cell_setting 'monoclinic'
loop_
_space_group_symop_operation_xyz
x,y,z
-x,y,-z
-x,-y,-z
x,-y,z
loop_
_atom_site_type_symbol
_atom_site_label
_atom_site_fract_x
_atom_site_fract_y
_atom_site_fract_z
Si Si1 0.649214 0.592609 0.279781
Si Si2 0.362033 0.912443 0.211651
Si Si3 0.870824 0.500000 0.705238
Si Si4 0.588253 0.255114 0.033703
Si Si5 0.197132 0.658649 0.504019
O O1 0.500000 0.599558 0.500000
O O2 0.650515 0.500000 0.243093
O O3 0.465837 0.647372 0.358367
O O4 0.000000 0.626767 0.000000
O O5 0.537038 0.836284 0.115445
O O6 0.000000 0.888439 0.500000
O O7 0.402754 0.000000 0.230220
O O8 0.500000 0.924042 0.000000
O O9 0.000000 0.500000 0.500000
O O10 0.991051 0.578059 0.660893
O O11 0.500000 0.500000 0.000000
O O12 0.363160 0.315819 0.273839
O O13 0.500000 0.261800 0.000000
O O14 0.956449 0.274655 0.740895
#
# Coordination Sequence:
#
# PCOD8066405 Si02
#       5
#     4   4   2   4   4
#     4  10  21  38  57  72  92 124 172 226 270 296
#     4   9  17  30  48  70  99 137 174 203 239 287
#     4  12  24  34  46  68 102 140 170 194 227 294
#     4  11  21  33  51  74 109 140 167 202 245 297
#     4  12  22  36  51  74 101 135 174 208 252 299
#
# _framework density 17.414155999999998
#
# number of rings (size 3 to 8) (size 9 to 14) (size 15 to 20)
#    0.000    1.333    1.111    8.000    0.000    0.000 
#    0.000    0.000    0.000    0.000    0.000    0.000 
#    0.000   17.778    0.000    0.000    0.000    0.000 
#
# Total GULP energy -223147.942289 kJ/mol
# GULP energy per Si atom -12397.107905 kJ/mol
# Density = 1.737452 g / cm^3
# Si number density = 17.414156 Si / 1000 Ang^3
#
#
#
# Elastic Constant Matrix: (Units=GPa)
#
#
# Indices 1 2 3 4 5 6 
#
# 1 58.2855 44.7016 42.9519 0.0000 -13.5158 0.0000
# 2 44.7016 111.3805 54.7093 0.0000 -14.9270 0.0000
# 3 42.9519 54.7093 158.2240 0.0000 -8.8743 0.0000
# 4 0.0000 0.0000 0.0000 31.9647 0.0000 0.3923
# 5 -13.5158 -14.9270 -8.8743 0.0000 31.3911 0.0000
# 6 0.0000 0.0000 0.0000 0.3923 0.0000 6.8385
#
#
#
# Elastic Compliance Matrix: (Units=1/GPa)
#
#
# Indices 1 2 3 4 5 6 
#
# 1 0.028421 -0.008272 -0.004460 0.000000 0.007043 0.000000
# 2 -0.008272 0.013783 -0.002390 0.000000 0.002317 0.000000
# 3 -0.004460 -0.002390 0.008318 0.000000 -0.000705 0.000000
# 4 0.000000 0.000000 0.000000 0.031307 0.000000 -0.001796
# 5 0.007043 0.002317 -0.000705 0.000000 0.035791 0.000000
# 6 0.000000 0.000000 0.000000 -0.001796 0.000000 0.146334
#
#
# Mechanical properties :
#
#
# Convention : Reuss Voigt Hill
#
# Bulk Modulus (GPa) = 49.31696 68.06840 58.69268
# Shear Modulus (GPa) = 16.61378 26.40734 21.51056
#
# Velocity S-wave (km/s) = 3.09210 3.89836 3.51840
# Velocity P-wave (km/s) = 6.41324 7.70946 7.09103
#
# Compressibility (1/GPa) = 0.02027700
#
# Stress axis : x y z
#
# Youngs Moduli (GPa) = 35.18556 72.55539 120.22454
#
# Poissons Ratio (x) = 0.60017 0.53620
# Poissons Ratio (y) = 0.29105 0.28736
# Poissons Ratio (z) = 0.15693 0.17342
#
# Static dielectric constant tensor:
#      x y z
#    x 2.893880 0.000000 0.082570 
#    y 0.000000 3.847580 0.000000 
#    z 0.082570 0.000000 3.469930 
# 
# 
# High freq. dielectric constant tensor:
#      x y z
#    x 1.626810 0.000000 0.017640 
#    y 0.000000 1.670440 0.000000 
#    z 0.017640 0.000000 1.702660 
# 
# From -- ./inp_files/6569.got.cif
#   From: 2010.06.25/outbox.cif.g09.slc.cpg/sg10_4_cif.got.tgz:6569.got - 2010.06.27 22:07:45.
