data_PCOD8066565
_publ_section_title
;
Structure prediction by ZEFSAII (Michael W. Deem and Ramdas Pophale) SiO2 
 PCOD8066565
Probable space group: P 2/M
;
_chemical_formula_sum "Si O2"
_cell_formula_units_Z 28
_cell_length_a 20.175585
_cell_length_b 8.955089
_cell_length_c 14.456682
_cell_angle_alpha 90.000000
_cell_angle_beta 32.486407
_cell_angle_gamma 90.000000
_cell_volume 1402.876443
_symmetry_space_group_name_H-M "P 2/M"
_symmetry_group_IT_number 10
_symmetry_cell_setting 'monoclinic'
loop_
_space_group_symop_operation_xyz
x,y,z
-x,y,-z
-x,-y,-z
x,-y,z
loop_
_atom_site_type_symbol
_atom_site_label
_atom_site_fract_x
_atom_site_fract_y
_atom_site_fract_z
Si Si1 0.641129 0.827259 0.333397
Si Si2 0.188073 0.172495 0.037126
Si Si3 0.700493 0.672672 0.925320
Si Si4 0.560420 0.176307 0.756500
Si Si5 0.747008 0.670849 0.663363
Si Si6 0.945006 0.328526 0.282496
Si Si7 0.277814 0.673679 0.585033
O O1 0.500000 0.771437 0.500000
O O2 0.720895 0.732085 0.311936
O O3 0.649470 0.000000 0.352277
O O4 0.697004 0.799591 0.166344
O O5 0.204516 0.271711 0.109127
O O6 0.062481 0.221980 0.134669
O O7 0.178911 0.000000 0.075934
O O8 0.667155 0.500000 0.980913
O O9 0.767293 0.696125 0.748100
O O10 0.578945 0.771105 0.071671
O O11 0.634544 0.228280 0.759896
O O12 0.618185 0.241028 0.595126
O O13 0.562835 0.000000 0.747162
O O14 0.710811 0.500000 0.682763
O O15 0.872854 0.711958 0.462157
O O16 0.988795 0.500000 0.231621
O O17 0.857141 0.295783 0.298458
O O18 0.310088 0.500000 0.543861
#
# Coordination Sequence:
#
# PCOD8066565 Si02
#       7
#     4   4   4   4   4   4   4
#     4  10  22  40  60  84 116 150 183 229 289 345
#     4  11  24  39  57  84 116 149 189 237 288 341
#     4  11  22  37  58  82 113 153 195 239 284 333
#     4  11  21  34  56  87 121 151 184 232 289 344
#     4   9  20  38  59  83 112 151 196 237 280 334
#     4   9  20  40  60  81 112 149 191 234 281 337
#     4  10  21  38  62  87 112 149 194 236 279 334
#
# _framework density 19.958991999999999
#
# number of rings (size 3 to 8) (size 9 to 14) (size 15 to 20)
#    0.000    1.857    0.000    4.714    0.000    9.429 
#    0.000    5.714    0.000    0.000    0.000    0.000 
#    0.000    0.000    0.000    0.000    0.000    0.000 
#
# Total GULP energy -347356.102425 kJ/mol
# GULP energy per Si atom -12405.575087 kJ/mol
# Density = 1.991356 g / cm^3
# Si number density = 19.958992 Si / 1000 Ang^3
#
#
#
# Elastic Constant Matrix: (Units=GPa)
#
#
# Indices 1 2 3 4 5 6 
#
# 1 109.2338 48.8942 35.8626 0.0000 7.1778 0.0000
# 2 48.8942 106.8114 34.1717 0.0000 0.8068 0.0000
# 3 35.8626 34.1717 65.8997 0.0000 -13.2924 0.0000
# 4 0.0000 0.0000 0.0000 30.6779 0.0000 -0.9703
# 5 7.1778 0.8068 -13.2924 0.0000 28.0803 0.0000
# 6 0.0000 0.0000 0.0000 -0.9703 0.0000 29.5907
#
#
#
# Elastic Compliance Matrix: (Units=1/GPa)
#
#
# Indices 1 2 3 4 5 6 
#
# 1 0.013552 -0.004050 -0.006578 0.000000 -0.006462 0.000000
# 2 -0.004050 0.012737 -0.004716 0.000000 -0.001563 0.000000
# 3 -0.006578 -0.004716 0.023843 0.000000 0.013103 0.000000
# 4 0.000000 0.000000 0.000000 0.032631 0.000000 0.001070
# 5 -0.006462 -0.001563 0.013103 0.000000 0.043511 0.000000
# 6 0.000000 0.000000 0.000000 0.001070 0.000000 0.033830
#
#
# Mechanical properties :
#
#
# Convention : Reuss Voigt Hill
#
# Bulk Modulus (GPa) = 51.43131 57.75575 54.59353
# Shear Modulus (GPa) = 25.34577 28.53756 26.94166
#
# Velocity S-wave (km/s) = 3.56742 3.78538 3.67802
# Velocity P-wave (km/s) = 6.54164 6.93582 6.74161
#
# Compressibility (1/GPa) = 0.01944341
#
# Stress axis : x y z
#
# Youngs Moduli (GPa) = 73.79084 78.51264 41.94177
#
# Poissons Ratio (x) = 0.31799 0.27589
# Poissons Ratio (y) = 0.29887 0.19778
# Poissons Ratio (z) = 0.48540 0.37024
#
# Static dielectric constant tensor:
#      x y z
#    x 3.655890 0.000000 0.106910 
#    y 0.000000 3.646130 0.000000 
#    z 0.106910 0.000000 3.547820 
# 
# 
# High freq. dielectric constant tensor:
#      x y z
#    x 1.782320 0.000000 0.004140 
#    y 0.000000 1.781800 0.000000 
#    z 0.004140 0.000000 1.774410 
# 
# From -- ./inp_files/68588.got.cif
#   From: 2010.06.25/outbox.cif.g09.slc.cpg/sg10_35_cif.got.tgz:68588.got - 2010.06.27 22:07:45.
