data_PCOD8066050
_publ_section_title
;
Structure prediction by ZEFSAII (Michael W. Deem and Ramdas Pophale) SiO2 
 PCOD8066050
Probable space group: P 2/M
;
_chemical_formula_sum "Si O2"
_cell_formula_units_Z 28
_cell_length_a 15.104265
_cell_length_b 8.879099
_cell_length_c 20.643911
_cell_angle_alpha 90.000000
_cell_angle_beta 151.110482
_cell_angle_gamma 90.000000
_cell_volume 1337.572955
_symmetry_space_group_name_H-M "P 2/M"
_symmetry_group_IT_number 10
_symmetry_cell_setting 'monoclinic'
loop_
_space_group_symop_operation_xyz
x,y,z
-x,y,-z
-x,-y,-z
x,-y,z
loop_
_atom_site_type_symbol
_atom_site_label
_atom_site_fract_x
_atom_site_fract_y
_atom_site_fract_z
Si Si1 0.108124 0.823889 0.157771
Si Si2 0.310377 0.822024 0.411456
Si Si3 0.168573 0.834947 0.562899
Si Si4 0.074524 0.679077 0.369190
Si Si5 0.329260 0.321419 0.934080
Si Si6 0.499010 0.323404 0.176034
Si Si7 0.273125 0.822604 0.135737
O O1 0.156383 0.776121 0.260758
O O2 0.269899 0.781602 0.210238
O O3 0.082160 0.000000 0.133837
O O4 0.913967 0.754546 0.014357
O O5 0.500000 0.765560 0.500000
O O6 0.242997 0.739423 0.432885
O O7 0.322779 0.000000 0.433001
O O8 0.116903 0.733693 0.468298
O O9 0.303515 0.752309 0.699802
O O10 0.000000 0.864104 0.500000
O O11 0.242785 0.000000 0.587254
O O12 0.077744 0.500000 0.369020
O O13 0.871772 0.740072 0.216893
O O14 0.325039 0.500000 0.925993
O O15 0.500000 0.259774 0.000000
O O16 0.369769 0.268039 0.033945
O O17 0.523767 0.500000 0.188051
O O18 0.429700 0.272648 0.202191
O O19 0.302674 0.000000 0.141934
#
# Coordination Sequence:
#
# PCOD8066050 Si02
#       7
#     4   4   4   4   4   4   4
#     4   8  16  32  53  78 109 152 201 243 289 343
#     4  10  21  36  56  82 117 163 210 251 297 356
#     4  11  25  44  64  88 120 159 203 252 306 366
#     4  11  23  40  64  93 126 164 204 253 310 366
#     4   9  19  37  61  88 120 158 198 243 303 373
#     4  11  22  36  59  90 120 152 196 244 300 362
#     4   9  17  32  55  79 109 150 196 244 292 348
#
# _framework density 20.933437000000001
#
# number of rings (size 3 to 8) (size 9 to 14) (size 15 to 20)
#    0.000    2.143    0.000    3.857    2.000    2.571 
#    0.000    4.286    0.000    5.143    0.000    0.000 
#    0.000    0.000    0.000    0.000    0.000    0.000 
#
# Total GULP energy -346948.931190 kJ/mol
# GULP energy per Si atom -12391.033257 kJ/mol
# Density = 2.088579 g / cm^3
# Si number density = 20.933437 Si / 1000 Ang^3
#
#
#
# Elastic Constant Matrix: (Units=GPa)
#
#
# Indices 1 2 3 4 5 6 
#
# 1 98.8778 26.6948 16.9973 0.0000 2.9407 0.0000
# 2 26.6948 62.7554 31.6348 0.0000 -0.7977 0.0000
# 3 16.9973 31.6348 83.7480 0.0000 -0.9871 0.0000
# 4 0.0000 0.0000 0.0000 23.7948 0.0000 2.6198
# 5 2.9407 -0.7977 -0.9871 0.0000 34.0157 0.0000
# 6 0.0000 0.0000 0.0000 2.6198 0.0000 27.9675
#
#
#
# Elastic Compliance Matrix: (Units=1/GPa)
#
#
# Indices 1 2 3 4 5 6 
#
# 1 0.011492 -0.004595 -0.000610 0.000000 -0.001119 0.000000
# 2 -0.004595 0.021522 -0.007189 0.000000 0.000693 0.000000
# 3 -0.000610 -0.007189 0.014784 0.000000 0.000313 0.000000
# 4 0.000000 0.000000 0.000000 0.042464 0.000000 -0.003978
# 5 -0.001119 0.000693 0.000313 0.000000 0.029520 0.000000
# 6 0.000000 0.000000 0.000000 -0.003978 0.000000 0.036128
#
#
# Mechanical properties :
#
#
# Convention : Reuss Voigt Hill
#
# Bulk Modulus (GPa) = 43.45948 44.00389 43.73168
# Shear Modulus (GPa) = 26.54363 28.49256 27.51809
#
# Velocity S-wave (km/s) = 3.56476 3.69332 3.62961
# Velocity P-wave (km/s) = 6.14404 6.26530 6.20497
#
# Compressibility (1/GPa) = 0.02300994
#
# Stress axis : x y z
#
# Youngs Moduli (GPa) = 87.01512 46.46319 67.64257
#
# Poissons Ratio (x) = 0.21352 0.04125
# Poissons Ratio (y) = 0.39987 0.48628
# Poissons Ratio (z) = 0.05306 0.33402
#
# Static dielectric constant tensor:
#      x y z
#    x 3.614210 0.000000 0.952160 
#    y 0.000000 3.430000 0.000000 
#    z 0.952160 0.000000 0.704240 
# 
# 
# High freq. dielectric constant tensor:
#      x y z
#    x 1.832180 0.000000 0.000790 
#    y 0.000000 1.782450 0.000000 
#    z 0.000790 0.000000 1.829640 
# 
# From -- ./inp_files/84974.got.cif
#   From: 2010.06.25/outbox.cif.g09.slc.cpg/sg10_43_cif.got.tgz:84974.got - 2010.06.27 22:07:45.
