data_PCOD8066912
_publ_section_title
;
Structure prediction by ZEFSAII (Michael W. Deem and Ramdas Pophale) SiO2 
 PCOD8066912
Probable space group: P 2/M
;
_chemical_formula_sum "Si O2"
_cell_formula_units_Z 30
_cell_length_a 16.910833
_cell_length_b 19.190734
_cell_length_c 5.225500
_cell_angle_alpha 90.000000
_cell_angle_beta 61.808736
_cell_angle_gamma 90.000000
_cell_volume 1494.670314
_symmetry_space_group_name_H-M "P 2/M"
_symmetry_group_IT_number 10
_symmetry_cell_setting 'monoclinic'
loop_
_space_group_symop_operation_xyz
x,y,z
-x,y,-z
-x,-y,-z
x,-y,z
loop_
_atom_site_type_symbol
_atom_site_label
_atom_site_fract_x
_atom_site_fract_y
_atom_site_fract_z
Si Si1 0.396613 0.368276 0.168343
Si Si2 0.439142 0.500000 0.349183
Si Si3 0.275045 0.421666 0.928093
Si Si4 0.905413 0.381916 0.590597
Si Si5 0.906443 0.293722 0.087976
Si Si6 0.282052 0.279229 0.640762
Si Si7 0.393928 0.922281 0.165980
Si Si8 0.606224 0.160929 0.332536
O O1 0.383130 0.426610 0.418335
O O2 0.362207 0.403339 0.963427
O O3 0.343855 0.295413 0.298650
O O4 0.500000 0.346260 0.000000
O O5 0.500000 0.500000 0.500000
O O6 0.500000 0.500000 0.000000
O O7 0.294829 0.500000 0.780651
O O8 0.183210 0.429175 0.235078
O O9 0.257580 0.357601 0.766269
O O10 0.903874 0.356567 0.298782
O O11 0.000000 0.422913 0.500000
O O12 0.905776 0.318014 0.793721
O O13 0.816135 0.246164 0.271230
O O14 0.000000 0.251742 0.000000
O O15 0.339338 0.233469 0.751972
O O16 0.362032 0.881898 0.467085
O O17 0.352112 0.000000 0.229457
O O18 0.500000 0.928503 0.000000
O O19 0.361850 0.881247 0.964236
O O20 0.500000 0.175846 0.500000
#
# Coordination Sequence:
#
# PCOD8066912 Si02
#       8
#     4   2   4   4   4   4   4   4
#     4  11  25  36  54  72 101 145 189 239 282 334
#     4  10  24  40  54  70  90 132 192 238 274 320
#     4  11  24  39  54  76 103 148 199 243 298 344
#     4   9  18  36  57  78 100 128 177 244 308 357
#     4   9  18  36  58  78 104 140 180 231 291 346
#     4  11  25  36  56  79 115 146 190 242 289 336
#     4   9  18  36  59  85 117 152 185 217 261 324
#     4  10  22  34  55  85 117 152 184 223 272 325
#
# _framework density 20.071317000000001
#
# number of rings (size 3 to 8) (size 9 to 14) (size 15 to 20)
#    0.000    2.000    2.000    0.400    8.400    2.400 
#    0.000    0.000    0.000    4.400    0.000    0.000 
#    0.000    3.200    0.000    0.000    0.000    0.000 
#
# Total GULP energy -371649.863148 kJ/mol
# GULP energy per Si atom -12388.328772 kJ/mol
# Density = 2.002563 g / cm^3
# Si number density = 20.071317 Si / 1000 Ang^3
#
#
#
# Elastic Constant Matrix: (Units=GPa)
#
#
# Indices 1 2 3 4 5 6 
#
# 1 121.6748 27.9447 40.2102 0.0000 -18.8129 0.0000
# 2 27.9447 75.1714 28.0207 0.0000 -4.3706 0.0000
# 3 40.2102 28.0207 78.6779 0.0000 5.3798 0.0000
# 4 0.0000 0.0000 0.0000 10.8240 0.0000 10.0489
# 5 -18.8129 -4.3706 5.3798 0.0000 45.8239 0.0000
# 6 0.0000 0.0000 0.0000 10.0489 0.0000 14.9424
#
#
#
# Elastic Compliance Matrix: (Units=1/GPa)
#
#
# Indices 1 2 3 4 5 6 
#
# 1 0.011219 -0.001856 -0.005419 0.000000 0.005065 0.000000
# 2 -0.001856 0.015854 -0.004787 0.000000 0.001312 0.000000
# 3 -0.005419 -0.004787 0.017508 0.000000 -0.004737 0.000000
# 4 0.000000 0.000000 0.000000 0.245939 0.000000 -0.165396
# 5 0.005065 0.001312 -0.004737 0.000000 0.024583 0.000000
# 6 0.000000 0.000000 0.000000 -0.165396 0.000000 0.178154
#
#
# Mechanical properties :
#
#
# Convention : Reuss Voigt Hill
#
# Bulk Modulus (GPa) = 48.88489 51.98613 50.43551
# Shear Modulus (GPa) = 9.53833 26.27462 17.90647
#
# Velocity S-wave (km/s) = 2.18232 3.62202 2.99012
# Velocity P-wave (km/s) = 5.54604 6.59159 6.09129
#
# Compressibility (1/GPa) = 0.02045622
#
# Stress axis : x y z
#
# Youngs Moduli (GPa) = 89.13551 63.07662 57.11540
#
# Poissons Ratio (x) = 0.11708 0.30951
# Poissons Ratio (y) = 0.16545 0.27343
# Poissons Ratio (z) = 0.48302 0.30197
#
# Static dielectric constant tensor:
#      x y z
#    x 4.038730 0.000000 -0.352090 
#    y 0.000000 3.431080 0.000000 
#    z -0.352090 0.000000 4.123500 
# 
# 
# High freq. dielectric constant tensor:
#      x y z
#    x 1.788120 0.000000 -0.000670 
#    y 0.000000 1.722120 0.000000 
#    z -0.000670 0.000000 1.805610 
# 
# From -- ./inp_files/11632.got.cif
#   From: 2010.06.25/outbox.cif.g09.slc.cpg/sg10_6_cif.got.tgz:11632.got - 2010.06.27 22:07:45.
