data_PCOD8066489
_publ_section_title
;
Structure prediction by ZEFSAII (Michael W. Deem and Ramdas Pophale) SiO2 
 PCOD8066489
Probable space group: P 2/M
;
_chemical_formula_sum "Si O2"
_cell_formula_units_Z 32
_cell_length_a 15.219621
_cell_length_b 9.016597
_cell_length_c 12.002817
_cell_angle_alpha 90.000000
_cell_angle_beta 89.686471
_cell_angle_gamma 90.000000
_cell_volume 1647.112182
_symmetry_space_group_name_H-M "P 2/M"
_symmetry_group_IT_number 10
_symmetry_cell_setting 'monoclinic'
loop_
_space_group_symop_operation_xyz
x,y,z
-x,y,-z
-x,-y,-z
x,-y,z
loop_
_atom_site_type_symbol
_atom_site_label
_atom_site_fract_x
_atom_site_fract_y
_atom_site_fract_z
Si Si1 0.093237 0.670038 0.553710
Si Si2 0.100439 0.825576 0.995749
Si Si3 0.657464 0.324586 0.252425
Si Si4 0.598321 0.676202 0.012765
Si Si5 0.163226 0.826440 0.751080
Si Si6 0.598015 0.166577 0.457857
Si Si7 0.755574 0.324493 0.856052
Si Si8 0.743073 0.674290 0.599677
O O1 0.106710 0.500000 0.590548
O O2 0.090853 0.775339 0.662328
O O3 0.168184 0.718375 0.465531
O O4 0.000000 0.695368 0.500000
O O5 0.158231 0.745791 0.088905
O O6 0.105942 0.000000 0.017833
O O7 0.135952 0.780461 0.874779
O O8 0.000000 0.770118 0.000000
O O9 0.653776 0.500000 0.259107
O O10 0.633542 0.265098 0.130478
O O11 0.752596 0.267081 0.286267
O O12 0.591557 0.257072 0.342805
O O13 0.593855 0.500000 0.010609
O O14 0.500000 0.742201 0.000000
O O15 0.665802 0.732262 0.917064
O O16 0.181529 0.000000 0.741760
O O17 0.500000 0.164125 0.500000
O O18 0.660344 0.243397 0.547647
O O19 0.632923 0.000000 0.436461
O O20 0.764421 0.500000 0.868888
O O21 0.752255 0.274659 0.727875
O O22 0.724611 0.500000 0.592782
#
# Coordination Sequence:
#
# PCOD8066489 Si02
#       8
#     4   4   4   4   4   4   4   4
#     4  10  22  39  59  87 120 153 194 245 298 350
#     4  10  23  41  59  84 120 160 199 240 290 351
#     4  11  21  37  64  90 116 152 197 247 300 350
#     4   9  19  35  57  87 118 148 187 239 293 347
#     4  11  22  38  61  86 117 156 200 247 296 352
#     4  11  25  42  60  86 122 160 199 243 293 350
#     4  10  21  38  60  87 118 151 194 243 291 345
#     4  10  22  39  60  87 119 156 197 243 294 349
#
# _framework density 19.427942000000002
#
# number of rings (size 3 to 8) (size 9 to 14) (size 15 to 20)
#    0.000    1.750    2.500    1.125    3.500    2.500 
#    0.000    0.000    0.000    1.875    0.000    0.000 
#    0.000    0.000    0.000    0.000    0.000    0.000 
#
# Total GULP energy -396862.981749 kJ/mol
# GULP energy per Si atom -12401.968180 kJ/mol
# Density = 1.938372 g / cm^3
# Si number density = 19.427942 Si / 1000 Ang^3
#
#
#
# Elastic Constant Matrix: (Units=GPa)
#
#
# Indices 1 2 3 4 5 6 
#
# 1 110.4265 30.7873 42.0554 0.0000 8.3703 0.0000
# 2 30.7873 58.7338 48.7702 0.0000 3.0282 0.0000
# 3 42.0554 48.7702 143.2202 0.0000 9.6914 0.0000
# 4 0.0000 0.0000 0.0000 20.3895 0.0000 -0.3049
# 5 8.3703 3.0282 9.6914 0.0000 25.7060 0.0000
# 6 0.0000 0.0000 0.0000 -0.3049 0.0000 23.2668
#
#
#
# Elastic Compliance Matrix: (Units=1/GPa)
#
#
# Indices 1 2 3 4 5 6 
#
# 1 0.011065 -0.004341 -0.001603 0.000000 -0.002487 0.000000
# 2 -0.004341 0.025443 -0.007473 0.000000 0.001234 0.000000
# 3 -0.001603 -0.007473 0.010162 0.000000 -0.002429 0.000000
# 4 0.000000 0.000000 0.000000 0.049055 0.000000 0.000643
# 5 -0.002487 0.001234 -0.002429 0.000000 0.040482 0.000000
# 6 0.000000 0.000000 0.000000 0.000643 0.000000 0.042988
#
#
# Mechanical properties :
#
#
# Convention : Reuss Voigt Hill
#
# Bulk Modulus (GPa) = 50.41097 61.73404 56.07251
# Shear Modulus (GPa) = 23.51398 26.59030 25.05214
#
# Velocity S-wave (km/s) = 3.48274 3.70356 3.59484
# Velocity P-wave (km/s) = 6.49435 7.08049 6.79374
#
# Compressibility (1/GPa) = 0.01983695
#
# Stress axis : x y z
#
# Youngs Moduli (GPa) = 90.37506 39.30358 98.40724
#
# Poissons Ratio (x) = 0.17062 0.15770
# Poissons Ratio (y) = 0.39233 0.73537
# Poissons Ratio (z) = 0.14483 0.29371
#
# Static dielectric constant tensor:
#      x y z
#    x 3.643840 0.000000 -0.067460 
#    y 0.000000 3.435920 0.000000 
#    z -0.067460 0.000000 3.743510 
# 
# 
# High freq. dielectric constant tensor:
#      x y z
#    x 1.763560 0.000000 -0.000800 
#    y 0.000000 1.740310 0.000000 
#    z -0.000800 0.000000 1.771520 
# 
# From -- ./inp_files/49829.got.cif
#   From: 2010.06.25/outbox.cif.g09.slc.cpg/sg10_25_cif.got.tgz:49829.got - 2010.06.27 22:07:45.
