data_PCOD8066499
_publ_section_title
;
Structure prediction by ZEFSAII (Michael W. Deem and Ramdas Pophale) SiO2 
 PCOD8066499
Probable space group: P 2/M
;
_chemical_formula_sum "Si O2"
_cell_formula_units_Z 32
_cell_length_a 20.900563
_cell_length_b 8.766144
_cell_length_c 26.823667
_cell_angle_alpha 90.000000
_cell_angle_beta 19.609533
_cell_angle_gamma 90.000000
_cell_volume 1649.367512
_symmetry_space_group_name_H-M "P 2/M"
_symmetry_group_IT_number 10
_symmetry_cell_setting 'monoclinic'
loop_
_space_group_symop_operation_xyz
x,y,z
-x,y,-z
-x,-y,-z
x,-y,z
loop_
_atom_site_type_symbol
_atom_site_label
_atom_site_fract_x
_atom_site_fract_y
_atom_site_fract_z
Si Si1 0.997701 0.319904 0.058459
Si Si2 0.745620 0.319554 0.514122
Si Si3 0.953686 0.680341 0.457780
Si Si4 0.697696 0.319414 0.736968
Si Si5 0.370779 0.823307 0.828906
Si Si6 0.927017 0.320410 0.277022
Si Si7 0.280338 0.820911 0.664445
Si Si8 0.330906 0.823431 0.972606
O O1 0.012866 0.500000 0.050904
O O2 0.801543 0.264252 0.227103
O O3 0.000000 0.262971 0.000000
O O4 0.170259 0.248811 0.962137
O O5 0.729750 0.500000 0.529681
O O6 0.889797 0.255102 0.450853
O O7 0.536058 0.252524 0.675131
O O8 0.824253 0.268107 0.403140
O O9 0.944495 0.500000 0.464904
O O10 0.807080 0.738543 0.607264
O O11 0.170835 0.728387 0.312053
O O12 0.659123 0.500000 0.763993
O O13 0.497695 0.231036 0.887480
O O14 0.403729 0.793410 0.863083
O O15 0.365079 0.000000 0.819878
O O16 0.906607 0.500000 0.282463
O O17 0.829148 0.229653 0.304493
O O18 0.147546 0.277609 0.119137
O O19 0.500000 0.773985 0.500000
O O20 0.251661 0.000000 0.692540
O O21 0.281942 0.000000 0.017542
#
# Coordination Sequence:
#
# PCOD8066499 Si02
#       8
#     4   4   4   4   4   4   4   4
#     4  11  25  43  65  93 121 152 195 246 291 338
#     4  10  21  38  60  88 119 152 197 248 297 348
#     4   8  15  30  54  85 116 147 189 243 294 345
#     4   9  16  30  57  85 112 151 194 240 295 346
#     4  11  23  38  60  88 119 156 196 239 295 351
#     4  11  24  40  62  87 115 156 199 244 293 345
#     4  11  25  44  64  88 120 160 196 234 291 356
#     4  11  22  37  57  85 118 155 197 242 290 349
#
# _framework density 19.401375999999999
#
# number of rings (size 3 to 8) (size 9 to 14) (size 15 to 20)
#    0.000    1.750    2.500    2.625    1.750    4.000 
#    0.000    2.500    0.000    3.750    0.000    0.000 
#    0.000    0.000    0.000    0.000    0.000    0.000 
#
# Total GULP energy -396863.381959 kJ/mol
# GULP energy per Si atom -12401.980686 kJ/mol
# Density = 1.935722 g / cm^3
# Si number density = 19.401376 Si / 1000 Ang^3
#
#
#
# Elastic Constant Matrix: (Units=GPa)
#
#
# Indices 1 2 3 4 5 6 
#
# 1 79.2547 40.1033 56.4789 0.0000 -4.0566 0.0000
# 2 40.1033 107.4772 72.6323 0.0000 -9.7625 0.0000
# 3 56.4789 72.6323 154.1536 0.0000 -13.9927 0.0000
# 4 0.0000 0.0000 0.0000 21.7130 0.0000 -0.2328
# 5 -4.0566 -9.7625 -13.9927 0.0000 41.6318 0.0000
# 6 0.0000 0.0000 0.0000 -0.2328 0.0000 17.9815
#
#
#
# Elastic Compliance Matrix: (Units=1/GPa)
#
#
# Indices 1 2 3 4 5 6 
#
# 1 0.017854 -0.003320 -0.005044 0.000000 -0.000734 0.000000
# 2 -0.003320 0.014315 -0.005418 0.000000 0.001212 0.000000
# 3 -0.005044 -0.005418 0.011066 0.000000 0.001957 0.000000
# 4 0.000000 0.000000 0.000000 0.046062 0.000000 0.000596
# 5 -0.000734 0.001212 0.001957 0.000000 0.024891 0.000000
# 6 0.000000 0.000000 0.000000 0.000596 0.000000 0.055620
#
#
# Mechanical properties :
#
#
# Convention : Reuss Voigt Hill
#
# Bulk Modulus (GPa) = 63.81467 75.47940 69.64704
# Shear Modulus (GPa) = 24.67975 27.71001 26.19488
#
# Velocity S-wave (km/s) = 3.57047 3.78332 3.67843
# Velocity P-wave (km/s) = 7.06830 7.62058 7.34963
#
# Compressibility (1/GPa) = 0.01567038
#
# Stress axis : x y z
#
# Youngs Moduli (GPa) = 56.00891 69.85741 90.37074
#
# Poissons Ratio (x) = 0.23194 0.45581
# Poissons Ratio (y) = 0.18596 0.48965
# Poissons Ratio (z) = 0.28249 0.37850
#
# Static dielectric constant tensor:
#      x y z
#    x 3.822220 0.000000 -0.065280 
#    y 0.000000 3.391800 0.000000 
#    z -0.065280 0.000000 3.609460 
# 
# 
# High freq. dielectric constant tensor:
#      x y z
#    x 1.757430 0.000000 -0.012850 
#    y 0.000000 1.746090 0.000000 
#    z -0.012850 0.000000 1.758340 
# 
# From -- ./inp_files/93676.got.cif
#   From: 2010.06.25/outbox.cif.g09.slc.cpg/sg10_47_cif.got.tgz:93676.got - 2010.06.27 22:07:45.
