data_PCOD8066115
_publ_section_title
;
Structure prediction by ZEFSAII (Michael W. Deem and Ramdas Pophale) SiO2 
 PCOD8066115
Probable space group: P 2/M
;
_chemical_formula_sum "Si O2"
_cell_formula_units_Z 32
_cell_length_a 26.980009
_cell_length_b 8.996684
_cell_length_c 21.049047
_cell_angle_alpha 90.000000
_cell_angle_beta 160.830495
_cell_angle_gamma 90.000000
_cell_volume 1677.692984
_symmetry_space_group_name_H-M "P 2/M"
_symmetry_group_IT_number 10
_symmetry_cell_setting 'monoclinic'
loop_
_space_group_symop_operation_xyz
x,y,z
-x,y,-z
-x,-y,-z
x,-y,z
loop_
_atom_site_type_symbol
_atom_site_label
_atom_site_fract_x
_atom_site_fract_y
_atom_site_fract_z
Si Si1 0.152574 0.170355 0.856288
Si Si2 0.995864 0.174614 0.191104
Si Si3 0.505072 0.828325 0.280518
Si Si4 0.303541 0.676495 0.588961
Si Si5 0.738766 0.672027 0.810683
Si Si6 0.553794 0.327922 0.465009
Si Si7 0.041040 0.323805 0.480344
Si Si8 0.655818 0.676785 0.217615
O O1 0.076372 0.220390 0.829395
O O2 0.089656 0.272655 0.724717
O O3 0.115112 0.000000 0.795076
O O4 0.328776 0.198812 0.075770
O O5 0.154647 0.256577 0.376649
O O6 0.020813 0.000000 0.214547
O O7 0.885842 0.229428 0.002013
O O8 0.554762 0.735554 0.279227
O O9 0.587476 0.769471 0.443634
O O10 0.546646 0.000000 0.321012
O O11 0.296694 0.500000 0.577672
O O12 0.322812 0.733690 0.684545
O O13 0.777578 0.500000 0.869212
O O14 0.603035 0.721931 0.692557
O O15 0.690317 0.699384 0.679299
O O16 0.545487 0.500000 0.435274
O O17 0.043331 0.500000 0.483718
O O18 0.000000 0.260029 0.500000
O O19 0.204478 0.262994 0.655521
O O20 0.651715 0.500000 0.211523
O O21 0.500000 0.741350 0.000000
#
# Coordination Sequence:
#
# PCOD8066115 Si02
#       8
#     4   4   4   4   4   4   4   4
#     4  10  22  38  57  82 118 155 191 234 284 340
#     4  11  21  37  59  85 116 154 194 236 284 342
#     4  11  23  39  57  84 119 155 194 239 285 341
#     4  11  23  39  61  85 113 154 194 237 291 343
#     4   9  18  33  57  87 118 150 190 238 287 342
#     4   9  18  34  56  86 119 151 189 238 290 339
#     4  10  21  36  59  88 114 143 188 243 289 334
#     4   9  19  36  56  82 114 145 183 232 286 341
#
# _framework density 19.073812
#
# number of rings (size 3 to 8) (size 9 to 14) (size 15 to 20)
#    0.000    2.000    2.500    1.875    1.750    2.250 
#    0.000    1.875    0.000    5.625    0.000    0.000 
#    0.000    0.000    0.000    0.000    0.000    0.000 
#
# Total GULP energy -396905.794779 kJ/mol
# GULP energy per Si atom -12403.306087 kJ/mol
# Density = 1.903040 g / cm^3
# Si number density = 19.073812 Si / 1000 Ang^3
#
#
#
# Elastic Constant Matrix: (Units=GPa)
#
#
# Indices 1 2 3 4 5 6 
#
# 1 100.8325 28.9221 26.6713 0.0000 -5.5491 0.0000
# 2 28.9221 55.9505 30.3897 0.0000 -3.9610 0.0000
# 3 26.6713 30.3897 82.8225 0.0000 -17.3468 0.0000
# 4 0.0000 0.0000 0.0000 24.1907 0.0000 2.4819
# 5 -5.5491 -3.9610 -17.3468 0.0000 26.4130 0.0000
# 6 0.0000 0.0000 0.0000 2.4819 0.0000 25.1023
#
#
#
# Elastic Compliance Matrix: (Units=1/GPa)
#
#
# Indices 1 2 3 4 5 6 
#
# 1 0.011901 -0.005111 -0.001848 0.000000 0.000520 0.000000
# 2 -0.005111 0.024644 -0.007939 0.000000 -0.002592 0.000000
# 3 -0.001848 -0.007939 0.017684 0.000000 0.010035 0.000000
# 4 0.000000 0.000000 0.000000 0.041762 0.000000 -0.004129
# 5 0.000520 -0.002592 0.010035 0.000000 0.044171 0.000000
# 6 0.000000 0.000000 0.000000 -0.004129 0.000000 0.040245
#
#
# Mechanical properties :
#
#
# Convention : Reuss Voigt Hill
#
# Bulk Modulus (GPa) = 40.93095 45.73020 43.33057
# Shear Modulus (GPa) = 22.89913 25.38270 24.14091
#
# Velocity S-wave (km/s) = 3.46866 3.65192 3.56147
# Velocity P-wave (km/s) = 6.12764 6.46602 6.29910
#
# Compressibility (1/GPa) = 0.02443139
#
# Stress axis : x y z
#
# Youngs Moduli (GPa) = 84.02669 40.57796 56.54767
#
# Poissons Ratio (x) = 0.20741 0.10450
# Poissons Ratio (y) = 0.42948 0.44896
# Poissons Ratio (z) = 0.15529 0.32217
#
# Static dielectric constant tensor:
#      x y z
#    x 3.541220 0.000000 -0.021160 
#    y 0.000000 3.291100 0.000000 
#    z -0.021160 0.000000 3.501670 
# 
# 
# High freq. dielectric constant tensor:
#      x y z
#    x 1.740380 0.000000 -0.005160 
#    y 0.000000 1.726560 0.000000 
#    z -0.005160 0.000000 1.745940 
# 
# From -- ./inp_files/86971.got.cif
#   From: 2010.06.25/outbox.cif.g09.slc.cpg/sg10_44_cif.got.tgz:86971.got - 2010.06.27 22:07:45.
