data_PCOD8066092
_publ_section_title
;
Structure prediction by ZEFSAII (Michael W. Deem and Ramdas Pophale) SiO2 
 PCOD8066092
Probable space group: P 2/M
;
_chemical_formula_sum "Si O2"
_cell_formula_units_Z 32
_cell_length_a 15.505253
_cell_length_b 23.435717
_cell_length_c 9.005133
_cell_angle_alpha 90.000000
_cell_angle_beta 149.419212
_cell_angle_gamma 90.000000
_cell_volume 1664.769152
_symmetry_space_group_name_H-M "P 2/M"
_symmetry_group_IT_number 10
_symmetry_cell_setting 'monoclinic'
loop_
_space_group_symop_operation_xyz
x,y,z
-x,y,-z
-x,-y,-z
x,-y,z
loop_
_atom_site_type_symbol
_atom_site_label
_atom_site_fract_x
_atom_site_fract_y
_atom_site_fract_z
Si Si1 0.170780 0.243553 0.841560
Si Si2 0.994128 0.170323 0.156536
Si Si3 0.506888 0.434470 0.842165
Si Si4 0.232028 0.064642 0.165093
Si Si5 0.673079 0.363370 0.846157
Si Si6 0.433058 0.064642 0.165086
Si Si7 0.164723 0.434470 0.157835
Si Si8 0.662409 0.170323 0.156539
O O1 0.133140 0.208005 0.934188
O O2 0.301048 0.208006 0.934187
O O3 0.000000 0.257184 0.500000
O O4 0.258807 0.301488 0.017614
O O5 0.180617 0.169799 0.499999
O O6 0.927236 0.105650 0.047617
O O7 0.000000 0.196897 0.000000
O O8 0.567361 0.500000 0.925333
O O9 0.643549 0.397357 0.955251
O O10 0.321644 0.427156 0.500000
O O11 0.500000 0.411872 0.000000
O O12 0.297120 0.070830 0.094243
O O13 0.380974 0.081616 0.500004
O O14 0.171516 0.000000 0.104509
O O15 0.500000 0.358186 0.500000
O O16 0.811703 0.397357 0.955251
O O17 0.432987 0.000000 0.104501
O O18 0.379610 0.105650 0.952372
O O19 0.142029 0.500000 0.074668
O O20 0.000000 0.411872 0.000000
O O21 0.500000 0.196895 0.000000
#
# Coordination Sequence:
#
# PCOD8066092 Si02
#       8
#     4   4   4   4   4   4   4   4
#     4  10  24  43  58  78 112 147 187 238 283 326
#     4  11  23  40  60  83 110 146 189 233 283 336
#     4   9  18  34  56  84 117 149 183 225 272 325
#     4   9  18  34  58  87 116 145 179 224 279 337
#     4  10  21  36  58  83 109 148 191 227 273 330
#     4   9  18  34  58  87 116 145 179 224 279 337
#     4   9  18  34  56  84 117 149 183 225 272 325
#     4  11  23  40  60  83 110 146 189 233 283 336
#
# _framework density 19.221885
#
# number of rings (size 3 to 8) (size 9 to 14) (size 15 to 20)
#    0.000    2.250    1.250    1.875    0.000    6.500 
#    0.000    6.250    0.000    3.750    0.000    0.000 
#    0.000    0.000    0.000    0.000    0.000    0.000 
#
# Total GULP energy -396899.539482 kJ/mol
# GULP energy per Si atom -12403.110609 kJ/mol
# Density = 1.917813 g / cm^3
# Si number density = 19.221885 Si / 1000 Ang^3
#
#
#
# Elastic Constant Matrix: (Units=GPa)
#
#
# Indices 1 2 3 4 5 6 
#
# 1 168.9177 78.3750 61.6863 0.0000 1.2349 0.0000
# 2 78.3750 111.0836 47.3372 0.0000 1.0233 0.0000
# 3 61.6863 47.3372 63.1473 0.0000 2.2520 0.0000
# 4 0.0000 0.0000 0.0000 35.2931 0.0000 -0.8216
# 5 1.2349 1.0233 2.2520 0.0000 34.8521 0.0000
# 6 0.0000 0.0000 0.0000 -0.8216 0.0000 10.3839
#
#
#
# Elastic Compliance Matrix: (Units=1/GPa)
#
#
# Indices 1 2 3 4 5 6 
#
# 1 0.010528 -0.004473 -0.006938 0.000000 0.000207 0.000000
# 2 -0.004473 0.015131 -0.006979 0.000000 0.000165 0.000000
# 3 -0.006938 -0.006979 0.027894 0.000000 -0.001352 0.000000
# 4 0.000000 0.000000 0.000000 0.028386 0.000000 0.002246
# 5 0.000207 0.000165 -0.001352 0.000000 0.028768 0.000000
# 6 0.000000 0.000000 0.000000 0.002246 0.000000 0.096481
#
#
# Mechanical properties :
#
#
# Convention : Reuss Voigt Hill
#
# Bulk Modulus (GPa) = 59.62476 79.77170 69.69823
# Shear Modulus (GPa) = 20.03546 26.48917 23.26231
#
# Velocity S-wave (km/s) = 3.23201 3.71627 3.48257
# Velocity P-wave (km/s) = 6.70928 7.74627 7.24635
#
# Compressibility (1/GPa) = 0.01677155
#
# Stress axis : x y z
#
# Youngs Moduli (GPa) = 94.98709 66.09151 35.85062
#
# Poissons Ratio (x) = 0.29563 0.24875
# Poissons Ratio (y) = 0.42488 0.25019
# Poissons Ratio (z) = 0.65906 0.46123
#
# Static dielectric constant tensor:
#      x y z
#    x 3.725150 0.000000 0.011410 
#    y 0.000000 3.421670 0.000000 
#    z 0.011410 0.000000 3.379140 
# 
# 
# High freq. dielectric constant tensor:
#      x y z
#    x 1.760260 0.000000 0.000650 
#    y 0.000000 1.740870 0.000000 
#    z 0.000650 0.000000 1.740440 
# 
# From -- ./inp_files/30622.got.cif
#   From: 2010.06.25/outbox.cif.g09.slc.cpg/sg10_16_cif.got.tgz:30622.got - 2010.06.27 22:07:45.
