data_PCOD8066657
_publ_section_title
;
Structure prediction by ZEFSAII (Michael W. Deem and Ramdas Pophale) SiO2 
 PCOD8066657
Probable space group: P 2/M
;
_chemical_formula_sum "Si O2"
_cell_formula_units_Z 28
_cell_length_a 9.139063
_cell_length_b 9.143342
_cell_length_c 26.744618
_cell_angle_alpha 90.000000
_cell_angle_beta 141.262747
_cell_angle_gamma 90.000000
_cell_volume 1398.440067
_symmetry_space_group_name_H-M "P 2/M"
_symmetry_group_IT_number 10
_symmetry_cell_setting 'monoclinic'
loop_
_space_group_symop_operation_xyz
x,y,z
-x,y,-z
-x,-y,-z
x,-y,z
loop_
_atom_site_type_symbol
_atom_site_label
_atom_site_fract_x
_atom_site_fract_y
_atom_site_fract_z
Si Si1 0.183313 0.332098 0.006721
Si Si2 0.473428 0.167778 0.275852
Si Si3 0.266863 0.671523 0.567618
Si Si4 0.719543 0.668860 0.162158
Si Si5 0.276487 0.161167 0.474030
Si Si6 0.066228 0.827449 0.875418
Si Si7 0.845615 0.169711 0.293596
O O1 0.132790 0.500000 0.977828
O O2 0.165922 0.229536 0.954115
O O3 0.443269 0.314210 0.097664
O O4 0.000000 0.279611 0.000000
O O5 0.585826 0.267392 0.347711
O O6 0.601170 0.195007 0.257080
O O7 0.205731 0.214036 0.199087
O O8 0.499586 0.000000 0.299569
O O9 0.296381 0.500000 0.575804
O O10 0.359639 0.733482 0.540307
O O11 0.000000 0.722802 0.500000
O O12 0.792803 0.500000 0.176907
O O13 0.795213 0.750849 0.132225
O O14 0.852132 0.738086 0.244643
O O15 0.500000 0.145361 0.500000
O O16 0.056594 0.226828 0.384915
O O17 0.205046 0.000000 0.475533
O O18 0.108366 0.000000 0.883167
O O19 0.883524 0.000000 0.289749
#
# Coordination Sequence:
#
# PCOD8066657 Si02
#       7
#     4   4   4   4   4   4   4
#     4  10  22  42  66  91 121 158 197 238 292 356
#     4  10  22  40  62  86 116 157 202 245 297 353
#     4  11  23  38  59  89 120 154 199 249 298 351
#     4  11  24  40  61  89 124 161 193 237 299 357
#     4  10  22  39  61  86 116 157 201 247 300 353
#     4  11  24  40  62  92 122 155 199 248 291 344
#     4  10  21  39  61  86 117 155 200 249 294 346
#
# _framework density 20.022309
#
# number of rings (size 3 to 8) (size 9 to 14) (size 15 to 20)
#    0.000    1.571    1.429    2.571    2.000    6.286 
#    0.000    0.000    0.000    0.000    0.000    0.000 
#    0.000    0.000    0.000    0.000    0.000    0.000 
#
# Total GULP energy -347331.536811 kJ/mol
# GULP energy per Si atom -12404.697743 kJ/mol
# Density = 1.997674 g / cm^3
# Si number density = 20.022309 Si / 1000 Ang^3
#
#
#
# Elastic Constant Matrix: (Units=GPa)
#
#
# Indices 1 2 3 4 5 6 
#
# 1 95.2323 34.7319 16.8517 0.0000 -8.8109 0.0000
# 2 34.7319 76.5623 37.1191 0.0000 -12.9033 0.0000
# 3 16.8517 37.1191 71.9692 0.0000 -12.7611 0.0000
# 4 0.0000 0.0000 0.0000 33.6761 0.0000 3.1742
# 5 -8.8109 -12.9033 -12.7611 0.0000 39.6393 0.0000
# 6 0.0000 0.0000 0.0000 3.1742 0.0000 16.7614
#
#
#
# Elastic Compliance Matrix: (Units=1/GPa)
#
#
# Indices 1 2 3 4 5 6 
#
# 1 0.012620 -0.005612 0.000120 0.000000 0.001017 0.000000
# 2 -0.005612 0.020242 -0.008674 0.000000 0.002549 0.000000
# 3 0.000120 -0.008674 0.018925 0.000000 0.003296 0.000000
# 4 0.000000 0.000000 0.000000 0.030234 0.000000 -0.005726
# 5 0.001017 0.002549 0.003296 0.000000 0.027344 0.000000
# 6 0.000000 0.000000 0.000000 -0.005726 0.000000 0.060745
#
#
# Mechanical properties :
#
#
# Convention : Reuss Voigt Hill
#
# Bulk Modulus (GPa) = 42.63513 46.79657 44.71585
# Shear Modulus (GPa) = 24.24108 28.35275 26.29692
#
# Velocity S-wave (km/s) = 3.48329 3.76714 3.62799
# Velocity P-wave (km/s) = 6.12518 6.50728 6.31912
#
# Compressibility (1/GPa) = 0.02345484
#
# Stress axis : x y z
#
# Youngs Moduli (GPa) = 79.23824 49.40229 52.84022
#
# Poissons Ratio (x) = 0.27723 -0.00632
# Poissons Ratio (y) = 0.44465 0.45834
# Poissons Ratio (z) = -0.00947 0.42852
#
# Static dielectric constant tensor:
#      x y z
#    x 3.717540 0.000000 0.146940 
#    y 0.000000 3.635950 0.000000 
#    z 0.146940 0.000000 3.781110 
# 
# 
# High freq. dielectric constant tensor:
#      x y z
#    x 1.790240 0.000000 0.003050 
#    y 0.000000 1.780870 0.000000 
#    z 0.003050 0.000000 1.788610 
# 
# From -- ./inp_files/36913.got.cif
#   From: 2010.06.25/outbox.cif.g09.slc.cpg/sg10_19_cif.got.tgz:36913.got - 2010.06.27 22:07:45.
