data_PCOD8066992
_publ_section_title
;
Structure prediction by ZEFSAII (Michael W. Deem and Ramdas Pophale) SiO2 
 PCOD8066992
Probable space group: P 2/M
;
_chemical_formula_sum "Si O2"
_cell_formula_units_Z 32
_cell_length_a 14.522767
_cell_length_b 14.147807
_cell_length_c 9.283293
_cell_angle_alpha 90.000000
_cell_angle_beta 61.711217
_cell_angle_gamma 90.000000
_cell_volume 1679.594771
_symmetry_space_group_name_H-M "P 2/M"
_symmetry_group_IT_number 10
_symmetry_cell_setting 'monoclinic'
loop_
_space_group_symop_operation_xyz
x,y,z
-x,y,-z
-x,-y,-z
x,-y,z
loop_
_atom_site_type_symbol
_atom_site_label
_atom_site_fract_x
_atom_site_fract_y
_atom_site_fract_z
Si Si1 0.275060 0.891363 0.801679
Si Si2 0.774861 0.391121 0.485967
Si Si3 0.042993 0.749942 0.625421
Si Si4 0.406929 0.749910 0.869609
Si Si5 0.274820 0.391387 0.801902
Si Si6 0.897173 0.750169 0.983247
Si Si7 0.225149 0.891089 0.513894
Si Si8 0.352296 0.250024 0.236585
O O1 0.374497 0.842635 0.803380
O O2 0.283862 0.878977 0.623006
O O3 0.273043 0.000000 0.849169
O O4 0.169073 0.843823 0.936543
O O5 0.790829 0.500000 0.515109
O O6 0.888419 0.342901 0.391503
O O7 0.715970 0.379185 0.377075
O O8 0.705306 0.343129 0.661503
O O9 0.111538 0.842922 0.607856
O O10 0.000000 0.749554 0.500000
O O11 0.934735 0.750059 0.792030
O O12 0.374286 0.657135 0.803812
O O13 0.529867 0.749809 0.795874
O O14 0.347430 0.750023 0.067268
O O15 0.272324 0.500000 0.849914
O O16 0.168854 0.343542 0.936227
O O17 0.000000 0.750457 0.000000
O O18 0.294921 0.843196 0.338337
O O19 0.209260 0.000000 0.484888
#
# Coordination Sequence:
#
# PCOD8066992 Si02
#       8
#     4   4   4   4   4   4   4   4
#     4  10  22  38  60  88 113 146 194 237 277 331
#     4  10  22  40  59  84 116 149 190 236 280 334
#     4  11  23  37  55  84 119 153 189 228 280 337
#     4  10  22  40  60  85 115 147 187 234 284 341
#     4  10  22  38  60  88 113 146 194 237 277 331
#     4  11  19  37  59  82 115 153 187 232 278 328
#     4  10  22  40  59  84 116 149 190 236 280 334
#     4  10  22  40  60  83 117 152 181 229 292 342
#
# _framework density 19.052215
#
# number of rings (size 3 to 8) (size 9 to 14) (size 15 to 20)
#    0.000    1.750    2.500    2.250    7.000    6.000 
#    0.000    5.000    0.000    0.000    0.000    0.000 
#    0.000    0.000    0.000    0.000    0.000    0.000 
#
# Total GULP energy -396847.461242 kJ/mol
# GULP energy per Si atom -12401.483164 kJ/mol
# Density = 1.900885 g / cm^3
# Si number density = 19.052215 Si / 1000 Ang^3
#
#
#
# Elastic Constant Matrix: (Units=GPa)
#
#
# Indices 1 2 3 4 5 6 
#
# 1 58.3506 30.9179 -2.3592 0.0000 11.8218 0.0000
# 2 30.9179 175.1865 34.8916 0.0000 4.3687 0.0000
# 3 -2.3592 34.8916 84.9424 0.0000 5.4652 0.0000
# 4 0.0000 0.0000 0.0000 14.7937 0.0000 0.7746
# 5 11.8218 4.3687 5.4652 0.0000 35.9413 0.0000
# 6 0.0000 0.0000 0.0000 0.7746 0.0000 6.1716
#
#
#
# Elastic Compliance Matrix: (Units=1/GPa)
#
#
# Indices 1 2 3 4 5 6 
#
# 1 0.020742 -0.004023 0.002662 0.000000 -0.006738 0.000000
# 2 -0.004023 0.007002 -0.003048 0.000000 0.000936 0.000000
# 3 0.002662 -0.003048 0.013261 0.000000 -0.002522 0.000000
# 4 0.000000 0.000000 0.000000 0.068043 0.000000 -0.008541
# 5 -0.006738 0.000936 -0.002522 0.000000 0.030309 0.000000
# 6 0.000000 0.000000 0.000000 -0.008541 0.000000 0.163104
#
#
# Mechanical properties :
#
#
# Convention : Reuss Voigt Hill
#
# Bulk Modulus (GPa) = 31.06815 49.48667 40.27741
# Shear Modulus (GPa) = 15.52755 28.38328 21.95541
#
# Velocity S-wave (km/s) = 2.85792 3.86393 3.39836
# Velocity P-wave (km/s) = 5.21848 6.77770 6.04854
#
# Compressibility (1/GPa) = 0.03218730
#
# Stress axis : x y z
#
# Youngs Moduli (GPa) = 48.21098 142.81777 75.40960
#
# Poissons Ratio (x) = 0.57454 -0.20075
# Poissons Ratio (y) = 0.19395 0.22986
# Poissons Ratio (z) = -0.12834 0.43532
#
# Static dielectric constant tensor:
#      x y z
#    x 3.064150 0.000000 0.628440 
#    y 0.000000 3.764750 0.000000 
#    z 0.628440 0.000000 2.992320 
# 
# 
# High freq. dielectric constant tensor:
#      x y z
#    x 1.746110 0.000000 0.008180 
#    y 0.000000 1.741470 0.000000 
#    z 0.008180 0.000000 1.748280 
# 
# From -- ./inp_files/29475.got.cif
#   From: 2010.06.25/outbox.cif.g09.slc.cpg/sg10_15_cif.got.tgz:29475.got - 2010.06.27 22:07:45.
