data_PCOD8066966
_publ_section_title
;
Structure prediction by ZEFSAII (Michael W. Deem and Ramdas Pophale) SiO2 
 PCOD8066966
Probable space group: P 2/M
;
_chemical_formula_sum "Si O2"
_cell_formula_units_Z 30
_cell_length_a 34.269241
_cell_length_b 8.193883
_cell_length_c 5.203993
_cell_angle_alpha 90.000000
_cell_angle_beta 111.305431
_cell_angle_gamma 90.000000
_cell_volume 1361.403623
_symmetry_space_group_name_H-M "P 2/M"
_symmetry_group_IT_number 10
_symmetry_cell_setting 'monoclinic'
loop_
_space_group_symop_operation_xyz
x,y,z
-x,y,-z
-x,-y,-z
x,-y,z
loop_
_atom_site_type_symbol
_atom_site_label
_atom_site_fract_x
_atom_site_fract_y
_atom_site_fract_z
Si Si1 0.028325 0.500000 0.323106
Si Si2 0.127136 0.187475 0.071958
Si Si3 0.591615 0.189428 0.219494
Si Si4 0.951522 0.178158 0.816742
Si Si5 0.733903 0.805423 0.059104
Si Si6 0.452393 0.689038 0.386408
Si Si7 0.828455 0.195158 0.319323
Si Si8 0.686432 0.805681 0.446461
O O1 0.055832 0.332540 0.390944
O O2 0.000000 0.500000 0.500000
O O3 0.000000 0.500000 0.000000
O O4 0.076975 0.208492 0.997658
O O5 0.151791 0.266695 0.371870
O O6 0.140164 0.000000 0.089760
O O7 0.142755 0.267107 0.843550
O O8 0.572576 0.212121 0.456860
O O9 0.638879 0.258061 0.335207
O O10 0.590811 0.000000 0.144191
O O11 0.566157 0.285243 0.941412
O O12 0.938140 0.000000 0.661603
O O13 0.000000 0.167588 0.000000
O O14 0.710631 0.735960 0.752356
O O15 0.733720 0.000000 0.058579
O O16 0.781319 0.739216 0.174982
O O17 0.709577 0.737938 0.249482
O O18 0.500000 0.752442 0.500000
O O19 0.450344 0.500000 0.455872
O O20 0.829311 0.000000 0.325952
O O21 0.687163 0.000000 0.454330
#
# Coordination Sequence:
#
# PCOD8066966 Si02
#       8
#     2   4   4   4   4   4   4   4
#     4  10  22  38  56  80 108 138 182 228 266 332
#     4   9  17  28  43  67  99 133 175 219 260 315
#     4  11  22  37  59  87 118 150 192 245 293 346
#     4   9  19  36  57  80 111 149 184 230 288 335
#     4   9  15  25  42  66 103 143 172 208 273 333
#     4  11  24  41  59  81 115 156 197 242 291 347
#     4   9  16  26  42  67 101 138 173 216 262 318
#     4   9  17  28  45  73 108 141 172 220 279 332
#
# _framework density 22.036082
#
# number of rings (size 3 to 8) (size 9 to 14) (size 15 to 20)
#    0.000    2.400    0.000    2.800    0.000   10.400 
#    0.000    4.000    0.000    0.000    0.000    0.000 
#   40.000    0.000    0.000    0.000    0.000    0.000 
#
# Total GULP energy -371840.786996 kJ/mol
# GULP energy per Si atom -12394.692900 kJ/mol
# Density = 2.198593 g / cm^3
# Si number density = 22.036082 Si / 1000 Ang^3
#
#
#
# Elastic Constant Matrix: (Units=GPa)
#
#
# Indices 1 2 3 4 5 6 
#
# 1 175.0354 10.2518 49.4367 0.0000 -5.8912 0.0000
# 2 10.2518 66.0408 -9.5364 0.0000 -10.4426 0.0000
# 3 49.4367 -9.5364 121.6501 0.0000 -8.9460 0.0000
# 4 0.0000 0.0000 0.0000 9.8127 0.0000 -9.2329
# 5 -5.8912 -10.4426 -8.9460 0.0000 50.1877 0.0000
# 6 0.0000 0.0000 0.0000 -9.2329 0.0000 -4.6290
#
#
#
# Elastic Compliance Matrix: (Units=1/GPa)
#
#
# Indices 1 2 3 4 5 6 
#
# 1 0.006584 -0.001428 -0.002789 0.000000 -0.000021 0.000000
# 2 -0.001428 0.016237 0.002117 0.000000 0.003588 0.000000
# 3 -0.002789 0.002117 0.009655 0.000000 0.001834 0.000000
# 4 0.000000 0.000000 0.000000 0.035425 0.000000 -0.070658
# 5 -0.000021 0.003588 0.001834 0.000000 0.020996 0.000000
# 6 0.000000 0.000000 0.000000 -0.070658 0.000000 -0.075095
#
#
# Mechanical properties :
#
#
# Convention : Reuss Voigt Hill
#
# Bulk Modulus (GPa) = 35.36695 51.44785 43.40740
# Shear Modulus (GPa) = 182.30044 31.91255 107.10649
#
# Velocity S-wave (km/s) = 9.10537 3.80964 6.97930
# Velocity P-wave (km/s) = 11.25291 6.53827 9.20264
#
# Compressibility (1/GPa) = 0.02827499
#
# Stress axis : x y z
#
# Youngs Moduli (GPa) = 151.88789 61.58796 103.57774
#
# Poissons Ratio (x) = 0.08796 0.28889
# Poissons Ratio (y) = 0.21692 -0.21929
# Poissons Ratio (z) = 0.42363 -0.13039
#
# Static dielectric constant tensor:
#      x y z
#    x 4.193810 0.000000 -0.036780 
#    y 0.000000 4.428010 0.000000 
#    z -0.036780 0.000000 3.952980 
# 
# 
# High freq. dielectric constant tensor:
#      x y z
#    x 1.884200 0.000000 -0.004010 
#    y 0.000000 1.819310 0.000000 
#    z -0.004010 0.000000 1.864320 
# 
# From -- ./inp_files/13666.got.cif
#   From: 2010.06.25/outbox.cif.g09.slc.cpg/sg10_7_cif.got.tgz:13666.got - 2010.06.27 22:07:45.
