data_PCOD8066242
_publ_section_title
;
Structure prediction by ZEFSAII (Michael W. Deem and Ramdas Pophale) SiO2 
 PCOD8066242
Probable space group: P 2/M
;
_chemical_formula_sum "Si O2"
_cell_formula_units_Z 32
_cell_length_a 15.035297
_cell_length_b 17.543576
_cell_length_c 12.261473
_cell_angle_alpha 90.000000
_cell_angle_beta 28.805918
_cell_angle_gamma 90.000000
_cell_volume 1558.401657
_symmetry_space_group_name_H-M "P 2/M"
_symmetry_group_IT_number 10
_symmetry_cell_setting 'monoclinic'
loop_
_space_group_symop_operation_xyz
x,y,z
-x,y,-z
-x,-y,-z
x,-y,z
loop_
_atom_site_type_symbol
_atom_site_label
_atom_site_fract_x
_atom_site_fract_y
_atom_site_fract_z
Si Si1 0.043917 0.586032 0.830668
Si Si2 0.830136 0.087095 0.764271
Si Si3 0.891553 0.165248 0.922433
Si Si4 0.408072 0.230118 0.990997
Si Si5 0.226382 0.683072 0.017298
Si Si6 0.708276 0.209896 0.482476
Si Si7 0.576371 0.359488 0.535733
Si Si8 0.292408 0.084510 0.683546
O O1 0.969704 0.500000 0.896277
O O2 0.266200 0.585353 0.584635
O O3 0.955065 0.637660 0.829144
O O4 0.000000 0.617756 0.000000
O O5 0.883380 0.105239 0.832261
O O6 0.000000 0.097011 0.500000
O O7 0.755637 0.000000 0.839503
O O8 0.674773 0.146786 0.893115
O O9 0.743061 0.234075 0.074243
O O10 0.079187 0.214344 0.709691
O O11 0.854083 0.122508 0.075848
O O12 0.573104 0.220013 0.728231
O O13 0.500000 0.265013 0.000000
O O14 0.247803 0.290587 0.121965
O O15 0.402446 0.631123 0.801891
O O16 0.665099 0.274599 0.438494
O O17 0.697177 0.126350 0.442663
O O18 0.500000 0.383562 0.500000
O O19 0.500000 0.083512 0.500000
O O20 0.218453 0.000000 0.741191
#
# Coordination Sequence:
#
# PCOD8066242 Si02
#       8
#     4   4   4   4   4   4   4   4
#     4  11  23  37  59  94 129 166 201 236 301 377
#     4  10  21  37  57  83 119 162 209 268 329 375
#     4  11  21  36  58  81 115 160 210 257 307 376
#     4  10  22  40  62  90 116 157 217 266 319 369
#     4  10  21  38  60  86 121 162 201 251 304 357
#     4  11  22  35  58  83 113 155 208 258 310 367
#     4  11  20  34  57  84 122 161 199 241 295 363
#     4  11  23  36  50  76 114 157 203 253 308 371
#
# _framework density 20.533859
#
# number of rings (size 3 to 8) (size 9 to 14) (size 15 to 20)
#    0.000    1.375    2.500    4.875    0.000    4.000 
#    0.000    0.000    0.000    0.375    0.000    3.500 
#    0.000    0.000    0.000    0.000    0.000    0.000 
#
# Total GULP energy -396482.115930 kJ/mol
# GULP energy per Si atom -12390.066123 kJ/mol
# Density = 2.048712 g / cm^3
# Si number density = 20.533859 Si / 1000 Ang^3
#
#
#
# Elastic Constant Matrix: (Units=GPa)
#
#
# Indices 1 2 3 4 5 6 
#
# 1 138.1860 45.7835 23.6234 0.0000 -2.1479 0.0000
# 2 45.7835 87.8761 19.9597 0.0000 1.7871 0.0000
# 3 23.6234 19.9597 74.7440 0.0000 -1.1610 0.0000
# 4 0.0000 0.0000 0.0000 18.7777 0.0000 -5.0187
# 5 -2.1479 1.7871 -1.1610 0.0000 32.4574 0.0000
# 6 0.0000 0.0000 0.0000 -5.0187 0.0000 24.5519
#
#
#
# Elastic Compliance Matrix: (Units=1/GPa)
#
#
# Indices 1 2 3 4 5 6 
#
# 1 0.008960 -0.004305 -0.001671 0.000000 0.000770 0.000000
# 2 -0.004305 0.014202 -0.002450 0.000000 -0.001154 0.000000
# 3 -0.001671 -0.002450 0.014570 0.000000 0.000546 0.000000
# 4 0.000000 0.000000 0.000000 0.056332 0.000000 0.011515
# 5 0.000770 -0.001154 0.000546 0.000000 0.030944 0.000000
# 6 0.000000 0.000000 0.000000 0.011515 0.000000 0.043084
#
#
# Mechanical properties :
#
#
# Convention : Reuss Voigt Hill
#
# Bulk Modulus (GPa) = 47.88791 53.28215 50.58503
# Shear Modulus (GPa) = 26.05481 29.25336 27.65409
#
# Velocity S-wave (km/s) = 3.56599 3.77854 3.67380
# Velocity P-wave (km/s) = 6.35036 6.71127 6.53331
#
# Compressibility (1/GPa) = 0.02088210
#
# Stress axis : x y z
#
# Youngs Moduli (GPa) = 111.60261 70.41110 68.63551
#
# Poissons Ratio (x) = 0.30309 0.11466
# Poissons Ratio (y) = 0.48040 0.16816
# Poissons Ratio (z) = 0.18644 0.17251
#
# Static dielectric constant tensor:
#      x y z
#    x 4.671360 0.000000 -0.874940 
#    y 0.000000 3.669820 0.000000 
#    z -0.874940 0.000000 4.147170 
# 
# 
# High freq. dielectric constant tensor:
#      x y z
#    x 1.799470 0.000000 -0.025480 
#    y 0.000000 1.789890 0.000000 
#    z -0.025480 0.000000 1.795540 
# 
# From -- ./inp_files/51954.got.cif
#   From: 2010.06.25/outbox.cif.g09.slc.cpg/sg10_26_cif.got.tgz:51954.got - 2010.06.27 22:07:45.
