data_PCOD8066829
_publ_section_title
;
Structure prediction by ZEFSAII (Michael W. Deem and Ramdas Pophale) SiO2 
 PCOD8066829
Probable space group: P 2/M
;
_chemical_formula_sum "Si O2"
_cell_formula_units_Z 32
_cell_length_a 11.394914
_cell_length_b 13.880628
_cell_length_c 17.742577
_cell_angle_alpha 90.000000
_cell_angle_beta 149.134936
_cell_angle_gamma 90.000000
_cell_volume 1439.691463
_symmetry_space_group_name_H-M "P 2/M"
_symmetry_group_IT_number 10
_symmetry_cell_setting 'monoclinic'
loop_
_space_group_symop_operation_xyz
x,y,z
-x,y,-z
-x,-y,-z
x,-y,z
loop_
_atom_site_type_symbol
_atom_site_label
_atom_site_fract_x
_atom_site_fract_y
_atom_site_fract_z
Si Si1 0.082777 0.658239 0.366978
Si Si2 0.551868 0.894689 0.105043
Si Si3 0.101744 0.108416 0.953126
Si Si4 0.816384 0.243804 0.343317
Si Si5 0.329219 0.291589 0.123061
Si Si6 0.258243 0.216541 0.342126
Si Si7 0.596787 0.390418 0.682897
Si Si8 0.304955 0.393749 0.949433
O O1 0.126452 0.759468 0.347291
O O2 0.320602 0.610580 0.524650
O O3 0.927268 0.670434 0.355704
O O4 0.934718 0.595137 0.226883
O O5 0.758461 0.844757 0.259369
O O6 0.646709 0.000000 0.138199
O O7 0.500000 0.836534 0.000000
O O8 0.316888 0.898442 0.018703
O O9 0.876167 0.139903 0.783024
O O10 0.059772 0.000000 0.965070
O O11 0.180470 0.192675 0.056011
O O12 0.600428 0.276609 0.272839
O O13 0.000000 0.199750 0.500000
O O14 0.295391 0.362004 0.175655
O O15 0.266367 0.330892 0.004436
O O16 0.500000 0.169684 0.500000
O O17 0.297990 0.318102 0.320379
O O18 0.677765 0.500000 0.711161
O O19 0.384148 0.500000 0.019162
O O20 0.500000 0.350117 0.000000
#
# Coordination Sequence:
#
# PCOD8066829 Si02
#       8
#     4   4   4   4   4   4   4   4
#     4  11  21  40  62  89 126 167 203 253 307 366
#     4   9  19  34  60  94 124 159 205 253 311 375
#     4  10  21  40  65  90 122 163 205 255 317 374
#     4  11  21  35  60  90 127 170 199 248 311 367
#     4  11  22  41  63  94 130 161 203 260 311 373
#     4  10  23  41  65  91 121 163 213 261 310 366
#     4  11  25  44  64  88 125 166 212 259 314 374
#     4  11  22  35  59  93 126 164 207 251 308 374
#
# _framework density 22.226984999999999
#
# number of rings (size 3 to 8) (size 9 to 14) (size 15 to 20)
#    0.000    1.500    3.750    1.500    1.750    3.750 
#    0.000    2.500    0.000    1.500    0.000    0.000 
#    0.000    0.000    0.000    0.000    0.000    0.000 
#
# Total GULP energy -396418.566739 kJ/mol
# GULP energy per Si atom -12388.080211 kJ/mol
# Density = 2.217640 g / cm^3
# Si number density = 22.226985 Si / 1000 Ang^3
#
#
#
# Elastic Constant Matrix: (Units=GPa)
#
#
# Indices 1 2 3 4 5 6 
#
# 1 45.9553 10.0183 17.1757 0.0000 -13.2001 0.0000
# 2 10.0183 114.8307 51.4453 0.0000 -3.9817 0.0000
# 3 17.1757 51.4453 142.5357 0.0000 -19.2322 0.0000
# 4 0.0000 0.0000 0.0000 40.5632 0.0000 7.6653
# 5 -13.2001 -3.9817 -19.2322 0.0000 32.9474 0.0000
# 6 0.0000 0.0000 0.0000 7.6653 0.0000 18.9336
#
#
#
# Elastic Compliance Matrix: (Units=1/GPa)
#
#
# Indices 1 2 3 4 5 6 
#
# 1 0.025166 -0.001280 -0.001336 0.000000 0.009148 0.000000
# 2 -0.001280 0.010485 -0.003830 0.000000 -0.001481 0.000000
# 3 -0.001336 -0.003830 0.009145 0.000000 0.004340 0.000000
# 4 0.000000 0.000000 0.000000 0.026695 0.000000 -0.010808
# 5 0.009148 -0.001481 0.004340 0.000000 0.036371 0.000000
# 6 0.000000 0.000000 0.000000 -0.010808 0.000000 0.057192
#
#
# Mechanical properties :
#
#
# Convention : Reuss Voigt Hill
#
# Bulk Modulus (GPa) = 31.34426 51.17781 41.26103
# Shear Modulus (GPa) = 26.51400 33.46765 29.99083
#
# Velocity S-wave (km/s) = 3.45755 3.88457 3.67726
# Velocity P-wave (km/s) = 5.48380 6.57229 6.05256
#
# Compressibility (1/GPa) = 0.03190377
#
# Stress axis : x y z
#
# Youngs Moduli (GPa) = 39.73560 95.37821 109.35320
#
# Poissons Ratio (x) = 0.12206 0.14613
# Poissons Ratio (y) = 0.05085 0.41881
# Poissons Ratio (z) = 0.05310 0.36528
#
# Static dielectric constant tensor:
#      x y z
#    x 3.909380 0.000000 -0.023650 
#    y 0.000000 4.833790 0.000000 
#    z -0.023650 0.000000 4.193790 
# 
# 
# High freq. dielectric constant tensor:
#      x y z
#    x 1.877060 0.000000 0.002400 
#    y 0.000000 1.855530 0.000000 
#    z 0.002400 0.000000 1.888640 
# 
# From -- ./inp_files/77067.got.cif
#   From: 2010.06.25/outbox.cif.g09.slc.cpg/sg10_39_cif.got.tgz:77067.got - 2010.06.27 22:07:45.
