data_PCOD8066806
_publ_section_title
;
Structure prediction by ZEFSAII (Michael W. Deem and Ramdas Pophale) SiO2 
 PCOD8066806
Probable space group: P 2/M
;
_chemical_formula_sum "Si O2"
_cell_formula_units_Z 24
_cell_length_a 11.841070
_cell_length_b 8.610287
_cell_length_c 11.916245
_cell_angle_alpha 90.000000
_cell_angle_beta 90.467812
_cell_angle_gamma 90.000000
_cell_volume 1214.880395
_symmetry_space_group_name_H-M "P 2/M"
_symmetry_group_IT_number 10
_symmetry_cell_setting 'monoclinic'
loop_
_space_group_symop_operation_xyz
x,y,z
-x,y,-z
-x,-y,-z
x,-y,z
loop_
_atom_site_type_symbol
_atom_site_label
_atom_site_fract_x
_atom_site_fract_y
_atom_site_fract_z
Si Si1 0.678793 0.321164 0.468823
Si Si2 0.404306 0.179954 0.087380
Si Si3 0.833471 0.318251 0.967507
Si Si4 0.968881 0.184089 0.166146
Si Si5 0.911819 0.818015 0.411101
Si Si6 0.534075 0.679437 0.681343
O O1 0.714201 0.500000 0.458398
O O2 0.785657 0.214297 0.449353
O O3 0.585675 0.279622 0.375020
O O4 0.632272 0.286059 0.592457
O O5 0.295188 0.283305 0.062971
O O6 0.449955 0.210857 0.212203
O O7 0.372252 0.000000 0.074625
O O8 0.500000 0.229112 0.000000
O O9 0.849975 0.500000 0.986592
O O10 0.912993 0.262662 0.866602
O O11 0.868456 0.229996 0.081168
O O12 0.935664 0.250238 0.287850
O O13 0.984682 0.000000 0.164048
O O14 0.000000 0.742970 0.500000
O O15 0.930760 0.000000 0.406034
O O16 0.537899 0.500000 0.718636
#
# Coordination Sequence:
#
# PCOD8066806 Si02
#       6
#     4   4   4   4   4   4
#     4   9  20  39  62  88 120 155 193 242 295 349
#     4  11  25  41  60  88 121 156 198 244 296 352
#     4  11  23  40  63  89 118 154 201 246 297 355
#     4  10  21  40  63  87 122 159 197 244 295 349
#     4  10  23  39  58  88 122 156 197 242 288 344
#     4   9  20  40  62  88 120 154 194 242 297 349
#
# _framework density 19.755032
#
# number of rings (size 3 to 8) (size 9 to 14) (size 15 to 20)
#    0.000    2.000    0.000    4.500    4.667    4.333 
#    0.000    1.667    0.000    0.000    0.000    0.000 
#    0.000    0.000    0.000    0.000    0.000    0.000 
#
# Total GULP energy -297691.442607 kJ/mol
# GULP energy per Si atom -12403.810109 kJ/mol
# Density = 1.971007 g / cm^3
# Si number density = 19.755032 Si / 1000 Ang^3
#
#
#
# Elastic Constant Matrix: (Units=GPa)
#
#
# Indices 1 2 3 4 5 6 
#
# 1 118.1080 21.7945 58.4115 0.0000 -4.5394 0.0000
# 2 21.7945 45.0453 18.8387 0.0000 -4.4340 0.0000
# 3 58.4115 18.8387 136.3207 0.0000 -5.8645 0.0000
# 4 0.0000 0.0000 0.0000 21.6818 0.0000 3.0615
# 5 -4.5394 -4.4340 -5.8645 0.0000 21.9980 0.0000
# 6 0.0000 0.0000 0.0000 3.0615 0.0000 30.8106
#
#
#
# Elastic Compliance Matrix: (Units=1/GPa)
#
#
# Indices 1 2 3 4 5 6 
#
# 1 0.011286 -0.003610 -0.004317 0.000000 0.000450 0.000000
# 2 -0.003610 0.025057 -0.001751 0.000000 0.003839 0.000000
# 3 -0.004317 -0.001751 0.009483 0.000000 0.001284 0.000000
# 4 0.000000 0.000000 0.000000 0.046778 0.000000 -0.004648
# 5 0.000450 0.003839 0.001284 0.000000 0.046668 0.000000
# 6 0.000000 0.000000 0.000000 -0.004648 0.000000 0.032918
#
#
# Mechanical properties :
#
#
# Convention : Reuss Voigt Hill
#
# Bulk Modulus (GPa) = 37.78104 55.28482 46.53293
# Shear Modulus (GPa) = 24.95403 28.26003 26.60703
#
# Velocity S-wave (km/s) = 3.55797 3.78633 3.67392
# Velocity P-wave (km/s) = 6.00376 6.86739 6.45004
#
# Compressibility (1/GPa) = 0.02646830
#
# Stress axis : x y z
#
# Youngs Moduli (GPa) = 88.60863 39.90947 105.45464
#
# Poissons Ratio (x) = 0.14409 0.45529
# Poissons Ratio (y) = 0.31992 0.18460
# Poissons Ratio (z) = 0.38256 0.06986
#
# Static dielectric constant tensor:
#      x y z
#    x 3.523670 0.000000 -0.007910 
#    y 0.000000 3.445410 0.000000 
#    z -0.007910 0.000000 3.815050 
# 
# 
# High freq. dielectric constant tensor:
#      x y z
#    x 1.775620 0.000000 -0.000240 
#    y 0.000000 1.765190 0.000000 
#    z -0.000240 0.000000 1.780520 
# 
# From -- ./inp_files/45173.got.cif
#   From: 2010.06.25/outbox.cif.g09.slc.cpg/sg10_23_cif.got.tgz:45173.got - 2010.06.27 22:07:45.
