data_PCOD8066969
_publ_section_title
;
Structure prediction by ZEFSAII (Michael W. Deem and Ramdas Pophale) SiO2 
 PCOD8066969
Probable space group: P 2/M
;
_chemical_formula_sum "Si O2"
_cell_formula_units_Z 24
_cell_length_a 14.383974
_cell_length_b 9.145214
_cell_length_c 18.706952
_cell_angle_alpha 90.000000
_cell_angle_beta 149.216005
_cell_angle_gamma 90.000000
_cell_volume 1259.443063
_symmetry_space_group_name_H-M "P 2/M"
_symmetry_group_IT_number 10
_symmetry_cell_setting 'monoclinic'
loop_
_space_group_symop_operation_xyz
x,y,z
-x,y,-z
-x,-y,-z
x,-y,z
loop_
_atom_site_type_symbol
_atom_site_label
_atom_site_fract_x
_atom_site_fract_y
_atom_site_fract_z
Si Si1 0.474341 0.168860 0.597971
Si Si2 0.812292 0.331289 0.335783
Si Si3 0.290108 0.172308 0.869697
Si Si4 0.793960 0.169989 0.704635
Si Si5 0.841515 0.671063 0.075742
Si Si6 0.508759 0.669615 0.243618
O O1 0.656264 0.215691 0.676450
O O2 0.299224 0.200335 0.433316
O O3 0.453243 0.256958 0.656145
O O4 0.485475 0.000000 0.625309
O O5 0.777614 0.500000 0.292001
O O6 0.821204 0.235248 0.270460
O O7 0.650308 0.270194 0.278490
O O8 0.000000 0.310176 0.500000
O O9 0.210299 0.242915 0.887705
O O10 0.260470 0.000000 0.854390
O O11 0.500000 0.215786 0.000000
O O12 0.968557 0.271418 0.829128
O O13 0.848276 0.000000 0.746924
O O14 0.853469 0.500000 0.101601
O O15 0.694224 0.702686 0.916989
O O16 0.545665 0.500000 0.279394
#
# Coordination Sequence:
#
# PCOD8066969 Si02
#       6
#     4   4   4   4   4   4
#     4   9  20  39  62  84 115 152 186 235 291 339
#     4  10  22  40  60  84 117 156 194 234 282 338
#     4  11  23  39  60  86 116 152 193 237 282 338
#     4   9  20  40  61  86 115 148 191 235 285 344
#     4  11  23  38  59  85 116 155 191 233 288 340
#     4  10  22  38  56  84 119 151 191 238 282 337
#
# _framework density 19.056041
#
# number of rings (size 3 to 8) (size 9 to 14) (size 15 to 20)
#    0.000    2.000    1.667    2.000    2.333    5.000 
#    0.000    5.000    0.000    0.000    0.000    0.000 
#    0.000    0.000    0.000    0.000    0.000    0.000 
#
# Total GULP energy -297700.971124 kJ/mol
# GULP energy per Si atom -12404.207130 kJ/mol
# Density = 1.901267 g / cm^3
# Si number density = 19.056041 Si / 1000 Ang^3
#
#
#
# Elastic Constant Matrix: (Units=GPa)
#
#
# Indices 1 2 3 4 5 6 
#
# 1 43.5590 18.4578 7.6466 0.0000 -3.4302 0.0000
# 2 18.4578 57.5552 29.9030 0.0000 -1.3185 0.0000
# 3 7.6466 29.9030 62.5889 0.0000 6.8023 0.0000
# 4 0.0000 0.0000 0.0000 34.5094 0.0000 -0.2899
# 5 -3.4302 -1.3185 6.8023 0.0000 39.5172 0.0000
# 6 0.0000 0.0000 0.0000 -0.2899 0.0000 38.6898
#
#
#
# Elastic Compliance Matrix: (Units=1/GPa)
#
#
# Indices 1 2 3 4 5 6 
#
# 1 0.026760 -0.008957 0.000805 0.000000 0.001885 0.000000
# 2 -0.008957 0.026401 -0.011750 0.000000 0.002126 0.000000
# 3 0.000805 -0.011750 0.021938 0.000000 -0.004099 0.000000
# 4 0.000000 0.000000 0.000000 0.028979 0.000000 0.000217
# 5 0.001885 0.002126 -0.004099 0.000000 0.026246 0.000000
# 6 0.000000 0.000000 0.000000 0.000217 0.000000 0.025848
#
#
# Mechanical properties :
#
#
# Convention : Reuss Voigt Hill
#
# Bulk Modulus (GPa) = 28.33278 30.63532 29.48405
# Shear Modulus (GPa) = 24.06845 29.72298 26.89572
#
# Velocity S-wave (km/s) = 3.55778 3.95367 3.76094
# Velocity P-wave (km/s) = 5.63715 6.07893 5.86220
#
# Compressibility (1/GPa) = 0.03529481
#
# Stress axis : x y z
#
# Youngs Moduli (GPa) = 37.36927 37.87795 45.58265
#
# Poissons Ratio (x) = 0.33927 -0.03670
# Poissons Ratio (y) = 0.33471 0.53560
# Poissons Ratio (z) = -0.03009 0.44507
#
# Static dielectric constant tensor:
#      x y z
#    x 3.513980 0.000000 0.120980 
#    y 0.000000 3.420340 0.000000 
#    z 0.120980 0.000000 3.536690 
# 
# 
# High freq. dielectric constant tensor:
#      x y z
#    x 1.747120 0.000000 0.002620 
#    y 0.000000 1.737890 0.000000 
#    z 0.002620 0.000000 1.748350 
# 
# From -- ./inp_files/27299.got.cif
#   From: 2010.06.25/outbox.cif.g09.slc.cpg/sg10_14_cif.got.tgz:27299.got - 2010.06.27 22:07:45.
