data_PCOD8066296
_publ_section_title
;
Structure prediction by ZEFSAII (Michael W. Deem and Ramdas Pophale) SiO2 
 PCOD8066296
Probable space group: P 2/M
;
_chemical_formula_sum "Si O2"
_cell_formula_units_Z 32
_cell_length_a 24.781225
_cell_length_b 9.335271
_cell_length_c 15.190929
_cell_angle_alpha 90.000000
_cell_angle_beta 27.495592
_cell_angle_gamma 90.000000
_cell_volume 1622.465402
_symmetry_space_group_name_H-M "P 2/M"
_symmetry_group_IT_number 10
_symmetry_cell_setting 'monoclinic'
loop_
_space_group_symop_operation_xyz
x,y,z
-x,y,-z
-x,-y,-z
x,-y,z
loop_
_atom_site_type_symbol
_atom_site_label
_atom_site_fract_x
_atom_site_fract_y
_atom_site_fract_z
Si Si1 0.013064 0.336478 0.883454
Si Si2 0.384216 0.833558 0.620134
Si Si3 0.131767 0.836052 0.048933
Si Si4 0.889008 0.165773 0.721173
Si Si5 0.275241 0.663023 0.442599
Si Si6 0.671119 0.666206 0.964759
Si Si7 0.370182 0.835869 0.152192
Si Si8 0.423144 0.664003 0.393883
O O1 0.969749 0.500000 0.946695
O O2 0.146906 0.322692 0.665481
O O3 0.934006 0.256915 0.927435
O O4 0.000000 0.269572 0.000000
O O5 0.500000 0.771514 0.500000
O O6 0.366826 0.756145 0.552567
O O7 0.401574 0.000000 0.574694
O O8 0.270912 0.804271 0.844550
O O9 0.082914 0.801234 0.217209
O O10 0.107343 0.000000 0.059981
O O11 0.784686 0.268259 0.844677
O O12 0.000000 0.202591 0.500000
O O13 0.851639 0.000000 0.763527
O O14 0.303919 0.500000 0.372265
O O15 0.282066 0.767436 0.349684
O O16 0.366943 0.715400 0.383442
O O17 0.693236 0.500000 0.910670
O O18 0.640591 0.749314 0.921091
O O19 0.562815 0.684544 0.188279
O O20 0.333636 0.000000 0.188836
O O21 0.500000 0.821542 0.000000
O O22 0.388165 0.500000 0.461858
#
# Coordination Sequence:
#
# PCOD8066296 Si02
#       8
#     4   4   4   4   4   4   4   4
#     4  10  22  40  63  89 121 163 204 246 298 358
#     4  10  21  37  59  85 115 152 194 241 296 358
#     4  10  22  40  61  88 123 160 199 251 308 356
#     4  10  23  43  64  87 120 162 206 254 303 359
#     4  10  21  38  59  85 119 157 197 242 298 355
#     4  11  23  39  62  89 121 157 198 251 306 359
#     4  11  23  38  59  89 122 160 201 245 300 362
#     4  10  21  37  59  87 118 152 190 241 298 356
#
# _framework density 19.723071000000001
#
# number of rings (size 3 to 8) (size 9 to 14) (size 15 to 20)
#    0.000    1.750    1.250    2.250    1.750    6.250 
#    0.000    0.000    0.000    0.000    0.000    0.000 
#    0.000    0.000    0.000    0.000    0.000    0.000 
#
# Total GULP energy -396921.220453 kJ/mol
# GULP energy per Si atom -12403.788139 kJ/mol
# Density = 1.967818 g / cm^3
# Si number density = 19.723071 Si / 1000 Ang^3
#
#
#
# Elastic Constant Matrix: (Units=GPa)
#
#
# Indices 1 2 3 4 5 6 
#
# 1 105.9124 56.5004 45.9782 0.0000 5.7603 0.0000
# 2 56.5004 89.7512 42.2316 0.0000 5.1982 0.0000
# 3 45.9782 42.2316 95.8113 0.0000 10.8578 0.0000
# 4 0.0000 0.0000 0.0000 5.6030 0.0000 16.0305
# 5 5.7603 5.1982 10.8578 0.0000 38.9131 0.0000
# 6 0.0000 0.0000 0.0000 16.0305 0.0000 32.6367
#
#
#
# Elastic Compliance Matrix: (Units=1/GPa)
#
#
# Indices 1 2 3 4 5 6 
#
# 1 0.015293 -0.007789 -0.003890 0.000000 -0.000138 0.000000
# 2 -0.007789 0.018025 -0.004198 0.000000 -0.000084 0.000000
# 3 -0.003890 -0.004198 0.014484 0.000000 -0.002905 0.000000
# 4 0.000000 0.000000 0.000000 -0.440365 0.000000 0.216298
# 5 -0.000138 -0.000084 -0.002905 0.000000 0.026540 0.000000
# 6 0.000000 0.000000 0.000000 0.216298 0.000000 -0.075601
#
#
# Mechanical properties :
#
#
# Convention : Reuss Voigt Hill
#
# Bulk Modulus (GPa) = 62.31284 64.54393 63.42838
# Shear Modulus (GPa) = -12.36034 25.21485 6.42726
#
# Velocity S-wave (km/s) = -2.50610 3.57941 1.80716
# Velocity P-wave (km/s) = 4.82581 7.06251 6.04845
#
# Compressibility (1/GPa) = 0.01604806
#
# Stress axis : x y z
#
# Youngs Moduli (GPa) = 65.38881 55.47739 69.04401
#
# Poissons Ratio (x) = 0.43211 0.26859
# Poissons Ratio (y) = 0.50931 0.28984
# Poissons Ratio (z) = 0.25437 0.23289
#
# Static dielectric constant tensor:
#      x y z
#    x 3.537710 0.000000 -0.032820 
#    y 0.000000 3.636430 0.000000 
#    z -0.032820 0.000000 3.700800 
# 
# 
# High freq. dielectric constant tensor:
#      x y z
#    x 1.772680 0.000000 0.003270 
#    y 0.000000 1.765020 0.000000 
#    z 0.003270 0.000000 1.779720 
# 
# From -- ./inp_files/71430.got.cif
#   From: 2010.06.25/outbox.cif.g09.slc.cpg/sg10_36_cif.got.tgz:71430.got - 2010.06.27 22:07:45.
