data_PCOD8066698
_publ_section_title
;
Structure prediction by ZEFSAII (Michael W. Deem and Ramdas Pophale) SiO2 
 PCOD8066698
Probable space group: P 2/M
;
_chemical_formula_sum "Si O2"
_cell_formula_units_Z 28
_cell_length_a 14.431926
_cell_length_b 8.912471
_cell_length_c 12.461443
_cell_angle_alpha 90.000000
_cell_angle_beta 61.040407
_cell_angle_gamma 90.000000
_cell_volume 1402.425015
_symmetry_space_group_name_H-M "P 2/M"
_symmetry_group_IT_number 10
_symmetry_cell_setting 'monoclinic'
loop_
_space_group_symop_operation_xyz
x,y,z
-x,y,-z
-x,-y,-z
x,-y,z
loop_
_atom_site_type_symbol
_atom_site_label
_atom_site_fract_x
_atom_site_fract_y
_atom_site_fract_z
Si Si1 0.115732 0.678038 0.460272
Si Si2 0.705408 0.823123 0.038016
Si Si3 0.117001 0.173230 0.891787
Si Si4 0.801044 0.676827 0.357377
Si Si5 0.485449 0.674704 0.218267
Si Si6 0.404935 0.831272 0.471723
Si Si7 0.285286 0.675367 0.193164
O O1 0.114200 0.500000 0.454885
O O2 0.145683 0.731483 0.562197
O O3 0.201839 0.739372 0.327044
O O4 0.000000 0.745149 0.500000
O O5 0.797051 0.773263 0.068796
O O6 0.592966 0.764183 0.141583
O O7 0.697894 0.000000 0.033379
O O8 0.735566 0.759108 0.905661
O O9 0.125015 0.275376 0.782124
O O10 0.136135 0.000000 0.850708
O O11 0.000000 0.200470 0.000000
O O12 0.781573 0.500000 0.366914
O O13 0.690750 0.762710 0.406524
O O14 0.512908 0.500000 0.211611
O O15 0.427566 0.725248 0.358598
O O16 0.405225 0.705341 0.165060
O O17 0.500000 0.833578 0.500000
O O18 0.379697 0.000000 0.445861
O O19 0.266768 0.500000 0.184298
#
# Coordination Sequence:
#
# PCOD8066698 Si02
#       7
#     4   4   4   4   4   4   4
#     4   9  19  37  61  90 123 156 191 244 305 356
#     4  11  24  40  60  88 121 159 205 248 297 359
#     4  10  24  45  63  83 121 165 201 247 304 356
#     4  11  22  39  64  94 121 152 201 251 298 354
#     4  11  22  39  61  89 122 157 199 246 301 357
#     4  11  23  38  59  87 122 163 200 240 297 357
#     4  10  21  39  62  89 123 159 196 243 303 358
#
# _framework density 19.965416999999999
#
# number of rings (size 3 to 8) (size 9 to 14) (size 15 to 20)
#    0.000    1.571    1.429    3.000    2.000    8.857 
#    0.000    0.000    0.000    2.143    0.000    0.000 
#    0.000    0.000    0.000    0.000    0.000    0.000 
#
# Total GULP energy -347327.031128 kJ/mol
# GULP energy per Si atom -12404.536826 kJ/mol
# Density = 1.991998 g / cm^3
# Si number density = 19.965417 Si / 1000 Ang^3
#
#
#
# Elastic Constant Matrix: (Units=GPa)
#
#
# Indices 1 2 3 4 5 6 
#
# 1 114.1925 46.8775 56.6712 0.0000 -14.5309 0.0000
# 2 46.8775 52.8637 36.6070 0.0000 5.1129 0.0000
# 3 56.6712 36.6070 124.5032 0.0000 4.4700 0.0000
# 4 0.0000 0.0000 0.0000 72.6226 0.0000 -19.6041
# 5 -14.5309 5.1129 4.4700 0.0000 32.7696 0.0000
# 6 0.0000 0.0000 0.0000 -19.6041 0.0000 34.1276
#
#
#
# Elastic Compliance Matrix: (Units=1/GPa)
#
#
# Indices 1 2 3 4 5 6 
#
# 1 0.018123 -0.013984 -0.004527 0.000000 0.010836 0.000000
# 2 -0.013984 0.034796 -0.003465 0.000000 -0.011158 0.000000
# 3 -0.004527 -0.003465 0.011219 0.000000 -0.002997 0.000000
# 4 0.000000 0.000000 0.000000 0.016297 0.000000 0.009362
# 5 0.010836 -0.011158 -0.002997 0.000000 0.037471 0.000000
# 6 0.000000 0.000000 0.000000 0.009362 0.000000 0.034679
#
#
# Mechanical properties :
#
#
# Convention : Reuss Voigt Hill
#
# Bulk Modulus (GPa) = 49.53908 63.54120 56.54014
# Shear Modulus (GPa) = 24.59845 37.99755 31.29800
#
# Velocity S-wave (km/s) = 3.51387 4.36726 3.96360
# Velocity P-wave (km/s) = 6.42879 7.57135 7.02334
#
# Compressibility (1/GPa) = 0.02018608
#
# Stress axis : x y z
#
# Youngs Moduli (GPa) = 55.17797 28.73903 89.13724
#
# Poissons Ratio (x) = 0.40190 0.40348
# Poissons Ratio (y) = 0.77163 0.30885
# Poissons Ratio (z) = 0.24977 0.09958
#
# Static dielectric constant tensor:
#      x y z
#    x 3.879310 0.000000 0.142470 
#    y 0.000000 3.557460 0.000000 
#    z 0.142470 0.000000 4.112130 
# 
# 
# High freq. dielectric constant tensor:
#      x y z
#    x 1.789800 0.000000 -0.001050 
#    y 0.000000 1.768900 0.000000 
#    z -0.001050 0.000000 1.791500 
# 
# From -- ./inp_files/49542.got.cif
#   From: 2010.06.25/outbox.cif.g09.slc.cpg/sg10_25_cif.got.tgz:49542.got - 2010.06.27 22:07:45.
