data_PCOD8066588
_publ_section_title
;
Structure prediction by ZEFSAII (Michael W. Deem and Ramdas Pophale) SiO2 
 PCOD8066588
Probable space group: P 2/M
;
_chemical_formula_sum "Si O2"
_cell_formula_units_Z 28
_cell_length_a 5.277880
_cell_length_b 30.056709
_cell_length_c 9.016909
_cell_angle_alpha 90.000000
_cell_angle_beta 107.898049
_cell_angle_gamma 90.000000
_cell_volume 1361.179127
_symmetry_space_group_name_H-M "P 2/M"
_symmetry_group_IT_number 10
_symmetry_cell_setting 'monoclinic'
loop_
_space_group_symop_operation_xyz
x,y,z
-x,y,-z
-x,-y,-z
x,-y,z
loop_
_atom_site_type_symbol
_atom_site_label
_atom_site_fract_x
_atom_site_fract_y
_atom_site_fract_z
Si Si1 0.304101 0.162387 0.102718
Si Si2 0.695028 0.000000 0.396615
Si Si3 0.091385 0.316301 0.184023
Si Si4 0.716935 0.771922 0.653702
Si Si5 0.000000 0.158723 0.500000
Si Si6 0.407298 0.368619 0.816899
Si Si7 0.436604 0.094568 0.661584
Si Si8 0.699453 0.449357 0.401250
O O1 0.401050 0.204599 0.220010
O O2 0.326447 0.115736 0.197982
O O3 0.500000 0.161033 0.000000
O O4 0.000000 0.168988 0.000000
O O5 0.500000 0.000000 0.500000
O O6 0.636191 0.044982 0.291722
O O7 0.000000 0.000000 0.500000
O O8 0.098077 0.269110 0.267503
O O9 0.380932 0.339520 0.238298
O O10 0.880752 0.345362 0.238609
O O11 0.000000 0.308472 0.000000
O O12 0.500000 0.753117 0.500000
O O13 0.870349 0.811173 0.600951
O O14 0.190605 0.128014 0.633258
O O15 0.387734 0.417744 0.747552
O O16 0.500000 0.375047 0.000000
O O17 0.500000 0.091779 0.500000
O O18 0.500000 0.440828 0.500000
O O19 0.677879 0.500000 0.340235
O O20 0.000000 0.437868 0.500000
#
# Coordination Sequence:
#
# PCOD8066588 Si02
#       8
#     4   2   4   4   2   4   4   4
#     4  12  26  42  65  93 129 171 207 256 323 375
#     4  10  22  36  68  98 120 162 205 254 313 370
#     4  10  24  42  61  88 127 165 203 256 313 370
#     4  12  26  41  64  95 122 165 218 266 307 375
#     4  12  20  41  68  90 132 150 215 266 312 354
#     4  10  22  42  63  87 124 168 208 249 306 373
#     4  11  22  42  66  95 127 163 209 262 308 374
#     4  10  21  38  62  93 126 159 204 261 314 361
#
# _framework density 20.570398999999998
#
# number of rings (size 3 to 8) (size 9 to 14) (size 15 to 20)
#    0.000    1.143    3.571    2.143    2.000    3.714 
#    0.000    0.714    0.000    5.143    0.000    0.000 
#    0.000    0.000    0.000    0.000    0.000    0.000 
#
# Total GULP energy -347180.402913 kJ/mol
# GULP energy per Si atom -12399.300104 kJ/mol
# Density = 2.052358 g / cm^3
# Si number density = 20.570399 Si / 1000 Ang^3
#
#
#
# Elastic Constant Matrix: (Units=GPa)
#
#
# Indices 1 2 3 4 5 6 
#
# 1 128.6907 40.4495 30.5062 0.0000 3.0323 0.0000
# 2 40.4495 156.4970 53.5039 0.0000 -0.1087 0.0000
# 3 30.5062 53.5039 73.9414 0.0000 0.1840 0.0000
# 4 0.0000 0.0000 0.0000 18.5786 0.0000 4.3233
# 5 3.0323 -0.1087 0.1840 0.0000 24.3691 0.0000
# 6 0.0000 0.0000 0.0000 4.3233 0.0000 61.9176
#
#
#
# Elastic Compliance Matrix: (Units=1/GPa)
#
#
# Indices 1 2 3 4 5 6 
#
# 1 0.008860 -0.001384 -0.002651 0.000000 -0.001089 0.000000
# 2 -0.001384 0.008707 -0.005730 0.000000 0.000254 0.000000
# 3 -0.002651 -0.005730 0.018763 0.000000 0.000163 0.000000
# 4 0.000000 0.000000 0.000000 0.054714 0.000000 -0.003820
# 5 -0.001089 0.000254 0.000163 0.000000 0.041171 0.000000
# 6 0.000000 0.000000 0.000000 -0.003820 0.000000 0.016417
#
#
# Mechanical properties :
#
#
# Convention : Reuss Voigt Hill
#
# Bulk Modulus (GPa) = 59.52325 67.56091 63.54208
# Shear Modulus (GPa) = 28.77492 36.61770 32.69631
#
# Velocity S-wave (km/s) = 3.74418 4.22372 3.99116
# Velocity P-wave (km/s) = 6.90587 7.53004 7.22470
#
# Compressibility (1/GPa) = 0.01680016
#
# Stress axis : x y z
#
# Youngs Moduli (GPa) = 112.87007 114.85280 53.29514
#
# Poissons Ratio (x) = 0.15901 0.14127
# Poissons Ratio (y) = 0.15626 0.30536
# Poissons Ratio (z) = 0.29919 0.65807
#
# Static dielectric constant tensor:
#      x y z
#    x 3.646530 0.000000 0.328180 
#    y 0.000000 4.024410 0.000000 
#    z 0.328180 0.000000 3.576960 
# 
# 
# High freq. dielectric constant tensor:
#      x y z
#    x 1.814310 0.000000 0.003790 
#    y 0.000000 1.815360 0.000000 
#    z 0.003790 0.000000 1.791600 
# 
# From -- ./inp_files/15925.got.cif
#   From: 2010.06.25/outbox.cif.g09.slc.cpg/sg10_8_cif.got.tgz:15925.got - 2010.06.27 22:07:45.
