data_PCOD8066987
_publ_section_title
;
Structure prediction by ZEFSAII (Michael W. Deem and Ramdas Pophale) SiO2 
 PCOD8066987
Probable space group: P 2/M
;
_chemical_formula_sum "Si O2"
_cell_formula_units_Z 20
_cell_length_a 8.480554
_cell_length_b 23.719250
_cell_length_c 9.522450
_cell_angle_alpha 90.000000
_cell_angle_beta 29.666090
_cell_angle_gamma 90.000000
_cell_volume 948.048098
_symmetry_space_group_name_H-M "P 2/M"
_symmetry_group_IT_number 10
_symmetry_cell_setting 'monoclinic'
loop_
_space_group_symop_operation_xyz
x,y,z
-x,y,-z
-x,-y,-z
x,-y,z
loop_
_atom_site_type_symbol
_atom_site_label
_atom_site_fract_x
_atom_site_fract_y
_atom_site_fract_z
Si Si1 0.500000 0.702142 0.000000
Si Si2 0.020522 0.563773 0.143609
Si Si3 0.000000 0.221475 0.500000
Si Si4 0.279204 0.886418 0.379687
Si Si5 0.685911 0.394934 0.659036
Si Si6 0.057475 0.066661 0.113825
O O1 0.450960 0.664943 0.179230
O O2 0.184598 0.740947 0.240570
O O3 0.888225 0.500000 0.258828
O O4 0.798599 0.605205 0.409100
O O5 0.388982 0.563124 0.908991
O O6 0.000000 0.586013 0.000000
O O7 0.250278 0.181848 0.391522
O O8 0.629311 0.904706 0.059858
O O9 0.000000 0.914565 0.500000
O O10 0.240275 0.910166 0.567322
O O11 0.000000 0.415461 0.500000
O O12 0.085004 0.000000 0.103798
O O13 0.000000 0.086545 0.000000
#
# Coordination Sequence:
#
# PCOD8066987 Si02
#       6
#     2   4   2   4   4   4
#     4  12  20  42  63  92 115 152 204 268 318 348
#     4  11  24  41  61  90 134 171 192 232 304 372
#     4  10  22  38  65  86 115 152 204 260 320 346
#     4  10  22  38  59  93 110 161 202 251 286 353
#     4  12  22  40  63  98 114 163 207 256 293 353
#     4  11  22  37  58  88 130 165 189 232 302 364
#
# _framework density 21.095976
#
# number of rings (size 3 to 8) (size 9 to 14) (size 15 to 20)
#    0.600    0.400    3.000    4.200    0.000    8.000 
#    0.000    0.000    0.000   18.000    0.000    0.000 
#    0.000    0.000    0.000    0.000    0.000    0.000 
#
# Total GULP energy -247842.587042 kJ/mol
# GULP energy per Si atom -12392.129352 kJ/mol
# Density = 2.104796 g / cm^3
# Si number density = 21.095976 Si / 1000 Ang^3
#
#
#
# Elastic Constant Matrix: (Units=GPa)
#
#
# Indices 1 2 3 4 5 6 
#
# 1 55.0391 34.5964 23.5720 0.0000 7.2969 0.0000
# 2 34.5964 96.1309 50.0380 0.0000 14.5925 0.0000
# 3 23.5720 50.0380 137.6073 0.0000 12.9243 0.0000
# 4 0.0000 0.0000 0.0000 31.1954 0.0000 7.1668
# 5 7.2969 14.5925 12.9243 0.0000 44.2289 0.0000
# 6 0.0000 0.0000 0.0000 7.1668 0.0000 5.4705
#
#
#
# Elastic Compliance Matrix: (Units=1/GPa)
#
#
# Indices 1 2 3 4 5 6 
#
# 1 0.023677 -0.007778 -0.001133 0.000000 -0.001009 0.000000
# 2 -0.007778 0.015772 -0.004148 0.000000 -0.002708 0.000000
# 3 -0.001133 -0.004148 0.009072 0.000000 -0.001096 0.000000
# 4 0.000000 0.000000 0.000000 0.045858 0.000000 -0.060078
# 5 -0.001009 -0.002708 -0.001096 0.000000 0.023990 0.000000
# 6 0.000000 0.000000 0.000000 -0.060078 0.000000 0.261506
#
#
# Mechanical properties :
#
#
# Convention : Reuss Voigt Hill
#
# Bulk Modulus (GPa) = 44.63720 56.13223 50.38471
# Shear Modulus (GPa) = 12.09298 28.21702 20.15500
#
# Velocity S-wave (km/s) = 2.39683 3.66123 3.09430
# Velocity P-wave (km/s) = 5.37260 6.67372 6.05819
#
# Compressibility (1/GPa) = 0.02240284
#
# Stress axis : x y z
#
# Youngs Moduli (GPa) = 42.23500 63.40236 110.22345
#
# Poissons Ratio (x) = 0.49317 0.12484
# Poissons Ratio (y) = 0.32852 0.45726
# Poissons Ratio (z) = 0.04784 0.26302
#
# Static dielectric constant tensor:
#      x y z
#    x 3.658620 0.000000 -0.015140 
#    y 0.000000 3.628630 0.000000 
#    z -0.015140 0.000000 4.156430 
# 
# 
# High freq. dielectric constant tensor:
#      x y z
#    x 1.800810 0.000000 -0.002060 
#    y 0.000000 1.802600 0.000000 
#    z -0.002060 0.000000 1.860290 
# 
# From -- ./inp_files/20730.got.cif
#   From: 2010.06.25/outbox.cif.g09.slc.cpg/sg10_11_cif.got.tgz:20730.got - 2010.06.27 22:07:45.
