data_PCOD8066088
_publ_section_title
;
Structure prediction by ZEFSAII (Michael W. Deem and Ramdas Pophale) SiO2 
 PCOD8066088
Probable space group: P 2/M
;
_chemical_formula_sum "Si O2"
_cell_formula_units_Z 28
_cell_length_a 21.334849
_cell_length_b 13.940392
_cell_length_c 9.206379
_cell_angle_alpha 90.000000
_cell_angle_beta 149.995082
_cell_angle_gamma 90.000000
_cell_volume 1369.266472
_symmetry_space_group_name_H-M "P 2/M"
_symmetry_group_IT_number 10
_symmetry_cell_setting 'monoclinic'
loop_
_space_group_symop_operation_xyz
x,y,z
-x,y,-z
-x,-y,-z
x,-y,z
loop_
_atom_site_type_symbol
_atom_site_label
_atom_site_fract_x
_atom_site_fract_y
_atom_site_fract_z
Si Si1 0.114652 0.611412 0.125793
Si Si2 0.067774 0.248090 0.775809
Si Si3 0.058195 0.893835 0.266477
Si Si4 0.597274 0.895481 0.352374
Si Si5 0.716245 0.891841 0.888321
Si Si6 0.671329 0.148969 0.122841
Si Si7 0.357300 0.705804 0.725071
O O1 0.100954 0.500000 0.063695
O O2 0.252006 0.628724 0.471610
O O3 0.110581 0.666389 0.965364
O O4 0.000000 0.645010 0.000000
O O5 0.000000 0.294380 0.500000
O O6 0.973005 0.176903 0.666021
O O7 0.180361 0.184678 0.945013
O O8 0.207887 0.901732 0.564909
O O9 0.000943 0.000000 0.178185
O O10 0.000000 0.852365 0.000000
O O11 0.610770 0.885384 0.553704
O O12 0.664057 0.803808 0.412392
O O13 0.653085 0.000000 0.416691
O O14 0.446906 0.895434 0.024701
O O15 0.772409 0.000000 0.011879
O O16 0.655847 0.864222 0.921006
O O17 0.670026 0.262728 0.162418
O O18 0.500000 0.664303 0.000000
#
# Coordination Sequence:
#
# PCOD8066088 Si02
#       7
#     4   4   4   4   4   4   4
#     4  11  25  47  71  92 116 149 201 265 325 376
#     4  12  23  38  62  88 120 158 198 252 305 371
#     4  11  23  35  53  83 125 170 208 244 287 348
#     4  10  21  36  57  86 124 167 208 244 285 343
#     4  11  22  35  55  86 126 170 203 236 284 348
#     4  11  21  35  55  84 125 164 207 244 280 342
#     4  10  22  40  64  94 123 160 205 250 304 359
#
# _framework density 20.448905
#
# number of rings (size 3 to 8) (size 9 to 14) (size 15 to 20)
#    0.000    1.143    2.857    4.286    0.000    6.000 
#    0.000    0.000    0.000    0.429    0.000    2.000 
#    0.000    0.000    0.000    0.000    0.000    0.000 
#
# Total GULP energy -347050.647448 kJ/mol
# GULP energy per Si atom -12394.665980 kJ/mol
# Density = 2.040236 g / cm^3
# Si number density = 20.448905 Si / 1000 Ang^3
#
#
#
# Elastic Constant Matrix: (Units=GPa)
#
#
# Indices 1 2 3 4 5 6 
#
# 1 65.7148 28.1805 6.0230 0.0000 3.0418 0.0000
# 2 28.1805 78.6794 17.2685 0.0000 3.0476 0.0000
# 3 6.0230 17.2685 81.2145 0.0000 3.3878 0.0000
# 4 0.0000 0.0000 0.0000 33.1194 0.0000 -1.7941
# 5 3.0418 3.0476 3.3878 0.0000 36.8016 0.0000
# 6 0.0000 0.0000 0.0000 -1.7941 0.0000 11.8713
#
#
#
# Elastic Compliance Matrix: (Units=1/GPa)
#
#
# Indices 1 2 3 4 5 6 
#
# 1 0.018013 -0.006430 0.000072 0.000000 -0.000963 0.000000
# 2 -0.006430 0.015654 -0.002831 0.000000 -0.000504 0.000000
# 3 0.000072 -0.002831 0.012950 0.000000 -0.000964 0.000000
# 4 0.000000 0.000000 0.000000 0.030443 0.000000 0.004601
# 5 -0.000963 -0.000504 -0.000964 0.000000 0.027383 0.000000
# 6 0.000000 0.000000 0.000000 0.004601 0.000000 0.084932
#
#
# Mechanical properties :
#
#
# Convention : Reuss Voigt Hill
#
# Bulk Modulus (GPa) = 35.41308 36.50584 35.95946
# Shear Modulus (GPa) = 23.02403 27.96757 25.49580
#
# Velocity S-wave (km/s) = 3.35913 3.70223 3.53484
# Velocity P-wave (km/s) = 5.69214 6.01384 5.85520
#
# Compressibility (1/GPa) = 0.02823815
#
# Stress axis : x y z
#
# Youngs Moduli (GPa) = 55.51645 63.88303 77.22118
#
# Poissons Ratio (x) = 0.41077 -0.00552
# Poissons Ratio (y) = 0.35697 0.21857
# Poissons Ratio (z) = -0.00397 0.18082
#
# Static dielectric constant tensor:
#      x y z
#    x 4.062760 0.000000 -0.267280 
#    y 0.000000 3.400580 0.000000 
#    z -0.267280 0.000000 3.957590 
# 
# 
# High freq. dielectric constant tensor:
#      x y z
#    x 1.806270 0.000000 -0.006620 
#    y 0.000000 1.761030 0.000000 
#    z -0.006620 0.000000 1.817000 
# 
# From -- ./inp_files/35314.got.cif
#   From: 2010.06.25/outbox.cif.g09.slc.cpg/sg10_18_cif.got.tgz:35314.got - 2010.06.27 22:07:45.
