data_PCOD8066333
_publ_section_title
;
Structure prediction by ZEFSAII (Michael W. Deem and Ramdas Pophale) SiO2 
 PCOD8066333
Probable space group: P 2/M
;
_chemical_formula_sum "Si O2"
_cell_formula_units_Z 32
_cell_length_a 11.829237
_cell_length_b 18.027251
_cell_length_c 14.233590
_cell_angle_alpha 90.000000
_cell_angle_beta 32.326284
_cell_angle_gamma 90.000000
_cell_volume 1623.092994
_symmetry_space_group_name_H-M "P 2/M"
_symmetry_group_IT_number 10
_symmetry_cell_setting 'monoclinic'
loop_
_space_group_symop_operation_xyz
x,y,z
-x,y,-z
-x,-y,-z
x,-y,z
loop_
_atom_site_type_symbol
_atom_site_label
_atom_site_fract_x
_atom_site_fract_y
_atom_site_fract_z
Si Si1 0.602107 0.586382 0.028104
Si Si2 0.714406 0.186531 0.297820
Si Si3 0.807258 0.347402 0.197118
Si Si4 0.111785 0.086057 0.666840
Si Si5 0.088906 0.586350 0.683614
Si Si6 0.624436 0.085353 0.005301
Si Si7 0.541240 0.837651 0.695305
Si Si8 0.579931 0.664505 0.665946
O O1 0.580424 0.500000 0.068339
O O2 0.477485 0.633160 0.192448
O O3 0.500000 0.605072 0.000000
O O4 0.845589 0.611548 0.857777
O O5 0.500000 0.211474 0.500000
O O6 0.852116 0.260914 0.190001
O O7 0.841428 0.126064 0.267445
O O8 0.654011 0.150744 0.239861
O O9 0.795443 0.395123 0.299848
O O10 0.592939 0.358514 0.290034
O O11 0.000000 0.378116 0.000000
O O12 0.253936 0.116744 0.482149
O O13 0.163294 0.000000 0.644840
O O14 0.869281 0.100549 0.811749
O O15 0.110587 0.500000 0.646251
O O16 0.197016 0.630811 0.522758
O O17 0.536497 0.135704 0.149828
O O18 0.585221 0.000000 0.060272
O O19 0.500000 0.108404 0.000000
O O20 0.605833 0.752228 0.655050
#
# Coordination Sequence:
#
# PCOD8066333 Si02
#       8
#     4   4   4   4   4   4   4   4
#     4  10  23  43  63  85 116 155 199 245 292 342
#     4   9  20  36  56  86 119 153 189 228 287 351
#     4  11  21  36  59  87 122 157 190 233 291 352
#     4  10  21  37  60  87 117 151 190 239 287 340
#     4  11  23  39  62  89 119 155 194 241 291 347
#     4  10  23  41  59  82 113 153 199 240 284 339
#     4  10  22  38  60  86 118 152 189 233 292 341
#     4  11  23  40  61  90 119 157 192 239 292 352
#
# _framework density 19.715444000000002
#
# number of rings (size 3 to 8) (size 9 to 14) (size 15 to 20)
#    0.000    1.750    1.250    3.375    3.500    7.000 
#    0.000    6.250    0.000    0.000    0.000    0.000 
#    0.000    0.000    0.000    0.000    0.000    0.000 
#
# Total GULP energy -396964.938529 kJ/mol
# GULP energy per Si atom -12405.154329 kJ/mol
# Density = 1.967057 g / cm^3
# Si number density = 19.715444 Si / 1000 Ang^3
#
#
#
# Elastic Constant Matrix: (Units=GPa)
#
#
# Indices 1 2 3 4 5 6 
#
# 1 97.5829 28.6124 27.5262 0.0000 3.6363 0.0000
# 2 28.6124 60.4412 27.9885 0.0000 2.9953 0.0000
# 3 27.5262 27.9885 85.3765 0.0000 9.1133 0.0000
# 4 0.0000 0.0000 0.0000 26.1684 0.0000 16.3923
# 5 3.6363 2.9953 9.1133 0.0000 23.3013 0.0000
# 6 0.0000 0.0000 0.0000 16.3923 0.0000 23.8124
#
#
#
# Elastic Compliance Matrix: (Units=1/GPa)
#
#
# Indices 1 2 3 4 5 6 
#
# 1 0.012315 -0.004705 -0.002387 0.000000 -0.000383 0.000000
# 2 -0.004705 0.021304 -0.005482 0.000000 0.000140 0.000000
# 3 -0.002387 -0.005482 0.014782 0.000000 -0.004704 0.000000
# 4 0.000000 0.000000 0.000000 0.067186 0.000000 -0.046250
# 5 -0.000383 0.000140 -0.004704 0.000000 0.044798 0.000000
# 6 0.000000 0.000000 0.000000 -0.046250 0.000000 0.073833
#
#
# Mechanical properties :
#
#
# Convention : Reuss Voigt Hill
#
# Bulk Modulus (GPa) = 43.00683 45.73942 44.37313
# Shear Modulus (GPa) = 18.71841 25.27466 21.99654
#
# Velocity S-wave (km/s) = 3.08462 3.58435 3.34383
# Velocity P-wave (km/s) = 5.87773 6.35454 6.12078
#
# Compressibility (1/GPa) = 0.02325212
#
# Stress axis : x y z
#
# Youngs Moduli (GPa) = 81.20175 46.93942 67.65169
#
# Poissons Ratio (x) = 0.22087 0.16148
# Poissons Ratio (y) = 0.38209 0.37085
# Poissons Ratio (z) = 0.19383 0.25731
#
# Static dielectric constant tensor:
#      x y z
#    x 3.622010 0.000000 -0.031400 
#    y 0.000000 3.557380 0.000000 
#    z -0.031400 0.000000 3.656510 
# 
# 
# High freq. dielectric constant tensor:
#      x y z
#    x 1.764510 0.000000 0.004960 
#    y 0.000000 1.769040 0.000000 
#    z 0.004960 0.000000 1.778910 
# 
# From -- ./inp_files/65379.got.cif
#   From: 2010.06.25/outbox.cif.g09.slc.cpg/sg10_33_cif.got.tgz:65379.got - 2010.06.27 22:07:45.
