data_PCOD8066301
_publ_section_title
;
Structure prediction by ZEFSAII (Michael W. Deem and Ramdas Pophale) SiO2 
 PCOD8066301
Probable space group: P 2/M
;
_chemical_formula_sum "Si O2"
_cell_formula_units_Z 28
_cell_length_a 10.110203
_cell_length_b 8.514777
_cell_length_c 27.632688
_cell_angle_alpha 90.000000
_cell_angle_beta 34.771492
_cell_angle_gamma 90.000000
_cell_volume 1356.636231
_symmetry_space_group_name_H-M "P 2/M"
_symmetry_group_IT_number 10
_symmetry_cell_setting 'monoclinic'
loop_
_space_group_symop_operation_xyz
x,y,z
-x,y,-z
-x,-y,-z
x,-y,z
loop_
_atom_site_type_symbol
_atom_site_label
_atom_site_fract_x
_atom_site_fract_y
_atom_site_fract_z
Si Si1 0.128343 0.185611 0.008361
Si Si2 0.353417 0.318855 0.276857
Si Si3 0.041564 0.181681 0.542213
Si Si4 0.928267 0.680950 0.253062
Si Si5 0.199856 0.816339 0.809333
Si Si6 0.460007 0.181691 0.566738
Si Si7 0.361580 0.816846 0.169647
O O1 0.004038 0.247805 0.094268
O O2 0.098299 0.000000 0.016064
O O3 0.396571 0.236088 0.927560
O O4 0.000000 0.258659 0.000000
O O5 0.421318 0.500000 0.262331
O O6 0.553474 0.212329 0.239752
O O7 0.318087 0.279821 0.231341
O O8 0.112054 0.286231 0.376127
O O9 0.309818 0.213011 0.471925
O O10 0.000000 0.235346 0.500000
O O11 0.975531 0.000000 0.570190
O O12 0.997133 0.500000 0.233346
O O13 0.813752 0.724055 0.236551
O O14 0.745561 0.714371 0.350269
O O15 0.160731 0.781558 0.191466
O O16 0.174780 0.000000 0.805868
O O17 0.500000 0.235852 0.500000
O O18 0.384000 0.000000 0.591904
O O19 0.367077 0.000000 0.181181
#
# Coordination Sequence:
#
# PCOD8066301 Si02
#       7
#     4   4   4   4   4   4   4
#     4   9  18  37  66  97 119 152 211 265 301 350
#     4  12  24  38  60  94 129 161 200 251 314 370
#     4  10  21  37  59  86 116 155 205 255 301 358
#     4  12  26  42  60  92 133 165 202 252 315 374
#     4  11  22  41  67  91 123 166 212 257 306 365
#     4  10  21  39  63  88 116 157 209 255 302 362
#     4  11  22  41  67  91 121 162 211 256 300 363
#
# _framework density 20.639284
#
# number of rings (size 3 to 8) (size 9 to 14) (size 15 to 20)
#    0.000    1.286    1.429    5.143    0.000    4.000 
#    0.000    6.429    0.000    0.000    0.000    0.000 
#    0.000    0.000    0.000    0.000    0.000    0.000 
#
# Total GULP energy -347391.879832 kJ/mol
# GULP energy per Si atom -12406.852851 kJ/mol
# Density = 2.059231 g / cm^3
# Si number density = 20.639284 Si / 1000 Ang^3
#
#
#
# Elastic Constant Matrix: (Units=GPa)
#
#
# Indices 1 2 3 4 5 6 
#
# 1 85.5128 11.9307 12.3936 0.0000 1.2758 0.0000
# 2 11.9307 64.0754 31.4029 0.0000 2.1266 0.0000
# 3 12.3936 31.4029 102.2463 0.0000 -0.4374 0.0000
# 4 0.0000 0.0000 0.0000 1.7106 0.0000 -2.1476
# 5 1.2758 2.1266 -0.4374 0.0000 32.8982 0.0000
# 6 0.0000 0.0000 0.0000 -2.1476 0.0000 23.1868
#
#
#
# Elastic Compliance Matrix: (Units=1/GPa)
#
#
# Indices 1 2 3 4 5 6 
#
# 1 0.012082 -0.001788 -0.000917 0.000000 -0.000365 0.000000
# 2 -0.001788 0.018689 -0.005528 0.000000 -0.001212 0.000000
# 3 -0.000917 -0.005528 0.011592 0.000000 0.000547 0.000000
# 4 0.000000 0.000000 0.000000 0.661519 0.000000 0.061271
# 5 -0.000365 -0.001212 0.000547 0.000000 0.030497 0.000000
# 6 0.000000 0.000000 0.000000 0.061271 0.000000 0.048803
#
#
# Mechanical properties :
#
#
# Convention : Reuss Voigt Hill
#
# Bulk Modulus (GPa) = 38.61601 40.36541 39.49071
# Shear Modulus (GPa) = 6.18597 24.63293 15.40945
#
# Velocity S-wave (km/s) = 1.73312 3.45845 2.73538
# Velocity P-wave (km/s) = 4.77027 5.96220 5.39923
#
# Compressibility (1/GPa) = 0.02589600
#
# Stress axis : x y z
#
# Youngs Moduli (GPa) = 82.76792 53.50663 86.26839
#
# Poissons Ratio (x) = 0.09568 0.07910
# Poissons Ratio (y) = 0.14800 0.47693
# Poissons Ratio (z) = 0.07589 0.29581
#
# Static dielectric constant tensor:
#      x y z
#    x 3.750050 0.000000 0.035220 
#    y 0.000000 3.488340 0.000000 
#    z 0.035220 0.000000 3.877100 
# 
# 
# High freq. dielectric constant tensor:
#      x y z
#    x 1.815780 0.000000 -0.001150 
#    y 0.000000 1.788380 0.000000 
#    z -0.001150 0.000000 1.819930 
# 
# From -- ./inp_files/91946.got.cif
#   From: 2010.06.25/outbox.cif.g09.slc.cpg/sg10_46_cif.got.tgz:91946.got - 2010.06.27 22:07:45.
