data_PCOD8066596
_publ_section_title
;
Structure prediction by ZEFSAII (Michael W. Deem and Ramdas Pophale) SiO2 
 PCOD8066596
Probable space group: P 2/M
;
_chemical_formula_sum "Si O2"
_cell_formula_units_Z 28
_cell_length_a 8.784771
_cell_length_b 16.239230
_cell_length_c 14.352344
_cell_angle_alpha 90.000000
_cell_angle_beta 42.368479
_cell_angle_gamma 90.000000
_cell_volume 1379.785604
_symmetry_space_group_name_H-M "P 2/M"
_symmetry_group_IT_number 10
_symmetry_cell_setting 'monoclinic'
loop_
_space_group_symop_operation_xyz
x,y,z
-x,y,-z
-x,-y,-z
x,-y,z
loop_
_atom_site_type_symbol
_atom_site_label
_atom_site_fract_x
_atom_site_fract_y
_atom_site_fract_z
Si Si1 0.345559 0.344858 0.979093
Si Si2 0.944434 0.500000 0.916946
Si Si3 0.475855 0.274968 0.734696
Si Si4 0.760220 0.903968 0.872807
Si Si5 0.167076 0.318918 0.578742
Si Si6 0.850730 0.182707 0.647082
Si Si7 0.767468 0.500000 0.383156
Si Si8 0.058536 0.228766 0.811630
O O1 0.467743 0.341731 0.822760
O O2 0.500000 0.340919 0.000000
O O3 0.201125 0.425232 0.050702
O O4 0.179140 0.269523 0.060977
O O5 0.172556 0.500000 0.753726
O O6 0.000000 0.500000 0.000000
O O7 0.607640 0.312002 0.586052
O O8 0.602347 0.195592 0.718125
O O9 0.227428 0.241193 0.821364
O O10 0.838721 0.882793 0.733647
O O11 0.963231 0.864144 0.842837
O O12 0.766881 0.000000 0.890883
O O13 0.500000 0.870918 0.000000
O O14 0.131649 0.417210 0.613094
O O15 0.193288 0.268175 0.662993
O O16 0.953262 0.274255 0.625878
O O17 0.000000 0.140215 0.500000
O O18 0.500000 0.500000 0.500000
#
# Coordination Sequence:
#
# PCOD8066596 Si02
#       8
#     4   2   4   4   4   4   2   4
#     4  12  25  41  61  85 122 165 206 253 303 364
#     4  12  27  43  61  90 123 159 213 259 308 361
#     4  11  22  37  64  92 118 161 209 254 304 360
#     4  10  21  38  63  91 123 160 199 247 307 373
#     4  10  22  39  62  89 120 164 207 255 308 363
#     4   9  20  40  61  87 123 160 207 248 296 372
#     4  12  24  39  64  89 128 159 206 263 313 353
#     4  11  20  39  63  89 122 158 205 251 310 365
#
# _framework density 20.293008
#
# number of rings (size 3 to 8) (size 9 to 14) (size 15 to 20)
#    0.000    1.286    1.429    5.786    2.000    0.286 
#    0.000    3.929    0.000   14.571    0.000    0.000 
#    0.000    0.000    0.000    0.000    0.000    0.000 
#
# Total GULP energy -346876.912379 kJ/mol
# GULP energy per Si atom -12388.461156 kJ/mol
# Density = 2.024682 g / cm^3
# Si number density = 20.293008 Si / 1000 Ang^3
#
#
#
# Elastic Constant Matrix: (Units=GPa)
#
#
# Indices 1 2 3 4 5 6 
#
# 1 136.4878 32.7518 39.4576 0.0000 -10.2199 0.0000
# 2 32.7518 84.7899 27.9226 0.0000 -2.0200 0.0000
# 3 39.4576 27.9226 122.1930 0.0000 7.5947 0.0000
# 4 0.0000 0.0000 0.0000 -6.4491 0.0000 -5.1887
# 5 -10.2199 -2.0200 7.5947 0.0000 29.8432 0.0000
# 6 0.0000 0.0000 0.0000 -5.1887 0.0000 17.0081
#
#
#
# Elastic Compliance Matrix: (Units=1/GPa)
#
#
# Indices 1 2 3 4 5 6 
#
# 1 0.008928 -0.002534 -0.002523 0.000000 0.003528 0.000000
# 2 -0.002534 0.013551 -0.002318 0.000000 0.000640 0.000000
# 3 -0.002523 -0.002318 0.009746 0.000000 -0.003501 0.000000
# 4 0.000000 0.000000 0.000000 -0.124502 0.000000 -0.037982
# 5 0.003528 0.000640 -0.003501 0.000000 0.035651 0.000000
# 6 0.000000 0.000000 0.000000 -0.037982 0.000000 0.047208
#
#
# Mechanical properties :
#
#
# Convention : Reuss Voigt Hill
#
# Bulk Modulus (GPa) = 57.22483 60.41496 58.81990
# Shear Modulus (GPa) = 448.10654 24.30304 236.20479
#
# Velocity S-wave (km/s) = 14.87607 3.46440 10.80045
# Velocity P-wave (km/s) = 17.98121 6.77043 13.58607
#
# Compressibility (1/GPa) = 0.01747493
#
# Stress axis : x y z
#
# Youngs Moduli (GPa) = 112.00320 73.79418 102.60665
#
# Poissons Ratio (x) = 0.18697 0.25891
# Poissons Ratio (y) = 0.28378 0.23786
# Poissons Ratio (z) = 0.28263 0.17107
#
# Static dielectric constant tensor:
#      x y z
#    x 4.376110 0.000000 -0.008340 
#    y 0.000000 3.360520 0.000000 
#    z -0.008340 0.000000 4.190610 
# 
# 
# High freq. dielectric constant tensor:
#      x y z
#    x 1.796470 0.000000 0.004200 
#    y 0.000000 1.764500 0.000000 
#    z 0.004200 0.000000 1.817890 
# 
# From -- ./inp_files/62337.got.cif
#   From: 2010.06.25/outbox.cif.g09.slc.cpg/sg10_32_cif.got.tgz:62337.got - 2010.06.27 22:07:45.
