data_PCOD8066458
_publ_section_title
;
Structure prediction by ZEFSAII (Michael W. Deem and Ramdas Pophale) SiO2 
 PCOD8066458
Probable space group: P 2/M
;
_chemical_formula_sum "Si O2"
_cell_formula_units_Z 24
_cell_length_a 22.010448
_cell_length_b 11.151587
_cell_length_c 22.010301
_cell_angle_alpha 90.000000
_cell_angle_beta 13.490487
_cell_angle_gamma 90.000000
_cell_volume 1260.306964
_symmetry_space_group_name_H-M "P 2/M"
_symmetry_group_IT_number 10
_symmetry_cell_setting 'monoclinic'
loop_
_space_group_symop_operation_xyz
x,y,z
-x,y,-z
-x,-y,-z
x,-y,z
loop_
_atom_site_type_symbol
_atom_site_label
_atom_site_fract_x
_atom_site_fract_y
_atom_site_fract_z
Si Si1 0.769810 0.138018 0.769883
Si Si2 0.165134 0.247982 0.165227
Si Si3 0.594356 0.500000 0.594400
Si Si4 0.136859 0.500000 0.136917
Si Si5 0.567232 0.757818 0.567261
Si Si6 0.365908 0.140040 0.365820
Si Si7 0.036201 0.137587 0.036229
O O1 0.798893 0.224608 0.798799
O O2 0.000000 0.167998 0.500000
O O3 0.780729 0.000000 0.781119
O O4 0.500000 0.168127 0.000000
O O5 0.159751 0.388930 0.159837
O O6 0.900642 0.191850 0.399052
O O7 0.398947 0.191842 0.900744
O O8 0.572525 0.615551 0.572579
O O9 0.866005 0.500000 0.365062
O O10 0.365044 0.500000 0.866032
O O11 0.598638 0.829761 0.598727
O O12 0.798955 0.793411 0.297563
O O13 0.297591 0.793444 0.798917
O O14 0.360877 0.000000 0.360796
O O15 0.047836 0.000000 0.047926
O O16 0.000000 0.142695 0.000000
#
# Coordination Sequence:
#
# PCOD8066458 Si02
#       7
#     4   4   2   2   4   4   4
#     4  10  21  38  59  85 122 163 202 250 306 362
#     4  12  23  40  62  92 123 164 210 247 312 369
#     4  12  24  44  63  89 126 170 204 249 310 369
#     4  12  22  44  62  87 127 170 202 249 310 371
#     4  12  23  42  64  93 125 165 211 250 310 369
#     4  12  23  37  62  95 127 152 200 266 314 367
#     4  11  24  43  66  93 128 166 204 254 312 367
#
# _framework density 19.04298
#
# number of rings (size 3 to 8) (size 9 to 14) (size 15 to 20)
#    0.000    0.500    3.333    6.500    0.000    2.667 
#    0.000    3.333    0.000    0.000    0.000    0.000 
#    0.000    0.000    0.000    0.000    0.000    0.000 
#
# Total GULP energy -297763.953526 kJ/mol
# GULP energy per Si atom -12406.831397 kJ/mol
# Density = 1.899964 g / cm^3
# Si number density = 19.042980 Si / 1000 Ang^3
#
#
#
# Elastic Constant Matrix: (Units=GPa)
#
#
# Indices 1 2 3 4 5 6 
#
# 1 122.8752 67.7325 69.4162 0.0000 -1.3660 0.0000
# 2 67.7325 186.9724 70.2507 0.0000 -0.2626 0.0000
# 3 69.4162 70.2507 190.2358 0.0000 -4.7417 0.0000
# 4 0.0000 0.0000 0.0000 31.7514 0.0000 2.2489
# 5 -1.3660 -0.2626 -4.7417 0.0000 34.3261 0.0000
# 6 0.0000 0.0000 0.0000 2.2489 0.0000 57.4075
#
#
#
# Elastic Compliance Matrix: (Units=1/GPa)
#
#
# Indices 1 2 3 4 5 6 
#
# 1 0.011555 -0.003021 -0.003101 0.000000 0.000008 0.000000
# 2 -0.003021 0.007002 -0.001490 0.000000 -0.000273 0.000000
# 3 -0.003101 -0.001490 0.006959 0.000000 0.000827 0.000000
# 4 0.000000 0.000000 0.000000 0.031582 0.000000 -0.001237
# 5 0.000008 -0.000273 0.000827 0.000000 0.029245 0.000000
# 6 0.000000 0.000000 0.000000 -0.001237 0.000000 0.017468
#
#
# Mechanical properties :
#
#
# Convention : Reuss Voigt Hill
#
# Bulk Modulus (GPa) = 97.15579 101.65358 99.40468
# Shear Modulus (GPa) = 40.82748 44.20926 42.51837
#
# Velocity S-wave (km/s) = 4.63532 4.82348 4.73033
# Velocity P-wave (km/s) = 8.93187 9.19338 9.06357
#
# Compressibility (1/GPa) = 0.01029275
#
# Stress axis : x y z
#
# Youngs Moduli (GPa) = 86.53964 142.80963 143.69892
#
# Poissons Ratio (x) = 0.43143 0.44557
# Poissons Ratio (y) = 0.26144 0.21415
# Poissons Ratio (z) = 0.26833 0.21282
#
# Static dielectric constant tensor:
#      x y z
#    x 3.588190 0.000000 -0.018280 
#    y 0.000000 3.787100 0.000000 
#    z -0.018280 0.000000 3.793650 
# 
# 
# High freq. dielectric constant tensor:
#      x y z
#    x 1.746750 0.000000 -0.002060 
#    y 0.000000 1.748650 0.000000 
#    z -0.002060 0.000000 1.770050 
# 
# From -- ./inp_files/90814.got.cif
#   From: 2010.06.25/outbox.cif.g09.slc.cpg/sg10_46_cif.got.tgz:90814.got - 2010.06.27 22:07:45.
