data_PCOD8066108
_publ_section_title
;
Structure prediction by ZEFSAII (Michael W. Deem and Ramdas Pophale) SiO2 
 PCOD8066108
Probable space group: P 2/M
;
_chemical_formula_sum "Si O2"
_cell_formula_units_Z 24
_cell_length_a 21.066278
_cell_length_b 12.843250
_cell_length_c 10.239952
_cell_angle_alpha 90.000000
_cell_angle_beta 157.654781
_cell_angle_gamma 90.000000
_cell_volume 1053.312063
_symmetry_space_group_name_H-M "P 2/M"
_symmetry_group_IT_number 10
_symmetry_cell_setting 'monoclinic'
loop_
_space_group_symop_operation_xyz
x,y,z
-x,y,-z
-x,-y,-z
x,-y,z
loop_
_atom_site_type_symbol
_atom_site_label
_atom_site_fract_x
_atom_site_fract_y
_atom_site_fract_z
Si Si1 0.744038 0.820873 0.716524
Si Si2 0.222397 0.000000 0.774452
Si Si3 0.942879 0.297029 0.746389
Si Si4 0.583619 0.797117 0.794502
Si Si5 0.307537 0.881095 0.657321
Si Si6 0.155134 0.616313 0.700624
Si Si7 0.136008 0.000000 0.902271
O O1 0.564378 0.763438 0.386846
O O2 0.770458 0.887320 0.634597
O O3 0.755684 0.899171 0.858258
O O4 0.890683 0.738995 0.008625
O O5 0.133095 0.000000 0.743027
O O6 0.329942 0.106277 0.962471
O O7 0.041796 0.000000 0.355429
O O8 0.797365 0.208508 0.468894
O O9 0.881885 0.383455 0.526928
O O10 0.000000 0.337645 0.000000
O O11 0.500000 0.833182 0.500000
O O12 0.704275 0.700552 0.997306
O O13 0.290209 0.000000 0.691306
O O14 0.500000 0.851128 0.000000
O O15 0.219948 0.500000 0.856063
O O16 0.000000 0.643093 0.500000
#
# Coordination Sequence:
#
# PCOD8066108 Si02
#       7
#     4   2   4   4   4   4   2
#     4  11  21  36  58  90 133 171 219 262 319 396
#     4  11  24  35  56  92 134 177 214 259 326 397
#     4  10  23  42  67  96 129 174 222 273 328 389
#     4  12  23  39  63  95 136 174 220 268 331 395
#     4  10  21  36  58  91 133 176 218 263 317 387
#     4  11  26  48  71  97 129 171 224 280 336 392
#     4  11  21  34  53  85 129 183 216 253 321 383
#
# _framework density 22.785270000000001
#
# number of rings (size 3 to 8) (size 9 to 14) (size 15 to 20)
#    0.000    1.167    2.500    3.750    3.500    1.667 
#    1.500    0.833    0.000    9.500    0.000    0.000 
#    0.000    0.000    0.000    0.000    0.000    0.000 
#
# Total GULP energy -297357.978822 kJ/mol
# GULP energy per Si atom -12389.915784 kJ/mol
# Density = 2.273341 g / cm^3
# Si number density = 22.785270 Si / 1000 Ang^3
#
#
#
# Elastic Constant Matrix: (Units=GPa)
#
#
# Indices 1 2 3 4 5 6 
#
# 1 91.1391 31.6074 27.6206 0.0000 16.1464 0.0000
# 2 31.6074 105.8661 50.8474 0.0000 21.1341 0.0000
# 3 27.6206 50.8474 107.8355 0.0000 30.4536 0.0000
# 4 0.0000 0.0000 0.0000 24.3758 0.0000 1.9238
# 5 16.1464 21.1341 30.4536 0.0000 58.3218 0.0000
# 6 0.0000 0.0000 0.0000 1.9238 0.0000 28.9047
#
#
#
# Elastic Compliance Matrix: (Units=1/GPa)
#
#
# Indices 1 2 3 4 5 6 
#
# 1 0.012674 -0.002731 -0.001463 0.000000 -0.001755 0.000000
# 2 -0.002731 0.012939 -0.005033 0.000000 -0.001305 0.000000
# 3 -0.001463 -0.005033 0.013362 0.000000 -0.004748 0.000000
# 4 0.000000 0.000000 0.000000 0.041241 0.000000 -0.002745
# 5 -0.001755 -0.001305 -0.004748 0.000000 0.020584 0.000000
# 6 0.000000 0.000000 0.000000 -0.002745 0.000000 0.034779
#
#
# Mechanical properties :
#
#
# Convention : Reuss Voigt Hill
#
# Bulk Modulus (GPa) = 48.72987 58.33237 53.53112
# Shear Modulus (GPa) = 31.08029 35.30484 33.19256
#
# Velocity S-wave (km/s) = 3.69731 3.94059 3.82089
# Velocity P-wave (km/s) = 6.29761 6.80888 6.55822
#
# Compressibility (1/GPa) = 0.02052129
#
# Stress axis : x y z
#
# Youngs Moduli (GPa) = 78.90423 77.28510 74.83691
#
# Poissons Ratio (x) = 0.21105 0.10947
# Poissons Ratio (y) = 0.21547 0.37667
# Poissons Ratio (z) = 0.11542 0.38900
#
# Static dielectric constant tensor:
#      x y z
#    x 4.497780 0.000000 -0.108600 
#    y 0.000000 3.606810 0.000000 
#    z -0.108600 0.000000 4.416540 
# 
# 
# High freq. dielectric constant tensor:
#      x y z
#    x 1.938280 0.000000 -0.001010 
#    y 0.000000 1.844800 0.000000 
#    z -0.001010 0.000000 1.920580 
# 
# From -- ./inp_files/57030.got.cif
#   From: 2010.06.25/outbox.cif.g09.slc.cpg/sg10_29_cif.got.tgz:57030.got - 2010.06.27 22:07:45.
