data_PCOD8066129
_publ_section_title
;
Structure prediction by ZEFSAII (Michael W. Deem and Ramdas Pophale) SiO2 
 PCOD8066129
Probable space group: P 2/M
;
_chemical_formula_sum "Si O2"
_cell_formula_units_Z 32
_cell_length_a 11.031906
_cell_length_b 18.309199
_cell_length_c 11.423422
_cell_angle_alpha 90.000000
_cell_angle_beta 132.859758
_cell_angle_gamma 90.000000
_cell_volume 1691.345888
_symmetry_space_group_name_H-M "P 2/M"
_symmetry_group_IT_number 10
_symmetry_cell_setting 'monoclinic'
loop_
_space_group_symop_operation_xyz
x,y,z
-x,y,-z
-x,-y,-z
x,-y,z
loop_
_atom_site_type_symbol
_atom_site_label
_atom_site_fract_x
_atom_site_fract_y
_atom_site_fract_z
Si Si1 0.130654 0.735419 0.827796
Si Si2 0.754158 0.419484 0.423608
Si Si3 0.830624 0.084390 0.458981
Si Si4 0.374093 0.807385 0.818338
Si Si5 0.536050 0.713081 0.334908
Si Si6 0.796985 0.804404 0.632282
Si Si7 0.874165 0.581113 0.248533
Si Si8 0.818151 0.251295 0.887109
O O1 0.214780 0.768863 0.769274
O O2 0.171314 0.648286 0.867742
O O3 0.934834 0.746092 0.681093
O O4 0.193657 0.777561 0.986775
O O5 0.688220 0.500000 0.411728
O O6 0.627102 0.363904 0.398984
O O7 0.759681 0.410124 0.287363
O O8 0.936030 0.408741 0.593259
O O9 0.682648 0.121481 0.289788
O O10 0.835862 0.119205 0.592960
O O11 0.000000 0.096137 0.500000
O O12 0.788092 0.000000 0.447156
O O13 0.460640 0.748011 0.792245
O O14 0.500000 0.833878 0.000000
O O15 0.620802 0.770564 0.479654
O O16 0.343667 0.698727 0.244399
O O17 0.810147 0.813249 0.783159
O O18 0.844533 0.500000 0.172987
O O19 0.000000 0.291763 0.000000
#
# Coordination Sequence:
#
# PCOD8066129 Si02
#       8
#     4   4   4   4   4   4   4   4
#     4  11  18  34  56  85 119 152 187 243 286 337
#     4   9  17  28  49  83 118 147 183 238 300 350
#     4  10  21  37  62  93 121 148 179 229 292 342
#     4  11  21  33  57  90 120 150 183 233 288 347
#     4  11  19  33  59  82 110 144 196 245 285 326
#     4  10  21  36  60  83 112 147 197 237 270 332
#     4   9  17  29  50  84 124 152 182 237 305 351
#     4  10  23  37  54  78 110 152 193 237 282 333
#
# _framework density 18.919844000000001
#
# number of rings (size 3 to 8) (size 9 to 14) (size 15 to 20)
#    0.000    1.875    5.000    1.125    0.000    0.250 
#    0.000    0.625    0.000   21.375    0.000    0.000 
#    0.000    0.000    0.000    0.000    0.000    0.000 
#
# Total GULP energy -396439.227759 kJ/mol
# GULP energy per Si atom -12388.725867 kJ/mol
# Density = 1.887678 g / cm^3
# Si number density = 18.919844 Si / 1000 Ang^3
#
#
#
# Elastic Constant Matrix: (Units=GPa)
#
#
# Indices 1 2 3 4 5 6 
#
# 1 83.2899 35.1149 33.5842 0.0000 5.8387 0.0000
# 2 35.1149 122.1350 33.4395 0.0000 -10.9939 0.0000
# 3 33.5842 33.4395 82.4265 0.0000 -10.2422 0.0000
# 4 0.0000 0.0000 0.0000 14.4525 0.0000 3.6824
# 5 5.8387 -10.9939 -10.2422 0.0000 38.8782 0.0000
# 6 0.0000 0.0000 0.0000 3.6824 0.0000 17.3541
#
#
#
# Elastic Compliance Matrix: (Units=1/GPa)
#
#
# Indices 1 2 3 4 5 6 
#
# 1 0.016161 -0.003510 -0.005775 0.000000 -0.004941 0.000000
# 2 -0.003510 0.010080 -0.002315 0.000000 0.002768 0.000000
# 3 -0.005775 -0.002315 0.015973 0.000000 0.004421 0.000000
# 4 0.000000 0.000000 0.000000 0.073147 0.000000 -0.015521
# 5 -0.004941 0.002768 0.004421 0.000000 0.028411 0.000000
# 6 0.000000 0.000000 0.000000 -0.015521 0.000000 0.060917
#
#
# Mechanical properties :
#
#
# Convention : Reuss Voigt Hill
#
# Bulk Modulus (GPa) = 52.59196 54.68094 53.63645
# Shear Modulus (GPa) = 21.34686 26.51780 23.93233
#
# Velocity S-wave (km/s) = 3.36263 3.74784 3.56045
# Velocity P-wave (km/s) = 6.55240 6.90598 6.73151
#
# Compressibility (1/GPa) = 0.01901431
#
# Stress axis : x y z
#
# Youngs Moduli (GPa) = 61.87763 99.20776 62.60406
#
# Poissons Ratio (x) = 0.34823 0.36151
# Poissons Ratio (y) = 0.21720 0.14494
# Poissons Ratio (z) = 0.35732 0.22969
#
# Static dielectric constant tensor:
#      x y z
#    x 3.596820 0.000000 -0.013000 
#    y 0.000000 3.222510 0.000000 
#    z -0.013000 0.000000 3.470910 
# 
# 
# High freq. dielectric constant tensor:
#      x y z
#    x 1.738760 0.000000 0.004740 
#    y 0.000000 1.694300 0.000000 
#    z 0.004740 0.000000 1.734250 
# 
# From -- ./inp_files/47837.got.cif
#   From: 2010.06.25/outbox.cif.g09.slc.cpg/sg10_24_cif.got.tgz:47837.got - 2010.06.27 22:07:45.
