data_PCOD8066336
_publ_section_title
;
Structure prediction by ZEFSAII (Michael W. Deem and Ramdas Pophale) SiO2 
 PCOD8066336
Probable space group: P 2/M
;
_chemical_formula_sum "Si O2"
_cell_formula_units_Z 32
_cell_length_a 24.319646
_cell_length_b 8.868501
_cell_length_c 16.111288
_cell_angle_alpha 90.000000
_cell_angle_beta 152.366940
_cell_angle_gamma 90.000000
_cell_volume 1611.666993
_symmetry_space_group_name_H-M "P 2/M"
_symmetry_group_IT_number 10
_symmetry_cell_setting 'monoclinic'
loop_
_space_group_symop_operation_xyz
x,y,z
-x,y,-z
-x,-y,-z
x,-y,z
loop_
_atom_site_type_symbol
_atom_site_label
_atom_site_fract_x
_atom_site_fract_y
_atom_site_fract_z
Si Si1 0.407660 0.178602 0.762012
Si Si2 0.191899 0.321573 0.948280
Si Si3 0.994614 0.173084 0.183018
Si Si4 0.786329 0.675823 0.593010
Si Si5 0.336791 0.822057 0.846841
Si Si6 0.368589 0.175587 0.304496
Si Si7 0.816661 0.169616 0.801892
Si Si8 0.865682 0.178809 0.301904
O O1 0.345513 0.264651 0.602790
O O2 0.344422 0.235954 0.762482
O O3 0.394520 0.000000 0.732202
O O4 0.545239 0.229273 0.945645
O O5 0.191462 0.500000 0.946046
O O6 0.078284 0.264423 0.846639
O O7 0.185234 0.258829 0.846969
O O8 0.313528 0.265289 0.153418
O O9 0.125775 0.239547 0.352872
O O10 0.999321 0.000000 0.218964
O O11 0.937153 0.187318 0.015071
O O12 0.797368 0.500000 0.592561
O O13 0.817562 0.710737 0.729712
O O14 0.217382 0.766028 0.732734
O O15 0.338816 0.000000 0.845695
O O16 0.500000 0.234797 0.500000
O O17 0.293530 0.205614 0.286440
O O18 0.367616 0.000000 0.278757
O O19 0.807522 0.000000 0.753212
O O20 0.000000 0.230626 0.500000
O O21 0.858521 0.000000 0.279394
#
# Coordination Sequence:
#
# PCOD8066336 Si02
#       8
#     4   4   4   4   4   4   4   4
#     4   9  18  36  60  81 107 146 193 239 283 333
#     4  11  23  38  56  85 122 154 187 233 299 359
#     4  10  21  39  61  80 107 148 194 236 278 332
#     4  12  24  34  51  84 118 147 182 226 285 346
#     4   8  17  36  60  84 107 141 193 246 285 326
#     4   9  19  38  63  86 111 150 200 246 285 335
#     4   9  19  36  56  80 108 144 189 234 279 327
#     4  10  21  37  60  88 116 151 200 248 293 345
#
# _framework density 19.855218000000001
#
# number of rings (size 3 to 8) (size 9 to 14) (size 15 to 20)
#    0.000    2.250    0.000    4.500    1.750    5.500 
#    0.000    7.500    0.000    0.000    0.000    0.000 
#    0.000    0.000    0.000    0.000    0.000    0.000 
#
# Total GULP energy -396836.490123 kJ/mol
# GULP energy per Si atom -12401.140316 kJ/mol
# Density = 1.981003 g / cm^3
# Si number density = 19.855218 Si / 1000 Ang^3
#
#
#
# Elastic Constant Matrix: (Units=GPa)
#
#
# Indices 1 2 3 4 5 6 
#
# 1 76.6001 30.1787 39.9133 0.0000 8.7697 0.0000
# 2 30.1787 74.1425 38.9785 0.0000 -0.5178 0.0000
# 3 39.9133 38.9785 89.5839 0.0000 18.8017 0.0000
# 4 0.0000 0.0000 0.0000 10.0706 0.0000 1.6248
# 5 8.7697 -0.5178 18.8017 0.0000 30.3718 0.0000
# 6 0.0000 0.0000 0.0000 1.6248 0.0000 19.3120
#
#
#
# Elastic Compliance Matrix: (Units=1/GPa)
#
#
# Indices 1 2 3 4 5 6 
#
# 1 0.017944 -0.004275 -0.005783 0.000000 -0.001674 0.000000
# 2 -0.004275 0.019428 -0.007904 0.000000 0.006459 0.000000
# 3 -0.005783 -0.007904 0.019374 0.000000 -0.010458 0.000000
# 4 0.000000 0.000000 0.000000 0.100666 0.000000 -0.008469
# 5 -0.001674 0.006459 -0.010458 0.000000 0.039993 0.000000
# 6 0.000000 0.000000 0.000000 -0.008469 0.000000 0.052494
#
#
# Mechanical properties :
#
#
# Convention : Reuss Voigt Hill
#
# Bulk Modulus (GPa) = 48.02942 50.94083 49.48513
# Shear Modulus (GPa) = 17.07860 20.70126 18.88993
#
# Velocity S-wave (km/s) = 2.93602 3.23245 3.08780
# Velocity P-wave (km/s) = 5.97796 6.29631 6.13920
#
# Compressibility (1/GPa) = 0.02082057
#
# Stress axis : x y z
#
# Youngs Moduli (GPa) = 55.72790 51.47165 51.61685
#
# Poissons Ratio (x) = 0.22005 0.29852
# Poissons Ratio (y) = 0.23825 0.40798
# Poissons Ratio (z) = 0.32230 0.40684
#
# Static dielectric constant tensor:
#      x y z
#    x 3.787380 0.000000 0.178460 
#    y 0.000000 3.313720 0.000000 
#    z 0.178460 0.000000 3.749210 
# 
# 
# High freq. dielectric constant tensor:
#      x y z
#    x 1.772190 0.000000 0.004710 
#    y 0.000000 1.748690 0.000000 
#    z 0.004710 0.000000 1.783350 
# 
# From -- ./inp_files/71693.got.cif
#   From: 2010.06.25/outbox.cif.g09.slc.cpg/sg10_36_cif.got.tgz:71693.got - 2010.06.27 22:07:45.
