data_PCOD8066144
_publ_section_title
;
Structure prediction by ZEFSAII (Michael W. Deem and Ramdas Pophale) SiO2 
 PCOD8066144
Probable space group: P 2/M
;
_chemical_formula_sum "Si O2"
_cell_formula_units_Z 26
_cell_length_a 26.059414
_cell_length_b 7.698188
_cell_length_c 13.131659
_cell_angle_alpha 90.000000
_cell_angle_beta 29.742135
_cell_angle_gamma 90.000000
_cell_volume 1306.891812
_symmetry_space_group_name_H-M "P 2/M"
_symmetry_group_IT_number 10
_symmetry_cell_setting 'monoclinic'
loop_
_space_group_symop_operation_xyz
x,y,z
-x,y,-z
-x,-y,-z
x,-y,z
loop_
_atom_site_type_symbol
_atom_site_label
_atom_site_fract_x
_atom_site_fract_y
_atom_site_fract_z
Si Si1 0.107257 0.296885 0.106288
Si Si2 0.733121 0.000000 0.679836
Si Si3 0.129556 0.304231 0.494659
Si Si4 0.561368 0.000000 0.140888
Si Si5 0.653055 0.000000 0.598995
Si Si6 0.722734 0.300920 0.342795
Si Si7 0.509095 0.302430 0.601878
Si Si8 0.883563 0.801919 0.694038
O O1 0.110851 0.500000 0.113404
O O2 0.162970 0.221648 0.112594
O O3 0.989076 0.234440 0.295208
O O4 0.174111 0.239440 0.893853
O O5 0.802508 0.173772 0.555091
O O6 0.658592 0.000000 0.710931
O O7 0.666679 0.000000 0.896976
O O8 0.140558 0.500000 0.519238
O O9 0.168945 0.303366 0.308484
O O10 0.561201 0.172267 0.211036
O O11 0.466338 0.000000 0.226432
O O12 0.709160 0.826391 0.461544
O O13 0.731656 0.500000 0.366583
O O14 0.628182 0.280484 0.427708
O O15 0.500000 0.250790 0.500000
O O16 0.470696 0.500000 0.687207
O O17 0.000000 0.730852 0.500000
O O18 0.878390 0.000000 0.667780
#
# Coordination Sequence:
#
# PCOD8066144 Si02
#       8
#     4   2   4   2   2   4   4   4
#     4   9  18  32  54  82 114 153 187 215 263 334
#     4  12  25  40  58  81 104 140 193 239 287 327
#     4  10  21  37  53  78 117 151 183 227 272 321
#     4  10  22  40  60  83 109 143 182 227 274 337
#     4  10  23  42  61  78 102 139 182 242 294 330
#     4   9  19  36  58  84 110 144 186 224 272 336
#     4   9  18  35  59  89 122 146 171 216 271 329
#     4   9  16  28  49  77 112 151 184 212 252 314
#
# _framework density 19.89453
#
# number of rings (size 3 to 8) (size 9 to 14) (size 15 to 20)
#    0.000    2.462    0.769    0.923    2.154    4.308 
#    0.000    3.077    0.000    7.385    0.000    0.000 
#    0.000    0.000    0.000    0.000    0.000    0.000 
#
# Total GULP energy -322315.063470 kJ/mol
# GULP energy per Si atom -12396.733210 kJ/mol
# Density = 1.984925 g / cm^3
# Si number density = 19.894530 Si / 1000 Ang^3
#
#
#
# Elastic Constant Matrix: (Units=GPa)
#
#
# Indices 1 2 3 4 5 6 
#
# 1 74.4632 33.5776 16.6930 0.0000 11.6150 0.0000
# 2 33.5776 94.5737 32.7045 0.0000 5.1560 0.0000
# 3 16.6930 32.7045 82.9761 0.0000 3.7431 0.0000
# 4 0.0000 0.0000 0.0000 22.0505 0.0000 0.0642
# 5 11.6150 5.1560 3.7431 0.0000 17.8152 0.0000
# 6 0.0000 0.0000 0.0000 0.0642 0.0000 21.5954
#
#
#
# Elastic Compliance Matrix: (Units=1/GPa)
#
#
# Indices 1 2 3 4 5 6 
#
# 1 0.017587 -0.005376 -0.000982 0.000000 -0.009704 0.000000
# 2 -0.005376 0.014002 -0.004455 0.000000 0.000388 0.000000
# 3 -0.000982 -0.004455 0.014051 0.000000 -0.001023 0.000000
# 4 0.000000 0.000000 0.000000 0.045351 0.000000 -0.000135
# 5 -0.009704 0.000388 -0.001023 0.000000 0.062561 0.000000
# 6 0.000000 0.000000 0.000000 -0.000135 0.000000 0.046307
#
#
# Mechanical properties :
#
#
# Convention : Reuss Voigt Hill
#
# Bulk Modulus (GPa) = 41.63898 46.44037 44.03968
# Shear Modulus (GPa) = 21.78761 23.56140 22.67451
#
# Velocity S-wave (km/s) = 3.31290 3.44512 3.37966
# Velocity P-wave (km/s) = 5.96733 6.26252 6.11671
#
# Compressibility (1/GPa) = 0.02401596
#
# Stress axis : x y z
#
# Youngs Moduli (GPa) = 56.85931 71.42002 71.16881
#
# Poissons Ratio (x) = 0.38393 0.06986
# Poissons Ratio (y) = 0.30566 0.31704
# Poissons Ratio (z) = 0.05581 0.31816
#
# Static dielectric constant tensor:
#      x y z
#    x 3.382380 0.000000 -0.065690 
#    y 0.000000 3.698140 0.000000 
#    z -0.065690 0.000000 3.608760 
# 
# 
# High freq. dielectric constant tensor:
#      x y z
#    x 1.752440 0.000000 0.000610 
#    y 0.000000 1.785770 0.000000 
#    z 0.000610 0.000000 1.758410 
# 
# From -- ./inp_files/57455.got.cif
#   From: 2010.06.25/outbox.cif.g09.slc.cpg/sg10_29_cif.got.tgz:57455.got - 2010.06.27 22:07:45.
