data_PCOD8066231
_publ_section_title
;
Structure prediction by ZEFSAII (Michael W. Deem and Ramdas Pophale) SiO2 
 PCOD8066231
Probable space group: P 2/M
;
_chemical_formula_sum "Si O2"
_cell_formula_units_Z 24
_cell_length_a 17.516148
_cell_length_b 8.919946
_cell_length_c 15.020924
_cell_angle_alpha 90.000000
_cell_angle_beta 32.096799
_cell_angle_gamma 90.000000
_cell_volume 1247.036565
_symmetry_space_group_name_H-M "P 2/M"
_symmetry_group_IT_number 10
_symmetry_cell_setting 'monoclinic'
loop_
_space_group_symop_operation_xyz
x,y,z
-x,y,-z
-x,-y,-z
x,-y,z
loop_
_atom_site_type_symbol
_atom_site_label
_atom_site_fract_x
_atom_site_fract_y
_atom_site_fract_z
Si Si1 0.162440 0.674910 0.818303
Si Si2 0.166923 0.173935 0.325298
Si Si3 0.370540 0.325828 0.771616
Si Si4 0.347000 0.674466 0.299774
Si Si5 0.677140 0.671986 0.981089
Si Si6 0.667197 0.823226 0.500721
O O1 0.180587 0.500000 0.778772
O O2 0.257072 0.722412 0.809612
O O3 0.207462 0.769414 0.688266
O O4 0.000000 0.717525 0.000000
O O5 0.254241 0.272196 0.308783
O O6 0.000000 0.210649 0.500000
O O7 0.199612 0.000000 0.309473
O O8 0.216435 0.219922 0.177590
O O9 0.413137 0.500000 0.723512
O O10 0.301801 0.290782 0.935636
O O11 0.515452 0.233764 0.612813
O O12 0.320322 0.500000 0.343379
O O13 0.513626 0.705629 0.113817
O O14 0.297819 0.761159 0.436258
O O15 0.717234 0.500000 0.920851
O O16 0.664925 0.000000 0.507761
#
# Coordination Sequence:
#
# PCOD8066231 Si02
#       6
#     4   4   4   4   4   4
#     4  10  21  37  57  82 113 151 191 229 273 325
#     4  11  24  38  53  81 119 152 181 220 275 333
#     4   9  19  37  59  82 110 144 187 234 273 321
#     4  10  21  39  62  84 107 141 188 234 274 324
#     4   9  19  36  58  83 107 140 189 236 275 320
#     4  11  22  36  57  85 114 144 182 229 282 334
#
# _framework density 19.245626999999999
#
# number of rings (size 3 to 8) (size 9 to 14) (size 15 to 20)
#    0.000    2.000    0.000    4.500    0.000   11.000 
#    0.000    1.667    0.000    0.000    0.000    0.000 
#    0.000    0.000    0.000    0.000    0.000    0.000 
#
# Total GULP energy -297727.614399 kJ/mol
# GULP energy per Si atom -12405.317267 kJ/mol
# Density = 1.920182 g / cm^3
# Si number density = 19.245627 Si / 1000 Ang^3
#
#
#
# Elastic Constant Matrix: (Units=GPa)
#
#
# Indices 1 2 3 4 5 6 
#
# 1 40.7283 16.3556 36.8230 0.0000 14.0478 0.0000
# 2 16.3556 86.6839 60.3283 0.0000 7.7829 0.0000
# 3 36.8230 60.3283 129.5521 0.0000 15.1330 0.0000
# 4 0.0000 0.0000 0.0000 20.2994 0.0000 -7.2760
# 5 14.0478 7.7829 15.1330 0.0000 19.2921 0.0000
# 6 0.0000 0.0000 0.0000 -7.2760 0.0000 13.5169
#
#
#
# Elastic Compliance Matrix: (Units=1/GPa)
#
#
# Indices 1 2 3 4 5 6 
#
# 1 0.040295 0.000826 -0.009216 0.000000 -0.022446 0.000000
# 2 0.000826 0.017093 -0.008057 0.000000 -0.001177 0.000000
# 3 -0.009216 -0.008057 0.014231 0.000000 -0.001201 0.000000
# 4 0.000000 0.000000 0.000000 0.061040 0.000000 0.032857
# 5 -0.022446 -0.001177 -0.001201 0.000000 0.069596 0.000000
# 6 0.000000 0.000000 0.000000 0.032857 0.000000 0.091668
#
#
# Mechanical properties :
#
#
# Convention : Reuss Voigt Hill
#
# Bulk Modulus (GPa) = 25.82274 53.77537 39.79905
# Shear Modulus (GPa) = 14.71771 20.18550 17.45161
#
# Velocity S-wave (km/s) = 2.76838 3.24209 3.01455
# Velocity P-wave (km/s) = 4.86468 6.48206 5.73072
#
# Compressibility (1/GPa) = 0.03872556
#
# Stress axis : x y z
#
# Youngs Moduli (GPa) = 24.81667 58.50188 70.27000
#
# Poissons Ratio (x) = -0.04835 0.64763
# Poissons Ratio (y) = -0.02051 0.56618
# Poissons Ratio (z) = 0.22872 0.47136
#
# Static dielectric constant tensor:
#      x y z
#    x 3.568940 0.000000 0.094860 
#    y 0.000000 3.450560 0.000000 
#    z 0.094860 0.000000 3.517000 
# 
# 
# High freq. dielectric constant tensor:
#      x y z
#    x 1.753800 0.000000 0.010660 
#    y 0.000000 1.746150 0.000000 
#    z 0.010660 0.000000 1.750850 
# 
# From -- ./inp_files/27164.got.cif
#   From: 2010.06.25/outbox.cif.g09.slc.cpg/sg10_14_cif.got.tgz:27164.got - 2010.06.27 22:07:45.
