data_PCOD8066678
_publ_section_title
;
Structure prediction by ZEFSAII (Michael W. Deem and Ramdas Pophale) SiO2 
 PCOD8066678
Probable space group: P 2/M
;
_chemical_formula_sum "Si O2"
_cell_formula_units_Z 28
_cell_length_a 8.990778
_cell_length_b 8.989545
_cell_length_c 18.741061
_cell_angle_alpha 90.000000
_cell_angle_beta 75.906599
_cell_angle_gamma 90.000000
_cell_volume 1469.116203
_symmetry_space_group_name_H-M "P 2/M"
_symmetry_group_IT_number 10
_symmetry_cell_setting 'monoclinic'
loop_
_space_group_symop_operation_xyz
x,y,z
-x,y,-z
-x,-y,-z
x,-y,z
loop_
_atom_site_type_symbol
_atom_site_label
_atom_site_fract_x
_atom_site_fract_y
_atom_site_fract_z
Si Si1 0.051508 0.825720 0.072941
Si Si2 0.638018 0.328345 0.930344
Si Si3 0.824404 0.161917 0.499890
Si Si4 0.522827 0.672100 0.788292
Si Si5 0.178728 0.673974 0.792655
Si Si6 0.752529 0.177179 0.657955
Si Si7 0.089437 0.822023 0.659277
O O1 0.226379 0.778799 0.061911
O O2 0.949830 0.739489 0.141444
O O3 0.033845 0.000000 0.089226
O O4 0.000000 0.780600 0.000000
O O5 0.691385 0.500000 0.926700
O O6 0.585040 0.280880 0.857967
O O7 0.500000 0.299636 0.000000
O O8 0.743607 0.243341 0.577217
O O9 0.821136 0.240417 0.422255
O O10 0.000000 0.139479 0.500000
O O11 0.747174 0.000000 0.499862
O O12 0.553266 0.500000 0.769227
O O13 0.343257 0.709528 0.807465
O O14 0.607931 0.764841 0.717895
O O15 0.148868 0.500000 0.787811
O O16 0.171493 0.748609 0.716423
O O17 0.910683 0.227216 0.677748
O O18 0.747211 0.000000 0.654368
O O19 0.101857 0.000000 0.661970
#
# Coordination Sequence:
#
# PCOD8066678 Si02
#       7
#     4   4   4   4   4   4   4
#     4  11  24  40  59  85 113 139 172 217 266 313
#     4  10  21  39  62  84 108 142 181 217 258 312
#     4   7  12  26  49  76 104 134 171 216 265 318
#     4  10  22  37  52  75 107 142 180 221 263 310
#     4  11  23  38  55  76 107 146 183 217 260 316
#     4   9  17  31  54  80 104 136 177 220 269 321
#     4   9  17  32  55  81 107 135 174 224 271 316
#
# _framework density 19.059079000000001
#
# number of rings (size 3 to 8) (size 9 to 14) (size 15 to 20)
#    0.000    2.429    0.000    4.286    0.000    7.143 
#    0.000    1.429    0.000    6.857    0.000    0.000 
#    0.000    0.000    0.000    0.000    0.000    0.000 
#
# Total GULP energy -347066.275400 kJ/mol
# GULP energy per Si atom -12395.224121 kJ/mol
# Density = 1.901570 g / cm^3
# Si number density = 19.059079 Si / 1000 Ang^3
#
#
#
# Elastic Constant Matrix: (Units=GPa)
#
#
# Indices 1 2 3 4 5 6 
#
# 1 80.6396 28.9052 45.6986 0.0000 7.8786 0.0000
# 2 28.9052 43.1533 39.7421 0.0000 5.3477 0.0000
# 3 45.6986 39.7421 152.7531 0.0000 3.1363 0.0000
# 4 0.0000 0.0000 0.0000 -2.7789 0.0000 -8.3822
# 5 7.8786 5.3477 3.1363 0.0000 31.9612 0.0000
# 6 0.0000 0.0000 0.0000 -8.3822 0.0000 27.3780
#
#
#
# Elastic Compliance Matrix: (Units=1/GPa)
#
#
# Indices 1 2 3 4 5 6 
#
# 1 0.017400 -0.008670 -0.002897 0.000000 -0.002554 0.000000
# 2 -0.008670 0.035405 -0.006553 0.000000 -0.003144 0.000000
# 3 -0.002897 -0.006553 0.009099 0.000000 0.000918 0.000000
# 4 0.000000 0.000000 0.000000 -0.187082 0.000000 -0.057278
# 5 -0.002554 -0.003144 0.000918 0.000000 0.032353 0.000000
# 6 0.000000 0.000000 0.000000 -0.057278 0.000000 0.018989
#
#
# Mechanical properties :
#
#
# Convention : Reuss Voigt Hill
#
# Bulk Modulus (GPa) = 38.96571 56.13752 47.55162
# Shear Modulus (GPa) = -172.18877 22.12541 -75.03168
#
# Velocity S-wave (km/s) = -9.51530 3.41087 -6.28119
# Velocity P-wave (km/s) = 10.01160 6.71048 5.25365
#
# Compressibility (1/GPa) = 0.02566359
#
# Stress axis : x y z
#
# Youngs Moduli (GPa) = 57.47066 28.24423 109.89737
#
# Poissons Ratio (x) = 0.24488 0.31841
# Poissons Ratio (y) = 0.49829 0.72017
# Poissons Ratio (z) = 0.16651 0.18509
#
# Static dielectric constant tensor:
#      x y z
#    x 3.364820 0.000000 0.065340 
#    y 0.000000 3.250240 0.000000 
#    z 0.065340 0.000000 3.918600 
# 
# 
# High freq. dielectric constant tensor:
#      x y z
#    x 1.728200 0.000000 0.000060 
#    y 0.000000 1.715820 0.000000 
#    z 0.000060 0.000000 1.767360 
# 
# From -- ./inp_files/37951.got.cif
#   From: 2010.06.25/outbox.cif.g09.slc.cpg/sg10_19_cif.got.tgz:37951.got - 2010.06.27 22:07:45.
