data_PCOD8066089
_publ_section_title
;
Structure prediction by ZEFSAII (Michael W. Deem and Ramdas Pophale) SiO2 
 PCOD8066089
Probable space group: P 2/M
;
_chemical_formula_sum "Si O2"
_cell_formula_units_Z 32
_cell_length_a 14.561605
_cell_length_b 14.074845
_cell_length_c 11.668760
_cell_angle_alpha 90.000000
_cell_angle_beta 40.428392
_cell_angle_gamma 90.000000
_cell_volume 1550.906702
_symmetry_space_group_name_H-M "P 2/M"
_symmetry_group_IT_number 10
_symmetry_cell_setting 'monoclinic'
loop_
_space_group_symop_operation_xyz
x,y,z
-x,y,-z
-x,-y,-z
x,-y,z
loop_
_atom_site_type_symbol
_atom_site_label
_atom_site_fract_x
_atom_site_fract_y
_atom_site_fract_z
Si Si1 0.075389 0.388735 0.684680
Si Si2 0.566260 0.297667 0.264437
Si Si3 0.720862 0.705757 0.348659
Si Si4 0.234187 0.610259 0.098511
Si Si5 0.663410 0.104033 0.105997
Si Si6 0.156555 0.725547 0.389516
Si Si7 0.665258 0.107684 0.846388
Si Si8 0.839223 0.893689 0.157318
O O1 0.104341 0.500000 0.640276
O O2 0.140052 0.352843 0.744352
O O3 0.155919 0.331470 0.508561
O O4 0.907446 0.367103 0.840768
O O5 0.405382 0.324550 0.445533
O O6 0.672960 0.323226 0.266760
O O7 0.555481 0.185260 0.247882
O O8 0.625444 0.354459 0.099761
O O9 0.751549 0.819335 0.318530
O O10 0.248648 0.500000 0.109147
O O11 0.229772 0.659788 0.225325
O O12 0.795562 0.107196 0.065736
O O13 0.587517 0.000000 0.182665
O O14 0.721537 0.122670 0.922829
O O15 0.248203 0.821594 0.318315
O O16 0.000000 0.754897 0.500000
O O17 0.691297 0.000000 0.779193
O O18 0.500000 0.133133 0.000000
O O19 0.819724 0.000000 0.227829
O O20 0.000000 0.860442 0.000000
#
# Coordination Sequence:
#
# PCOD8066089 Si02
#       8
#     4   4   4   4   4   4   4   4
#     4  10  23  40  59  85 115 152 194 243 300 353
#     4  10  21  38  56  86 115 152 195 238 291 345
#     4  10  23  36  57  85 121 152 190 243 288 342
#     4  10  21  39  63  85 109 148 198 245 297 355
#     4   9  18  34  58  81 115 157 193 237 286 344
#     4  10  21  38  62  87 117 149 192 246 295 345
#     4  10  21  36  57  87 120 155 194 234 284 349
#     4   9  19  35  59  90 121 155 198 243 290 347
#
# _framework density 20.633091
#
# number of rings (size 3 to 8) (size 9 to 14) (size 15 to 20)
#    0.000    2.250    1.250    0.375    5.250    3.250 
#    0.000    5.625    0.000    2.250    0.000    0.000 
#    0.000    0.000    0.000    0.000    0.000    0.000 
#
# Total GULP energy -396713.117534 kJ/mol
# GULP energy per Si atom -12397.284923 kJ/mol
# Density = 2.058613 g / cm^3
# Si number density = 20.633091 Si / 1000 Ang^3
#
#
#
# Elastic Constant Matrix: (Units=GPa)
#
#
# Indices 1 2 3 4 5 6 
#
# 1 56.9675 25.3737 7.8083 0.0000 -1.0350 0.0000
# 2 25.3737 105.5774 39.5584 0.0000 -3.9441 0.0000
# 3 7.8083 39.5584 90.3536 0.0000 0.6018 0.0000
# 4 0.0000 0.0000 0.0000 25.8327 0.0000 2.4521
# 5 -1.0350 -3.9441 0.6018 0.0000 17.7060 0.0000
# 6 0.0000 0.0000 0.0000 2.4521 0.0000 19.5200
#
#
#
# Elastic Compliance Matrix: (Units=1/GPa)
#
#
# Indices 1 2 3 4 5 6 
#
# 1 0.019673 -0.004892 0.000441 0.000000 0.000045 0.000000
# 2 -0.004892 0.012677 -0.005145 0.000000 0.002713 0.000000
# 3 0.000441 -0.005145 0.013293 0.000000 -0.001572 0.000000
# 4 0.000000 0.000000 0.000000 0.039178 0.000000 -0.004922
# 5 0.000045 0.002713 -0.001572 0.000000 0.057138 0.000000
# 6 0.000000 0.000000 0.000000 -0.004922 0.000000 0.051848
#
#
# Mechanical properties :
#
#
# Convention : Reuss Voigt Hill
#
# Bulk Modulus (GPa) = 37.80626 44.26438 41.03532
# Shear Modulus (GPa) = 22.54131 24.62226 23.58178
#
# Velocity S-wave (km/s) = 3.30886 3.45822 3.38436
# Velocity P-wave (km/s) = 5.74116 6.11926 5.93323
#
# Compressibility (1/GPa) = 0.02645065
#
# Stress axis : x y z
#
# Youngs Moduli (GPa) = 50.83104 78.88546 75.22920
#
# Poissons Ratio (x) = 0.38588 -0.03319
# Poissons Ratio (y) = 0.24865 0.38708
# Poissons Ratio (z) = -0.02243 0.40590
#
# Static dielectric constant tensor:
#      x y z
#    x 3.738190 0.000000 0.027020 
#    y 0.000000 3.823510 0.000000 
#    z 0.027020 0.000000 3.469690 
# 
# 
# High freq. dielectric constant tensor:
#      x y z
#    x 1.807090 0.000000 0.000440 
#    y 0.000000 1.812670 0.000000 
#    z 0.000440 0.000000 1.784680 
# 
# From -- ./inp_files/51602.got.cif
#   From: 2010.06.25/outbox.cif.g09.slc.cpg/sg10_26_cif.got.tgz:51602.got - 2010.06.27 22:07:45.
