data_PCOD8066031
_publ_section_title
;
Structure prediction by ZEFSAII (Michael W. Deem and Ramdas Pophale) SiO2 
 PCOD8066031
Probable space group: P 2/M
;
_chemical_formula_sum "Si O2"
_cell_formula_units_Z 20
_cell_length_a 12.862524
_cell_length_b 14.296896
_cell_length_c 5.069269
_cell_angle_alpha 90.000000
_cell_angle_beta 92.936044
_cell_angle_gamma 90.000000
_cell_volume 930.985324
_symmetry_space_group_name_H-M "P 2/M"
_symmetry_group_IT_number 10
_symmetry_cell_setting 'monoclinic'
loop_
_space_group_symop_operation_xyz
x,y,z
-x,y,-z
-x,-y,-z
x,-y,z
loop_
_atom_site_type_symbol
_atom_site_label
_atom_site_fract_x
_atom_site_fract_y
_atom_site_fract_z
Si Si1 0.116188 0.895824 0.916685
Si Si2 0.824935 0.787714 0.577261
Si Si3 0.387644 0.288538 0.548010
Si Si4 0.330888 0.395680 0.036932
Si Si5 0.894691 0.606289 0.830274
O O1 0.113744 0.848499 0.628759
O O2 0.164782 0.000000 0.901612
O O3 0.178714 0.833767 0.133839
O O4 0.000000 0.902709 0.000000
O O5 0.703857 0.787435 0.478230
O O6 0.878001 0.684000 0.598320
O O7 0.500000 0.242358 0.500000
O O8 0.363507 0.371120 0.338404
O O9 0.390474 0.329580 0.841929
O O10 0.367519 0.500000 0.982373
O O11 0.205220 0.386028 0.988557
O O12 0.900809 0.500000 0.711856
O O13 0.000000 0.630794 0.000000
#
# Coordination Sequence:
#
# PCOD8066031 Si02
#       5
#     4   4   4   4   4
#     4  11  24  42  67  96 122 151 192 245 304 361
#     4  11  22  40  64  90 123 160 199 244 298 355
#     4  11  23  38  57  82 114 156 202 250 302 347
#     4  10  21  36  55  82 115 156 208 255 293 340
#     4   9  19  37  60  89 128 168 202 237 286 357
#
# _framework density 21.482617999999999
#
# number of rings (size 3 to 8) (size 9 to 14) (size 15 to 20)
#    0.000    1.600    0.000    5.400    0.000    6.400 
#    0.000    4.000    0.000   34.200    0.000    0.000 
#    0.000    0.000    0.000    0.000    0.000    0.000 
#
# Total GULP energy -247983.271126 kJ/mol
# GULP energy per Si atom -12399.163556 kJ/mol
# Density = 2.143372 g / cm^3
# Si number density = 21.482618 Si / 1000 Ang^3
#
#
#
# Elastic Constant Matrix: (Units=GPa)
#
#
# Indices 1 2 3 4 5 6 
#
# 1 99.3907 18.7178 9.4920 0.0000 1.5589 0.0000
# 2 18.7178 123.9765 41.7605 0.0000 -0.9057 0.0000
# 3 9.4920 41.7605 100.8989 0.0000 -6.7990 0.0000
# 4 0.0000 0.0000 0.0000 20.3217 0.0000 -2.4562
# 5 1.5589 -0.9057 -6.7990 0.0000 28.7594 0.0000
# 6 0.0000 0.0000 0.0000 -2.4562 0.0000 11.1842
#
#
#
# Elastic Compliance Matrix: (Units=1/GPa)
#
#
# Indices 1 2 3 4 5 6 
#
# 1 0.010383 -0.001426 -0.000434 0.000000 -0.000710 0.000000
# 2 -0.001426 0.009580 -0.003867 0.000000 -0.000535 0.000000
# 3 -0.000434 -0.003867 0.011732 0.000000 0.002675 0.000000
# 4 0.000000 0.000000 0.000000 0.050550 0.000000 0.011101
# 5 -0.000710 -0.000535 0.002675 0.000000 0.035425 0.000000
# 6 0.000000 0.000000 0.000000 0.011101 0.000000 0.091850
#
#
# Mechanical properties :
#
#
# Convention : Reuss Voigt Hill
#
# Bulk Modulus (GPa) = 49.40729 51.57853 50.49291
# Shear Modulus (GPa) = 21.95653 29.00610 25.48132
#
# Velocity S-wave (km/s) = 3.20044 3.67851 3.44777
# Velocity P-wave (km/s) = 6.05852 6.48872 6.27731
#
# Compressibility (1/GPa) = 0.02023993
#
# Stress axis : x y z
#
# Youngs Moduli (GPa) = 96.31540 104.38372 85.23339
#
# Poissons Ratio (x) = 0.14890 0.03701
# Poissons Ratio (y) = 0.13739 0.32959
# Poissons Ratio (z) = 0.04182 0.40364
#
# Static dielectric constant tensor:
#      x y z
#    x 4.050080 0.000000 0.006030 
#    y 0.000000 4.018830 0.000000 
#    z 0.006030 0.000000 3.846590 
# 
# 
# High freq. dielectric constant tensor:
#      x y z
#    x 1.843680 0.000000 -0.000290 
#    y 0.000000 1.820710 0.000000 
#    z -0.000290 0.000000 1.844750 
# 
# From -- ./inp_files/6778.got.cif
#   From: 2010.06.25/outbox.cif.g09.slc.cpg/sg10_4_cif.got.tgz:6778.got - 2010.06.27 22:07:45.
