data_PCOD8066220
_publ_section_title
;
Structure prediction by ZEFSAII (Michael W. Deem and Ramdas Pophale) SiO2 
 PCOD8066220
Probable space group: P 2/M
;
_chemical_formula_sum "Si O2"
_cell_formula_units_Z 28
_cell_length_a 9.023218
_cell_length_b 9.379873
_cell_length_c 28.818494
_cell_angle_alpha 90.000000
_cell_angle_beta 38.485762
_cell_angle_gamma 90.000000
_cell_volume 1517.901344
_symmetry_space_group_name_H-M "P 2/M"
_symmetry_group_IT_number 10
_symmetry_cell_setting 'monoclinic'
loop_
_space_group_symop_operation_xyz
x,y,z
-x,y,-z
-x,-y,-z
x,-y,z
loop_
_atom_site_type_symbol
_atom_site_label
_atom_site_fract_x
_atom_site_fract_y
_atom_site_fract_z
Si Si1 0.345787 0.334964 0.131185
Si Si2 0.173990 0.166723 1.000000
Si Si3 0.001710 0.334964 0.868815
Si Si4 0.537303 0.334647 0.717032
Si Si5 0.762191 0.163891 0.425700
Si Si6 0.122465 0.334647 0.282968
Si Si7 0.109307 0.836109 0.425700
O O1 0.425744 0.500000 0.114129
O O2 0.198156 0.291365 0.212798
O O3 0.185472 0.305714 0.125811
O O4 0.574681 0.236566 0.072868
O O5 0.060979 0.236566 0.072868
O O6 0.211454 0.000000 0.000000
O O7 0.000000 0.195919 0.000000
O O8 0.996392 0.500000 0.885870
O O9 0.262143 0.291365 0.787202
O O10 0.569229 0.500000 0.697999
O O11 0.663088 0.293572 0.734765
O O12 0.653186 0.249362 0.645975
O O13 0.500000 0.225281 0.500000
O O14 0.883063 0.249362 0.354025
O O15 0.910725 0.185761 0.435710
O O16 0.748394 0.000000 0.413563
O O17 0.059225 0.500000 0.302001
O O18 0.000000 0.774720 0.500000
O O19 0.183790 0.000000 0.413563
#
# Coordination Sequence:
#
# PCOD8066220 Si02
#       7
#     4   4   4   4   4   4   4
#     4  10  21  37  57  81 108 138 173 214 261 312
#     4  11  24  39  56  80 108 139 176 215 256 306
#     4  10  21  37  57  81 108 138 173 214 261 312
#     4   9  18  33  52  74 101 134 171 210 254 305
#     4   9  18  32  49  70  98 132 169 209 254 305
#     4   9  18  33  52  74 101 134 171 210 254 305
#     4   9  18  32  49  70  98 132 169 209 254 305
#
# _framework density 18.446521000000001
#
# number of rings (size 3 to 8) (size 9 to 14) (size 15 to 20)
#    0.000    2.429    0.000    1.714    0.000    7.429 
#    0.000    2.857    0.000    0.000    0.000    0.000 
#    0.000    0.000    0.000    0.000    0.000    0.000 
#
# Total GULP energy -347291.202167 kJ/mol
# GULP energy per Si atom -12403.257220 kJ/mol
# Density = 1.840454 g / cm^3
# Si number density = 18.446521 Si / 1000 Ang^3
#
#
#
# Elastic Constant Matrix: (Units=GPa)
#
#
# Indices 1 2 3 4 5 6 
#
# 1 82.2759 58.0032 75.5882 0.0000 -3.7054 0.0000
# 2 58.0032 87.2868 93.4618 0.0000 -1.8327 0.0000
# 3 75.5882 93.4618 182.2072 0.0000 -1.4597 0.0000
# 4 0.0000 0.0000 0.0000 -53.4732 0.0000 3.9766
# 5 -3.7054 -1.8327 -1.4597 0.0000 39.0728 0.0000
# 6 0.0000 0.0000 0.0000 3.9766 0.0000 23.4658
#
#
#
# Elastic Compliance Matrix: (Units=1/GPa)
#
#
# Indices 1 2 3 4 5 6 
#
# 1 0.024184 -0.011776 -0.003979 0.000000 0.001592 0.000000
# 2 -0.011776 0.031169 -0.011103 0.000000 -0.000070 0.000000
# 3 -0.003979 -0.011103 0.012831 0.000000 -0.000419 0.000000
# 4 0.000000 0.000000 0.000000 -0.018468 0.000000 0.003130
# 5 0.001592 -0.000070 -0.000419 0.000000 0.025725 0.000000
# 6 0.000000 0.000000 0.000000 0.003130 0.000000 0.042085
#
#
# Mechanical properties :
#
#
# Convention : Reuss Voigt Hill
#
# Bulk Modulus (GPa) = 69.12502 89.54183 79.33342
# Shear Modulus (GPa) = 28.39846 10.12752 19.26299
#
# Velocity S-wave (km/s) = 3.92791 2.34566 3.23501
# Velocity P-wave (km/s) = 7.62403 7.48217 7.55343
#
# Compressibility (1/GPa) = 0.01446654
#
# Stress axis : x y z
#
# Youngs Moduli (GPa) = 41.34982 32.08297 77.93605
#
# Poissons Ratio (x) = 0.37782 0.31013
# Poissons Ratio (y) = 0.48694 0.86534
# Poissons Ratio (z) = 0.16455 0.35622
#
# Static dielectric constant tensor:
#      x y z
#    x 3.391380 0.000000 -0.009810 
#    y 0.000000 3.392470 0.000000 
#    z -0.009810 0.000000 3.581250 
# 
# 
# High freq. dielectric constant tensor:
#      x y z
#    x 1.714800 0.000000 -0.000710 
#    y 0.000000 1.708990 0.000000 
#    z -0.000710 0.000000 1.728540 
# 
# From -- ./inp_files/36822.got.cif
#   From: 2010.06.25/outbox.cif.g09.slc.cpg/sg10_19_cif.got.tgz:36822.got - 2010.06.27 22:07:45.
