data_PCOD8066666
_publ_section_title
;
Structure prediction by ZEFSAII (Michael W. Deem and Ramdas Pophale) SiO2 
 PCOD8066666
Probable space group: P 2/M
;
_chemical_formula_sum "Si O2"
_cell_formula_units_Z 28
_cell_length_a 18.170989
_cell_length_b 9.241100
_cell_length_c 13.317125
_cell_angle_alpha 90.000000
_cell_angle_beta 35.766221
_cell_angle_gamma 90.000000
_cell_volume 1307.019075
_symmetry_space_group_name_H-M "P 2/M"
_symmetry_group_IT_number 10
_symmetry_cell_setting 'monoclinic'
loop_
_space_group_symop_operation_xyz
x,y,z
-x,y,-z
-x,-y,-z
x,-y,z
loop_
_atom_site_type_symbol
_atom_site_label
_atom_site_fract_x
_atom_site_fract_y
_atom_site_fract_z
Si Si1 0.370267 0.830066 0.697573
Si Si2 0.903852 0.155018 0.691286
Si Si3 0.690908 0.665177 0.615069
Si Si4 0.880583 0.338459 0.072842
Si Si5 0.535350 0.830206 0.189118
Si Si6 0.973786 0.657103 0.288602
Si Si7 0.317145 0.669501 0.142148
O O1 0.500000 0.779718 0.500000
O O2 0.249405 0.752129 0.781281
O O3 0.380597 0.792947 0.805561
O O4 0.350704 0.000000 0.702810
O O5 0.815289 0.285765 0.757962
O O6 0.000000 0.117359 0.500000
O O7 0.985193 0.205693 0.694185
O O8 0.834003 0.000000 0.794313
O O9 0.645391 0.500000 0.655582
O O10 0.604837 0.767276 0.640667
O O11 0.830003 0.686209 0.415068
O O12 0.681860 0.713347 0.742243
O O13 0.852741 0.500000 0.147697
O O14 0.000000 0.266884 0.000000
O O15 0.926658 0.352713 0.909343
O O16 0.527734 0.000000 0.180702
O O17 0.580320 0.754928 0.036323
O O18 0.974765 0.500000 0.344794
O O19 0.339887 0.500000 0.102266
#
# Coordination Sequence:
#
# PCOD8066666 Si02
#       7
#     4   4   4   4   4   4   4
#     4  10  24  46  67  91 125 166 211 254 308 380
#     4  11  22  35  55  85 119 155 199 251 301 355
#     4  10  22  38  59  88 121 164 209 248 298 368
#     4  10  23  42  67 100 129 156 201 262 318 369
#     4  11  24  40  61  88 122 158 203 259 309 362
#     4  10  21  39  61  87 124 164 205 251 305 372
#     4  11  22  38  60  85 119 161 206 249 301 369
#
# _framework density 21.422792999999999
#
# number of rings (size 3 to 8) (size 9 to 14) (size 15 to 20)
#    0.000    1.571    1.429    2.571    2.000    8.571 
#    0.000    0.000    0.000    0.000    0.000    0.000 
#    0.000    0.000    0.000    0.000    0.000    0.000 
#
# Total GULP energy -346993.514082 kJ/mol
# GULP energy per Si atom -12392.625503 kJ/mol
# Density = 2.137403 g / cm^3
# Si number density = 21.422793 Si / 1000 Ang^3
#
#
#
# Elastic Constant Matrix: (Units=GPa)
#
#
# Indices 1 2 3 4 5 6 
#
# 1 79.3408 52.0108 26.3373 0.0000 -36.0054 0.0000
# 2 52.0108 94.5540 34.9564 0.0000 -18.1640 0.0000
# 3 26.3373 34.9564 95.8175 0.0000 -24.6226 0.0000
# 4 0.0000 0.0000 0.0000 27.3359 0.0000 -5.2647
# 5 -36.0054 -18.1640 -24.6226 0.0000 35.9884 0.0000
# 6 0.0000 0.0000 0.0000 -5.2647 0.0000 34.3653
#
#
#
# Elastic Compliance Matrix: (Units=1/GPa)
#
#
# Indices 1 2 3 4 5 6 
#
# 1 0.034254 -0.014469 0.003389 0.000000 0.029286 0.000000
# 2 -0.014469 0.018776 -0.005045 0.000000 -0.008450 0.000000
# 3 0.003389 -0.005045 0.014029 0.000000 0.010443 0.000000
# 4 0.000000 0.000000 0.000000 0.037694 0.000000 0.005775
# 5 0.029286 -0.008450 0.010443 0.000000 0.059967 0.000000
# 6 0.000000 0.000000 0.000000 0.005775 0.000000 0.029984
#
#
# Mechanical properties :
#
#
# Convention : Reuss Voigt Hill
#
# Bulk Modulus (GPa) = 28.72694 55.14682 41.93688
# Shear Modulus (GPa) = 20.95938 29.96509 25.46224
#
# Velocity S-wave (km/s) = 3.13128 3.74404 3.45129
# Velocity P-wave (km/s) = 5.14897 6.66997 5.95820
#
# Compressibility (1/GPa) = 0.03481053
#
# Stress axis : x y z
#
# Youngs Moduli (GPa) = 29.19354 53.25815 71.28151
#
# Poissons Ratio (x) = 0.77059 -0.24158
# Poissons Ratio (y) = 0.42240 0.35958
# Poissons Ratio (z) = -0.09894 0.26866
#
# Static dielectric constant tensor:
#      x y z
#    x 3.811200 0.000000 -0.078200 
#    y 0.000000 4.170900 0.000000 
#    z -0.078200 0.000000 4.003150 
# 
# 
# High freq. dielectric constant tensor:
#      x y z
#    x 1.835480 0.000000 -0.009250 
#    y 0.000000 1.838120 0.000000 
#    z -0.009250 0.000000 1.848920 
# 
# From -- ./inp_files/70178.got.cif
#   From: 2010.06.25/outbox.cif.g09.slc.cpg/sg10_36_cif.got.tgz:70178.got - 2010.06.27 22:07:45.
