data_PCOD8066032
_publ_section_title
;
Structure prediction by ZEFSAII (Michael W. Deem and Ramdas Pophale) SiO2 
 PCOD8066032
Probable space group: P 2/M
;
_chemical_formula_sum "Si O2"
_cell_formula_units_Z 28
_cell_length_a 28.564447
_cell_length_b 9.246183
_cell_length_c 8.862714
_cell_angle_alpha 90.000000
_cell_angle_beta 39.140306
_cell_angle_gamma 90.000000
_cell_volume 1477.531938
_symmetry_space_group_name_H-M "P 2/M"
_symmetry_group_IT_number 10
_symmetry_cell_setting 'monoclinic'
loop_
_space_group_symop_operation_xyz
x,y,z
-x,y,-z
-x,-y,-z
x,-y,z
loop_
_atom_site_type_symbol
_atom_site_label
_atom_site_fract_x
_atom_site_fract_y
_atom_site_fract_z
Si Si1 0.427581 0.669975 0.773025
Si Si2 0.715983 0.169196 0.366921
Si Si3 0.427921 0.830517 0.087005
Si Si4 0.857615 0.833257 0.207268
Si Si5 0.862450 0.329280 0.506623
Si Si6 0.992240 0.166158 0.345752
Si Si7 0.283773 0.330253 0.947924
O O1 0.500000 0.717609 0.500000
O O2 0.426372 0.500000 0.807009
O O3 0.356240 0.720624 0.857226
O O4 0.427457 0.748381 0.931819
O O5 0.643324 0.217220 0.639355
O O6 0.786973 0.214314 0.286848
O O7 0.718694 0.251862 0.204263
O O8 0.715661 0.000000 0.331636
O O9 0.427427 0.000000 0.053498
O O10 0.500000 0.783588 0.000000
O O11 0.861539 0.734194 0.342669
O O12 0.851755 0.000000 0.272542
O O13 0.929701 0.805025 0.927656
O O14 0.870678 0.500000 0.474094
O O15 0.931593 0.268684 0.424991
O O16 0.787339 0.283253 0.777960
O O17 0.000000 0.208589 0.500000
O O18 0.966986 0.000000 0.389555
O O19 0.285370 0.500000 0.912842
#
# Coordination Sequence:
#
# PCOD8066032 Si02
#       7
#     4   4   4   4   4   4   4
#     4  10  21  37  57  81 109 145 188 225 262 318
#     4  10  21  37  58  83 109 142 184 224 267 323
#     4  10  21  36  55  83 115 143 177 224 275 323
#     4  10  21  37  57  81 108 141 183 225 265 317
#     4  11  23  37  55  81 112 144 178 220 272 325
#     4  10  21  38  59  81 107 141 181 225 270 317
#     4  10  22  38  55  80 112 143 179 224 271 319
#
# _framework density 18.950520000000001
#
# number of rings (size 3 to 8) (size 9 to 14) (size 15 to 20)
#    0.000    1.857    0.000    3.429    0.000    7.143 
#    0.000    0.000    0.000    0.000    0.000    0.000 
#    0.000    0.000    0.000    0.000    0.000    0.000 
#
# Total GULP energy -347359.086657 kJ/mol
# GULP energy per Si atom -12405.681666 kJ/mol
# Density = 1.890739 g / cm^3
# Si number density = 18.950520 Si / 1000 Ang^3
#
#
#
# Elastic Constant Matrix: (Units=GPa)
#
#
# Indices 1 2 3 4 5 6 
#
# 1 176.1468 66.9209 106.0050 0.0000 1.6969 0.0000
# 2 66.9209 56.9195 61.3055 0.0000 7.8296 0.0000
# 3 106.0050 61.3055 161.2496 0.0000 1.1944 0.0000
# 4 0.0000 0.0000 0.0000 32.3588 0.0000 9.3527
# 5 1.6969 7.8296 1.1944 0.0000 45.2973 0.0000
# 6 0.0000 0.0000 0.0000 9.3527 0.0000 46.2084
#
#
#
# Elastic Compliance Matrix: (Units=1/GPa)
#
#
# Indices 1 2 3 4 5 6 
#
# 1 0.011789 -0.009629 -0.004099 0.000000 0.001331 0.000000
# 2 -0.009629 0.038718 -0.008345 0.000000 -0.006112 0.000000
# 3 -0.004099 -0.008345 0.012060 0.000000 0.001278 0.000000
# 4 0.000000 0.000000 0.000000 0.032824 0.000000 -0.006644
# 5 0.001331 -0.006112 0.001278 0.000000 0.023049 0.000000
# 6 0.000000 0.000000 0.000000 -0.006644 0.000000 0.022986
#
#
# Mechanical properties :
#
#
# Convention : Reuss Voigt Hill
#
# Bulk Modulus (GPa) = 54.28650 95.86430 75.07540
# Shear Modulus (GPa) = 26.08078 35.44522 30.76300
#
# Velocity S-wave (km/s) = 3.71382 4.32951 4.03343
# Velocity P-wave (km/s) = 6.86284 8.69996 7.83543
#
# Compressibility (1/GPa) = 0.01842079
#
# Stress axis : x y z
#
# Youngs Moduli (GPa) = 84.82228 25.82786 82.92028
#
# Poissons Ratio (x) = 0.24869 0.33993
# Poissons Ratio (y) = 0.81672 0.69198
# Poissons Ratio (z) = 0.34772 0.21554
#
# Static dielectric constant tensor:
#      x y z
#    x 3.546740 0.000000 -0.114400 
#    y 0.000000 3.395570 0.000000 
#    z -0.114400 0.000000 3.697980 
# 
# 
# High freq. dielectric constant tensor:
#      x y z
#    x 1.753880 0.000000 -0.003660 
#    y 0.000000 1.729920 0.000000 
#    z -0.003660 0.000000 1.757750 
# 
# From -- ./inp_files/36908.got.cif
#   From: 2010.06.25/outbox.cif.g09.slc.cpg/sg10_19_cif.got.tgz:36908.got - 2010.06.27 22:07:45.
