data_PCOD8066243
_publ_section_title
;
Structure prediction by ZEFSAII (Michael W. Deem and Ramdas Pophale) SiO2 
 PCOD8066243
Probable space group: P 2/M
;
_chemical_formula_sum "Si O2"
_cell_formula_units_Z 32
_cell_length_a 26.260946
_cell_length_b 13.381386
_cell_length_c 9.881648
_cell_angle_alpha 90.000000
_cell_angle_beta 151.493227
_cell_angle_gamma 90.000000
_cell_volume 1657.289148
_symmetry_space_group_name_H-M "P 2/M"
_symmetry_group_IT_number 10
_symmetry_cell_setting 'monoclinic'
loop_
_space_group_symop_operation_xyz
x,y,z
-x,y,-z
-x,-y,-z
x,-y,z
loop_
_atom_site_type_symbol
_atom_site_label
_atom_site_fract_x
_atom_site_fract_y
_atom_site_fract_z
Si Si1 0.296834 0.728036 0.744643
Si Si2 0.257404 0.385434 0.399791
Si Si3 0.483124 0.777237 0.606179
Si Si4 0.191115 0.115530 0.333119
Si Si5 0.683367 0.615968 0.762275
Si Si6 0.589533 0.113985 0.309886
Si Si7 0.040961 0.286536 0.943993
Si Si8 0.158101 0.383178 0.631044
O O1 0.325593 0.679193 0.666178
O O2 0.223210 0.827004 0.547566
O O3 0.235317 0.645831 0.688390
O O4 0.402494 0.760010 0.064068
O O5 0.286804 0.500000 0.488321
O O6 0.288324 0.348766 0.322698
O O7 0.132811 0.367989 0.135342
O O8 0.500000 0.831306 0.500000
O O9 0.421177 0.674014 0.431565
O O10 0.412950 0.841536 0.545233
O O11 0.290694 0.125628 0.464651
O O12 0.161745 0.000000 0.293716
O O13 0.088284 0.174011 0.030733
O O14 0.654187 0.500000 0.701442
O O15 0.784804 0.639945 0.093609
O O16 0.556796 0.000000 0.250935
O O17 0.500000 0.162641 0.000000
O O18 0.947213 0.313491 0.619762
O O19 0.000000 0.299486 0.000000
O O20 0.128136 0.500000 0.547321
#
# Coordination Sequence:
#
# PCOD8066243 Si02
#       8
#     4   4   4   4   4   4   4   4
#     4  11  21  36  58  92 115 157 202 240 301 354
#     4  10  21  37  57  84 116 151 201 254 289 345
#     4  12  23  37  60  89 126 158 198 247 298 353
#     4  10  21  39  62  92 124 150 193 249 300 360
#     4  10  24  40  56  85 123 164 201 241 301 357
#     4  10  21  39  65  89 115 155 195 239 298 357
#     4  11  21  35  60  90 114 151 206 244 300 350
#     4  11  22  39  58  83 123 161 202 249 297 350
#
# _framework density 19.30864
#
# number of rings (size 3 to 8) (size 9 to 14) (size 15 to 20)
#    0.000    1.375    5.000    2.250    0.000    2.750 
#    0.000    3.125    0.000    0.750    0.000    7.000 
#    0.000    0.000    0.000    0.000    0.000    0.000 
#
# Total GULP energy -396723.354380 kJ/mol
# GULP energy per Si atom -12397.604824 kJ/mol
# Density = 1.926469 g / cm^3
# Si number density = 19.308640 Si / 1000 Ang^3
#
#
#
# Elastic Constant Matrix: (Units=GPa)
#
#
# Indices 1 2 3 4 5 6 
#
# 1 87.4767 22.5816 18.2511 0.0000 -18.5380 0.0000
# 2 22.5816 96.0641 38.1546 0.0000 -8.0761 0.0000
# 3 18.2511 38.1546 83.0998 0.0000 -13.5178 0.0000
# 4 0.0000 0.0000 0.0000 27.2878 0.0000 4.0255
# 5 -18.5380 -8.0761 -13.5178 0.0000 33.8683 0.0000
# 6 0.0000 0.0000 0.0000 4.0255 0.0000 23.9395
#
#
#
# Elastic Compliance Matrix: (Units=1/GPa)
#
#
# Indices 1 2 3 4 5 6 
#
# 1 0.013593 -0.002302 -0.000864 0.000000 0.006547 0.000000
# 2 -0.002302 0.013139 -0.005585 0.000000 -0.000356 0.000000
# 3 -0.000864 -0.005585 0.015501 0.000000 0.004382 0.000000
# 4 0.000000 0.000000 0.000000 0.037579 0.000000 -0.006319
# 5 0.006547 -0.000356 0.004382 0.000000 0.034774 0.000000
# 6 0.000000 0.000000 0.000000 -0.006319 0.000000 0.042835
#
#
# Mechanical properties :
#
#
# Convention : Reuss Voigt Hill
#
# Bulk Modulus (GPa) = 40.43365 47.17947 43.80656
# Shear Modulus (GPa) = 27.29772 29.52933 28.41353
#
# Velocity S-wave (km/s) = 3.76408 3.91491 3.84023
# Velocity P-wave (km/s) = 6.31484 6.70245 6.51153
#
# Compressibility (1/GPa) = 0.02473188
#
# Stress axis : x y z
#
# Youngs Moduli (GPa) = 73.56483 76.10818 64.51359
#
# Poissons Ratio (x) = 0.17520 0.05571
# Poissons Ratio (y) = 0.16935 0.36031
# Poissons Ratio (z) = 0.06353 0.42507
#
# Static dielectric constant tensor:
#      x y z
#    x 3.751140 0.000000 -0.035510 
#    y 0.000000 3.618940 0.000000 
#    z -0.035510 0.000000 3.628590 
# 
# 
# High freq. dielectric constant tensor:
#      x y z
#    x 1.752090 0.000000 0.003150 
#    y 0.000000 1.746880 0.000000 
#    z 0.003150 0.000000 1.748850 
# 
# From -- ./inp_files/36407.got.cif
#   From: 2010.06.25/outbox.cif.g09.slc.cpg/sg10_19_cif.got.tgz:36407.got - 2010.06.27 22:07:45.
