data_PCOD8066003
_publ_section_title
;
Structure prediction by ZEFSAII (Michael W. Deem and Ramdas Pophale) SiO2 
 PCOD8066003
Probable space group: P 2/M
;
_chemical_formula_sum "Si O2"
_cell_formula_units_Z 28
_cell_length_a 14.562676
_cell_length_b 9.210311
_cell_length_c 19.979450
_cell_angle_alpha 90.000000
_cell_angle_beta 32.953484
_cell_angle_gamma 90.000000
_cell_volume 1457.687263
_symmetry_space_group_name_H-M "P 2/M"
_symmetry_group_IT_number 10
_symmetry_cell_setting 'monoclinic'
loop_
_space_group_symop_operation_xyz
x,y,z
-x,y,-z
-x,-y,-z
x,-y,z
loop_
_atom_site_type_symbol
_atom_site_label
_atom_site_fract_x
_atom_site_fract_y
_atom_site_fract_z
Si Si1 0.619230 0.332135 0.788003
Si Si2 0.339716 0.667674 0.640778
Si Si3 0.971778 0.331829 0.817254
Si Si4 0.745783 0.332182 0.563724
Si Si5 0.906934 0.327851 0.708006
Si Si6 0.574332 0.169825 0.283879
Si Si7 0.299526 0.830318 0.939445
O O1 0.569563 0.500000 0.829024
O O2 0.724415 0.310882 0.655786
O O3 0.736699 0.271779 0.776196
O O4 0.448542 0.239907 0.892295
O O5 0.500000 0.722007 0.500000
O O6 0.361920 0.500000 0.647478
O O7 0.321014 0.761265 0.719469
O O8 0.172145 0.692561 0.699576
O O9 0.925424 0.500000 0.856056
O O10 0.910618 0.274898 0.782278
O O11 0.878200 0.238962 0.931101
O O12 0.724031 0.500000 0.556018
O O13 0.609672 0.241212 0.605608
O O14 0.928654 0.269992 0.431835
O O15 0.910232 0.500000 0.701795
O O16 0.675247 0.203966 0.154140
O O17 0.552827 0.000000 0.308828
O O18 0.297711 0.000000 0.955310
#
# Coordination Sequence:
#
# PCOD8066003 Si02
#       7
#     4   4   4   4   4   4   4
#     4   9  17  31  55  82 106 137 177 218 261 313
#     4  10  21  38  60  85 110 135 166 210 264 317
#     4  10  21  36  55  78 105 138 176 217 260 311
#     4   9  16  30  54  82 110 138 172 216 265 316
#     4   9  17  31  53  81 109 137 173 219 267 312
#     4  10  21  36  55  78 106 142 178 216 262 309
#     4  10  22  39  54  73 106 143 180 220 261 305
#
# _framework density 19.20851
#
# number of rings (size 3 to 8) (size 9 to 14) (size 15 to 20)
#    0.000    2.429    0.000    2.143    0.000    7.714 
#    0.000    9.286    0.000    3.429    0.000    0.000 
#    0.000    0.000    0.000    0.000    0.000    0.000 
#
# Total GULP energy -347285.119249 kJ/mol
# GULP energy per Si atom -12403.039973 kJ/mol
# Density = 1.916479 g / cm^3
# Si number density = 19.208510 Si / 1000 Ang^3
#
#
#
# Elastic Constant Matrix: (Units=GPa)
#
#
# Indices 1 2 3 4 5 6 
#
# 1 119.5506 43.4302 35.2873 0.0000 0.7217 0.0000
# 2 43.4302 67.2034 42.6458 0.0000 0.8468 0.0000
# 3 35.2873 42.6458 110.3889 0.0000 -4.4900 0.0000
# 4 0.0000 0.0000 0.0000 15.2813 0.0000 7.2908
# 5 0.7217 0.8468 -4.4900 0.0000 18.1175 0.0000
# 6 0.0000 0.0000 0.0000 7.2908 0.0000 14.9024
#
#
#
# Elastic Compliance Matrix: (Units=1/GPa)
#
#
# Indices 1 2 3 4 5 6 
#
# 1 0.011020 -0.006453 -0.001046 0.000000 -0.000397 0.000000
# 2 -0.006453 0.023637 -0.007176 0.000000 -0.002626 0.000000
# 3 -0.001046 -0.007176 0.012305 0.000000 0.003426 0.000000
# 4 0.000000 0.000000 0.000000 0.085365 0.000000 -0.041764
# 5 -0.000397 -0.002626 0.003426 0.000000 0.056183 0.000000
# 6 0.000000 0.000000 0.000000 -0.041764 0.000000 0.087536
#
#
# Mechanical properties :
#
#
# Convention : Reuss Voigt Hill
#
# Bulk Modulus (GPa) = 56.77683 59.98548 58.38115
# Shear Modulus (GPa) = 16.06350 21.37889 18.72119
#
# Velocity S-wave (km/s) = 2.89497 3.33977 3.12529
# Velocity P-wave (km/s) = 6.38724 6.79474 6.59414
#
# Compressibility (1/GPa) = 0.01761282
#
# Stress axis : x y z
#
# Youngs Moduli (GPa) = 90.74418 42.30668 81.27012
#
# Poissons Ratio (x) = 0.27300 0.08500
# Poissons Ratio (y) = 0.58557 0.58316
# Poissons Ratio (z) = 0.09491 0.30357
#
# Static dielectric constant tensor:
#      x y z
#    x 3.609820 0.000000 -0.014990 
#    y 0.000000 3.289190 0.000000 
#    z -0.014990 0.000000 3.462170 
# 
# 
# High freq. dielectric constant tensor:
#      x y z
#    x 1.752770 0.000000 -0.001370 
#    y 0.000000 1.721190 0.000000 
#    z -0.001370 0.000000 1.748100 
# 
# From -- ./inp_files/49061.got.cif
#   From: 2010.06.25/outbox.cif.g09.slc.cpg/sg10_25_cif.got.tgz:49061.got - 2010.06.27 22:07:45.
