data_PCOD8066258
_publ_section_title
;
Structure prediction by ZEFSAII (Michael W. Deem and Ramdas Pophale) SiO2 
 PCOD8066258
Probable space group: P 2/M
;
_chemical_formula_sum "Si O2"
_cell_formula_units_Z 28
_cell_length_a 28.766668
_cell_length_b 8.979315
_cell_length_c 9.061803
_cell_angle_alpha 90.000000
_cell_angle_beta 38.785589
_cell_angle_gamma 90.000000
_cell_volume 1466.238176
_symmetry_space_group_name_H-M "P 2/M"
_symmetry_group_IT_number 10
_symmetry_cell_setting 'monoclinic'
loop_
_space_group_symop_operation_xyz
x,y,z
-x,y,-z
-x,-y,-z
x,-y,z
loop_
_atom_site_type_symbol
_atom_site_label
_atom_site_fract_x
_atom_site_fract_y
_atom_site_fract_z
Si Si1 0.293617 0.326259 0.926249
Si Si2 0.155284 0.175837 0.764596
Si Si3 0.427014 0.174250 0.760103
Si Si4 0.009385 0.664048 0.150935
Si Si5 0.288519 0.675776 0.601623
Si Si6 0.151927 0.325297 0.459871
Si Si7 0.423199 0.172371 0.111237
O O1 0.308575 0.500000 0.904343
O O2 0.353928 0.244975 0.874709
O O3 0.299468 0.273995 0.743293
O O4 0.212550 0.283125 0.187924
O O5 0.216744 0.241270 0.719693
O O6 0.168877 0.235722 0.566710
O O7 0.161437 0.000000 0.746493
O O8 0.074819 0.221954 0.029499
O O9 0.500000 0.240357 0.500000
O O10 0.421815 0.000000 0.744038
O O11 0.432449 0.213577 0.918009
O O12 0.029738 0.500000 0.163645
O O13 0.928705 0.717665 0.410526
O O14 0.000000 0.654371 0.000000
O O15 0.276416 0.500000 0.616639
O O16 0.360483 0.722945 0.332868
O O17 0.153084 0.500000 0.498036
O O18 0.400823 0.000000 0.189088
O O19 0.500000 0.209976 0.000000
#
# Coordination Sequence:
#
# PCOD8066258 Si02
#       7
#     4   4   4   4   4   4   4
#     4  10  22  38  56  79 106 140 182 225 267 313
#     4  11  21  33  53  81 110 141 179 222 270 322
#     4  10  21  37  58  83 110 142 177 215 264 318
#     4   8  15  30  53  78 105 139 177 219 268 319
#     4  11  23  38  55  77 108 145 184 223 266 317
#     4   9  18  35  57  80 107 139 178 224 271 320
#     4  10  21  38  60  85 112 142 177 217 264 319
#
# _framework density 19.096488000000001
#
# number of rings (size 3 to 8) (size 9 to 14) (size 15 to 20)
#    0.000    2.143    0.000    4.286    0.000    8.857 
#    0.000    0.714    0.000    4.286    0.000    0.000 
#    0.000    0.000    0.000    0.000    0.000    0.000 
#
# Total GULP energy -347224.717737 kJ/mol
# GULP energy per Si atom -12400.882776 kJ/mol
# Density = 1.905302 g / cm^3
# Si number density = 19.096488 Si / 1000 Ang^3
#
#
#
# Elastic Constant Matrix: (Units=GPa)
#
#
# Indices 1 2 3 4 5 6 
#
# 1 121.9021 55.5737 63.7430 0.0000 -10.0573 0.0000
# 2 55.5737 79.0723 45.0214 0.0000 -5.5448 0.0000
# 3 63.7430 45.0214 143.9645 0.0000 -14.3757 0.0000
# 4 0.0000 0.0000 0.0000 35.4871 0.0000 -7.0173
# 5 -10.0573 -5.5448 -14.3757 0.0000 28.1943 0.0000
# 6 0.0000 0.0000 0.0000 -7.0173 0.0000 24.8755
#
#
#
# Elastic Compliance Matrix: (Units=1/GPa)
#
#
# Indices 1 2 3 4 5 6 
#
# 1 0.013555 -0.007408 -0.003528 0.000000 0.001580 0.000000
# 2 -0.007408 0.019444 -0.002827 0.000000 -0.000260 0.000000
# 3 -0.003528 -0.002827 0.009705 0.000000 0.003134 0.000000
# 4 0.000000 0.000000 0.000000 0.029844 0.000000 0.008419
# 5 0.001580 -0.000260 0.003134 0.000000 0.037579 0.000000
# 6 0.000000 0.000000 0.000000 0.008419 0.000000 0.042575
#
#
# Mechanical properties :
#
#
# Convention : Reuss Voigt Hill
#
# Bulk Modulus (GPa) = 65.87372 74.84612 70.35992
# Shear Modulus (GPa) = 26.98527 29.75145 28.36836
#
# Velocity S-wave (km/s) = 3.76320 3.95137 3.85844
# Velocity P-wave (km/s) = 7.31111 7.75220 7.53488
#
# Compressibility (1/GPa) = 0.01518056
#
# Stress axis : x y z
#
# Youngs Moduli (GPa) = 73.77195 51.42929 103.03976
#
# Poissons Ratio (x) = 0.38097 0.36348
# Poissons Ratio (y) = 0.54648 0.29127
# Poissons Ratio (z) = 0.26023 0.14538
#
# Static dielectric constant tensor:
#      x y z
#    x 3.508680 0.000000 -0.239910 
#    y 0.000000 3.417820 0.000000 
#    z -0.239910 0.000000 3.989310 
# 
# 
# High freq. dielectric constant tensor:
#      x y z
#    x 1.739410 0.000000 -0.015760 
#    y 0.000000 1.733870 0.000000 
#    z -0.015760 0.000000 1.754200 
# 
# From -- ./inp_files/36905.got.cif
#   From: 2010.06.25/outbox.cif.g09.slc.cpg/sg10_19_cif.got.tgz:36905.got - 2010.06.27 22:07:45.
