data_PCOD8066683
_publ_section_title
;
Structure prediction by ZEFSAII (Michael W. Deem and Ramdas Pophale) SiO2 
 PCOD8066683
Probable space group: P 2/M
;
_chemical_formula_sum "Si O2"
_cell_formula_units_Z 28
_cell_length_a 5.023045
_cell_length_b 32.307823
_cell_length_c 9.295196
_cell_angle_alpha 90.000000
_cell_angle_beta 116.912668
_cell_angle_gamma 90.000000
_cell_volume 1345.088478
_symmetry_space_group_name_H-M "P 2/M"
_symmetry_group_IT_number 10
_symmetry_cell_setting 'monoclinic'
loop_
_space_group_symop_operation_xyz
x,y,z
-x,y,-z
-x,-y,-z
x,-y,z
loop_
_atom_site_type_symbol
_atom_site_label
_atom_site_fract_x
_atom_site_fract_y
_atom_site_fract_z
Si Si1 0.622511 0.172087 0.683204
Si Si2 0.167355 0.259711 0.184783
Si Si3 0.233482 0.130699 0.821500
Si Si4 0.158651 0.044553 0.890074
Si Si5 0.670621 0.607359 0.395340
Si Si6 0.665230 0.451815 0.893981
Si Si7 0.337795 0.683978 0.814869
O O1 0.500000 0.158246 0.500000
O O2 0.696561 0.220702 0.699192
O O3 0.349122 0.157352 0.716059
O O4 0.929825 0.150605 0.805514
O O5 0.450642 0.286183 0.218265
O O6 0.958095 0.289271 0.228617
O O7 0.000000 0.244123 0.000000
O O8 0.140855 0.082357 0.770103
O O9 0.500000 0.132377 0.000000
O O10 0.020613 0.000000 0.801763
O O11 0.500000 0.035736 0.000000
O O12 0.000000 0.058510 0.000000
O O13 0.500000 0.620807 0.500000
O O14 0.470551 0.572424 0.272992
O O15 0.731062 0.645494 0.303352
O O16 0.000000 0.588278 0.500000
O O17 0.649773 0.500000 0.850530
O O18 0.500000 0.441156 0.000000
O O19 0.000000 0.436387 0.000000
O O20 0.500000 0.668009 0.000000
#
# Coordination Sequence:
#
# PCOD8066683 Si02
#       7
#     4   4   4   4   4   4   4
#     4  12  25  39  58  87 122 156 192 245 305 358
#     4  10  21  39  62  86 111 151 204 250 294 352
#     4  11  21  38  62  86 115 155 200 244 291 355
#     4   9  17  31  55  88 117 145 193 253 300 340
#     4  12  25  39  61  95 130 162 198 252 314 366
#     4  10  22  42  67  92 123 169 218 258 301 361
#     4  10  22  40  62  85 115 155 200 247 296 360
#
# _framework density 20.816476000000002
#
# number of rings (size 3 to 8) (size 9 to 14) (size 15 to 20)
#    0.000    1.429    0.000    6.429    0.000    5.143 
#    0.000    0.000    0.000    2.571    0.000    0.000 
#    0.000    0.000    0.000    0.000    0.000    0.000 
#
# Total GULP energy -347018.279840 kJ/mol
# GULP energy per Si atom -12393.509994 kJ/mol
# Density = 2.076910 g / cm^3
# Si number density = 20.816476 Si / 1000 Ang^3
#
#
#
# Elastic Constant Matrix: (Units=GPa)
#
#
# Indices 1 2 3 4 5 6 
#
# 1 150.7580 46.1268 30.6940 0.0000 2.5629 0.0000
# 2 46.1268 120.4876 50.4851 0.0000 -1.5389 0.0000
# 3 30.6940 50.4851 79.0678 0.0000 -0.8134 0.0000
# 4 0.0000 0.0000 0.0000 2.9401 0.0000 -5.7090
# 5 2.5629 -1.5389 -0.8134 0.0000 28.9460 0.0000
# 6 0.0000 0.0000 0.0000 -5.7090 0.0000 50.1391
#
#
#
# Elastic Compliance Matrix: (Units=1/GPa)
#
#
# Indices 1 2 3 4 5 6 
#
# 1 0.007662 -0.002313 -0.001506 0.000000 -0.000844 0.000000
# 2 -0.002313 0.012034 -0.006779 0.000000 0.000654 0.000000
# 3 -0.001506 -0.006779 0.017563 0.000000 0.000266 0.000000
# 4 0.000000 0.000000 0.000000 0.436662 0.000000 0.049720
# 5 -0.000844 0.000654 0.000266 0.000000 0.034664 0.000000
# 6 0.000000 0.000000 0.000000 0.049720 0.000000 0.025606
#
#
# Mechanical properties :
#
#
# Convention : Reuss Voigt Hill
#
# Bulk Modulus (GPa) = 62.25622 67.21389 64.73506
# Shear Modulus (GPa) = 8.91676 31.27221 20.09448
#
# Velocity S-wave (km/s) = 2.07191 3.88013 3.11032
# Velocity P-wave (km/s) = 5.97460 7.24105 6.63810
#
# Compressibility (1/GPa) = 0.01606265
#
# Stress axis : x y z
#
# Youngs Moduli (GPa) = 130.51749 83.09855 56.93681
#
# Poissons Ratio (x) = 0.19220 0.08576
# Poissons Ratio (y) = 0.30187 0.38598
# Poissons Ratio (z) = 0.19659 0.56334
#
# Static dielectric constant tensor:
#      x y z
#    x 4.064610 0.000000 -0.039060 
#    y 0.000000 3.931880 0.000000 
#    z -0.039060 0.000000 3.516550 
# 
# 
# High freq. dielectric constant tensor:
#      x y z
#    x 1.841370 0.000000 0.001680 
#    y 0.000000 1.827540 0.000000 
#    z 0.001680 0.000000 1.785750 
# 
# From -- ./inp_files/15911.got.cif
#   From: 2010.06.25/outbox.cif.g09.slc.cpg/sg10_8_cif.got.tgz:15911.got - 2010.06.27 22:07:45.
