data_PCOD8066552
_publ_section_title
;
Structure prediction by ZEFSAII (Michael W. Deem and Ramdas Pophale) SiO2 
 PCOD8066552
Probable space group: P 2/M
;
_chemical_formula_sum "Si O2"
_cell_formula_units_Z 20
_cell_length_a 5.044198
_cell_length_b 8.429038
_cell_length_c 25.146009
_cell_angle_alpha 90.000000
_cell_angle_beta 59.826550
_cell_angle_gamma 90.000000
_cell_volume 924.289715
_symmetry_space_group_name_H-M "P 2/M"
_symmetry_group_IT_number 10
_symmetry_cell_setting 'monoclinic'
loop_
_space_group_symop_operation_xyz
x,y,z
-x,y,-z
-x,-y,-z
x,-y,z
loop_
_atom_site_type_symbol
_atom_site_label
_atom_site_fract_x
_atom_site_fract_y
_atom_site_fract_z
Si Si1 0.405195 0.815307 0.568464
Si Si2 0.764714 0.317148 0.828754
Si Si3 0.582387 0.185208 0.235273
Si Si4 0.740433 0.315326 0.633232
Si Si5 0.345732 0.817088 0.959372
O O1 0.500000 0.762198 0.500000
O O2 0.619423 0.716356 0.586318
O O3 0.049929 0.779881 0.614072
O O4 0.469946 0.000000 0.571707
O O5 0.860356 0.500000 0.818449
O O6 0.639445 0.270567 0.783874
O O7 0.505842 0.288441 0.898745
O O8 0.062582 0.215149 0.814233
O O9 0.517622 0.255340 0.299996
O O10 0.512728 0.000000 0.240400
O O11 0.806144 0.500000 0.634248
O O12 0.360077 0.000000 0.939525
O O13 0.500000 0.789511 0.000000
O O14 0.000000 0.757328 0.000000
#
# Coordination Sequence:
#
# PCOD8066552 Si02
#       5
#     4   4   4   4   4
#     4  11  24  43  66  93 127 168 212 255 306 373
#     4  12  25  42  65  96 130 162 206 263 318 367
#     4  12  25  44  67  91 125 169 213 254 309 378
#     4  12  25  42  65  95 129 163 207 262 317 368
#     4  10  21  38  61  89 123 164 208 251 302 369
#
# _framework density 21.638235000000002
#
# number of rings (size 3 to 8) (size 9 to 14) (size 15 to 20)
#    0.000    0.600    0.000    9.000    0.000    6.400 
#    0.000    0.000    0.000    0.000    0.000    0.000 
#    0.000    0.000    0.000    0.000    0.000    0.000 
#
# Total GULP energy -248221.544788 kJ/mol
# GULP energy per Si atom -12411.077239 kJ/mol
# Density = 2.158899 g / cm^3
# Si number density = 21.638235 Si / 1000 Ang^3
#
#
#
# Elastic Constant Matrix: (Units=GPa)
#
#
# Indices 1 2 3 4 5 6 
#
# 1 96.2164 8.5761 2.5867 0.0000 -9.6608 0.0000
# 2 8.5761 77.8327 37.6829 0.0000 2.9236 0.0000
# 3 2.5867 37.6829 85.1878 0.0000 -2.5952 0.0000
# 4 0.0000 0.0000 0.0000 32.6335 0.0000 7.6665
# 5 -9.6608 2.9236 -2.5952 0.0000 32.7685 0.0000
# 6 0.0000 0.0000 0.0000 7.6665 0.0000 32.2334
#
#
#
# Elastic Compliance Matrix: (Units=1/GPa)
#
#
# Indices 1 2 3 4 5 6 
#
# 1 0.010857 -0.001544 0.000456 0.000000 0.003375 0.000000
# 2 -0.001544 0.016706 -0.007420 0.000000 -0.002533 0.000000
# 3 0.000456 -0.007420 0.015068 0.000000 0.001990 0.000000
# 4 0.000000 0.000000 0.000000 0.032457 0.000000 -0.007720
# 5 0.003375 -0.002533 0.001990 0.000000 0.031896 0.000000
# 6 0.000000 0.000000 0.000000 -0.007720 0.000000 0.032860
#
#
# Mechanical properties :
#
#
# Convention : Reuss Voigt Hill
#
# Bulk Modulus (GPa) = 39.03935 39.65870 39.34902
# Shear Modulus (GPa) = 30.23011 33.55314 31.89162
#
# Velocity S-wave (km/s) = 3.74179 3.94209 3.84325
# Velocity P-wave (km/s) = 6.06210 6.25204 6.15780
#
# Compressibility (1/GPa) = 0.02561518
#
# Stress axis : x y z
#
# Youngs Moduli (GPa) = 92.10262 59.85931 66.36648
#
# Poissons Ratio (x) = 0.09242 -0.03027
# Poissons Ratio (y) = 0.14220 0.49245
# Poissons Ratio (z) = -0.04201 0.44416
#
# Static dielectric constant tensor:
#      x y z
#    x 3.971980 0.000000 -0.015610 
#    y 0.000000 3.870620 0.000000 
#    z -0.015610 0.000000 4.011950 
# 
# 
# High freq. dielectric constant tensor:
#      x y z
#    x 1.864500 0.000000 -0.000080 
#    y 0.000000 1.854020 0.000000 
#    z -0.000080 0.000000 1.863120 
# 
# From -- ./inp_files/80935.got.cif
#   From: 2010.06.25/outbox.cif.g09.slc.cpg/sg10_41_cif.got.tgz:80935.got - 2010.06.27 22:07:45.
