data_PCOD8066053
_publ_section_title
;
Structure prediction by ZEFSAII (Michael W. Deem and Ramdas Pophale) SiO2 
 PCOD8066053
Probable space group: P 2/M
;
_chemical_formula_sum "Si O2"
_cell_formula_units_Z 28
_cell_length_a 15.820094
_cell_length_b 8.571148
_cell_length_c 20.775156
_cell_angle_alpha 90.000000
_cell_angle_beta 151.276825
_cell_angle_gamma 90.000000
_cell_volume 1353.806066
_symmetry_space_group_name_H-M "P 2/M"
_symmetry_group_IT_number 10
_symmetry_cell_setting 'monoclinic'
loop_
_space_group_symop_operation_xyz
x,y,z
-x,y,-z
-x,-y,-z
x,-y,z
loop_
_atom_site_type_symbol
_atom_site_label
_atom_site_fract_x
_atom_site_fract_y
_atom_site_fract_z
Si Si1 0.577819 0.180081 0.642570
Si Si2 0.252047 0.319754 0.363684
Si Si3 0.270846 0.683979 0.663102
Si Si4 0.812771 0.319408 0.901275
Si Si5 0.083031 0.819147 0.796753
Si Si6 0.043654 0.315180 0.632247
Si Si7 0.664048 0.681753 0.938066
O O1 0.401473 0.280687 0.515812
O O2 0.718914 0.219459 0.681274
O O3 0.659399 0.220123 0.765825
O O4 0.526109 0.000000 0.604580
O O5 0.261954 0.500000 0.350978
O O6 0.064362 0.285171 0.268172
O O7 0.269496 0.500000 0.657798
O O8 0.188841 0.733684 0.676601
O O9 0.470009 0.747415 0.790399
O O10 0.147869 0.742238 0.521843
O O11 0.785983 0.500000 0.865376
O O12 0.796732 0.291910 0.966868
O O13 0.000000 0.259322 0.000000
O O14 0.094999 0.778161 0.730033
O O15 0.038809 0.000000 0.775838
O O16 0.266324 0.777315 0.954068
O O17 0.045097 0.500000 0.647064
O O18 0.652814 0.500000 0.949109
#
# Coordination Sequence:
#
# PCOD8066053 Si02
#       7
#     4   4   4   4   4   4   4
#     4  11  22  37  58  87 121 154 192 246 308 359
#     4  11  22  39  61  83 113 155 205 249 291 348
#     4   8  17  36  63  92 116 147 201 254 296 353
#     4  10  21  36  56  83 117 159 208 249 289 347
#     4  12  25  39  56  87 124 158 195 245 308 365
#     4   9  18  37  64  90 117 152 195 249 304 358
#     4  10  21  38  60  86 117 159 208 253 296 352
#
# _framework density 20.682431000000001
#
# number of rings (size 3 to 8) (size 9 to 14) (size 15 to 20)
#    0.000    1.857    0.000    6.429    2.000    2.571 
#    0.000    5.714    0.000    0.000    0.000    0.000 
#    0.000    0.000    0.000    0.000    0.000    0.000 
#
# Total GULP energy -347268.236069 kJ/mol
# GULP energy per Si atom -12402.437002 kJ/mol
# Density = 2.063536 g / cm^3
# Si number density = 20.682431 Si / 1000 Ang^3
#
#
#
# Elastic Constant Matrix: (Units=GPa)
#
#
# Indices 1 2 3 4 5 6 
#
# 1 80.0020 16.8296 57.4136 0.0000 -5.1846 0.0000
# 2 16.8296 69.6252 23.4001 0.0000 -7.6730 0.0000
# 3 57.4136 23.4001 121.2154 0.0000 -8.1412 0.0000
# 4 0.0000 0.0000 0.0000 15.0110 0.0000 -0.0459
# 5 -5.1846 -7.6730 -8.1412 0.0000 39.8232 0.0000
# 6 0.0000 0.0000 0.0000 -0.0459 0.0000 19.2222
#
#
#
# Elastic Compliance Matrix: (Units=1/GPa)
#
#
# Indices 1 2 3 4 5 6 
#
# 1 0.019126 -0.001651 -0.008714 0.000000 0.000390 0.000000
# 2 -0.001651 0.015729 -0.002094 0.000000 0.002387 0.000000
# 3 -0.008714 -0.002094 0.012855 0.000000 0.001090 0.000000
# 4 0.000000 0.000000 0.000000 0.066618 0.000000 0.000159
# 5 0.000390 0.002387 0.001090 0.000000 0.025845 0.000000
# 6 0.000000 0.000000 0.000000 0.000159 0.000000 0.052023
#
#
# Mechanical properties :
#
#
# Convention : Reuss Voigt Hill
#
# Bulk Modulus (GPa) = 43.87745 51.79215 47.83480
# Shear Modulus (GPa) = 22.25082 26.35792 24.30437
#
# Velocity S-wave (km/s) = 3.28355 3.57376 3.43172
# Velocity P-wave (km/s) = 5.96963 6.49038 6.23544
#
# Compressibility (1/GPa) = 0.02279075
#
# Stress axis : x y z
#
# Youngs Moduli (GPa) = 52.28488 63.57849 77.79338
#
# Poissons Ratio (x) = 0.10499 0.67789
# Poissons Ratio (y) = 0.08634 0.16288
# Poissons Ratio (z) = 0.45561 0.13312
#
# Static dielectric constant tensor:
#      x y z
#    x 3.693890 0.000000 0.097550 
#    y 0.000000 3.482640 0.000000 
#    z 0.097550 0.000000 4.092060 
# 
# 
# High freq. dielectric constant tensor:
#      x y z
#    x 1.803930 0.000000 -0.004290 
#    y 0.000000 1.785210 0.000000 
#    z -0.004290 0.000000 1.819680 
# 
# From -- ./inp_files/84999.got.cif
#   From: 2010.06.25/outbox.cif.g09.slc.cpg/sg10_43_cif.got.tgz:84999.got - 2010.06.27 22:07:45.
