data_PCOD8066667
_publ_section_title
;
Structure prediction by ZEFSAII (Michael W. Deem and Ramdas Pophale) SiO2 
 PCOD8066667
Probable space group: P 2/M
;
_chemical_formula_sum "Si O2"
_cell_formula_units_Z 28
_cell_length_a 11.096567
_cell_length_b 8.895869
_cell_length_c 14.541835
_cell_angle_alpha 90.000000
_cell_angle_beta 110.909303
_cell_angle_gamma 90.000000
_cell_volume 1340.945849
_symmetry_space_group_name_H-M "P 2/M"
_symmetry_group_IT_number 10
_symmetry_cell_setting 'monoclinic'
loop_
_space_group_symop_operation_xyz
x,y,z
-x,y,-z
-x,-y,-z
x,-y,z
loop_
_atom_site_type_symbol
_atom_site_label
_atom_site_fract_x
_atom_site_fract_y
_atom_site_fract_z
Si Si1 0.409678 0.823748 0.246184
Si Si2 0.633509 0.822772 0.446424
Si Si3 0.999122 0.173724 0.736352
Si Si4 0.737443 0.677522 0.648119
Si Si5 0.900332 0.324931 0.055279
Si Si6 0.599150 0.323275 0.945874
Si Si7 0.880199 0.174653 0.414643
O O1 0.513050 0.780621 0.351443
O O2 0.283912 0.741657 0.253786
O O3 0.450909 0.758435 0.159217
O O4 0.386304 0.000000 0.229126
O O5 0.634226 0.743414 0.546373
O O6 0.750681 0.753893 0.419009
O O7 0.639505 0.000000 0.466953
O O8 0.880449 0.267890 0.662455
O O9 0.049730 0.229261 0.846707
O O10 0.113249 0.197570 0.693343
O O11 0.957668 0.000000 0.732084
O O12 0.727828 0.500000 0.646847
O O13 0.907609 0.500000 0.081854
O O14 0.750360 0.277477 0.999109
O O15 0.000000 0.287189 0.000000
O O16 0.587865 0.500000 0.928585
O O17 0.500000 0.271843 0.000000
O O18 0.000000 0.250967 0.500000
O O19 0.876486 0.000000 0.439338
#
# Coordination Sequence:
#
# PCOD8066667 Si02
#       7
#     4   4   4   4   4   4   4
#     4  11  24  40  64  91 120 159 209 260 305 359
#     4  10  21  39  61  88 123 161 203 250 305 361
#     4  11  22  37  64  93 121 157 202 253 308 363
#     4  12  24  39  60  89 127 164 202 248 305 373
#     4  10  22  41  63  88 121 164 209 256 312 370
#     4  10  23  43  64  89 128 171 208 256 318 376
#     4   9  17  34  59  85 119 158 193 241 301 360
#
# _framework density 20.880783999999998
#
# number of rings (size 3 to 8) (size 9 to 14) (size 15 to 20)
#    0.000    1.571    1.429    3.429    2.000    5.143 
#    0.000    2.143    0.000    0.000    0.000    0.000 
#    0.000    0.000    0.000    0.000    0.000    0.000 
#
# Total GULP energy -347091.389066 kJ/mol
# GULP energy per Si atom -12396.121038 kJ/mol
# Density = 2.083326 g / cm^3
# Si number density = 20.880784 Si / 1000 Ang^3
#
#
#
# Elastic Constant Matrix: (Units=GPa)
#
#
# Indices 1 2 3 4 5 6 
#
# 1 110.6906 24.9414 48.8889 0.0000 -14.6482 0.0000
# 2 24.9414 73.9633 61.7066 0.0000 -3.5079 0.0000
# 3 48.8889 61.7066 133.9595 0.0000 -20.4160 0.0000
# 4 0.0000 0.0000 0.0000 28.1485 0.0000 -3.1343
# 5 -14.6482 -3.5079 -20.4160 0.0000 32.5737 0.0000
# 6 0.0000 0.0000 0.0000 -3.1343 0.0000 19.0577
#
#
#
# Elastic Compliance Matrix: (Units=1/GPa)
#
#
# Indices 1 2 3 4 5 6 
#
# 1 0.011019 -0.000959 -0.003140 0.000000 0.002884 0.000000
# 2 -0.000959 0.022627 -0.010799 0.000000 -0.004763 0.000000
# 3 -0.003140 -0.010799 0.014586 0.000000 0.006567 0.000000
# 4 0.000000 0.000000 0.000000 0.036189 0.000000 0.005952
# 5 0.002884 -0.004763 0.006567 0.000000 0.035599 0.000000
# 6 0.000000 0.000000 0.000000 0.005952 0.000000 0.053451
#
#
# Mechanical properties :
#
#
# Convention : Reuss Voigt Hill
#
# Bulk Modulus (GPa) = 54.24163 65.52081 59.88122
# Shear Modulus (GPa) = 23.87642 28.16109 26.01876
#
# Velocity S-wave (km/s) = 3.38518 3.67640 3.53379
# Velocity P-wave (km/s) = 6.42748 7.03334 6.73722
#
# Compressibility (1/GPa) = 0.01843603
#
# Stress axis : x y z
#
# Youngs Moduli (GPa) = 90.75404 44.19517 68.55924
#
# Poissons Ratio (x) = 0.04240 0.21527
# Poissons Ratio (y) = 0.08706 0.74034
# Poissons Ratio (z) = 0.28496 0.47724
#
# Static dielectric constant tensor:
#      x y z
#    x 4.235300 0.000000 -0.080870 
#    y 0.000000 3.466950 0.000000 
#    z -0.080870 0.000000 3.751160 
# 
# 
# High freq. dielectric constant tensor:
#      x y z
#    x 1.835810 0.000000 -0.011520 
#    y 0.000000 1.794020 0.000000 
#    z -0.011520 0.000000 1.823280 
# 
# From -- ./inp_files/63495.got.cif
#   From: 2010.06.25/outbox.cif.g09.slc.cpg/sg10_32_cif.got.tgz:63495.got - 2010.06.27 22:07:45.
