data_PCOD8066884
_publ_section_title
;
Structure prediction by ZEFSAII (Michael W. Deem and Ramdas Pophale) SiO2 
 PCOD8066884
Probable space group: P 2/M
;
_chemical_formula_sum "Si O2"
_cell_formula_units_Z 26
_cell_length_a 8.779966
_cell_length_b 8.227776
_cell_length_c 28.230124
_cell_angle_alpha 90.000000
_cell_angle_beta 144.539602
_cell_angle_gamma 90.000000
_cell_volume 1183.098692
_symmetry_space_group_name_H-M "P 2/M"
_symmetry_group_IT_number 10
_symmetry_cell_setting 'monoclinic'
loop_
_space_group_symop_operation_xyz
x,y,z
-x,y,-z
-x,-y,-z
x,-y,z
loop_
_atom_site_type_symbol
_atom_site_label
_atom_site_fract_x
_atom_site_fract_y
_atom_site_fract_z
Si Si1 0.435174 0.810742 0.713024
Si Si2 0.808139 0.189356 0.176750
Si Si3 0.253386 0.500000 0.504102
Si Si4 0.032917 0.314923 0.137258
Si Si5 0.013250 0.822680 0.679285
Si Si6 0.500000 0.751746 0.500000
Si Si7 0.644502 0.500000 0.367456
Si Si8 0.208908 0.188619 0.014625
O O1 0.718554 0.803823 0.810091
O O2 0.463881 0.673197 0.679326
O O3 0.202448 0.742039 0.687852
O O4 0.382856 0.000000 0.682447
O O5 0.500583 0.221158 0.107720
O O6 0.904077 0.286551 0.155637
O O7 0.961306 0.259810 0.262370
O O8 0.871312 0.000000 0.183797
O O9 0.318522 0.655039 0.489652
O O10 0.429829 0.500000 0.595962
O O11 0.953333 0.500000 0.440433
O O12 0.130451 0.500000 0.159908
O O13 0.821216 0.281969 0.042716
O O14 0.712139 0.846833 0.585591
O O15 0.138954 0.000000 0.718361
O O16 0.159872 0.000000 0.992349
O O17 0.000000 0.255913 0.000000
#
# Coordination Sequence:
#
# PCOD8066884 Si02
#       8
#     4   4   2   4   4   2   2   4
#     4  11  23  43  67  95 131 175 221 269 327 391
#     4  10  22  41  64  93 128 171 219 273 327 385
#     4  10  24  40  66  90 134 168 220 270 338 395
#     4  12  25  40  62  95 135 171 218 271 323 390
#     4  10  22  40  64  94 127 167 224 274 326 398
#     4  11  21  40  64  94 127 179 208 275 337 388
#     4  11  22  46  64  98 130 174 218 278 325 397
#     4  10  21  41  68  94 127 171 218 268 328 390
#
# _framework density 21.976188
#
# number of rings (size 3 to 8) (size 9 to 14) (size 15 to 20)
#    0.000    1.385    2.308    3.000    2.154    5.231 
#    2.769    2.308    0.000    0.000    0.000    0.000 
#    0.000    0.000    0.000    0.000    0.000    0.000 
#
# Total GULP energy -322211.760049 kJ/mol
# GULP energy per Si atom -12392.760002 kJ/mol
# Density = 2.192617 g / cm^3
# Si number density = 21.976188 Si / 1000 Ang^3
#
#
#
# Elastic Constant Matrix: (Units=GPa)
#
#
# Indices 1 2 3 4 5 6 
#
# 1 89.0636 15.4337 49.9711 0.0000 -5.2098 0.0000
# 2 15.4337 93.0542 25.8877 0.0000 -11.3981 0.0000
# 3 49.9711 25.8877 144.4947 0.0000 -9.9932 0.0000
# 4 0.0000 0.0000 0.0000 28.0363 0.0000 -3.0642
# 5 -5.2098 -11.3981 -9.9932 0.0000 45.2911 0.0000
# 6 0.0000 0.0000 0.0000 -3.0642 0.0000 33.9261
#
#
#
# Elastic Compliance Matrix: (Units=1/GPa)
#
#
# Indices 1 2 3 4 5 6 
#
# 1 0.014029 -0.000992 -0.004651 0.000000 0.000338 0.000000
# 2 -0.000992 0.011651 -0.001574 0.000000 0.002471 0.000000
# 3 -0.004651 -0.001574 0.008882 0.000000 0.001029 0.000000
# 4 0.000000 0.000000 0.000000 0.036024 0.000000 0.003254
# 5 0.000338 0.002471 0.001029 0.000000 0.022967 0.000000
# 6 0.000000 0.000000 0.000000 0.003254 0.000000 0.029770
#
#
# Mechanical properties :
#
#
# Convention : Reuss Voigt Hill
#
# Bulk Modulus (GPa) = 49.67557 56.57749 53.12653
# Shear Modulus (GPa) = 34.61054 37.13871 35.87462
#
# Velocity S-wave (km/s) = 3.97282 4.11536 4.04472
# Velocity P-wave (km/s) = 6.61043 6.95575 6.78528
#
# Compressibility (1/GPa) = 0.02013062
#
# Stress axis : x y z
#
# Youngs Moduli (GPa) = 71.28158 85.82705 112.58604
#
# Poissons Ratio (x) = 0.08510 0.52359
# Poissons Ratio (y) = 0.07068 0.17717
# Poissons Ratio (z) = 0.33150 0.13506
#
# Static dielectric constant tensor:
#      x y z
#    x 3.927830 0.000000 -0.090360 
#    y 0.000000 3.766000 0.000000 
#    z -0.090360 0.000000 4.169170 
# 
# 
# High freq. dielectric constant tensor:
#      x y z
#    x 1.866550 0.000000 0.003380 
#    y 0.000000 1.846490 0.000000 
#    z 0.003380 0.000000 1.874710 
# 
# From -- ./inp_files/91895.got.cif
#   From: 2010.06.25/outbox.cif.g09.slc.cpg/sg10_46_cif.got.tgz:91895.got - 2010.06.27 22:07:45.
