data_PCOD8066330
_publ_section_title
;
Structure prediction by ZEFSAII (Michael W. Deem and Ramdas Pophale) SiO2 
 PCOD8066330
Probable space group: P 2/M
;
_chemical_formula_sum "Si O2"
_cell_formula_units_Z 28
_cell_length_a 18.285590
_cell_length_b 18.156348
_cell_length_c 10.360306
_cell_angle_alpha 90.000000
_cell_angle_beta 21.830890
_cell_angle_gamma 90.000000
_cell_volume 1279.084644
_symmetry_space_group_name_H-M "P 2/M"
_symmetry_group_IT_number 10
_symmetry_cell_setting 'monoclinic'
loop_
_space_group_symop_operation_xyz
x,y,z
-x,y,-z
-x,-y,-z
x,-y,z
loop_
_atom_site_type_symbol
_atom_site_label
_atom_site_fract_x
_atom_site_fract_y
_atom_site_fract_z
Si Si1 0.536639 0.196469 0.300841
Si Si2 0.965004 0.664263 0.234531
Si Si3 0.268195 0.415938 0.882827
Si Si4 0.372900 0.416400 0.338080
Si Si5 0.899977 0.828017 0.035682
Si Si6 0.852995 0.084668 0.858459
Si Si7 0.288096 0.335327 0.096130
O O1 0.500000 0.236750 0.500000
O O2 0.334325 0.178262 0.558736
O O3 0.648143 0.120695 0.150491
O O4 0.670628 0.248690 0.993283
O O5 0.830952 0.629384 0.340937
O O6 0.847237 0.655015 0.559706
O O7 0.168560 0.618574 0.916991
O O8 0.002321 0.748689 0.143062
O O9 0.500000 0.407293 0.500000
O O10 0.200536 0.500000 0.006646
O O11 0.181858 0.370291 0.145797
O O12 0.325401 0.500000 0.459160
O O13 0.500000 0.415964 0.000000
O O14 0.504112 0.377831 0.231772
O O15 0.943576 0.877309 0.838140
O O16 0.000000 0.863653 0.000000
O O17 0.000000 0.094757 0.500000
O O18 0.812606 0.000000 0.957171
#
# Coordination Sequence:
#
# PCOD8066330 Si02
#       7
#     4   4   4   4   4   4   4
#     4  10  21  37  60  86 119 159 197 240 295 362
#     4  11  22  36  57  81 112 154 200 247 301 362
#     4  11  23  36  51  76 111 150 198 257 313 363
#     4   9  19  34  52  77 108 145 192 246 301 351
#     4  11  23  39  62  92 127 162 200 246 298 360
#     4  10  22  43  69  95 124 159 201 246 296 361
#     4  11  20  35  58  82 111 149 200 256 302 354
#
# _framework density 21.890654999999999
#
# number of rings (size 3 to 8) (size 9 to 14) (size 15 to 20)
#    0.000    1.571    0.000    6.000    0.000    5.143 
#    0.000    2.143    0.000    6.000    0.000    0.000 
#    0.000    0.000    0.000    0.000    0.000    0.000 
#
# Total GULP energy -347292.084434 kJ/mol
# GULP energy per Si atom -12403.288730 kJ/mol
# Density = 2.184083 g / cm^3
# Si number density = 21.890655 Si / 1000 Ang^3
#
#
#
# Elastic Constant Matrix: (Units=GPa)
#
#
# Indices 1 2 3 4 5 6 
#
# 1 133.7625 50.3627 24.7871 0.0000 -31.9047 0.0000
# 2 50.3627 149.1526 28.9075 0.0000 -13.6743 0.0000
# 3 24.7871 28.9075 55.1817 0.0000 -23.3796 0.0000
# 4 0.0000 0.0000 0.0000 25.3099 0.0000 -12.5139
# 5 -31.9047 -13.6743 -23.3796 0.0000 34.0924 0.0000
# 6 0.0000 0.0000 0.0000 -12.5139 0.0000 13.1802
#
#
#
# Elastic Compliance Matrix: (Units=1/GPa)
#
#
# Indices 1 2 3 4 5 6 
#
# 1 0.010644 -0.002870 0.000641 0.000000 0.009249 0.000000
# 2 -0.002870 0.008241 -0.003898 0.000000 -0.002054 0.000000
# 3 0.000641 -0.003898 0.027441 0.000000 0.017855 0.000000
# 4 0.000000 0.000000 0.000000 0.074467 0.000000 0.070702
# 5 0.009249 -0.002054 0.017855 0.000000 0.049409 0.000000
# 6 0.000000 0.000000 0.000000 0.070702 0.000000 0.142999
#
#
# Mechanical properties :
#
#
# Convention : Reuss Voigt Hill
#
# Bulk Modulus (GPa) = 29.34992 60.69014 45.02003
# Shear Modulus (GPa) = 14.84510 30.11914 22.48212
#
# Velocity S-wave (km/s) = 2.60695 3.71332 3.20819
# Velocity P-wave (km/s) = 4.74323 6.79481 5.85951
#
# Compressibility (1/GPa) = 0.03407164
#
# Stress axis : x y z
#
# Youngs Moduli (GPa) = 93.95007 121.34588 36.44233
#
# Poissons Ratio (x) = 0.34830 -0.02337
# Poissons Ratio (y) = 0.26967 0.14205
# Poissons Ratio (z) = -0.06026 0.47300
#
# Static dielectric constant tensor:
#      x y z
#    x 4.272410 0.000000 -0.062290 
#    y 0.000000 3.826780 0.000000 
#    z -0.062290 0.000000 3.979690 
# 
# 
# High freq. dielectric constant tensor:
#      x y z
#    x 1.876700 0.000000 0.000150 
#    y 0.000000 1.845040 0.000000 
#    z 0.000150 0.000000 1.871920 
# 
# From -- ./inp_files/56098.got.cif
#   From: 2010.06.25/outbox.cif.g09.slc.cpg/sg10_29_cif.got.tgz:56098.got - 2010.06.27 22:07:45.
