data_PCOD8066452
_publ_section_title
;
Structure prediction by ZEFSAII (Michael W. Deem and Ramdas Pophale) SiO2 
 PCOD8066452
Probable space group: P 2/M
;
_chemical_formula_sum "Si O2"
_cell_formula_units_Z 32
_cell_length_a 22.334178
_cell_length_b 9.615464
_cell_length_c 14.758198
_cell_angle_alpha 90.000000
_cell_angle_beta 30.283121
_cell_angle_gamma 90.000000
_cell_volume 1598.230754
_symmetry_space_group_name_H-M "P 2/M"
_symmetry_group_IT_number 10
_symmetry_cell_setting 'monoclinic'
loop_
_space_group_symop_operation_xyz
x,y,z
-x,y,-z
-x,-y,-z
x,-y,z
loop_
_atom_site_type_symbol
_atom_site_label
_atom_site_fract_x
_atom_site_fract_y
_atom_site_fract_z
Si Si1 0.858025 0.843273 0.529495
Si Si2 0.255609 0.342215 0.181604
Si Si3 0.617255 0.660453 0.397585
Si Si4 0.164389 0.158401 0.950739
Si Si5 0.311392 0.661583 0.498766
Si Si6 0.123134 0.845593 0.216013
Si Si7 0.482507 0.341910 0.121629
Si Si8 0.099205 0.839139 0.733923
O O1 0.768555 0.734786 0.691779
O O2 0.872908 0.803370 0.406213
O O3 0.983312 0.830216 0.417734
O O4 0.808581 0.000000 0.604506
O O5 0.209239 0.500000 0.249145
O O6 0.193217 0.269652 0.179166
O O7 0.395850 0.336779 0.980871
O O8 0.500000 0.719366 0.500000
O O9 0.635139 0.500000 0.347502
O O10 0.733346 0.740375 0.214177
O O11 0.605281 0.679882 0.521585
O O12 0.198961 0.000000 0.881658
O O13 0.147988 0.176603 0.078562
O O14 0.039013 0.195894 0.065114
O O15 0.280166 0.500000 0.525485
O O16 0.381969 0.724326 0.318881
O O17 0.188632 0.745100 0.675961
O O18 0.164926 0.000000 0.191731
O O19 0.443051 0.500000 0.153982
O O20 0.500000 0.267339 0.000000
O O21 0.124191 0.000000 0.723410
#
# Coordination Sequence:
#
# PCOD8066452 Si02
#       8
#     4   4   4   4   4   4   4   4
#     4   9  18  34  53  74 109 151 184 223 281 341
#     4  11  21  30  50  80 107 142 191 239 279 330
#     4  10  23  40  60  85 116 153 190 231 281 339
#     4   9  20  39  61  84 112 148 189 234 285 339
#     4  10  21  38  59  83 113 151 190 230 285 345
#     4   9  19  35  53  75 107 148 185 223 282 343
#     4   9  19  35  53  76 108 145 183 226 277 329
#     4   9  19  37  60  85 112 145 188 236 286 338
#
# _framework density 20.022141000000001
#
# number of rings (size 3 to 8) (size 9 to 14) (size 15 to 20)
#    0.000    2.500    0.000    3.000    1.750    5.750 
#    0.000    6.250    0.000    3.375    0.000    0.000 
#    0.000    0.000    0.000    0.000    0.000    0.000 
#
# Total GULP energy -396709.500785 kJ/mol
# GULP energy per Si atom -12397.171900 kJ/mol
# Density = 1.997657 g / cm^3
# Si number density = 20.022141 Si / 1000 Ang^3
#
#
#
# Elastic Constant Matrix: (Units=GPa)
#
#
# Indices 1 2 3 4 5 6 
#
# 1 90.3665 38.1289 27.2325 0.0000 -19.6515 0.0000
# 2 38.1289 82.1705 44.5426 0.0000 -13.2726 0.0000
# 3 27.2325 44.5426 101.3220 0.0000 -15.1449 0.0000
# 4 0.0000 0.0000 0.0000 28.2564 0.0000 5.9548
# 5 -19.6515 -13.2726 -15.1449 0.0000 19.4145 0.0000
# 6 0.0000 0.0000 0.0000 5.9548 0.0000 2.6488
#
#
#
# Elastic Compliance Matrix: (Units=1/GPa)
#
#
# Indices 1 2 3 4 5 6 
#
# 1 0.016095 -0.005401 -0.000077 0.000000 0.012539 0.000000
# 2 -0.005401 0.018469 -0.006336 0.000000 0.002216 0.000000
# 3 -0.000077 -0.006336 0.013603 0.000000 0.006201 0.000000
# 4 0.000000 0.000000 0.000000 0.067253 0.000000 -0.151195
# 5 0.012539 0.002216 0.006201 0.000000 0.070552 0.000000
# 6 0.000000 0.000000 0.000000 -0.151195 0.000000 0.717444
#
#
# Mechanical properties :
#
#
# Convention : Reuss Voigt Hill
#
# Bulk Modulus (GPa) = 40.75455 54.85189 47.80322
# Shear Modulus (GPa) = 5.34631 20.99428 13.17030
#
# Velocity S-wave (km/s) = 1.63585 3.24165 2.56752
# Velocity P-wave (km/s) = 4.89560 6.43942 5.71984
#
# Compressibility (1/GPa) = 0.02453714
#
# Stress axis : x y z
#
# Youngs Moduli (GPa) = 62.13096 54.14549 73.51489
#
# Poissons Ratio (x) = 0.29246 0.00568
# Poissons Ratio (y) = 0.33559 0.46580
# Poissons Ratio (z) = 0.00480 0.34308
#
# Static dielectric constant tensor:
#      x y z
#    x 3.689300 0.000000 0.009510 
#    y 0.000000 3.471630 0.000000 
#    z 0.009510 0.000000 3.679230 
# 
# 
# High freq. dielectric constant tensor:
#      x y z
#    x 1.790150 0.000000 0.002650 
#    y 0.000000 1.760800 0.000000 
#    z 0.002650 0.000000 1.778680 
# 
# From -- ./inp_files/71484.got.cif
#   From: 2010.06.25/outbox.cif.g09.slc.cpg/sg10_36_cif.got.tgz:71484.got - 2010.06.27 22:07:45.
