data_PCOD8066983
_publ_section_title
;
Structure prediction by ZEFSAII (Michael W. Deem and Ramdas Pophale) SiO2 
 PCOD8066983
Probable space group: P 2/M
;
_chemical_formula_sum "Si O2"
_cell_formula_units_Z 28
_cell_length_a 15.084288
_cell_length_b 11.934679
_cell_length_c 9.989894
_cell_angle_alpha 90.000000
_cell_angle_beta 55.351252
_cell_angle_gamma 90.000000
_cell_volume 1479.493609
_symmetry_space_group_name_H-M "P 2/M"
_symmetry_group_IT_number 10
_symmetry_cell_setting 'monoclinic'
loop_
_space_group_symop_operation_xyz
x,y,z
-x,y,-z
-x,-y,-z
x,-y,z
loop_
_atom_site_type_symbol
_atom_site_label
_atom_site_fract_x
_atom_site_fract_y
_atom_site_fract_z
Si Si1 0.756397 0.190134 0.027717
Si Si2 0.878899 0.000000 0.784044
Si Si3 0.375177 0.128951 0.600249
Si Si4 0.925554 0.371388 0.944097
Si Si5 0.251175 0.204525 0.464466
Si Si6 0.930344 0.628222 0.438555
Si Si7 0.376035 0.131480 0.100478
Si Si8 0.125479 0.000000 0.512577
O O1 0.850830 0.107005 0.897915
O O2 0.813830 0.303734 0.027086
O O3 0.678684 0.208133 0.967049
O O4 0.683006 0.139392 0.207481
O O5 0.822718 0.000000 0.683866
O O6 0.999333 0.000000 0.632215
O O7 0.500000 0.165024 0.500000
O O8 0.317774 0.213470 0.545187
O O9 0.366888 0.000000 0.557480
O O10 0.892652 0.500000 0.999673
O O11 0.996176 0.358147 0.752618
O O12 0.000000 0.324493 0.000000
O O13 0.186842 0.316993 0.482150
O O14 0.332950 0.167934 0.280346
O O15 0.162303 0.108922 0.560934
O O16 0.904700 0.500000 0.495612
O O17 0.000000 0.683403 0.500000
O O18 0.357811 0.000000 0.080595
O O19 0.500000 0.161549 0.000000
#
# Coordination Sequence:
#
# PCOD8066983 Si02
#       8
#     4   2   4   4   4   4   4   2
#     4  12  20  38  58  84 113 147 188 232 281 325
#     4  11  22  33  52  85 121 147 175 227 281 345
#     4  11  23  38  56  82 117 149 188 233 279 334
#     4  10  22  40  59  81 110 151 192 223 268 337
#     4  12  20  37  57  82 113 150 185 228 284 330
#     4  10  22  38  59  85 112 147 188 227 272 334
#     4  11  21  36  58  82 111 149 195 229 272 342
#     4  11  22  33  52  85 119 149 179 219 287 341
#
# _framework density 18.925394000000001
#
# number of rings (size 3 to 8) (size 9 to 14) (size 15 to 20)
#    0.000    1.000    4.286    3.429    2.000    2.286 
#    0.000    1.071    0.000    5.143    0.000    0.000 
#    0.000    0.000    0.000    0.000    0.000    0.000 
#
# Total GULP energy -347186.360032 kJ/mol
# GULP energy per Si atom -12399.512858 kJ/mol
# Density = 1.888232 g / cm^3
# Si number density = 18.925394 Si / 1000 Ang^3
#
#
#
# Elastic Constant Matrix: (Units=GPa)
#
#
# Indices 1 2 3 4 5 6 
#
# 1 111.1808 37.6649 39.8313 0.0000 2.0974 0.0000
# 2 37.6649 65.9381 15.6477 0.0000 -7.6776 0.0000
# 3 39.8313 15.6477 100.4956 0.0000 2.8857 0.0000
# 4 0.0000 0.0000 0.0000 24.4248 0.0000 6.7047
# 5 2.0974 -7.6776 2.8857 0.0000 37.6932 0.0000
# 6 0.0000 0.0000 0.0000 6.7047 0.0000 30.4841
#
#
#
# Elastic Compliance Matrix: (Units=1/GPa)
#
#
# Indices 1 2 3 4 5 6 
#
# 1 0.012638 -0.006482 -0.003950 0.000000 -0.001721 0.000000
# 2 -0.006482 0.019520 -0.000596 0.000000 0.004382 0.000000
# 3 -0.003950 -0.000596 0.011632 0.000000 -0.000792 0.000000
# 4 0.000000 0.000000 0.000000 0.043573 0.000000 -0.009583
# 5 -0.001721 0.004382 -0.000792 0.000000 0.027579 0.000000
# 6 0.000000 0.000000 0.000000 -0.009583 0.000000 0.034912
#
#
# Mechanical properties :
#
#
# Convention : Reuss Voigt Hill
#
# Bulk Modulus (GPa) = 46.01260 51.54470 48.77865
# Shear Modulus (GPa) = 27.90886 30.81847 29.36366
#
# Velocity S-wave (km/s) = 3.84432 4.03975 3.94324
# Velocity P-wave (km/s) = 6.63856 7.00387 6.82366
#
# Compressibility (1/GPa) = 0.02173318
#
# Stress axis : x y z
#
# Youngs Moduli (GPa) = 79.12659 51.22934 85.97003
#
# Poissons Ratio (x) = 0.33207 0.33961
# Poissons Ratio (y) = 0.51290 0.05125
# Poissons Ratio (z) = 0.31258 0.03054
#
# Static dielectric constant tensor:
#      x y z
#    x 3.560360 0.000000 0.061220 
#    y 0.000000 3.320360 0.000000 
#    z 0.061220 0.000000 3.485670 
# 
# 
# High freq. dielectric constant tensor:
#      x y z
#    x 1.747290 0.000000 0.002910 
#    y 0.000000 1.704350 0.000000 
#    z 0.002910 0.000000 1.749430 
# 
# From -- ./inp_files/28532.got.cif
#   From: 2010.06.25/outbox.cif.g09.slc.cpg/sg10_15_cif.got.tgz:28532.got - 2010.06.27 22:07:45.
