data_PCOD8066625
_publ_section_title
;
Structure prediction by ZEFSAII (Michael W. Deem and Ramdas Pophale) SiO2 
 PCOD8066625
Probable space group: P 2/M
;
_chemical_formula_sum "Si O2"
_cell_formula_units_Z 28
_cell_length_a 22.786098
_cell_length_b 7.641495
_cell_length_c 16.236744
_cell_angle_alpha 90.000000
_cell_angle_beta 29.325844
_cell_angle_gamma 90.000000
_cell_volume 1384.664394
_symmetry_space_group_name_H-M "P 2/M"
_symmetry_group_IT_number 10
_symmetry_cell_setting 'monoclinic'
loop_
_space_group_symop_operation_xyz
x,y,z
-x,y,-z
-x,-y,-z
x,-y,z
loop_
_atom_site_type_symbol
_atom_site_label
_atom_site_fract_x
_atom_site_fract_y
_atom_site_fract_z
Si Si1 0.562020 0.500000 0.801671
Si Si2 0.699639 0.500000 0.799783
Si Si3 0.531816 0.204294 0.715447
Si Si4 0.807223 0.803503 0.082266
Si Si5 0.140073 0.206056 0.318449
Si Si6 0.266980 0.793857 0.999356
Si Si7 0.730771 0.798537 0.349656
Si Si8 0.038161 0.699184 0.863438
O O1 0.661438 0.500000 0.751289
O O2 0.587886 0.323965 0.718046
O O3 0.423933 0.500000 0.998709
O O4 0.778639 0.325642 0.720946
O O5 0.397332 0.270468 0.866852
O O6 0.598463 0.236720 0.546383
O O7 0.540651 0.000000 0.730907
O O8 0.765899 0.706611 0.048751
O O9 0.753446 0.709542 0.231480
O O10 0.757792 0.000000 0.139707
O O11 0.953374 0.804477 0.903928
O O12 0.000000 0.247981 0.500000
O O13 0.167745 0.000000 0.302158
O O14 0.172527 0.260508 0.185137
O O15 0.265743 0.000000 0.990295
O O16 0.819450 0.731410 0.314402
O O17 0.758294 0.000000 0.303198
O O18 0.006341 0.500000 0.885934
O O19 0.000000 0.764302 0.000000
#
# Coordination Sequence:
#
# PCOD8066625 Si02
#       8
#     2   2   4   4   4   4   4   4
#     4  11  24  40  64  90 119 157 195 246 295 353
#     4  11  23  42  66  93 116 152 203 240 297 363
#     4  10  21  39  59  83 119 157 193 237 293 346
#     4   9  17  32  54  80 109 146 197 238 276 338
#     4  10  21  41  66  91 123 157 191 243 305 358
#     4   9  18  35  58  82 112 149 188 235 288 343
#     4   9  18  32  54  79 108 153 194 233 283 334
#     4   9  17  30  46  69 106 145 185 236 286 332
#
# _framework density 20.221506999999999
#
# number of rings (size 3 to 8) (size 9 to 14) (size 15 to 20)
#    0.000    2.429    1.429    0.643    1.000    2.857 
#    5.143    4.286    0.000    0.857    0.000    0.000 
#    0.000    0.000    0.000    0.000    0.000    0.000 
#
# Total GULP energy -346918.830592 kJ/mol
# GULP energy per Si atom -12389.958235 kJ/mol
# Density = 2.017548 g / cm^3
# Si number density = 20.221507 Si / 1000 Ang^3
#
#
#
# Elastic Constant Matrix: (Units=GPa)
#
#
# Indices 1 2 3 4 5 6 
#
# 1 154.1502 53.9938 60.9816 0.0000 9.1797 0.0000
# 2 53.9938 69.5443 31.7890 0.0000 -0.2081 0.0000
# 3 60.9816 31.7890 125.6973 0.0000 1.7388 0.0000
# 4 0.0000 0.0000 0.0000 15.6890 0.0000 -1.7021
# 5 9.1797 -0.2081 1.7388 0.0000 22.5534 0.0000
# 6 0.0000 0.0000 0.0000 -1.7021 0.0000 23.6776
#
#
#
# Elastic Compliance Matrix: (Units=1/GPa)
#
#
# Indices 1 2 3 4 5 6 
#
# 1 0.010311 -0.006509 -0.003301 0.000000 -0.004002 0.000000
# 2 -0.006509 0.020372 -0.002036 0.000000 0.002994 0.000000
# 3 -0.003301 -0.002036 0.010064 0.000000 0.000549 0.000000
# 4 0.000000 0.000000 0.000000 0.064240 0.000000 0.004618
# 5 -0.004002 0.002994 0.000549 0.000000 0.045954 0.000000
# 6 0.000000 0.000000 0.000000 0.004618 0.000000 0.042566
#
#
# Mechanical properties :
#
#
# Convention : Reuss Voigt Hill
#
# Bulk Modulus (GPa) = 58.62832 71.43562 65.03197
# Shear Modulus (GPa) = 22.43321 25.89248 24.16284
#
# Velocity S-wave (km/s) = 3.33434 3.58221 3.46049
# Velocity P-wave (km/s) = 6.62418 7.24658 6.94236
#
# Compressibility (1/GPa) = 0.01705660
#
# Stress axis : x y z
#
# Youngs Moduli (GPa) = 96.98247 49.08658 99.36012
#
# Poissons Ratio (x) = 0.31948 0.32799
# Poissons Ratio (y) = 0.63122 0.20229
# Poissons Ratio (z) = 0.32014 0.09994
#
# Static dielectric constant tensor:
#      x y z
#    x 3.808730 0.000000 -0.038850 
#    y 0.000000 3.477610 0.000000 
#    z -0.038850 0.000000 3.734420 
# 
# 
# High freq. dielectric constant tensor:
#      x y z
#    x 1.777770 0.000000 -0.007190 
#    y 0.000000 1.780310 0.000000 
#    z -0.007190 0.000000 1.784360 
# 
# From -- ./inp_files/63546.got.cif
#   From: 2010.06.25/outbox.cif.g09.slc.cpg/sg10_32_cif.got.tgz:63546.got - 2010.06.27 22:07:45.
