data_PCOD8066828
_publ_section_title
;
Structure prediction by ZEFSAII (Michael W. Deem and Ramdas Pophale) SiO2 
 PCOD8066828
Probable space group: P 2/M
;
_chemical_formula_sum "Si O2"
_cell_formula_units_Z 28
_cell_length_a 10.685836
_cell_length_b 12.453636
_cell_length_c 19.283550
_cell_angle_alpha 90.000000
_cell_angle_beta 31.974036
_cell_angle_gamma 90.000000
_cell_volume 1358.896117
_symmetry_space_group_name_H-M "P 2/M"
_symmetry_group_IT_number 10
_symmetry_cell_setting 'monoclinic'
loop_
_space_group_symop_operation_xyz
x,y,z
-x,y,-z
-x,-y,-z
x,-y,z
loop_
_atom_site_type_symbol
_atom_site_label
_atom_site_fract_x
_atom_site_fract_y
_atom_site_fract_z
Si Si1 0.769681 0.620224 0.862045
Si Si2 0.908151 0.817926 0.875382
Si Si3 0.145524 0.313337 0.331158
Si Si4 0.662820 0.377669 0.618578
Si Si5 0.356132 0.183835 0.757531
Si Si6 0.492114 0.124560 0.166424
Si Si7 0.568406 0.000000 0.576278
Si Si8 0.886935 0.000000 0.304774
O O1 0.821998 0.500000 0.863341
O O2 0.925754 0.698089 0.836708
O O3 0.830988 0.627766 0.752671
O O4 0.500000 0.652507 0.000000
O O5 0.098366 0.834672 0.846821
O O6 0.649380 0.845015 0.025963
O O7 0.959665 0.895531 0.786149
O O8 0.289708 0.380368 0.321231
O O9 0.248576 0.192219 0.279835
O O10 0.871449 0.314863 0.480823
O O11 0.631576 0.500000 0.606622
O O12 0.428447 0.308510 0.712962
O O13 0.348735 0.153079 0.841665
O O14 0.551961 0.106895 0.630400
O O15 0.421327 0.000000 0.197735
O O16 0.819395 0.000000 0.417927
O O17 0.354077 0.000000 0.623915
#
# Coordination Sequence:
#
# PCOD8066828 Si02
#       8
#     4   4   4   4   4   4   2   2
#     4  11  23  40  60  82 119 162 199 243 293 352
#     4  11  22  39  60  91 120 159 201 241 299 363
#     4  10  21  41  61  88 114 156 205 247 296 354
#     4  10  21  40  65  87 117 156 201 253 302 352
#     4  10  22  37  63  90 120 155 198 248 303 356
#     4  11  21  39  63  90 123 156 199 250 300 355
#     4   9  18  37  53  83 118 157 194 228 287 361
#     4   9  20  35  58  78 119 160 188 232 291 356
#
# _framework density 20.604960999999999
#
# number of rings (size 3 to 8) (size 9 to 14) (size 15 to 20)
#    0.000    1.714    2.857    2.143    2.000    1.143 
#    2.571    2.500    0.000    4.286    0.000    0.000 
#    0.000    0.000    0.000    0.000    0.000    0.000 
#
# Total GULP energy -347210.386665 kJ/mol
# GULP energy per Si atom -12400.370952 kJ/mol
# Density = 2.055806 g / cm^3
# Si number density = 20.604961 Si / 1000 Ang^3
#
#
#
# Elastic Constant Matrix: (Units=GPa)
#
#
# Indices 1 2 3 4 5 6 
#
# 1 29.5710 22.7137 16.2888 0.0000 13.7915 0.0000
# 2 22.7137 162.8002 51.0928 0.0000 -1.7276 0.0000
# 3 16.2888 51.0928 98.5594 0.0000 22.7620 0.0000
# 4 0.0000 0.0000 0.0000 28.6424 0.0000 1.1478
# 5 13.7915 -1.7276 22.7620 0.0000 24.5408 0.0000
# 6 0.0000 0.0000 0.0000 1.1478 0.0000 25.8607
#
#
#
# Elastic Compliance Matrix: (Units=1/GPa)
#
#
# Indices 1 2 3 4 5 6 
#
# 1 0.055299 -0.009290 0.003824 0.000000 -0.035278 0.000000
# 2 -0.009290 0.009445 -0.006007 0.000000 0.011457 0.000000
# 3 0.003824 -0.006007 0.016827 0.000000 -0.018179 0.000000
# 4 0.000000 0.000000 0.000000 0.034975 0.000000 -0.001552
# 5 -0.035278 0.011457 -0.018179 0.000000 0.078242 0.000000
# 6 0.000000 0.000000 0.000000 -0.001552 0.000000 0.038738
#
#
# Mechanical properties :
#
#
# Convention : Reuss Voigt Hill
#
# Bulk Modulus (GPa) = 17.05755 52.34683 34.70219
# Shear Modulus (GPa) = 18.11501 29.19780 23.65640
#
# Velocity S-wave (km/s) = 2.96828 3.76843 3.39203
# Velocity P-wave (km/s) = 4.47704 6.66294 5.67621
#
# Compressibility (1/GPa) = 0.05862507
#
# Stress axis : x y z
#
# Youngs Moduli (GPa) = 18.08342 105.87073 59.42942
#
# Poissons Ratio (x) = 0.98351 -0.22725
# Poissons Ratio (y) = 0.16799 0.35701
# Poissons Ratio (z) = -0.06915 0.63599
#
# Static dielectric constant tensor:
#      x y z
#    x 3.453860 0.000000 0.271670 
#    y 0.000000 3.770400 0.000000 
#    z 0.271670 0.000000 3.795420 
# 
# 
# High freq. dielectric constant tensor:
#      x y z
#    x 1.785660 0.000000 0.018230 
#    y 0.000000 1.812720 0.000000 
#    z 0.018230 0.000000 1.807640 
# 
# From -- ./inp_files/83978.got.cif
#   From: 2010.06.25/outbox.cif.g09.slc.cpg/sg10_42_cif.got.tgz:83978.got - 2010.06.27 22:07:45.
