data_PCOD8066362
_publ_section_title
;
Structure prediction by ZEFSAII (Michael W. Deem and Ramdas Pophale) SiO2 
 PCOD8066362
Probable space group: P 2/M
;
_chemical_formula_sum "Si O2"
_cell_formula_units_Z 32
_cell_length_a 13.573014
_cell_length_b 27.270891
_cell_length_c 9.814875
_cell_angle_alpha 90.000000
_cell_angle_beta 152.010466
_cell_angle_gamma 90.000000
_cell_volume 1704.984581
_symmetry_space_group_name_H-M "P 2/M"
_symmetry_group_IT_number 10
_symmetry_cell_setting 'monoclinic'
loop_
_space_group_symop_operation_xyz
x,y,z
-x,y,-z
-x,-y,-z
x,-y,z
loop_
_atom_site_type_symbol
_atom_site_label
_atom_site_fract_x
_atom_site_fract_y
_atom_site_fract_z
Si Si1 0.357283 0.945085 0.193835
Si Si2 0.496921 0.692154 0.649309
Si Si3 0.388324 0.195086 0.229357
Si Si4 0.154384 0.622872 0.310808
Si Si5 0.481673 0.442628 0.136666
Si Si6 0.027873 0.135383 0.872545
Si Si7 0.857336 0.370630 0.201913
Si Si8 0.439644 0.878063 0.770119
O O1 0.500000 0.944964 0.500000
O O2 0.492243 0.926562 0.229166
O O3 0.278036 0.000000 0.064308
O O4 0.158578 0.911171 0.980587
O O5 0.500000 0.670667 0.500000
O O6 0.533572 0.749826 0.692517
O O7 0.270206 0.675655 0.431688
O O8 0.681032 0.670299 0.965670
O O9 0.500000 0.171397 0.500000
O O10 0.450165 0.168380 0.165994
O O11 0.140898 0.185864 0.957980
O O12 0.331690 0.581402 0.547305
O O13 0.009698 0.625316 0.263038
O O14 0.000000 0.608611 0.000000
O O15 0.488860 0.500000 0.173050
O O16 0.500000 0.429442 0.000000
O O17 0.256129 0.422710 0.910777
O O18 0.806930 0.130977 0.530493
O O19 0.000000 0.136383 0.000000
O O20 0.000000 0.353295 0.500000
O O21 0.500000 0.883182 0.000000
#
# Coordination Sequence:
#
# PCOD8066362 Si02
#       8
#     4   4   4   4   4   4   4   4
#     4  10  21  37  61  91 121 157 209 251 287 362
#     4  10  22  40  61  88 118 153 201 249 296 362
#     4  10  21  40  61  88 114 152 206 243 289 367
#     4  11  22  40  63  87 124 159 196 247 305 354
#     4  10  22  39  62  91 122 159 205 249 294 357
#     4  11  19  38  65  85 115 160 200 243 298 352
#     4  11  22  40  61  90 120 161 199 247 301 358
#     4  11  23  40  58  88 125 156 192 256 310 348
#
# _framework density 18.768498000000001
#
# number of rings (size 3 to 8) (size 9 to 14) (size 15 to 20)
#    0.000    1.500    5.000    0.750    0.000    5.000 
#    4.500    1.250    0.000    0.000    0.000    0.000 
#    0.000    0.000    0.000    0.000    0.000    0.000 
#
# Total GULP energy -396731.960675 kJ/mol
# GULP energy per Si atom -12397.873771 kJ/mol
# Density = 1.872578 g / cm^3
# Si number density = 18.768498 Si / 1000 Ang^3
#
#
#
# Elastic Constant Matrix: (Units=GPa)
#
#
# Indices 1 2 3 4 5 6 
#
# 1 148.8901 52.2094 65.0181 0.0000 3.1367 0.0000
# 2 52.2094 110.1826 37.7033 0.0000 3.5023 0.0000
# 3 65.0181 37.7033 138.9039 0.0000 -4.5065 0.0000
# 4 0.0000 0.0000 0.0000 23.1066 0.0000 19.2110
# 5 3.1367 3.5023 -4.5065 0.0000 43.1550 0.0000
# 6 0.0000 0.0000 0.0000 19.2110 0.0000 -31.8659
#
#
#
# Elastic Compliance Matrix: (Units=1/GPa)
#
#
# Indices 1 2 3 4 5 6 
#
# 1 0.009416 -0.003218 -0.003560 0.000000 -0.000795 0.000000
# 2 -0.003218 0.011157 -0.001549 0.000000 -0.000833 0.000000
# 3 -0.003560 -0.001549 0.009330 0.000000 0.001359 0.000000
# 4 0.000000 0.000000 0.000000 0.028828 0.000000 0.017380
# 5 -0.000795 -0.000833 0.001359 0.000000 0.023440 0.000000
# 6 0.000000 0.000000 0.000000 0.017380 0.000000 -0.020904
#
#
# Mechanical properties :
#
#
# Convention : Reuss Voigt Hill
#
# Bulk Modulus (GPa) = 75.47633 78.64869 77.06251
# Shear Modulus (GPa) = 60.72512 23.08220 41.90366
#
# Velocity S-wave (km/s) = 5.69430 3.51071 4.73023
# Velocity P-wave (km/s) = 9.13975 7.64389 8.42508
#
# Compressibility (1/GPa) = 0.01324919
#
# Stress axis : x y z
#
# Youngs Moduli (GPa) = 106.20054 89.62630 107.18107
#
# Poissons Ratio (x) = 0.28846 0.38153
# Poissons Ratio (y) = 0.34180 0.16603
# Poissons Ratio (z) = 0.37804 0.13884
#
# Static dielectric constant tensor:
#      x y z
#    x 3.536930 0.000000 -0.331970 
#    y 0.000000 3.440600 0.000000 
#    z -0.331970 0.000000 0.623840 
# 
# 
# High freq. dielectric constant tensor:
#      x y z
#    x 1.740220 0.000000 0.006890 
#    y 0.000000 1.719910 0.000000 
#    z 0.006890 0.000000 1.736430 
# 
# From -- ./inp_files/26212.got.cif
#   From: 2010.06.25/outbox.cif.g09.slc.cpg/sg10_14_cif.got.tgz:26212.got - 2010.06.27 22:07:45.
