data_PCOD8066328
_publ_section_title
;
Structure prediction by ZEFSAII (Michael W. Deem and Ramdas Pophale) SiO2 
 PCOD8066328
Probable space group: P 2/M
;
_chemical_formula_sum "Si O2"
_cell_formula_units_Z 28
_cell_length_a 13.809196
_cell_length_b 12.872330
_cell_length_c 9.093271
_cell_angle_alpha 90.000000
_cell_angle_beta 115.819116
_cell_angle_gamma 90.000000
_cell_volume 1455.029915
_symmetry_space_group_name_H-M "P 2/M"
_symmetry_group_IT_number 10
_symmetry_cell_setting 'monoclinic'
loop_
_space_group_symop_operation_xyz
x,y,z
-x,y,-z
-x,-y,-z
x,-y,z
loop_
_atom_site_type_symbol
_atom_site_label
_atom_site_fract_x
_atom_site_fract_y
_atom_site_fract_z
Si Si1 0.848074 0.617463 0.671374
Si Si2 0.735025 0.240185 0.374484
Si Si3 0.627393 0.122418 0.571725
Si Si4 0.955440 0.743914 0.115233
Si Si5 0.274572 0.710815 0.152143
Si Si6 0.375091 0.383444 0.940789
Si Si7 0.907244 0.109860 0.327556
O O1 0.846153 0.500000 0.616627
O O2 0.820822 0.687872 0.514128
O O3 0.757241 0.633025 0.736971
O O4 0.968260 0.643068 0.809691
O O5 0.661415 0.176461 0.440906
O O6 0.667821 0.310682 0.218029
O O7 0.799967 0.158666 0.321482
O O8 0.500000 0.135235 0.500000
O O9 0.683539 0.180968 0.747863
O O10 0.660335 0.000000 0.596006
O O11 0.972387 0.820566 0.258227
O O12 0.829666 0.721858 0.019901
O O13 0.000000 0.801420 0.000000
O O14 0.360407 0.662689 0.096246
O O15 0.323884 0.500000 0.897867
O O16 0.500000 0.392461 0.000000
O O17 0.000000 0.084761 0.500000
O O18 0.870118 0.000000 0.232156
#
# Coordination Sequence:
#
# PCOD8066328 Si02
#       7
#     4   4   4   4   4   4   4
#     4  10  21  37  60  86 115 155 198 234 282 348
#     4  11  21  40  61  85 119 154 194 242 290 346
#     4  10  22  41  64  87 113 153 202 248 292 340
#     4  10  21  38  56  85 117 148 188 236 282 343
#     4  10  21  38  59  84 120 152 189 240 291 343
#     4  11  23  38  59  88 120 154 193 242 299 348
#     4  11  22  38  58  83 116 154 189 229 288 347
#
# _framework density 19.243590000000001
#
# number of rings (size 3 to 8) (size 9 to 14) (size 15 to 20)
#    0.000    1.571    2.857    2.143    0.000    4.000 
#    0.000    0.714    0.000    9.857    0.000    0.000 
#    0.000    0.000    0.000    0.000    0.000    0.000 
#
# Total GULP energy -346983.444060 kJ/mol
# GULP energy per Si atom -12392.265859 kJ/mol
# Density = 1.919979 g / cm^3
# Si number density = 19.243590 Si / 1000 Ang^3
#
#
#
# Elastic Constant Matrix: (Units=GPa)
#
#
# Indices 1 2 3 4 5 6 
#
# 1 93.1002 48.2378 17.1641 0.0000 -8.8069 0.0000
# 2 48.2378 136.0027 31.6568 0.0000 -7.3668 0.0000
# 3 17.1641 31.6568 56.1338 0.0000 -1.5513 0.0000
# 4 0.0000 0.0000 0.0000 30.1727 0.0000 -2.6763
# 5 -8.8069 -7.3668 -1.5513 0.0000 36.4522 0.0000
# 6 0.0000 0.0000 0.0000 -2.6763 0.0000 26.5404
#
#
#
# Elastic Compliance Matrix: (Units=1/GPa)
#
#
# Indices 1 2 3 4 5 6 
#
# 1 0.013478 -0.004271 -0.001648 0.000000 0.002323 0.000000
# 2 -0.004271 0.009901 -0.004256 0.000000 0.000788 0.000000
# 3 -0.001648 -0.004256 0.020708 0.000000 -0.000377 0.000000
# 4 0.000000 0.000000 0.000000 0.033442 0.000000 0.003372
# 5 0.002323 0.000788 -0.000377 0.000000 0.028138 0.000000
# 6 0.000000 0.000000 0.000000 0.003372 0.000000 0.038018
#
#
# Mechanical properties :
#
#
# Convention : Reuss Voigt Hill
#
# Bulk Modulus (GPa) = 42.12898 53.26158 47.69528
# Shear Modulus (GPa) = 29.07875 31.17826 30.12850
#
# Velocity S-wave (km/s) = 3.89149 4.02952 3.96111
# Velocity P-wave (km/s) = 6.49088 7.02759 6.76456
#
# Compressibility (1/GPa) = 0.02373663
#
# Stress axis : x y z
#
# Youngs Moduli (GPa) = 74.19746 101.00101 48.28966
#
# Poissons Ratio (x) = 0.43135 0.07960
# Poissons Ratio (y) = 0.31688 0.20552
# Poissons Ratio (z) = 0.12230 0.42986
#
# Static dielectric constant tensor:
#      x y z
#    x 3.144780 0.000000 -1.501090 
#    y 0.000000 3.672470 0.000000 
#    z -1.501090 0.000000 -0.847820 
# 
# 
# High freq. dielectric constant tensor:
#      x y z
#    x 1.758230 0.000000 -0.007690 
#    y 0.000000 1.750220 0.000000 
#    z -0.007690 0.000000 1.750950 
# 
# From -- ./inp_files/28669.got.cif
#   From: 2010.06.25/outbox.cif.g09.slc.cpg/sg10_15_cif.got.tgz:28669.got - 2010.06.27 22:07:45.
