data_PCOD8066718
_publ_section_title
;
Structure prediction by ZEFSAII (Michael W. Deem and Ramdas Pophale) SiO2 
 PCOD8066718
Probable space group: P 2/M
;
_chemical_formula_sum "Si O2"
_cell_formula_units_Z 24
_cell_length_a 24.337712
_cell_length_b 8.499899
_cell_length_c 17.130810
_cell_angle_alpha 90.000000
_cell_angle_beta 160.117400
_cell_angle_gamma 90.000000
_cell_volume 1205.231175
_symmetry_space_group_name_H-M "P 2/M"
_symmetry_group_IT_number 10
_symmetry_cell_setting 'monoclinic'
loop_
_space_group_symop_operation_xyz
x,y,z
-x,y,-z
-x,-y,-z
x,-y,z
loop_
_atom_site_type_symbol
_atom_site_label
_atom_site_fract_x
_atom_site_fract_y
_atom_site_fract_z
Si Si1 0.687022 0.181707 0.234589
Si Si2 0.813444 0.319540 0.247058
Si Si3 0.956529 0.315254 0.699840
Si Si4 0.079971 0.186143 0.024865
Si Si5 0.563877 0.175839 0.498830
Si Si6 0.255786 0.816110 0.004237
O O1 0.732985 0.285574 0.221943
O O2 0.793817 0.232046 0.451690
O O3 0.721130 0.000000 0.261581
O O4 0.500000 0.213994 0.000000
O O5 0.784170 0.500000 0.184967
O O6 0.739114 0.208672 0.081374
O O7 0.000000 0.277677 0.500000
O O8 0.929686 0.500000 0.659277
O O9 0.982902 0.265169 0.824528
O O10 0.106842 0.271212 0.845723
O O11 0.082687 0.000000 0.012630
O O12 0.261330 0.259317 0.270633
O O13 0.000000 0.230086 0.000000
O O14 0.500000 0.174816 0.500000
O O15 0.589738 0.000000 0.500866
O O16 0.425116 0.257600 0.261355
O O17 0.242760 0.000000 0.008421
#
# Coordination Sequence:
#
# PCOD8066718 Si02
#       6
#     4   4   4   4   4   4
#     4  11  25  44  67  93 121 160 212 259 305 367
#     4  11  23  39  61  93 129 162 201 250 311 373
#     4  12  24  39  61  90 125 162 200 248 317 377
#     4  10  21  39  63  89 120 159 204 253 302 361
#     4   9  17  33  58  88 117 150 198 252 299 342
#     4  11  21  36  63  91 121 162 213 260 301 356
#
# _framework density 19.913193
#
# number of rings (size 3 to 8) (size 9 to 14) (size 15 to 20)
#    0.000    1.333    3.333    3.000    0.000    3.667 
#    0.000    5.833    0.000    0.000    0.000    0.000 
#    0.000    0.000    0.000    0.000    0.000    0.000 
#
# Total GULP energy -297628.514627 kJ/mol
# GULP energy per Si atom -12401.188109 kJ/mol
# Density = 1.986787 g / cm^3
# Si number density = 19.913193 Si / 1000 Ang^3
#
#
#
# Elastic Constant Matrix: (Units=GPa)
#
#
# Indices 1 2 3 4 5 6 
#
# 1 102.7130 14.3919 60.4561 0.0000 -5.4641 0.0000
# 2 14.3919 37.4556 38.9017 0.0000 0.0640 0.0000
# 3 60.4561 38.9017 170.2414 0.0000 -3.5674 0.0000
# 4 0.0000 0.0000 0.0000 11.2478 0.0000 -8.8556
# 5 -5.4641 0.0640 -3.5674 0.0000 36.6466 0.0000
# 6 0.0000 0.0000 0.0000 -8.8556 0.0000 139.7284
#
#
#
# Elastic Compliance Matrix: (Units=1/GPa)
#
#
# Indices 1 2 3 4 5 6 
#
# 1 0.012385 -0.000294 -0.004301 0.000000 0.001428 0.000000
# 2 -0.000294 0.035039 -0.007921 0.000000 -0.000876 0.000000
# 3 -0.004301 -0.007921 0.009217 0.000000 0.000270 0.000000
# 4 0.000000 0.000000 0.000000 0.093576 0.000000 0.005931
# 5 0.001428 -0.000876 0.000270 0.000000 0.027528 0.000000
# 6 0.000000 0.000000 0.000000 0.005931 0.000000 0.007533
#
#
# Mechanical properties :
#
#
# Convention : Reuss Voigt Hill
#
# Bulk Modulus (GPa) = 31.63619 59.76769 45.70194
# Shear Modulus (GPa) = 22.64027 50.63525 36.63776
#
# Velocity S-wave (km/s) = 3.37552 5.04809 4.29403
# Velocity P-wave (km/s) = 5.57797 8.00355 6.89821
#
# Compressibility (1/GPa) = 0.03160937
#
# Stress axis : x y z
#
# Youngs Moduli (GPa) = 80.74601 28.53937 108.49608
#
# Poissons Ratio (x) = 0.00840 0.46662
# Poissons Ratio (y) = 0.02375 0.85936
# Poissons Ratio (z) = 0.34727 0.22605
#
# Static dielectric constant tensor:
#      x y z
#    x 3.389770 0.000000 -0.247430 
#    y 0.000000 3.481410 0.000000 
#    z -0.247430 0.000000 2.746100 
# 
# 
# High freq. dielectric constant tensor:
#      x y z
#    x 1.774830 0.000000 -0.007570 
#    y 0.000000 1.759960 0.000000 
#    z -0.007570 0.000000 1.795890 
# 
# From -- ./inp_files/80449.got.cif
#   From: 2010.06.25/outbox.cif.g09.slc.cpg/sg10_41_cif.got.tgz:80449.got - 2010.06.27 22:07:45.
