data_PCOD8066576
_publ_section_title
;
Structure prediction by ZEFSAII (Michael W. Deem and Ramdas Pophale) SiO2 
 PCOD8066576
Probable space group: P 2/M
;
_chemical_formula_sum "Si O2"
_cell_formula_units_Z 28
_cell_length_a 13.453651
_cell_length_b 8.549551
_cell_length_c 19.884755
_cell_angle_alpha 90.000000
_cell_angle_beta 144.750222
_cell_angle_gamma 90.000000
_cell_volume 1320.037925
_symmetry_space_group_name_H-M "P 2/M"
_symmetry_group_IT_number 10
_symmetry_cell_setting 'monoclinic'
loop_
_space_group_symop_operation_xyz
x,y,z
-x,y,-z
-x,-y,-z
x,-y,z
loop_
_atom_site_type_symbol
_atom_site_label
_atom_site_fract_x
_atom_site_fract_y
_atom_site_fract_z
Si Si1 0.686270 0.681050 0.932512
Si Si2 0.930025 0.680226 0.282322
Si Si3 0.581276 0.818918 0.115461
Si Si4 0.878323 0.181800 0.493206
Si Si5 0.514303 0.181648 0.715932
Si Si6 0.386363 0.814574 0.376523
Si Si7 0.998806 0.183527 0.177839
O O1 0.655984 0.500000 0.931602
O O2 0.555230 0.786226 0.902250
O O3 0.649251 0.718117 0.834046
O O4 0.880656 0.727452 0.058504
O O5 0.942112 0.500000 0.268537
O O6 0.751646 0.717004 0.221935
O O7 0.937013 0.784021 0.219296
O O8 0.083491 0.723267 0.417749
O O9 0.633185 0.000000 0.146204
O O10 0.500000 0.769165 0.000000
O O11 0.679501 0.211588 0.364608
O O12 0.000000 0.241971 0.500000
O O13 0.913536 0.000000 0.527369
O O14 0.530719 0.238618 0.648076
O O15 0.564248 0.000000 0.749484
O O16 0.500000 0.742255 0.500000
O O17 0.191704 0.751647 0.274698
O O18 0.385064 0.000000 0.382501
O O19 0.984846 0.000000 0.155948
#
# Coordination Sequence:
#
# PCOD8066576 Si02
#       7
#     4   4   4   4   4   4   4
#     4  12  25  40  60  90 129 164 201 250 310 374
#     4  12  24  37  59  91 127 161 198 250 312 370
#     4  11  22  38  62  88 119 162 208 251 297 355
#     4  10  21  38  62  90 121 160 206 251 300 365
#     4  10  21  40  65  91 123 163 208 258 309 361
#     4   9  19  38  66  95 118 151 206 265 309 352
#     4  11  22  39  63  89 119 158 209 258 303 361
#
# _framework density 21.211510000000001
#
# number of rings (size 3 to 8) (size 9 to 14) (size 15 to 20)
#    0.000    1.286    1.429    5.143    0.000    5.429 
#    0.000    4.286    0.000    3.000    0.000    0.000 
#    0.000    0.000    0.000    0.000    0.000    0.000 
#
# Total GULP energy -347385.612587 kJ/mol
# GULP energy per Si atom -12406.629021 kJ/mol
# Density = 2.116323 g / cm^3
# Si number density = 21.211510 Si / 1000 Ang^3
#
#
#
# Elastic Constant Matrix: (Units=GPa)
#
#
# Indices 1 2 3 4 5 6 
#
# 1 108.3403 10.5056 54.8818 0.0000 1.7251 0.0000
# 2 10.5056 60.3979 30.9970 0.0000 -4.5343 0.0000
# 3 54.8818 30.9970 151.6826 0.0000 -5.8650 0.0000
# 4 0.0000 0.0000 0.0000 16.2813 0.0000 -1.6602
# 5 1.7251 -4.5343 -5.8650 0.0000 39.6879 0.0000
# 6 0.0000 0.0000 0.0000 -1.6602 0.0000 14.0377
#
#
#
# Elastic Compliance Matrix: (Units=1/GPa)
#
#
# Indices 1 2 3 4 5 6 
#
# 1 0.011350 0.000081 -0.004166 0.000000 -0.001100 0.000000
# 2 0.000081 0.018594 -0.003769 0.000000 0.001564 0.000000
# 3 -0.004166 -0.003769 0.008911 0.000000 0.001067 0.000000
# 4 0.000000 0.000000 0.000000 0.062170 0.000000 0.007353
# 5 -0.001100 0.001564 0.001067 0.000000 0.025581 0.000000
# 6 0.000000 0.000000 0.000000 0.007353 0.000000 0.072107
#
#
# Mechanical properties :
#
#
# Convention : Reuss Voigt Hill
#
# Bulk Modulus (GPa) = 43.19827 57.02108 50.10968
# Shear Modulus (GPa) = 22.50872 28.93715 25.72293
#
# Velocity S-wave (km/s) = 3.26107 3.69754 3.48614
# Velocity P-wave (km/s) = 5.88125 6.72083 6.31501
#
# Compressibility (1/GPa) = 0.02314907
#
# Stress axis : x y z
#
# Youngs Moduli (GPa) = 88.10518 53.77991 112.21577
#
# Poissons Ratio (x) = -0.00436 0.46747
# Poissons Ratio (y) = -0.00715 0.42291
# Poissons Ratio (z) = 0.36703 0.20268
#
# Static dielectric constant tensor:
#      x y z
#    x 3.797910 0.000000 -0.004590 
#    y 0.000000 3.499370 0.000000 
#    z -0.004590 0.000000 4.071530 
# 
# 
# High freq. dielectric constant tensor:
#      x y z
#    x 1.827760 0.000000 -0.001330 
#    y 0.000000 1.807320 0.000000 
#    z -0.001330 0.000000 1.847320 
# 
# From -- ./inp_files/85000.got.cif
#   From: 2010.06.25/outbox.cif.g09.slc.cpg/sg10_43_cif.got.tgz:85000.got - 2010.06.27 22:07:45.
