data_PCOD8066432
_publ_section_title
;
Structure prediction by ZEFSAII (Michael W. Deem and Ramdas Pophale) SiO2 
 PCOD8066432
Probable space group: P 2/M
;
_chemical_formula_sum "Si O2"
_cell_formula_units_Z 28
_cell_length_a 13.930153
_cell_length_b 8.711710
_cell_length_c 16.689382
_cell_angle_alpha 90.000000
_cell_angle_beta 42.323358
_cell_angle_gamma 90.000000
_cell_volume 1363.694809
_symmetry_space_group_name_H-M "P 2/M"
_symmetry_group_IT_number 10
_symmetry_cell_setting 'monoclinic'
loop_
_space_group_symop_operation_xyz
x,y,z
-x,y,-z
-x,-y,-z
x,-y,z
loop_
_atom_site_type_symbol
_atom_site_label
_atom_site_fract_x
_atom_site_fract_y
_atom_site_fract_z
Si Si1 0.568992 0.818760 0.873984
Si Si2 0.788287 0.829053 0.306836
Si Si3 0.327063 0.177692 0.898293
Si Si4 0.304889 0.826018 0.467514
Si Si5 0.035669 0.325016 0.070541
Si Si6 0.411497 0.323989 0.686241
Si Si7 0.837372 0.182081 0.608010
O O1 0.461716 0.772356 0.868919
O O2 0.730652 0.760500 0.747323
O O3 0.579239 0.000000 0.877145
O O4 0.500000 0.750999 0.000000
O O5 0.807877 0.821560 0.390679
O O6 0.669510 0.712641 0.346226
O O7 0.941777 0.790134 0.178981
O O8 0.742766 0.000000 0.308660
O O9 0.359354 0.206800 0.785943
O O10 0.288308 0.000000 0.936032
O O11 0.194603 0.285896 0.000469
O O12 0.422416 0.706928 0.426055
O O13 0.235980 0.764710 0.428851
O O14 0.364288 0.000000 0.417870
O O15 0.001741 0.500000 0.113833
O O16 0.000000 0.294324 0.000000
O O17 0.380809 0.500000 0.729355
O O18 0.000000 0.249823 0.500000
O O19 0.848724 0.000000 0.607014
#
# Coordination Sequence:
#
# PCOD8066432 Si02
#       7
#     4   4   4   4   4   4   4
#     4   9  18  33  57  90 120 146 188 248 305 354
#     4  11  23  37  58  86 117 154 198 246 291 343
#     4  11  21  36  61  87 115 152 196 243 291 343
#     4  10  21  38  58  86 117 152 197 244 292 347
#     4  11  23  38  56  82 118 157 194 236 289 351
#     4  12  23  36  57  84 116 157 199 238 290 351
#     4   9  17  32  57  87 119 151 187 241 303 353
#
# _framework density 20.532453
#
# number of rings (size 3 to 8) (size 9 to 14) (size 15 to 20)
#    0.000    1.571    2.857    3.000    0.000    4.571 
#    0.000    4.286    0.000    2.143    0.000    0.000 
#    0.000    0.000    0.000    0.000    0.000    0.000 
#
# Total GULP energy -346942.628253 kJ/mol
# GULP energy per Si atom -12390.808152 kJ/mol
# Density = 2.048572 g / cm^3
# Si number density = 20.532453 Si / 1000 Ang^3
#
#
#
# Elastic Constant Matrix: (Units=GPa)
#
#
# Indices 1 2 3 4 5 6 
#
# 1 78.7517 13.6378 59.6872 0.0000 -3.7529 0.0000
# 2 13.6378 46.1017 21.3332 0.0000 3.8678 0.0000
# 3 59.6872 21.3332 138.7627 0.0000 -4.7320 0.0000
# 4 0.0000 0.0000 0.0000 9.9062 0.0000 -1.0933
# 5 -3.7529 3.8678 -4.7320 0.0000 36.3852 0.0000
# 6 0.0000 0.0000 0.0000 -1.0933 0.0000 9.4072
#
#
#
# Elastic Compliance Matrix: (Units=1/GPa)
#
#
# Indices 1 2 3 4 5 6 
#
# 1 0.019056 -0.002111 -0.007832 0.000000 0.001171 0.000000
# 2 -0.002111 0.023909 -0.002874 0.000000 -0.003133 0.000000
# 3 -0.007832 -0.002874 0.011049 0.000000 0.000935 0.000000
# 4 0.000000 0.000000 0.000000 0.102259 0.000000 0.011884
# 5 0.001171 -0.003133 0.000935 0.000000 0.028059 0.000000
# 6 0.000000 0.000000 0.000000 0.011884 0.000000 0.107682
#
#
# Mechanical properties :
#
#
# Convention : Reuss Voigt Hill
#
# Bulk Modulus (GPa) = 35.23826 50.32585 42.78205
# Shear Modulus (GPa) = 15.28546 22.40357 18.84451
#
# Velocity S-wave (km/s) = 2.73143 3.30681 3.03279
# Velocity P-wave (km/s) = 5.21029 6.25648 5.75720
#
# Compressibility (1/GPa) = 0.02837824
#
# Stress axis : x y z
#
# Youngs Moduli (GPa) = 52.47808 41.82584 90.50425
#
# Poissons Ratio (x) = 0.08830 0.70883
# Poissons Ratio (y) = 0.11079 0.26015
# Poissons Ratio (z) = 0.41101 0.12023
#
# Static dielectric constant tensor:
#      x y z
#    x 3.722070 0.000000 -0.089360 
#    y 0.000000 3.349140 0.000000 
#    z -0.089360 0.000000 4.156340 
# 
# 
# High freq. dielectric constant tensor:
#      x y z
#    x 1.790750 0.000000 -0.002340 
#    y 0.000000 1.767280 0.000000 
#    z -0.002340 0.000000 1.817950 
# 
# From -- ./inp_files/63942.got.cif
#   From: 2010.06.25/outbox.cif.g09.slc.cpg/sg10_32_cif.got.tgz:63942.got - 2010.06.27 22:07:45.
