data_PCOD8066633
_publ_section_title
;
Structure prediction by ZEFSAII (Michael W. Deem and Ramdas Pophale) SiO2 
 PCOD8066633
Probable space group: P 2/M
;
_chemical_formula_sum "Si O2"
_cell_formula_units_Z 32
_cell_length_a 11.739316
_cell_length_b 9.097642
_cell_length_c 14.937420
_cell_angle_alpha 90.000000
_cell_angle_beta 93.884450
_cell_angle_gamma 90.000000
_cell_volume 1591.652943
_symmetry_space_group_name_H-M "P 2/M"
_symmetry_group_IT_number 10
_symmetry_cell_setting 'monoclinic'
loop_
_space_group_symop_operation_xyz
x,y,z
-x,y,-z
-x,-y,-z
x,-y,z
loop_
_atom_site_type_symbol
_atom_site_label
_atom_site_fract_x
_atom_site_fract_y
_atom_site_fract_z
Si Si1 0.941079 0.830820 0.583692
Si Si2 0.630435 0.326944 0.991340
Si Si3 0.404582 0.667834 0.331149
Si Si4 0.685660 0.831768 0.516504
Si Si5 0.264703 0.827068 0.174269
Si Si6 0.664939 0.667013 0.335087
Si Si7 0.013920 0.826843 0.217462
Si Si8 0.209301 0.327592 0.837150
O O1 0.805930 0.814156 0.572200
O O2 0.000000 0.753092 0.500000
O O3 0.982114 0.761874 0.680441
O O4 0.978602 0.000000 0.585589
O O5 0.637480 0.500000 0.973173
O O6 0.680456 0.244437 0.909320
O O7 0.500000 0.278150 0.000000
O O8 0.704678 0.278217 0.080475
O O9 0.361327 0.500000 0.331485
O O10 0.404194 0.735279 0.431557
O O11 0.323242 0.763706 0.265396
O O12 0.532568 0.677195 0.300940
O O13 0.697303 0.774688 0.416696
O O14 0.644572 0.000000 0.512159
O O15 0.130456 0.789497 0.171331
O O16 0.286364 0.000000 0.174033
O O17 0.695810 0.500000 0.363901
O O18 0.736219 0.720974 0.253831
O O19 0.911691 0.752399 0.157050
O O20 0.993982 0.000000 0.219056
O O21 0.187905 0.500000 0.840076
#
# Coordination Sequence:
#
# PCOD8066633 Si02
#       8
#     4   4   4   4   4   4   4   4
#     4   9  17  32  54  78 111 157 201 240 288 348
#     4  10  22  43  68  92 121 159 199 243 302 363
#     4  11  22  38  60  84 119 163 202 245 302 363
#     4  11  21  35  56  85 119 156 203 251 297 355
#     4  11  23  40  63  91 123 157 199 252 302 359
#     4  10  22  39  57  83 119 159 200 246 303 360
#     4  10  21  39  59  84 122 160 196 243 304 360
#     4  10  22  40  62  88 118 152 200 251 292 353
#
# _framework density 20.104884999999999
#
# number of rings (size 3 to 8) (size 9 to 14) (size 15 to 20)
#    0.000    1.750    1.250    3.000    0.000    8.250 
#    0.000    3.750    0.000    2.625    0.000    0.000 
#    0.000    0.000    0.000    0.000    0.000    0.000 
#
# Total GULP energy -396898.421019 kJ/mol
# GULP energy per Si atom -12403.075657 kJ/mol
# Density = 2.005912 g / cm^3
# Si number density = 20.104885 Si / 1000 Ang^3
#
#
#
# Elastic Constant Matrix: (Units=GPa)
#
#
# Indices 1 2 3 4 5 6 
#
# 1 108.7289 48.4985 58.0119 0.0000 0.4168 0.0000
# 2 48.4985 49.2876 50.0404 0.0000 -5.2013 0.0000
# 3 58.0119 50.0404 127.4461 0.0000 -4.1885 0.0000
# 4 0.0000 0.0000 0.0000 16.6506 0.0000 -7.7284
# 5 0.4168 -5.2013 -4.1885 0.0000 38.5028 0.0000
# 6 0.0000 0.0000 0.0000 -7.7284 0.0000 27.1217
#
#
#
# Elastic Compliance Matrix: (Units=1/GPa)
#
#
# Indices 1 2 3 4 5 6 
#
# 1 0.016883 -0.014940 -0.001898 0.000000 -0.002407 0.000000
# 2 -0.014940 0.047338 -0.011612 0.000000 0.005293 0.000000
# 3 -0.001898 -0.011612 0.013267 0.000000 -0.000105 0.000000
# 4 0.000000 0.000000 0.000000 0.069212 0.000000 0.019722
# 5 -0.002407 0.005293 -0.000105 0.000000 0.026702 0.000000
# 6 0.000000 0.000000 0.000000 0.019722 0.000000 0.042491
#
#
# Mechanical properties :
#
#
# Convention : Reuss Voigt Hill
#
# Bulk Modulus (GPa) = 48.57440 66.50713 57.54076
# Shear Modulus (GPa) = 17.87922 25.04915 21.46419
#
# Velocity S-wave (km/s) = 2.98534 3.53359 3.27098
# Velocity P-wave (km/s) = 6.00799 7.05693 6.55348
#
# Compressibility (1/GPa) = 0.02058698
#
# Stress axis : x y z
#
# Youngs Moduli (GPa) = 59.23134 21.12479 75.37758
#
# Poissons Ratio (x) = 0.31559 0.14308
# Poissons Ratio (y) = 0.88489 0.87532
# Poissons Ratio (z) = 0.11243 0.24531
#
# Static dielectric constant tensor:
#      x y z
#    x 3.706310 0.000000 -0.032960 
#    y 0.000000 3.482530 0.000000 
#    z -0.032960 0.000000 3.796830 
# 
# 
# High freq. dielectric constant tensor:
#      x y z
#    x 1.795790 0.000000 -0.003290 
#    y 0.000000 1.768690 0.000000 
#    z -0.003290 0.000000 1.790920 
# 
# From -- ./inp_files/58196.got.cif
#   From: 2010.06.25/outbox.cif.g09.slc.cpg/sg10_30_cif.got.tgz:58196.got - 2010.06.27 22:07:45.
