data_PCOD8066098
_publ_section_title
;
Structure prediction by ZEFSAII (Michael W. Deem and Ramdas Pophale) SiO2 
 PCOD8066098
Probable space group: P 2/M
;
_chemical_formula_sum "Si O2"
_cell_formula_units_Z 24
_cell_length_a 22.235552
_cell_length_b 9.122750
_cell_length_c 11.249912
_cell_angle_alpha 90.000000
_cell_angle_beta 31.179201
_cell_angle_gamma 90.000000
_cell_volume 1181.448498
_symmetry_space_group_name_H-M "P 2/M"
_symmetry_group_IT_number 10
_symmetry_cell_setting 'monoclinic'
loop_
_space_group_symop_operation_xyz
x,y,z
-x,y,-z
-x,-y,-z
x,-y,z
loop_
_atom_site_type_symbol
_atom_site_label
_atom_site_fract_x
_atom_site_fract_y
_atom_site_fract_z
Si Si1 0.042745 0.166285 0.150698
Si Si2 0.163576 0.668323 0.418737
Si Si3 0.367940 0.331565 0.245632
Si Si4 0.631564 0.336548 0.313329
Si Si5 0.273635 0.827224 0.630486
Si Si6 0.809069 0.168454 0.866837
O O1 0.093458 0.183624 0.197417
O O2 0.931705 0.272533 0.325165
O O3 0.001874 0.000000 0.196948
O O4 0.140004 0.211367 0.889194
O O5 0.136815 0.500000 0.434744
O O6 0.293514 0.685820 0.250975
O O7 0.145687 0.763957 0.331684
O O8 0.367417 0.500000 0.290628
O O9 0.305711 0.230107 0.446983
O O10 0.500000 0.278570 0.000000
O O11 0.500000 0.347145 0.500000
O O12 0.683945 0.500000 0.240862
O O13 0.641380 0.248444 0.419115
O O14 0.694962 0.255093 0.098688
O O15 0.294003 0.000000 0.603960
O O16 0.775967 0.000000 0.901482
#
# Coordination Sequence:
#
# PCOD8066098 Si02
#       6
#     4   4   4   4   4   4
#     4   9  20  39  60  86 121 155 188 239 304 355
#     4  11  23  37  59  89 118 156 203 245 292 351
#     4  10  24  44  61  81 117 160 199 244 297 351
#     4  10  21  36  58  86 118 157 195 237 293 350
#     4  10  22  40  62  88 117 151 197 247 293 347
#     4  10  21  37  58  87 123 157 192 241 296 350
#
# _framework density 20.314046000000001
#
# number of rings (size 3 to 8) (size 9 to 14) (size 15 to 20)
#    0.000    2.000    0.000    3.500    2.333    9.667 
#    0.000    3.333    0.000    0.000    0.000    0.000 
#    0.000    0.000    0.000    0.000    0.000    0.000 
#
# Total GULP energy -297658.797438 kJ/mol
# GULP energy per Si atom -12402.449893 kJ/mol
# Density = 2.026781 g / cm^3
# Si number density = 20.314046 Si / 1000 Ang^3
#
#
#
# Elastic Constant Matrix: (Units=GPa)
#
#
# Indices 1 2 3 4 5 6 
#
# 1 39.9318 31.5540 38.4216 0.0000 1.6157 0.0000
# 2 31.5540 127.7931 57.8704 0.0000 0.2278 0.0000
# 3 38.4216 57.8704 112.9774 0.0000 -1.1484 0.0000
# 4 0.0000 0.0000 0.0000 40.7481 0.0000 7.4854
# 5 1.6157 0.2278 -1.1484 0.0000 33.7554 0.0000
# 6 0.0000 0.0000 0.0000 7.4854 0.0000 22.9215
#
#
#
# Elastic Compliance Matrix: (Units=1/GPa)
#
#
# Indices 1 2 3 4 5 6 
#
# 1 0.039493 -0.004759 -0.011016 0.000000 -0.002233 0.000000
# 2 -0.004759 0.010764 -0.003895 0.000000 0.000023 0.000000
# 3 -0.011016 -0.003895 0.014603 0.000000 0.001050 0.000000
# 4 0.000000 0.000000 0.000000 0.026107 0.000000 -0.008526
# 5 -0.002233 0.000023 0.001050 0.000000 0.029767 0.000000
# 6 0.000000 0.000000 0.000000 -0.008526 0.000000 0.046411
#
#
# Mechanical properties :
#
#
# Convention : Reuss Voigt Hill
#
# Bulk Modulus (GPa) = 39.18385 59.59935 49.39160
# Shear Modulus (GPa) = 23.25665 29.67542 26.46604
#
# Velocity S-wave (km/s) = 3.38724 3.82623 3.61341
# Velocity P-wave (km/s) = 5.88462 6.99448 6.46342
#
# Compressibility (1/GPa) = 0.02552072
#
# Stress axis : x y z
#
# Youngs Moduli (GPa) = 25.32113 92.90248 68.47718
#
# Poissons Ratio (x) = 0.44211 0.75433
# Poissons Ratio (y) = 0.12050 0.26672
# Poissons Ratio (z) = 0.27893 0.36185
#
# Static dielectric constant tensor:
#      x y z
#    x 3.483900 0.000000 0.052790 
#    y 0.000000 3.845680 0.000000 
#    z 0.052790 0.000000 3.820330 
# 
# 
# High freq. dielectric constant tensor:
#      x y z
#    x 1.781140 0.000000 -0.001200 
#    y 0.000000 1.803270 0.000000 
#    z -0.001200 0.000000 1.800030 
# 
# From -- ./inp_files/54598.got.cif
#   From: 2010.06.25/outbox.cif.g09.slc.cpg/sg10_28_cif.got.tgz:54598.got - 2010.06.27 22:07:45.
