data_PCOD8066653
_publ_section_title
;
Structure prediction by ZEFSAII (Michael W. Deem and Ramdas Pophale) SiO2 
 PCOD8066653
Probable space group: P 2/M
;
_chemical_formula_sum "Si O2"
_cell_formula_units_Z 18
_cell_length_a 9.159057
_cell_length_b 9.950834
_cell_length_c 10.244399
_cell_angle_alpha 90.000000
_cell_angle_beta 91.321481
_cell_angle_gamma 90.000000
_cell_volume 933.428818
_symmetry_space_group_name_H-M "P 2/M"
_symmetry_group_IT_number 10
_symmetry_cell_setting 'monoclinic'
loop_
_space_group_symop_operation_xyz
x,y,z
-x,y,-z
-x,-y,-z
x,-y,z
loop_
_atom_site_type_symbol
_atom_site_label
_atom_site_fract_x
_atom_site_fract_y
_atom_site_fract_z
Si Si1 0.409548 0.500000 0.365690
Si Si2 0.330000 0.728962 0.979513
Si Si3 0.905192 0.000000 0.786103
Si Si4 0.799614 0.000000 0.078874
Si Si5 0.024471 0.500000 0.652895
Si Si6 0.191474 0.710896 0.258192
Si Si7 0.690718 0.500000 0.210223
O O1 0.500000 0.500000 0.500000
O O2 0.312263 0.636587 0.352427
O O3 0.522766 0.500000 0.249160
O O4 0.267319 0.627292 0.874084
O O5 0.305341 0.872612 0.912668
O O6 0.500000 0.703704 0.000000
O O7 0.242041 0.702775 0.110236
O O8 0.839181 0.868784 0.709841
O O9 0.082504 0.000000 0.799297
O O10 0.866936 0.000000 0.936753
O O11 0.199548 0.500000 0.665530
O O12 0.000000 0.500000 0.500000
O O13 0.959135 0.631719 0.722655
#
# Coordination Sequence:
#
# PCOD8066653 Si02
#       7
#     2   4   2   2   2   4   2
#     4  11  22  39  58  80 112 161 200 240 288 335
#     4  11  20  34  57  91 125 147 188 232 298 351
#     4   9  18  36  58  86 115 153 193 227 290 350
#     4   9  19  32  54  86 127 157 174 221 294 367
#     4  11  24  40  58  83 113 157 205 239 290 338
#     4  10  21  39  61  83 120 152 187 245 291 343
#     4  12  21  34  58  85 115 148 197 245 280 347
#
# _framework density 19.283740000000002
#
# number of rings (size 3 to 8) (size 9 to 14) (size 15 to 20)
#    0.000    1.556    2.222    4.667    0.000    3.556 
#    0.000    1.111    0.000    2.667    0.000    0.000 
#    0.000    0.000    0.000    0.000    0.000    0.000 
#
# Total GULP energy -223084.631678 kJ/mol
# GULP energy per Si atom -12393.590649 kJ/mol
# Density = 1.923985 g / cm^3
# Si number density = 19.283740 Si / 1000 Ang^3
#
#
#
# Elastic Constant Matrix: (Units=GPa)
#
#
# Indices 1 2 3 4 5 6 
#
# 1 92.1176 35.2389 24.9483 0.0000 17.5211 0.0000
# 2 35.2389 165.5833 46.8729 0.0000 16.9586 0.0000
# 3 24.9483 46.8729 62.2649 0.0000 16.1191 0.0000
# 4 0.0000 0.0000 0.0000 35.5143 0.0000 12.1443
# 5 17.5211 16.9586 16.1191 0.0000 38.2359 0.0000
# 6 0.0000 0.0000 0.0000 12.1443 0.0000 29.4987
#
#
#
# Elastic Compliance Matrix: (Units=1/GPa)
#
#
# Indices 1 2 3 4 5 6 
#
# 1 0.013018 -0.001496 -0.003050 0.000000 -0.004016 0.000000
# 2 -0.001496 0.007887 -0.005175 0.000000 -0.000631 0.000000
# 3 -0.003050 -0.005175 0.022699 0.000000 -0.005876 0.000000
# 4 0.000000 0.000000 0.000000 0.032771 0.000000 -0.013492
# 5 -0.004016 -0.000631 -0.005876 0.000000 0.030751 0.000000
# 6 0.000000 0.000000 0.000000 -0.013492 0.000000 0.039454
#
#
# Mechanical properties :
#
#
# Convention : Reuss Voigt Hill
#
# Bulk Modulus (GPa) = 41.38581 59.34288 50.36434
# Shear Modulus (GPa) = 28.72305 34.84349 31.78327
#
# Velocity S-wave (km/s) = 3.86359 4.25536 4.06420
# Velocity P-wave (km/s) = 6.43515 7.41515 6.94246
#
# Compressibility (1/GPa) = 0.02416287
#
# Stress axis : x y z
#
# Youngs Moduli (GPa) = 76.81783 126.79048 44.05398
#
# Poissons Ratio (x) = 0.18963 0.13438
# Poissons Ratio (y) = 0.11489 0.22796
# Poissons Ratio (z) = 0.23433 0.65610
#
# Static dielectric constant tensor:
#      x y z
#    x 3.774390 0.000000 -0.097280 
#    y 0.000000 3.787440 0.000000 
#    z -0.097280 0.000000 3.213320 
# 
# 
# High freq. dielectric constant tensor:
#      x y z
#    x 1.761890 0.000000 0.001470 
#    y 0.000000 1.760710 0.000000 
#    z 0.001470 0.000000 1.719720 
# 
# From -- ./inp_files/17910.got.cif
#   From: 2010.06.25/outbox.cif.g09.slc.cpg/sg10_9_cif.got.tgz:17910.got - 2010.06.27 22:07:45.
