data_PCOD8066017
_publ_section_title
;
Structure prediction by ZEFSAII (Michael W. Deem and Ramdas Pophale) SiO2 
 PCOD8066017
Probable space group: P 2/M
;
_chemical_formula_sum "Si O2"
_cell_formula_units_Z 20
_cell_length_a 9.009147
_cell_length_b 23.467619
_cell_length_c 5.080559
_cell_angle_alpha 90.000000
_cell_angle_beta 64.937645
_cell_angle_gamma 90.000000
_cell_volume 973.014254
_symmetry_space_group_name_H-M "P 2/M"
_symmetry_group_IT_number 10
_symmetry_cell_setting 'monoclinic'
loop_
_space_group_symop_operation_xyz
x,y,z
-x,y,-z
-x,-y,-z
x,-y,z
loop_
_atom_site_type_symbol
_atom_site_label
_atom_site_fract_x
_atom_site_fract_y
_atom_site_fract_z
Si Si1 0.608616 0.351053 0.666595
Si Si2 0.805080 0.238757 0.642051
Si Si3 0.893359 0.565722 0.323043
Si Si4 0.608318 0.936911 0.162824
Si Si5 0.192567 0.829349 0.861784
O O1 0.500000 0.332291 0.500000
O O2 0.724113 0.299400 0.662716
O O3 0.720495 0.403130 0.485615
O O4 0.500000 0.369809 0.000000
O O5 0.744479 0.194060 0.465136
O O6 0.000000 0.247202 0.500000
O O7 0.742438 0.214094 0.965705
O O8 0.851009 0.500000 0.300872
O O9 0.000000 0.574735 0.500000
O O10 0.000000 0.590781 0.000000
O O11 0.500000 0.940521 0.500000
O O12 0.752779 0.893049 0.112276
O O13 0.681779 0.000000 0.044927
O O14 0.500000 0.915247 0.000000
O O15 0.000000 0.831396 0.000000
#
# Coordination Sequence:
#
# PCOD8066017 Si02
#       5
#     4   4   4   4   4
#     4  12  25  38  59  92 123 152 193 245 296 341
#     4  10  22  39  57  80 114 153 191 231 283 347
#     4  10  22  42  66  88 116 160 203 236 285 351
#     4  10  21  36  55  80 110 145 182 225 283 345
#     4  10  21  37  58  82 108 145 191 237 281 330
#
# _framework density 20.554682
#
# number of rings (size 3 to 8) (size 9 to 14) (size 15 to 20)
#    0.000    1.600    0.000    4.200    0.000    8.400 
#    0.000    0.000    0.000    7.200    0.000    0.000 
#    0.000    0.000    0.000    0.000    0.000    0.000 
#
# Total GULP energy -248037.224047 kJ/mol
# GULP energy per Si atom -12401.861202 kJ/mol
# Density = 2.050790 g / cm^3
# Si number density = 20.554682 Si / 1000 Ang^3
#
#
#
# Elastic Constant Matrix: (Units=GPa)
#
#
# Indices 1 2 3 4 5 6 
#
# 1 70.1020 53.4077 50.9000 0.0000 21.2942 0.0000
# 2 53.4077 110.4946 38.2805 0.0000 -0.1653 0.0000
# 3 50.9000 38.2805 140.0198 0.0000 15.4483 0.0000
# 4 0.0000 0.0000 0.0000 46.4871 0.0000 21.9321
# 5 21.2942 -0.1653 15.4483 0.0000 31.8375 0.0000
# 6 0.0000 0.0000 0.0000 21.9321 0.0000 56.2836
#
#
#
# Elastic Compliance Matrix: (Units=1/GPa)
#
#
# Indices 1 2 3 4 5 6 
#
# 1 0.038636 -0.016240 -0.007126 0.000000 -0.022468 0.000000
# 2 -0.016240 0.016887 0.000083 0.000000 0.010909 0.000000
# 3 -0.007126 0.000083 0.009703 0.000000 0.000059 0.000000
# 4 0.000000 0.000000 0.000000 0.026357 0.000000 -0.010271
# 5 -0.022468 0.010909 0.000059 0.000000 0.046465 0.000000
# 6 0.000000 0.000000 0.000000 -0.010271 0.000000 0.021769
#
#
# Mechanical properties :
#
#
# Convention : Reuss Voigt Hill
#
# Bulk Modulus (GPa) = 53.58832 67.31030 60.44931
# Shear Modulus (GPa) = 23.51783 38.79019 31.15401
#
# Velocity S-wave (km/s) = 3.38621 4.34887 3.89738
# Velocity P-wave (km/s) = 6.43555 7.61807 7.05164
#
# Compressibility (1/GPa) = 0.01866078
#
# Stress axis : x y z
#
# Youngs Moduli (GPa) = 25.88231 59.21633 103.05781
#
# Poissons Ratio (x) = 0.96165 0.73443
# Poissons Ratio (y) = 0.42032 -0.00855
# Poissons Ratio (z) = 0.18445 -0.00491
#
# Static dielectric constant tensor:
#      x y z
#    x 3.663620 0.000000 0.288640 
#    y 0.000000 3.909920 0.000000 
#    z 0.288640 0.000000 4.114730 
# 
# 
# High freq. dielectric constant tensor:
#      x y z
#    x 1.803930 0.000000 0.018100 
#    y 0.000000 1.807560 0.000000 
#    z 0.018100 0.000000 1.818150 
# 
# From -- ./inp_files/4698.got.cif
#   From: 2010.06.25/outbox.cif.g09.slc.cpg/sg10_3_cif.got.tgz:4698.got - 2010.06.27 22:07:45.
