data_PCOD8066241
_publ_section_title
;
Structure prediction by ZEFSAII (Michael W. Deem and Ramdas Pophale) SiO2 
 PCOD8066241
Probable space group: P 2/M
;
_chemical_formula_sum "Si O2"
_cell_formula_units_Z 32
_cell_length_a 11.750182
_cell_length_b 8.952285
_cell_length_c 14.830753
_cell_angle_alpha 90.000000
_cell_angle_beta 93.497441
_cell_angle_gamma 90.000000
_cell_volume 1557.155837
_symmetry_space_group_name_H-M "P 2/M"
_symmetry_group_IT_number 10
_symmetry_cell_setting 'monoclinic'
loop_
_space_group_symop_operation_xyz
x,y,z
-x,y,-z
-x,-y,-z
x,-y,z
loop_
_atom_site_type_symbol
_atom_site_label
_atom_site_fract_x
_atom_site_fract_y
_atom_site_fract_z
Si Si1 0.289384 0.824403 0.173485
Si Si2 0.241203 0.676026 0.836887
Si Si3 0.513361 0.323767 0.221736
Si Si4 0.195321 0.830142 0.520061
Si Si5 0.820318 0.329115 0.666687
Si Si6 0.081032 0.670574 0.668303
Si Si7 0.129871 0.176540 0.002807
Si Si8 0.552655 0.170514 0.409062
O O1 0.410486 0.746397 0.158523
O O2 0.249304 0.774972 0.269856
O O3 0.195036 0.773322 0.096510
O O4 0.307963 0.000000 0.172356
O O5 0.230833 0.500000 0.850645
O O6 0.369962 0.725878 0.821079
O O7 0.162034 0.730302 0.751149
O O8 0.199756 0.755975 0.924216
O O9 0.500921 0.500000 0.222437
O O10 0.506605 0.267766 0.324333
O O11 0.205338 0.725082 0.434666
O O12 0.095090 0.771324 0.580038
O O13 0.311400 0.817943 0.581964
O O14 0.169090 0.000000 0.489536
O O15 0.779457 0.500000 0.674596
O O16 0.952961 0.313797 0.696878
O O17 0.111373 0.500000 0.644126
O O18 0.128666 0.000000 0.991161
O O19 0.000000 0.238261 0.000000
O O20 0.500000 0.232340 0.500000
O O21 0.511966 0.000000 0.392358
#
# Coordination Sequence:
#
# PCOD8066241 Si02
#       8
#     4   4   4   4   4   4   4   4
#     4  11  24  42  63  89 124 158 197 253 308 364
#     4  10  22  40  64  92 123 161 204 255 306 360
#     4  11  23  40  63  90 122 161 206 251 301 365
#     4  11  22  35  56  87 122 162 206 252 304 364
#     4  11  23  38  60  87 119 162 207 254 307 364
#     4  10  21  39  59  85 123 162 204 253 305 362
#     4  10  23  43  67  95 124 158 201 249 306 370
#     4  10  21  37  57  83 118 162 209 256 303 354
#
# _framework density 20.550287000000001
#
# number of rings (size 3 to 8) (size 9 to 14) (size 15 to 20)
#    0.000    1.500    1.250    3.375    0.000    7.500 
#    0.000    2.500    0.000    0.000    0.000    0.000 
#    0.000    0.000    0.000    0.000    0.000    0.000 
#
# Total GULP energy -396986.131311 kJ/mol
# GULP energy per Si atom -12405.816603 kJ/mol
# Density = 2.050351 g / cm^3
# Si number density = 20.550287 Si / 1000 Ang^3
#
#
#
# Elastic Constant Matrix: (Units=GPa)
#
#
# Indices 1 2 3 4 5 6 
#
# 1 115.4919 41.8164 45.9067 0.0000 5.5404 0.0000
# 2 41.8164 65.5790 35.0396 0.0000 4.1036 0.0000
# 3 45.9067 35.0396 104.6110 0.0000 -3.1865 0.0000
# 4 0.0000 0.0000 0.0000 36.4663 0.0000 -1.7261
# 5 5.5404 4.1036 -3.1865 0.0000 36.7557 0.0000
# 6 0.0000 0.0000 0.0000 -1.7261 0.0000 33.5598
#
#
#
# Elastic Compliance Matrix: (Units=1/GPa)
#
#
# Indices 1 2 3 4 5 6 
#
# 1 0.012221 -0.005858 -0.003446 0.000000 -0.001487 0.000000
# 2 -0.005858 0.021636 -0.004735 0.000000 -0.001943 0.000000
# 3 -0.003446 -0.004735 0.012723 0.000000 0.002151 0.000000
# 4 0.000000 0.000000 0.000000 0.027489 0.000000 0.001414
# 5 -0.001487 -0.001943 0.002151 0.000000 0.027834 0.000000
# 6 0.000000 0.000000 0.000000 0.001414 0.000000 0.029870
#
#
# Mechanical properties :
#
#
# Convention : Reuss Voigt Hill
#
# Bulk Modulus (GPa) = 54.05217 59.02305 56.53761
# Shear Modulus (GPa) = 30.11684 32.21766 31.16725
#
# Velocity S-wave (km/s) = 3.83236 3.96377 3.89862
# Velocity P-wave (km/s) = 6.77807 7.05211 6.91645
#
# Compressibility (1/GPa) = 0.01850064
#
# Stress axis : x y z
#
# Youngs Moduli (GPa) = 81.82771 46.21895 78.59754
#
# Poissons Ratio (x) = 0.27077 0.27084
# Poissons Ratio (y) = 0.47938 0.37219
# Poissons Ratio (z) = 0.28197 0.21887
#
# Static dielectric constant tensor:
#      x y z
#    x 4.024650 0.000000 0.100810 
#    y 0.000000 3.764340 0.000000 
#    z 0.100810 0.000000 3.646110 
# 
# 
# High freq. dielectric constant tensor:
#      x y z
#    x 1.821540 0.000000 0.002260 
#    y 0.000000 1.800620 0.000000 
#    z 0.002260 0.000000 1.799480 
# 
# From -- ./inp_files/63808.got.cif
#   From: 2010.06.25/outbox.cif.g09.slc.cpg/sg10_32_cif.got.tgz:63808.got - 2010.06.27 22:07:45.
