data_PCOD8066511
_publ_section_title
;
Structure prediction by ZEFSAII (Michael W. Deem and Ramdas Pophale) SiO2 
 PCOD8066511
Probable space group: P 2/M
;
_chemical_formula_sum "Si O2"
_cell_formula_units_Z 32
_cell_length_a 15.139160
_cell_length_b 21.360679
_cell_length_c 8.853074
_cell_angle_alpha 90.000000
_cell_angle_beta 30.879045
_cell_angle_gamma 90.000000
_cell_volume 1469.334772
_symmetry_space_group_name_H-M "P 2/M"
_symmetry_group_IT_number 10
_symmetry_cell_setting 'monoclinic'
loop_
_space_group_symop_operation_xyz
x,y,z
-x,y,-z
-x,-y,-z
x,-y,z
loop_
_atom_site_type_symbol
_atom_site_label
_atom_site_fract_x
_atom_site_fract_y
_atom_site_fract_z
Si Si1 0.511920 0.742550 0.814589
Si Si2 0.822590 0.807329 0.694387
Si Si3 0.305061 0.928866 0.967480
Si Si4 0.019296 0.426064 0.648255
Si Si5 0.325191 0.429844 0.695169
Si Si6 0.642463 0.395099 0.684490
Si Si7 0.706429 0.929790 0.363277
Si Si8 0.832875 0.187446 0.324653
O O1 0.554907 0.669424 0.758590
O O2 0.666285 0.776967 0.499467
O O3 0.500000 0.771373 0.000000
O O4 0.326399 0.761574 0.017000
O O5 0.843142 0.801676 0.486139
O O6 0.000000 0.781731 0.500000
O O7 0.792532 0.879846 0.782643
O O8 0.507390 0.921344 0.696771
O O9 0.258849 0.913414 0.862313
O O10 0.248441 0.000000 0.091534
O O11 0.049265 0.500000 0.634498
O O12 0.000000 0.411598 0.500000
O O13 0.181352 0.387833 0.478780
O O14 0.848628 0.399244 0.982633
O O15 0.500000 0.395667 0.500000
O O16 0.327574 0.500000 0.757487
O O17 0.318735 0.433466 0.523482
O O18 0.500000 0.429314 0.000000
O O19 0.820028 0.885611 0.302570
O O20 0.765870 0.000000 0.311488
O O21 0.000000 0.217093 0.000000
#
# Coordination Sequence:
#
# PCOD8066511 Si02
#       8
#     4   4   4   4   4   4   4   4
#     4   9  22  43  60  82 118 155 203 256 301 355
#     4  11  22  40  63  86 116 156 199 251 306 363
#     4   9  18  34  59  90 120 152 190 241 306 373
#     4  10  21  38  64  98 133 167 206 252 307 371
#     4  10  21  38  60  92 132 168 205 248 299 363
#     4  11  22  39  62  89 123 168 208 258 310 359
#     4   9  18  34  57  87 121 152 188 239 300 367
#     4  11  22  38  59  85 114 154 199 246 299 358
#
# _framework density 21.778562000000001
#
# number of rings (size 3 to 8) (size 9 to 14) (size 15 to 20)
#    0.000    2.000    1.250    3.000    0.000    5.000 
#    0.000   13.125    0.000    0.000    0.000    0.000 
#    0.000    0.000    0.000    0.000    0.000    0.000 
#
# Total GULP energy -396680.984246 kJ/mol
# GULP energy per Si atom -12396.280758 kJ/mol
# Density = 2.172899 g / cm^3
# Si number density = 21.778562 Si / 1000 Ang^3
#
#
#
# Elastic Constant Matrix: (Units=GPa)
#
#
# Indices 1 2 3 4 5 6 
#
# 1 105.3820 16.2670 58.9006 0.0000 -14.6570 0.0000
# 2 16.2670 65.5665 27.3283 0.0000 -11.3196 0.0000
# 3 58.9006 27.3283 171.2226 0.0000 -14.4933 0.0000
# 4 0.0000 0.0000 0.0000 19.1144 0.0000 -1.2988
# 5 -14.6570 -11.3196 -14.4933 0.0000 42.3787 0.0000
# 6 0.0000 0.0000 0.0000 -1.2988 0.0000 18.9616
#
#
#
# Elastic Compliance Matrix: (Units=1/GPa)
#
#
# Indices 1 2 3 4 5 6 
#
# 1 0.012126 -0.000972 -0.003793 0.000000 0.002637 0.000000
# 2 -0.000972 0.016960 -0.002078 0.000000 0.003483 0.000000
# 3 -0.003793 -0.002078 0.007537 0.000000 0.000711 0.000000
# 4 0.000000 0.000000 0.000000 0.052561 0.000000 0.003600
# 5 0.002637 0.003483 0.000711 0.000000 0.025682 0.000000
# 6 0.000000 0.000000 0.000000 0.003600 0.000000 0.052985
#
#
# Mechanical properties :
#
#
# Convention : Reuss Voigt Hill
#
# Bulk Modulus (GPa) = 43.59685 60.79587 52.19636
# Shear Modulus (GPa) = 26.42938 32.06928 29.24933
#
# Velocity S-wave (km/s) = 3.48738 3.84150 3.66872
# Velocity P-wave (km/s) = 6.02308 6.90306 6.47803
#
# Compressibility (1/GPa) = 0.02293744
#
# Stress axis : x y z
#
# Youngs Moduli (GPa) = 82.46650 58.96137 132.68026
#
# Poissons Ratio (x) = 0.05733 0.50326
# Poissons Ratio (y) = 0.08018 0.27566
# Poissons Ratio (z) = 0.31279 0.12250
#
# Static dielectric constant tensor:
#      x y z
#    x 3.763930 0.000000 -0.153300 
#    y 0.000000 3.594690 0.000000 
#    z -0.153300 0.000000 4.281240 
# 
# 
# High freq. dielectric constant tensor:
#      x y z
#    x 1.843690 0.000000 -0.010280 
#    y 0.000000 1.831790 0.000000 
#    z -0.010280 0.000000 1.870970 
# 
# From -- ./inp_files/30588.got.cif
#   From: 2010.06.25/outbox.cif.g09.slc.cpg/sg10_16_cif.got.tgz:30588.got - 2010.06.27 22:07:45.
