data_PCOD8066972
_publ_section_title
;
Structure prediction by ZEFSAII (Michael W. Deem and Ramdas Pophale) SiO2 
 PCOD8066972
Probable space group: P 2/M
;
_chemical_formula_sum "Si O2"
_cell_formula_units_Z 28
_cell_length_a 10.034510
_cell_length_b 19.207088
_cell_length_c 17.509836
_cell_angle_alpha 90.000000
_cell_angle_beta 26.551081
_cell_angle_gamma 90.000000
_cell_volume 1508.491696
_symmetry_space_group_name_H-M "P 2/M"
_symmetry_group_IT_number 10
_symmetry_cell_setting 'monoclinic'
loop_
_space_group_symop_operation_xyz
x,y,z
-x,y,-z
-x,-y,-z
x,-y,z
loop_
_atom_site_type_symbol
_atom_site_label
_atom_site_fract_x
_atom_site_fract_y
_atom_site_fract_z
Si Si1 0.114647 0.803126 0.357358
Si Si2 0.479836 0.920590 0.921936
Si Si3 0.206516 0.299255 0.821432
Si Si4 0.143721 0.423907 0.009961
Si Si5 0.512611 0.181854 0.582745
Si Si6 0.886577 0.078970 0.137562
Si Si7 0.316265 0.659896 0.310854
O O1 0.329871 0.865567 0.223281
O O2 0.282972 0.728263 0.273933
O O3 0.000000 0.821700 0.500000
O O4 0.843924 0.796316 0.436655
O O5 0.593234 0.000000 0.848803
O O6 0.500000 0.901116 0.000000
O O7 0.136726 0.913499 0.074087
O O8 0.256993 0.237974 0.735542
O O9 0.527694 0.319284 0.689806
O O10 0.000000 0.277636 0.000000
O O11 0.054610 0.362692 0.850047
O O12 0.124692 0.500000 0.060302
O O13 0.489948 0.399679 0.830834
O O14 0.000000 0.429760 0.000000
O O15 0.500000 0.168005 0.500000
O O16 0.419389 0.112846 0.676271
O O17 0.798672 0.000000 0.165531
O O18 0.000000 0.113481 0.000000
O O19 0.000000 0.628700 0.500000
#
# Coordination Sequence:
#
# PCOD8066972 Si02
#       7
#     4   4   4   4   4   4   4
#     4  11  21  35  54  78 108 141 176 220 270 324
#     4  10  22  39  55  75 106 141 180 227 274 316
#     4   9  18  33  55  75 106 145 177 217 255 320
#     4   8  16  29  51  82 108 139 178 218 261 312
#     4  12  23  34  53  82 110 139 179 224 273 317
#     4  10  22  38  57  78 102 141 187 223 266 326
#     4   9  16  30  51  77 110 136 173 217 265 305
#
# _framework density 18.561588
#
# number of rings (size 3 to 8) (size 9 to 14) (size 15 to 20)
#    0.000    2.429    2.857    2.143    4.000    1.429 
#    0.000    0.000    0.000    0.429    0.000    1.000 
#    0.000    0.000    0.000    0.000    0.000    0.000 
#
# Total GULP energy -346979.579278 kJ/mol
# GULP energy per Si atom -12392.127831 kJ/mol
# Density = 1.851934 g / cm^3
# Si number density = 18.561588 Si / 1000 Ang^3
#
#
#
# Elastic Constant Matrix: (Units=GPa)
#
#
# Indices 1 2 3 4 5 6 
#
# 1 71.2265 13.5500 22.6795 0.0000 -3.3557 0.0000
# 2 13.5500 109.7173 41.5818 0.0000 -4.6440 0.0000
# 3 22.6795 41.5818 71.8338 0.0000 -11.6042 0.0000
# 4 0.0000 0.0000 0.0000 7.0021 0.0000 -9.2238
# 5 -3.3557 -4.6440 -11.6042 0.0000 33.2248 0.0000
# 6 0.0000 0.0000 0.0000 -9.2238 0.0000 10.3462
#
#
#
# Elastic Compliance Matrix: (Units=1/GPa)
#
#
# Indices 1 2 3 4 5 6 
#
# 1 0.015610 -0.000073 -0.004910 0.000000 -0.000149 0.000000
# 2 -0.000073 0.011695 -0.006871 0.000000 -0.000773 0.000000
# 3 -0.004910 -0.006871 0.020362 0.000000 0.005656 0.000000
# 4 0.000000 0.000000 0.000000 -0.818939 0.000000 -0.730100
# 5 -0.000149 -0.000773 0.005656 0.000000 0.031950 0.000000
# 6 0.000000 0.000000 0.000000 -0.730100 0.000000 -0.554245
#
#
# Mechanical properties :
#
#
# Convention : Reuss Voigt Hill
#
# Bulk Modulus (GPa) = 41.73975 45.37781 43.55878
# Shear Modulus (GPa) = -3.96237 21.77906 8.90834
#
# Velocity S-wave (km/s) = -1.46265 3.42912 2.19312
# Velocity P-wave (km/s) = 4.43661 6.33867 5.47093
#
# Compressibility (1/GPa) = 0.02395798
#
# Stress axis : x y z
#
# Youngs Moduli (GPa) = 64.06114 85.50757 49.11007
#
# Poissons Ratio (x) = 0.00626 0.24113
# Poissons Ratio (y) = 0.00469 0.33746
# Poissons Ratio (z) = 0.31454 0.58756
#
# Static dielectric constant tensor:
#      x y z
#    x 3.274400 0.000000 -0.228630 
#    y 0.000000 3.796120 0.000000 
#    z -0.228630 0.000000 3.334240 
# 
# 
# High freq. dielectric constant tensor:
#      x y z
#    x 1.700500 0.000000 -0.025950 
#    y 0.000000 1.721870 0.000000 
#    z -0.025950 0.000000 1.707290 
# 
# From -- ./inp_files/62563.got.cif
#   From: 2010.06.25/outbox.cif.g09.slc.cpg/sg10_32_cif.got.tgz:62563.got - 2010.06.27 22:07:45.
