data_PCOD8066510
_publ_section_title
;
Structure prediction by ZEFSAII (Michael W. Deem and Ramdas Pophale) SiO2 
 PCOD8066510
Probable space group: P 2/M
;
_chemical_formula_sum "Si O2"
_cell_formula_units_Z 28
_cell_length_a 20.660789
_cell_length_b 14.174869
_cell_length_c 8.801529
_cell_angle_alpha 90.000000
_cell_angle_beta 149.580190
_cell_angle_gamma 90.000000
_cell_volume 1305.146946
_symmetry_space_group_name_H-M "P 2/M"
_symmetry_group_IT_number 10
_symmetry_cell_setting 'monoclinic'
loop_
_space_group_symop_operation_xyz
x,y,z
-x,y,-z
-x,-y,-z
x,-y,z
loop_
_atom_site_type_symbol
_atom_site_label
_atom_site_fract_x
_atom_site_fract_y
_atom_site_fract_z
Si Si1 0.638245 0.603125 0.841166
Si Si2 0.130839 0.106589 0.716890
Si Si3 0.625842 0.388274 0.162404
Si Si4 0.516172 0.107415 0.212465
Si Si5 0.277939 0.237133 0.214686
Si Si6 0.763170 0.895395 0.380311
Si Si7 0.853575 0.726638 0.755695
O O1 0.500000 0.583776 0.500000
O O2 0.708860 0.500000 0.988866
O O3 0.702604 0.670811 0.848659
O O4 0.628853 0.646836 0.992966
O O5 0.131983 0.113654 0.537856
O O6 0.000000 0.157236 0.500000
O O7 0.134429 0.000000 0.782470
O O8 0.246960 0.156339 0.033385
O O9 0.622421 0.500000 0.161885
O O10 0.758360 0.355037 0.506198
O O11 0.500000 0.349562 0.000000
O O12 0.601119 0.193106 0.450113
O O13 0.563942 0.000000 0.350187
O O14 0.500000 0.118960 0.000000
O O15 0.371610 0.124229 0.978137
O O16 0.162113 0.264986 0.094205
O O17 0.801160 0.826143 0.590605
O O18 0.761349 0.000000 0.450231
O O19 0.000000 0.706032 0.000000
#
# Coordination Sequence:
#
# PCOD8066510 Si02
#       7
#     4   4   4   4   4   4   4
#     4  10  23  41  64  97 127 158 205 263 319 377
#     4  10  22  40  59  84 123 169 215 261 314 381
#     4  10  23  46  73  96 126 168 211 259 319 384
#     4  10  21  38  60  92 129 166 215 268 317 371
#     4  12  24  36  65  93 126 167 211 265 323 380
#     4  10  22  40  61  85 127 174 215 263 314 374
#     4  12  26  40  63  97 130 168 216 264 317 379
#
# _framework density 21.453524000000002
#
# number of rings (size 3 to 8) (size 9 to 14) (size 15 to 20)
#    0.000    1.429    1.429    3.000    6.000    2.857 
#    0.000    2.143    0.000    2.571    0.000    0.000 
#    0.000    0.000    0.000    0.000    0.000    0.000 
#
# Total GULP energy -346941.672643 kJ/mol
# GULP energy per Si atom -12390.774023 kJ/mol
# Density = 2.140470 g / cm^3
# Si number density = 21.453524 Si / 1000 Ang^3
#
#
#
# Elastic Constant Matrix: (Units=GPa)
#
#
# Indices 1 2 3 4 5 6 
#
# 1 149.3587 58.2597 36.9180 0.0000 6.8393 0.0000
# 2 58.2597 78.1607 32.1037 0.0000 -1.0415 0.0000
# 3 36.9180 32.1037 63.5812 0.0000 4.6990 0.0000
# 4 0.0000 0.0000 0.0000 6.2063 0.0000 -9.1554
# 5 6.8393 -1.0415 4.6990 0.0000 37.0319 0.0000
# 6 0.0000 0.0000 0.0000 -9.1554 0.0000 31.0427
#
#
#
# Elastic Compliance Matrix: (Units=1/GPa)
#
#
# Indices 1 2 3 4 5 6 
#
# 1 0.009852 -0.006394 -0.002366 0.000000 -0.001699 0.000000
# 2 -0.006394 0.020375 -0.006768 0.000000 0.002613 0.000000
# 3 -0.002366 -0.006768 0.020695 0.000000 -0.002379 0.000000
# 4 0.000000 0.000000 0.000000 0.285216 0.000000 0.084119
# 5 -0.001699 0.002613 -0.002379 0.000000 0.027693 0.000000
# 6 0.000000 0.000000 0.000000 0.084119 0.000000 0.057023
#
#
# Mechanical properties :
#
#
# Convention : Reuss Voigt Hill
#
# Bulk Modulus (GPa) = 50.34044 60.62930 55.48487
# Shear Modulus (GPa) = 10.90431 25.77746 18.34089
#
# Velocity S-wave (km/s) = 2.25694 3.47010 2.92706
# Velocity P-wave (km/s) = 5.50523 6.66165 6.11085
#
# Compressibility (1/GPa) = 0.01986475
#
# Stress axis : x y z
#
# Youngs Moduli (GPa) = 101.49981 49.07932 48.32036
#
# Poissons Ratio (x) = 0.31383 0.11434
# Poissons Ratio (y) = 0.64903 0.32704
# Poissons Ratio (z) = 0.24019 0.33218
#
# Static dielectric constant tensor:
#      x y z
#    x 4.128980 0.000000 0.023720 
#    y 0.000000 4.324470 0.000000 
#    z 0.023720 0.000000 3.678510 
# 
# 
# High freq. dielectric constant tensor:
#      x y z
#    x 1.858090 0.000000 -0.002140 
#    y 0.000000 1.846180 0.000000 
#    z -0.002140 0.000000 1.818980 
# 
# From -- ./inp_files/29611.got.cif
#   From: 2010.06.25/outbox.cif.g09.slc.cpg/sg10_15_cif.got.tgz:29611.got - 2010.06.27 22:07:45.
