data_PCOD8066973
_publ_section_title
;
Structure prediction by ZEFSAII (Michael W. Deem and Ramdas Pophale) SiO2 
 PCOD8066973
Probable space group: P 2/M
;
_chemical_formula_sum "Si O2"
_cell_formula_units_Z 32
_cell_length_a 25.887327
_cell_length_b 9.012712
_cell_length_c 20.879196
_cell_angle_alpha 90.000000
_cell_angle_beta 159.459330
_cell_angle_gamma 90.000000
_cell_volume 1709.249230
_symmetry_space_group_name_H-M "P 2/M"
_symmetry_group_IT_number 10
_symmetry_cell_setting 'monoclinic'
loop_
_space_group_symop_operation_xyz
x,y,z
-x,y,-z
-x,-y,-z
x,-y,z
loop_
_atom_site_type_symbol
_atom_site_label
_atom_site_fract_x
_atom_site_fract_y
_atom_site_fract_z
Si Si1 0.168135 0.824979 0.354972
Si Si2 0.673675 0.833167 0.702169
Si Si3 0.846406 0.173441 0.028815
Si Si4 0.159088 0.327104 0.210505
Si Si5 0.545652 0.829826 0.982209
Si Si6 0.433930 0.326426 0.732789
Si Si7 0.748819 0.325501 0.045135
Si Si8 0.136474 0.171263 0.699605
O O1 0.193130 0.761808 0.313754
O O2 0.293911 0.762417 0.546166
O O3 0.010209 0.776445 0.199265
O O4 0.182140 0.000000 0.367443
O O5 0.500000 0.828206 0.500000
O O6 0.724183 0.718129 0.707396
O O7 0.730973 0.000000 0.753224
O O8 0.735906 0.783571 0.843230
O O9 0.796796 0.263605 0.032793
O O10 0.839180 0.000000 0.036677
O O11 0.173547 0.500000 0.242333
O O12 0.000000 0.282470 0.000000
O O13 0.457746 0.720909 0.833558
O O14 0.502069 0.000000 0.916552
O O15 0.500000 0.783130 0.000000
O O16 0.719701 0.806035 0.176788
O O17 0.400984 0.500000 0.690711
O O18 0.578243 0.282622 0.859145
O O19 0.771464 0.500000 0.072205
O O20 0.851787 0.258503 0.220080
O O21 0.000000 0.234045 0.500000
O O22 0.110583 0.000000 0.687316
#
# Coordination Sequence:
#
# PCOD8066973 Si02
#       8
#     4   4   4   4   4   4   4   4
#     4  11  23  39  61  84 111 150 193 237 283 335
#     4  10  22  40  61  87 114 147 193 238 282 335
#     4  10  22  39  58  83 114 147 190 238 281 332
#     4  11  23  39  60  86 117 151 185 231 289 342
#     4   9  18  34  56  82 112 147 189 232 275 328
#     4  10  22  39  57  84 118 151 190 232 283 341
#     4  10  22  38  57  82 116 153 187 230 281 337
#     4   9  18  34  56  81 110 146 187 231 275 325
#
# _framework density 18.72167
#
# number of rings (size 3 to 8) (size 9 to 14) (size 15 to 20)
#    0.000    2.000    1.250    1.500    1.750    5.250 
#    0.000    2.500    0.000    0.000    0.000    0.000 
#    0.000    0.000    0.000    0.000    0.000    0.000 
#
# Total GULP energy -396942.310064 kJ/mol
# GULP energy per Si atom -12404.447189 kJ/mol
# Density = 1.867906 g / cm^3
# Si number density = 18.721670 Si / 1000 Ang^3
#
#
#
# Elastic Constant Matrix: (Units=GPa)
#
#
# Indices 1 2 3 4 5 6 
#
# 1 134.6789 42.3366 59.6084 0.0000 -11.6633 0.0000
# 2 42.3366 52.9457 43.1901 0.0000 -1.8756 0.0000
# 3 59.6084 43.1901 137.8578 0.0000 -9.8213 0.0000
# 4 0.0000 0.0000 0.0000 22.3527 0.0000 5.5257
# 5 -11.6633 -1.8756 -9.8213 0.0000 18.5183 0.0000
# 6 0.0000 0.0000 0.0000 5.5257 0.0000 23.8572
#
#
#
# Elastic Compliance Matrix: (Units=1/GPa)
#
#
# Indices 1 2 3 4 5 6 
#
# 1 0.010992 -0.006752 -0.002279 0.000000 0.005030 0.000000
# 2 -0.006752 0.029571 -0.006687 0.000000 -0.004804 0.000000
# 3 -0.002279 -0.006687 0.010584 0.000000 0.003500 0.000000
# 4 0.000000 0.000000 0.000000 0.047455 0.000000 -0.010991
# 5 0.005030 -0.004804 0.003500 0.000000 0.058539 0.000000
# 6 0.000000 0.000000 0.000000 -0.010991 0.000000 0.044462
#
#
# Mechanical properties :
#
#
# Convention : Reuss Voigt Hill
#
# Bulk Modulus (GPa) = 50.73508 68.41696 59.57602
# Shear Modulus (GPa) = 20.86735 24.96879 22.91807
#
# Velocity S-wave (km/s) = 3.34220 3.65593 3.50258
# Velocity P-wave (km/s) = 6.48477 7.37866 6.94611
#
# Compressibility (1/GPa) = 0.01971023
#
# Stress axis : x y z
#
# Youngs Moduli (GPa) = 90.97583 33.81658 94.48457
#
# Poissons Ratio (x) = 0.22833 0.21533
# Poissons Ratio (y) = 0.61428 0.63184
# Poissons Ratio (z) = 0.20734 0.22614
#
# Static dielectric constant tensor:
#      x y z
#    x 3.421750 0.000000 -0.027760 
#    y 0.000000 3.455870 0.000000 
#    z -0.027760 0.000000 3.590690 
# 
# 
# High freq. dielectric constant tensor:
#      x y z
#    x 1.730680 0.000000 -0.003290 
#    y 0.000000 1.728350 0.000000 
#    z -0.003290 0.000000 1.735310 
# 
# From -- ./inp_files/87061.got.cif
#   From: 2010.06.25/outbox.cif.g09.slc.cpg/sg10_44_cif.got.tgz:87061.got - 2010.06.27 22:07:45.
