data_PCOD8066322
_publ_section_title
;
Structure prediction by ZEFSAII (Michael W. Deem and Ramdas Pophale) SiO2 
 PCOD8066322
Probable space group: P 2/M
;
_chemical_formula_sum "Si O2"
_cell_formula_units_Z 16
_cell_length_a 20.209155
_cell_length_b 7.985421
_cell_length_c 5.106967
_cell_angle_alpha 90.000000
_cell_angle_beta 98.204534
_cell_angle_gamma 90.000000
_cell_volume 815.719962
_symmetry_space_group_name_H-M "P 2/M"
_symmetry_group_IT_number 10
_symmetry_cell_setting 'monoclinic'
loop_
_space_group_symop_operation_xyz
x,y,z
-x,y,-z
-x,-y,-z
x,-y,z
loop_
_atom_site_type_symbol
_atom_site_label
_atom_site_fract_x
_atom_site_fract_y
_atom_site_fract_z
Si Si1 0.860356 0.180870 0.462389
Si Si2 0.926227 0.688917 0.988922
Si Si3 0.454557 0.309476 0.226193
Si Si4 0.356133 0.000000 0.195947
Si Si5 0.267816 0.000000 0.646662
O O1 0.886438 0.311376 0.691155
O O2 0.890930 0.000000 0.559914
O O3 0.779108 0.166047 0.413101
O O4 0.883666 0.218107 0.182808
O O5 0.934824 0.500000 0.089945
O O6 0.000000 0.770098 0.000000
O O7 0.500000 0.270277 0.500000
O O8 0.424983 0.500000 0.223899
O O9 0.396986 0.171203 0.180036
O O10 0.500000 0.288363 0.000000
O O11 0.327048 0.000000 0.471508
O O12 0.296870 0.000000 0.954090
#
# Coordination Sequence:
#
# PCOD8066322 Si02
#       5
#     4   4   4   2   2
#     4  10  22  40  58  80 117 154 191 244 297 338
#     4  11  22  37  59  88 116 146 192 248 308 368
#     4  10  21  37  59  91 123 150 190 240 295 351
#     4  12  20  39  64  84 119 158 199 242 287 338
#     4  10  24  39  57  82 114 152 199 242 267 356
#
# _framework density 19.614574999999999
#
# number of rings (size 3 to 8) (size 9 to 14) (size 15 to 20)
#    0.750    0.750    0.000    6.000    0.000    5.000 
#    0.000    7.500    0.000    0.000    0.000    0.000 
#    0.000    0.000    0.000    0.000    0.000    0.000 
#
# Total GULP energy -198331.362349 kJ/mol
# GULP energy per Si atom -12395.710147 kJ/mol
# Density = 1.956993 g / cm^3
# Si number density = 19.614575 Si / 1000 Ang^3
#
#
#
# Elastic Constant Matrix: (Units=GPa)
#
#
# Indices 1 2 3 4 5 6 
#
# 1 101.1586 43.4536 31.7787 0.0000 1.1981 0.0000
# 2 43.4536 84.7464 11.0065 0.0000 3.2298 0.0000
# 3 31.7787 11.0065 115.9483 0.0000 2.1809 0.0000
# 4 0.0000 0.0000 0.0000 29.1634 0.0000 -8.8675
# 5 1.1981 3.2298 2.1809 0.0000 40.6448 0.0000
# 6 0.0000 0.0000 0.0000 -8.8675 0.0000 55.6474
#
#
#
# Elastic Compliance Matrix: (Units=1/GPa)
#
#
# Indices 1 2 3 4 5 6 
#
# 1 0.013718 -0.006638 -0.003135 0.000000 0.000291 0.000000
# 2 -0.006638 0.015191 0.000397 0.000000 -0.001033 0.000000
# 3 -0.003135 0.000397 0.009455 0.000000 -0.000446 0.000000
# 4 0.000000 0.000000 0.000000 0.036036 0.000000 0.005742
# 5 0.000291 -0.001033 -0.000446 0.000000 0.024701 0.000000
# 6 0.000000 0.000000 0.000000 0.005742 0.000000 0.018885
#
#
# Mechanical properties :
#
#
# Convention : Reuss Voigt Hill
#
# Bulk Modulus (GPa) = 50.99123 52.70344 51.84734
# Shear Modulus (GPa) = 34.89765 39.46542 37.18153
#
# Velocity S-wave (km/s) = 4.22260 4.49045 4.35858
# Velocity P-wave (km/s) = 7.05881 7.33576 7.19862
#
# Compressibility (1/GPa) = 0.01961121
#
# Stress axis : x y z
#
# Youngs Moduli (GPa) = 72.89506 65.82691 105.76899
#
# Poissons Ratio (x) = 0.43696 0.33161
# Poissons Ratio (y) = 0.48388 -0.04196
# Poissons Ratio (z) = 0.22854 -0.02611
#
# Static dielectric constant tensor:
#      x y z
#    x 3.458770 0.000000 -0.059140 
#    y 0.000000 3.543790 0.000000 
#    z -0.059140 0.000000 3.514980 
# 
# 
# High freq. dielectric constant tensor:
#      x y z
#    x 1.756810 0.000000 -0.007480 
#    y 0.000000 1.759550 0.000000 
#    z -0.007480 0.000000 1.782870 
# 
# From -- ./inp_files/10407.got.cif
#   From: 2010.06.25/outbox.cif.g09.slc.cpg/sg10_6_cif.got.tgz:10407.got - 2010.06.27 22:07:45.
