data_PCOD8066386
_publ_section_title
;
Structure prediction by ZEFSAII (Michael W. Deem and Ramdas Pophale) SiO2 
 PCOD8066386
Probable space group: P 2/M
;
_chemical_formula_sum "Si O2"
_cell_formula_units_Z 32
_cell_length_a 23.890413
_cell_length_b 8.896928
_cell_length_c 17.725885
_cell_angle_alpha 90.000000
_cell_angle_beta 30.567201
_cell_angle_gamma 90.000000
_cell_volume 1916.038027
_symmetry_space_group_name_H-M "P 2/M"
_symmetry_group_IT_number 10
_symmetry_cell_setting 'monoclinic'
loop_
_space_group_symop_operation_xyz
x,y,z
-x,y,-z
-x,-y,-z
x,-y,z
loop_
_atom_site_type_symbol
_atom_site_label
_atom_site_fract_x
_atom_site_fract_y
_atom_site_fract_z
Si Si1 0.682425 0.826744 0.650604
Si Si2 0.427627 0.173439 0.904527
Si Si3 0.731660 0.325281 0.198861
Si Si4 0.359185 0.177586 0.551640
Si Si5 0.973585 0.322722 0.948328
Si Si6 0.421877 0.326547 0.759082
Si Si7 0.198410 0.323737 0.619366
Si Si8 0.382910 0.822245 0.116769
O O1 0.556668 0.800602 0.771325
O O2 0.763797 0.725006 0.507406
O O3 0.699891 0.777160 0.718808
O O4 0.715009 0.000000 0.600636
O O5 0.387345 0.277630 0.883164
O O6 0.406240 0.000000 0.908583
O O7 0.353918 0.222248 0.063850
O O8 0.727647 0.500000 0.226302
O O9 0.657247 0.236396 0.344773
O O10 0.683122 0.298635 0.172179
O O11 0.856423 0.261188 0.054493
O O12 0.477855 0.225856 0.384809
O O13 0.265708 0.241042 0.605963
O O14 0.352492 0.000000 0.558134
O O15 0.964901 0.500000 0.966203
O O16 0.070205 0.279015 0.777859
O O17 0.000000 0.252948 0.000000
O O18 0.458361 0.500000 0.716249
O O19 0.217279 0.500000 0.607964
O O20 0.397602 0.000000 0.102638
O O21 0.500000 0.746810 0.000000
#
# Coordination Sequence:
#
# PCOD8066386 Si02
#       8
#     4   4   4   4   4   4   4   4
#     4   9  16  28  46  70  99 128 158 193 234 281
#     4   9  16  28  47  69  97 131 161 189 228 282
#     4  10  21  38  54  69  91 125 165 202 241 284
#     4  12  23  34  49  70  98 129 161 197 238 282
#     4   9  17  33  55  71  88 121 162 201 242 287
#     4  11  22  33  49  72  99 128 160 197 236 283
#     4  11  20  31  51  74  97 126 161 198 240 286
#     4   7  12  24  43  66  93 128 161 185 224 283
#
# _framework density 16.701131
#
# number of rings (size 3 to 8) (size 9 to 14) (size 15 to 20)
#    0.000    2.250    2.500    3.750    0.000    2.500 
#    0.000    2.500    0.000    2.250    0.000    0.875 
#    0.000    7.000    0.000    0.000    0.000    0.000 
#
# Total GULP energy -396595.784753 kJ/mol
# GULP energy per Si atom -12393.618274 kJ/mol
# Density = 1.666312 g / cm^3
# Si number density = 16.701131 Si / 1000 Ang^3
#
#
#
# Elastic Constant Matrix: (Units=GPa)
#
#
# Indices 1 2 3 4 5 6 
#
# 1 103.9823 38.5667 59.7032 0.0000 20.1921 0.0000
# 2 38.5667 66.4163 29.8131 0.0000 9.2438 0.0000
# 3 59.7032 29.8131 58.8397 0.0000 24.2122 0.0000
# 4 0.0000 0.0000 0.0000 14.4313 0.0000 11.7897
# 5 20.1921 9.2438 24.2122 0.0000 31.4676 0.0000
# 6 0.0000 0.0000 0.0000 11.7897 0.0000 11.9500
#
#
#
# Elastic Compliance Matrix: (Units=1/GPa)
#
#
# Indices 1 2 3 4 5 6 
#
# 1 0.024185 -0.003660 -0.024499 0.000000 0.004406 0.000000
# 2 -0.003660 0.020206 -0.007387 0.000000 0.002097 0.000000
# 3 -0.024499 -0.007387 0.055949 0.000000 -0.025159 0.000000
# 4 0.000000 0.000000 0.000000 0.357180 0.000000 -0.352390
# 5 0.004406 0.002097 -0.025159 0.000000 0.047694 0.000000
# 6 0.000000 0.000000 0.000000 -0.352390 0.000000 0.431345
#
#
# Mechanical properties :
#
#
# Convention : Reuss Voigt Hill
#
# Bulk Modulus (GPa) = 34.18962 53.93383 44.06172
# Shear Modulus (GPa) = 4.91448 18.31346 11.61397
#
# Velocity S-wave (km/s) = 1.71726 3.31500 2.63991
# Velocity P-wave (km/s) = 4.94448 6.85681 5.97762
#
# Compressibility (1/GPa) = 0.02924864
#
# Stress axis : x y z
#
# Youngs Moduli (GPa) = 41.34728 49.49034 17.87330
#
# Poissons Ratio (x) = 0.18114 0.43788
# Poissons Ratio (y) = 0.15134 0.13203
# Poissons Ratio (z) = 1.01296 0.36558
#
# Static dielectric constant tensor:
#      x y z
#    x 3.254120 0.000000 0.262250 
#    y 0.000000 2.971770 0.000000 
#    z 0.262250 0.000000 3.265700 
# 
# 
# High freq. dielectric constant tensor:
#      x y z
#    x 1.630080 0.000000 0.026670 
#    y 0.000000 1.625890 0.000000 
#    z 0.026670 0.000000 1.629680 
# 
# From -- ./inp_files/79950.got.cif
#   From: 2010.06.25/outbox.cif.g09.slc.cpg/sg10_40_cif.got.tgz:79950.got - 2010.06.27 22:07:45.
