data_PCOD8066980
_publ_section_title
;
Structure prediction by ZEFSAII (Michael W. Deem and Ramdas Pophale) SiO2 
 PCOD8066980
Probable space group: P 2/M
;
_chemical_formula_sum "Si O2"
_cell_formula_units_Z 18
_cell_length_a 5.646970
_cell_length_b 9.636733
_cell_length_c 16.270454
_cell_angle_alpha 90.000000
_cell_angle_beta 66.297051
_cell_angle_gamma 90.000000
_cell_volume 810.719535
_symmetry_space_group_name_H-M "P 2/M"
_symmetry_group_IT_number 10
_symmetry_cell_setting 'monoclinic'
loop_
_space_group_symop_operation_xyz
x,y,z
-x,y,-z
-x,-y,-z
x,-y,z
loop_
_atom_site_type_symbol
_atom_site_label
_atom_site_fract_x
_atom_site_fract_y
_atom_site_fract_z
Si Si1 0.039267 0.654997 0.169735
Si Si2 0.690687 0.659311 0.551276
Si Si3 0.490107 0.851465 0.116406
Si Si4 0.000000 0.257922 0.000000
Si Si5 0.378768 0.844656 0.712551
O O1 0.041854 0.500000 0.205758
O O2 0.323809 0.715921 0.123355
O O3 0.880013 0.750756 0.255862
O O4 0.937076 0.650661 0.089856
O O5 0.500000 0.689904 0.500000
O O6 0.647916 0.500000 0.584862
O O7 0.606874 0.765617 0.633592
O O8 0.000000 0.686349 0.500000
O O9 0.554593 0.857529 0.202572
O O10 0.357944 0.000000 0.111847
O O11 0.746893 0.838529 0.023766
O O12 0.333148 0.000000 0.681802
#
# Coordination Sequence:
#
# PCOD8066980 Si02
#       5
#     4   4   4   2   4
#     4  11  23  38  60  87 121 162 207 260 316 377
#     4  10  23  43  68 100 135 172 214 264 325 392
#     4  10  22  39  60  87 121 161 206 258 315 376
#     4  10  22  38  58  86 118 160 210 258 310 376
#     4  10  23  42  63  90 124 163 210 259 314 380
#
# _framework density 22.202501000000002
#
# number of rings (size 3 to 8) (size 9 to 14) (size 15 to 20)
#    0.000    1.778    0.000    2.667    3.111   10.667 
#    0.000    0.000    0.000    0.000    0.000    0.000 
#    0.000    0.000    0.000    0.000    0.000    0.000 
#
# Total GULP energy -223031.099144 kJ/mol
# GULP energy per Si atom -12390.616619 kJ/mol
# Density = 2.215197 g / cm^3
# Si number density = 22.202501 Si / 1000 Ang^3
#
#
#
# Elastic Constant Matrix: (Units=GPa)
#
#
# Indices 1 2 3 4 5 6 
#
# 1 94.0302 46.1119 22.4933 0.0000 -33.4906 0.0000
# 2 46.1119 200.8933 62.3415 0.0000 -33.8955 0.0000
# 3 22.4933 62.3415 99.1858 0.0000 -36.2914 0.0000
# 4 0.0000 0.0000 0.0000 -37.7886 0.0000 -37.7590
# 5 -33.4906 -33.8955 -36.2914 0.0000 30.5902 0.0000
# 6 0.0000 0.0000 0.0000 -37.7590 0.0000 12.1751
#
#
#
# Elastic Compliance Matrix: (Units=1/GPa)
#
#
# Indices 1 2 3 4 5 6 
#
# 1 0.019820 -0.002025 0.006885 0.000000 0.027623 0.000000
# 2 -0.002025 0.006675 -0.003253 0.000000 0.001319 0.000000
# 3 0.006885 -0.003253 0.021213 0.000000 0.029100 0.000000
# 4 0.000000 0.000000 0.000000 -0.006456 0.000000 -0.020023
# 5 0.027623 0.001319 0.029100 0.000000 0.098917 0.000000
# 6 0.000000 0.000000 0.000000 -0.020023 0.000000 0.020038
#
#
# Mechanical properties :
#
#
# Convention : Reuss Voigt Hill
#
# Bulk Modulus (GPa) = 19.63840 72.88921 46.26380
# Shear Modulus (GPa) = 28.74120 18.53952 23.64036
#
# Velocity S-wave (km/s) = 3.60182 2.89281 3.26661
# Velocity P-wave (km/s) = 5.11486 6.63764 5.92538
#
# Compressibility (1/GPa) = 0.05092064
#
# Stress axis : x y z
#
# Youngs Moduli (GPa) = 50.45536 149.81774 47.14118
#
# Poissons Ratio (x) = 0.30342 -0.32459
# Poissons Ratio (y) = 0.10219 0.15337
# Poissons Ratio (z) = -0.34741 0.48742
#
# Static dielectric constant tensor:
#      x y z
#    x 4.007870 0.000000 -0.133760 
#    y 0.000000 4.212170 0.000000 
#    z -0.133760 0.000000 3.955950 
# 
# 
# High freq. dielectric constant tensor:
#      x y z
#    x 1.866200 0.000000 -0.008520 
#    y 0.000000 1.879840 0.000000 
#    z -0.008520 0.000000 1.868590 
# 
# From -- ./inp_files/10650.got.cif
#   From: 2010.06.25/outbox.cif.g09.slc.cpg/sg10_6_cif.got.tgz:10650.got - 2010.06.27 22:07:45.
