data_PCOD8066484
_publ_section_title
;
Structure prediction by ZEFSAII (Michael W. Deem and Ramdas Pophale) SiO2 
 PCOD8066484
Probable space group: P 2/M
;
_chemical_formula_sum "Si O2"
_cell_formula_units_Z 28
_cell_length_a 12.301995
_cell_length_b 13.872943
_cell_length_c 9.114202
_cell_angle_alpha 90.000000
_cell_angle_beta 112.087971
_cell_angle_gamma 90.000000
_cell_volume 1441.314163
_symmetry_space_group_name_H-M "P 2/M"
_symmetry_group_IT_number 10
_symmetry_cell_setting 'monoclinic'
loop_
_space_group_symop_operation_xyz
x,y,z
-x,y,-z
-x,-y,-z
x,-y,z
loop_
_atom_site_type_symbol
_atom_site_label
_atom_site_fract_x
_atom_site_fract_y
_atom_site_fract_z
Si Si1 0.971673 0.388559 0.150261
Si Si2 0.772280 0.388874 0.635880
Si Si3 0.761044 0.255788 0.142195
Si Si4 0.393361 0.720625 0.676843
Si Si5 0.344356 0.744395 0.215803
Si Si6 0.323522 0.110254 0.466837
Si Si7 0.127464 0.109267 0.584813
O O1 0.933570 0.500000 0.123853
O O2 0.865432 0.331135 0.169958
O O3 0.087334 0.375869 0.312152
O O4 0.000000 0.351241 0.000000
O O5 0.736588 0.500000 0.617526
O O6 0.695751 0.335261 0.475042
O O7 0.740034 0.341906 0.775498
O O8 0.655296 0.300852 0.185448
O O9 0.806252 0.163978 0.252936
O O10 0.702802 0.218595 0.963343
O O11 0.528888 0.691615 0.732093
O O12 0.396702 0.833711 0.630059
O O13 0.339532 0.836750 0.320013
O O14 0.189464 0.114976 0.456579
O O15 0.367872 0.000000 0.475650
O O16 0.000000 0.156019 0.500000
O O17 0.118015 0.000000 0.635488
#
# Coordination Sequence:
#
# PCOD8066484 Si02
#       7
#     4   4   4   4   4   4   4
#     4  10  21  38  60  86 116 147 188 237 288 345
#     4  10  21  39  61  84 111 148 193 239 284 337
#     4  11  23  36  60  83 120 154 185 232 301 336
#     4  10  23  38  56  85 116 150 194 236 282 341
#     4  11  22  37  57  86 116 150 195 236 279 343
#     4   9  19  37  59  83 111 150 195 235 279 332
#     4   9  20  37  57  84 120 155 189 233 286 343
#
# _framework density 19.426715000000002
#
# number of rings (size 3 to 8) (size 9 to 14) (size 15 to 20)
#    0.000    2.000    1.429    2.143    6.000    3.429 
#    0.000    1.429    0.000    9.857    0.000    0.000 
#    0.000    0.000    0.000    0.000    0.000    0.000 
#
# Total GULP energy -347022.589413 kJ/mol
# GULP energy per Si atom -12393.663908 kJ/mol
# Density = 1.938250 g / cm^3
# Si number density = 19.426715 Si / 1000 Ang^3
#
#
#
# Elastic Constant Matrix: (Units=GPa)
#
#
# Indices 1 2 3 4 5 6 
#
# 1 120.6849 39.1259 47.7496 0.0000 -7.1136 0.0000
# 2 39.1259 86.8011 22.8641 0.0000 -10.5172 0.0000
# 3 47.7496 22.8641 101.1010 0.0000 -14.2468 0.0000
# 4 0.0000 0.0000 0.0000 18.3945 0.0000 -1.3943
# 5 -7.1136 -10.5172 -14.2468 0.0000 30.8522 0.0000
# 6 0.0000 0.0000 0.0000 -1.3943 0.0000 16.8091
#
#
#
# Elastic Compliance Matrix: (Units=1/GPa)
#
#
# Indices 1 2 3 4 5 6 
#
# 1 0.011346 -0.004014 -0.004572 0.000000 -0.000864 0.000000
# 2 -0.004014 0.013954 -0.000770 0.000000 0.003476 0.000000
# 3 -0.004572 -0.000770 0.012877 0.000000 0.004630 0.000000
# 4 0.000000 0.000000 0.000000 0.054708 0.000000 0.004538
# 5 -0.000864 0.003476 0.004630 0.000000 0.035536 0.000000
# 6 0.000000 0.000000 0.000000 0.004538 0.000000 0.059868
#
#
# Mechanical properties :
#
#
# Convention : Reuss Voigt Hill
#
# Bulk Modulus (GPa) = 51.37864 58.67404 55.02634
# Shear Modulus (GPa) = 23.42027 26.46765 24.94396
#
# Velocity S-wave (km/s) = 3.47590 3.69512 3.58719
# Velocity P-wave (km/s) = 6.52794 6.96230 6.74861
#
# Compressibility (1/GPa) = 0.01946334
#
# Stress axis : x y z
#
# Youngs Moduli (GPa) = 88.13937 71.66396 77.65693
#
# Poissons Ratio (x) = 0.28769 0.35508
# Poissons Ratio (y) = 0.35382 0.05979
# Poissons Ratio (z) = 0.40301 0.05518
#
# Static dielectric constant tensor:
#      x y z
#    x 3.850770 0.000000 -0.090180 
#    y 0.000000 3.502050 0.000000 
#    z -0.090180 0.000000 3.449880 
# 
# 
# High freq. dielectric constant tensor:
#      x y z
#    x 1.775390 0.000000 -0.000560 
#    y 0.000000 1.745720 0.000000 
#    z -0.000560 0.000000 1.745210 
# 
# From -- ./inp_files/25065.got.cif
#   From: 2010.06.25/outbox.cif.g09.slc.cpg/sg10_13_cif.got.tgz:25065.got - 2010.06.27 22:07:45.
