data_PCOD8066739
_publ_section_title
;
Structure prediction by ZEFSAII (Michael W. Deem and Ramdas Pophale) SiO2 
 PCOD8066739
Probable space group: P 2/M
;
_chemical_formula_sum "Si O2"
_cell_formula_units_Z 28
_cell_length_a 20.416872
_cell_length_b 7.604125
_cell_length_c 16.309597
_cell_angle_alpha 90.000000
_cell_angle_beta 146.705351
_cell_angle_gamma 90.000000
_cell_volume 1389.985677
_symmetry_space_group_name_H-M "P 2/M"
_symmetry_group_IT_number 10
_symmetry_cell_setting 'monoclinic'
loop_
_space_group_symop_operation_xyz
x,y,z
-x,y,-z
-x,-y,-z
x,-y,z
loop_
_atom_site_type_symbol
_atom_site_label
_atom_site_fract_x
_atom_site_fract_y
_atom_site_fract_z
Si Si1 0.051654 0.198761 0.469426
Si Si2 0.320764 0.707141 0.093627
Si Si3 0.629260 0.295903 0.671666
Si Si4 0.983113 0.000000 0.847246
Si Si5 0.552550 0.291246 0.932312
Si Si6 0.316539 0.708067 0.768986
Si Si7 0.803081 0.000000 0.802838
Si Si8 0.051739 0.301615 0.805294
O O1 0.194396 0.198464 0.617921
O O2 0.000000 0.280239 0.500000
O O3 0.000915 0.310437 0.341105
O O4 0.005560 0.000000 0.411133
O O5 0.320406 0.500000 0.082092
O O6 0.374939 0.762216 0.237663
O O7 0.402515 0.789897 0.107004
O O8 0.185760 0.775785 0.943868
O O9 0.500000 0.259888 0.500000
O O10 0.667425 0.500000 0.701824
O O11 0.724379 0.176560 0.723952
O O12 0.974670 0.825473 0.782637
O O13 0.867502 0.000000 0.783143
O O14 0.103777 0.000000 0.025689
O O15 0.552058 0.500000 0.930287
O O16 0.417751 0.228397 0.810257
O O17 0.642843 0.229749 0.098126
O O18 0.297845 0.500000 0.746039
O O19 0.048557 0.500000 0.838232
#
# Coordination Sequence:
#
# PCOD8066739 Si02
#       8
#     4   4   4   2   4   4   2   4
#     4  11  23  37  55  83 122 163 203 251 295 346
#     4   9  17  32  57  85 111 147 196 242 294 355
#     4  10  21  39  63  93 124 155 201 255 304 372
#     4  11  24  42  63  94 124 158 206 256 304 375
#     4   8  15  30  54  82 111 147 192 245 294 347
#     4   9  17  32  54  80 112 149 196 243 290 351
#     4  11  23  42  68  88 125 164 196 253 318 382
#     4  11  22  40  64  87 121 162 204 254 300 355
#
# _framework density 20.144093999999999
#
# number of rings (size 3 to 8) (size 9 to 14) (size 15 to 20)
#    0.000    2.143    2.143    2.357    0.000    2.857 
#    2.571    2.857    3.143    0.000    0.000    0.000 
#    0.000    0.000    0.000    0.000    0.000    0.000 
#
# Total GULP energy -347204.066557 kJ/mol
# GULP energy per Si atom -12400.145234 kJ/mol
# Density = 2.009824 g / cm^3
# Si number density = 20.144094 Si / 1000 Ang^3
#
#
#
# Elastic Constant Matrix: (Units=GPa)
#
#
# Indices 1 2 3 4 5 6 
#
# 1 173.3457 48.7363 72.3538 0.0000 -4.5367 0.0000
# 2 48.7363 79.9061 21.0036 0.0000 0.4312 0.0000
# 3 72.3538 21.0036 137.2577 0.0000 -0.8855 0.0000
# 4 0.0000 0.0000 0.0000 81.8296 0.0000 -2.8851
# 5 -4.5367 0.4312 -0.8855 0.0000 27.0483 0.0000
# 6 0.0000 0.0000 0.0000 -2.8851 0.0000 18.8239
#
#
#
# Elastic Compliance Matrix: (Units=1/GPa)
#
#
# Indices 1 2 3 4 5 6 
#
# 1 0.008620 -0.004244 -0.003886 0.000000 0.001386 0.000000
# 2 -0.004244 0.015130 -0.000084 0.000000 -0.000956 0.000000
# 3 -0.003886 -0.000084 0.009345 0.000000 -0.000344 0.000000
# 4 0.000000 0.000000 0.000000 0.012287 0.000000 0.001883
# 5 0.001386 -0.000956 -0.000344 0.000000 0.037207 0.000000
# 6 0.000000 0.000000 0.000000 0.001883 0.000000 0.053413
#
#
# Mechanical properties :
#
#
# Convention : Reuss Voigt Hill
#
# Bulk Modulus (GPa) = 59.99733 74.96631 67.48182
# Shear Modulus (GPa) = 31.64856 42.10143 36.87499
#
# Velocity S-wave (km/s) = 3.96802 4.57663 4.28315
# Velocity P-wave (km/s) = 7.13038 8.07609 7.61792
#
# Compressibility (1/GPa) = 0.01666741
#
# Stress axis : x y z
#
# Youngs Moduli (GPa) = 116.00847 66.09238 107.01443
#
# Poissons Ratio (x) = 0.28047 0.41582
# Poissons Ratio (y) = 0.49230 0.00904
# Poissons Ratio (z) = 0.45077 0.00558
#
# Static dielectric constant tensor:
#      x y z
#    x 3.902790 0.000000 -0.035010 
#    y 0.000000 3.421170 0.000000 
#    z -0.035010 0.000000 3.586030 
# 
# 
# High freq. dielectric constant tensor:
#      x y z
#    x 1.783400 0.000000 0.000120 
#    y 0.000000 1.777880 0.000000 
#    z 0.000120 0.000000 1.782910 
# 
# From -- ./inp_files/68754.got.cif
#   From: 2010.06.25/outbox.cif.g09.slc.cpg/sg10_35_cif.got.tgz:68754.got - 2010.06.27 22:07:45.
