data_PCOD8066374
_publ_section_title
;
Structure prediction by ZEFSAII (Michael W. Deem and Ramdas Pophale) SiO2 
 PCOD8066374
Probable space group: P 2/M
;
_chemical_formula_sum "Si O2"
_cell_formula_units_Z 24
_cell_length_a 20.659345
_cell_length_b 10.243812
_cell_length_c 15.033033
_cell_angle_alpha 90.000000
_cell_angle_beta 158.648750
_cell_angle_gamma 90.000000
_cell_volume 1158.315606
_symmetry_space_group_name_H-M "P 2/M"
_symmetry_group_IT_number 10
_symmetry_cell_setting 'monoclinic'
loop_
_space_group_symop_operation_xyz
x,y,z
-x,y,-z
-x,-y,-z
x,-y,z
loop_
_atom_site_type_symbol
_atom_site_label
_atom_site_fract_x
_atom_site_fract_y
_atom_site_fract_z
Si Si1 0.580000 0.251054 0.011881
Si Si2 0.667036 0.153569 0.767133
Si Si3 0.234043 0.643629 0.492026
Si Si4 0.025499 0.853809 0.136489
Si Si5 0.235398 0.147024 0.912507
Si Si6 0.064282 0.354493 0.458819
O O1 0.433771 0.347219 0.783718
O O2 0.500000 0.183586 0.000000
O O3 0.630985 0.146482 0.000790
O O4 0.750797 0.337239 0.253274
O O5 0.500000 0.217219 0.500000
O O6 0.660036 0.000000 0.743298
O O7 0.660953 0.189162 0.864414
O O8 0.849785 0.205357 0.958050
O O9 0.211899 0.500000 0.420095
O O10 0.191102 0.758058 0.367239
O O11 0.093585 0.661625 0.391704
O O12 0.069008 0.000000 0.228441
O O13 0.000000 0.860026 0.000000
O O14 0.074953 0.245962 0.687124
O O15 0.158981 0.000000 0.825870
O O16 0.991680 0.500000 0.387734
#
# Coordination Sequence:
#
# PCOD8066374 Si02
#       6
#     4   4   4   4   4   4
#     4  10  23  39  58  88 122 161 205 246 293 358
#     4   9  19  37  60  86 117 153 195 242 292 355
#     4  10  21  39  62  88 121 158 201 250 298 350
#     4  10  21  37  62  91 120 156 197 242 300 365
#     4  11  23  39  63  91 120 157 201 251 305 354
#     4  10  21  40  64  86 117 160 204 246 297 361
#
# _framework density 20.719740999999999
#
# number of rings (size 3 to 8) (size 9 to 14) (size 15 to 20)
#    0.000    2.000    1.667    1.000    2.333    6.667 
#    0.000    3.333    0.000    1.000    0.000    0.000 
#    0.000    0.000    0.000    0.000    0.000    0.000 
#
# Total GULP energy -297486.108986 kJ/mol
# GULP energy per Si atom -12395.254541 kJ/mol
# Density = 2.067258 g / cm^3
# Si number density = 20.719741 Si / 1000 Ang^3
#
#
#
# Elastic Constant Matrix: (Units=GPa)
#
#
# Indices 1 2 3 4 5 6 
#
# 1 111.8842 40.0266 40.9920 0.0000 -2.5857 0.0000
# 2 40.0266 117.2180 63.0576 0.0000 -1.8665 0.0000
# 3 40.9920 63.0576 124.8690 0.0000 -7.3139 0.0000
# 4 0.0000 0.0000 0.0000 20.7688 0.0000 2.1038
# 5 -2.5857 -1.8665 -7.3139 0.0000 24.2148 0.0000
# 6 0.0000 0.0000 0.0000 2.1038 0.0000 19.0853
#
#
#
# Elastic Compliance Matrix: (Units=1/GPa)
#
#
# Indices 1 2 3 4 5 6 
#
# 1 0.010634 -0.002413 -0.002257 0.000000 0.000268 0.000000
# 2 -0.002413 0.012280 -0.005465 0.000000 -0.000962 0.000000
# 3 -0.002257 -0.005465 0.011677 0.000000 0.002865 0.000000
# 4 0.000000 0.000000 0.000000 0.048693 0.000000 -0.005368
# 5 0.000268 -0.000962 0.002865 0.000000 0.042117 0.000000
# 6 0.000000 0.000000 0.000000 -0.005368 0.000000 0.052988
#
#
# Mechanical properties :
#
#
# Convention : Reuss Voigt Hill
#
# Bulk Modulus (GPa) = 69.82892 71.34705 70.58799
# Shear Modulus (GPa) = 24.57817 26.80678 25.69248
#
# Velocity S-wave (km/s) = 3.44789 3.60082 3.52518
# Velocity P-wave (km/s) = 7.04453 7.19701 7.12118
#
# Compressibility (1/GPa) = 0.01432071
#
# Stress axis : x y z
#
# Youngs Moduli (GPa) = 94.03753 81.43393 85.63829
#
# Poissons Ratio (x) = 0.19650 0.19326
# Poissons Ratio (y) = 0.22691 0.46805
# Poissons Ratio (z) = 0.21222 0.44507
#
# Static dielectric constant tensor:
#      x y z
#    x 3.951760 0.000000 -0.009620 
#    y 0.000000 3.487440 0.000000 
#    z -0.009620 0.000000 3.744590 
# 
# 
# High freq. dielectric constant tensor:
#      x y z
#    x 1.818820 0.000000 -0.004010 
#    y 0.000000 1.780350 0.000000 
#    z -0.004010 0.000000 1.807550 
# 
# From -- ./inp_files/70581.got.cif
#   From: 2010.06.25/outbox.cif.g09.slc.cpg/sg10_36_cif.got.tgz:70581.got - 2010.06.27 22:07:45.
