data_PCOD8066379
_publ_section_title
;
Structure prediction by ZEFSAII (Michael W. Deem and Ramdas Pophale) SiO2 
 PCOD8066379
Probable space group: P 2/M
;
_chemical_formula_sum "Si O2"
_cell_formula_units_Z 28
_cell_length_a 14.642476
_cell_length_b 8.645253
_cell_length_c 12.645318
_cell_angle_alpha 90.000000
_cell_angle_beta 120.302277
_cell_angle_gamma 90.000000
_cell_volume 1382.043471
_symmetry_space_group_name_H-M "P 2/M"
_symmetry_group_IT_number 10
_symmetry_cell_setting 'monoclinic'
loop_
_space_group_symop_operation_xyz
x,y,z
-x,y,-z
-x,-y,-z
x,-y,z
loop_
_atom_site_type_symbol
_atom_site_label
_atom_site_fract_x
_atom_site_fract_y
_atom_site_fract_z
Si Si1 0.723415 0.678625 0.988500
Si Si2 0.882248 0.183646 0.912733
Si Si3 0.886436 0.181485 0.470363
Si Si4 0.576709 0.184275 0.455156
Si Si5 0.495722 0.817355 0.815378
Si Si6 0.804320 0.818218 0.644271
Si Si7 0.290572 0.320929 0.781672
O O1 0.729651 0.500000 0.961132
O O2 0.803092 0.769857 0.959610
O O3 0.603721 0.734597 0.907921
O O4 0.758131 0.707300 0.130247
O O5 0.844939 0.254105 0.778143
O O6 0.884845 0.000000 0.909935
O O7 0.000000 0.249778 0.000000
O O8 0.882805 0.218947 0.593244
O O9 0.793214 0.265871 0.353940
O O10 0.000000 0.243455 0.500000
O O11 0.872278 0.000000 0.439914
O O12 0.500000 0.249500 0.500000
O O13 0.537270 0.243826 0.319396
O O14 0.691418 0.254302 0.547701
O O15 0.580022 0.000000 0.456466
O O16 0.400947 0.772231 0.839060
O O17 0.514000 0.000000 0.829764
O O18 0.791681 0.000000 0.653160
O O19 0.316138 0.500000 0.777873
#
# Coordination Sequence:
#
# PCOD8066379 Si02
#       7
#     4   4   4   4   4   4   4
#     4  11  25  42  59  84 124 168 202 242 302 362
#     4  10  22  39  64  93 119 154 203 254 299 352
#     4  10  21  37  63  92 118 153 199 251 301 352
#     4   9  16  28  53  84 115 148 182 229 292 350
#     4  11  21  37  63  92 118 153 203 252 300 357
#     4   9  17  34  56  87 123 148 185 246 307 347
#     4  11  24  41  60  86 125 165 199 243 302 364
#
# _framework density 20.259854000000001
#
# number of rings (size 3 to 8) (size 9 to 14) (size 15 to 20)
#    0.000    1.857    1.429    2.571    2.000    6.857 
#    0.000    0.714    0.000    1.714    0.000    0.000 
#    0.000    0.000    0.000    0.000    0.000    0.000 
#
# Total GULP energy -347214.318371 kJ/mol
# GULP energy per Si atom -12400.511370 kJ/mol
# Density = 2.021374 g / cm^3
# Si number density = 20.259854 Si / 1000 Ang^3
#
#
#
# Elastic Constant Matrix: (Units=GPa)
#
#
# Indices 1 2 3 4 5 6 
#
# 1 114.3271 -4.7482 28.8023 0.0000 -6.1192 0.0000
# 2 -4.7482 15.8533 14.8594 0.0000 -3.4193 0.0000
# 3 28.8023 14.8594 108.6892 0.0000 -9.0863 0.0000
# 4 0.0000 0.0000 0.0000 18.4908 0.0000 -4.7368
# 5 -6.1192 -3.4193 -9.0863 0.0000 38.1078 0.0000
# 6 0.0000 0.0000 0.0000 -4.7368 0.0000 14.1010
#
#
#
# Elastic Compliance Matrix: (Units=1/GPa)
#
#
# Indices 1 2 3 4 5 6 
#
# 1 0.009946 0.006466 -0.003406 0.000000 0.001365 0.000000
# 2 0.006466 0.077223 -0.011841 0.000000 0.005144 0.000000
# 3 -0.003406 -0.011841 0.011823 0.000000 0.001210 0.000000
# 4 0.000000 0.000000 0.000000 0.059173 0.000000 0.019877
# 5 0.001365 0.005144 0.001210 0.000000 0.027211 0.000000
# 6 0.000000 0.000000 0.000000 0.019877 0.000000 0.077594
#
#
# Mechanical properties :
#
#
# Convention : Reuss Voigt Hill
#
# Bulk Modulus (GPa) = 12.28038 35.18851 23.73445
# Shear Modulus (GPa) = 16.25091 27.47032 21.86061
#
# Velocity S-wave (km/s) = 2.83525 3.68625 3.28839
# Velocity P-wave (km/s) = 4.09790 5.96022 5.11454
#
# Compressibility (1/GPa) = 0.08143068
#
# Stress axis : x y z
#
# Youngs Moduli (GPa) = 100.53902 12.94950 84.58117
#
# Poissons Ratio (x) = -0.08373 0.28805
# Poissons Ratio (y) = -0.65004 1.00151
# Poissons Ratio (z) = 0.34239 0.15333
#
# Static dielectric constant tensor:
#      x y z
#    x 3.835220 0.000000 -0.041110 
#    y 0.000000 3.314680 0.000000 
#    z -0.041110 0.000000 3.961830 
# 
# 
# High freq. dielectric constant tensor:
#      x y z
#    x 1.803620 0.000000 -0.005820 
#    y 0.000000 1.755750 0.000000 
#    z -0.005820 0.000000 1.806790 
# 
# From -- ./inp_files/50030.got.cif
#   From: 2010.06.25/outbox.cif.g09.slc.cpg/sg10_26_cif.got.tgz:50030.got - 2010.06.27 22:07:45.
