data_PCOD8066785
_publ_section_title
;
Structure prediction by ZEFSAII (Michael W. Deem and Ramdas Pophale) SiO2 
 PCOD8066785
Probable space group: P 2/M
;
_chemical_formula_sum "Si O2"
_cell_formula_units_Z 20
_cell_length_a 5.067836
_cell_length_b 13.080911
_cell_length_c 15.292613
_cell_angle_alpha 90.000000
_cell_angle_beta 119.942068
_cell_angle_gamma 90.000000
_cell_volume 878.468314
_symmetry_space_group_name_H-M "P 2/M"
_symmetry_group_IT_number 10
_symmetry_cell_setting 'monoclinic'
loop_
_space_group_symop_operation_xyz
x,y,z
-x,y,-z
-x,-y,-z
x,-y,z
loop_
_atom_site_type_symbol
_atom_site_label
_atom_site_fract_x
_atom_site_fract_y
_atom_site_fract_z
Si Si1 0.164690 0.616152 0.705746
Si Si2 0.169980 0.384270 0.915422
Si Si3 0.116629 0.117446 0.776428
Si Si4 0.848571 0.211661 0.567870
Si Si5 0.333403 0.758863 0.179465
O O1 0.187883 0.500000 0.676301
O O2 0.136737 0.623546 0.805537
O O3 0.467597 0.679788 0.727966
O O4 0.881399 0.673040 0.612763
O O5 0.114553 0.500000 0.938605
O O6 0.906478 0.312269 0.914085
O O7 0.500000 0.345075 0.000000
O O8 0.435575 0.178336 0.845613
O O9 0.016591 0.130933 0.659300
O O10 0.848317 0.160732 0.792042
O O11 0.170471 0.000000 0.808640
O O12 0.500000 0.182105 0.500000
O O13 0.000000 0.201789 0.500000
#
# Coordination Sequence:
#
# PCOD8066785 Si02
#       5
#     4   4   4   4   4
#     4  10  22  40  63  93 133 173 207 251 312 376
#     4  10  21  39  68 102 131 165 209 255 312 378
#     4  11  24  42  68  92 121 167 215 269 322 368
#     4  11  23  39  61  92 129 163 214 259 308 376
#     4  11  20  42  64  94 130 164 205 257 317 375
#
# _framework density 22.766898000000001
#
# number of rings (size 3 to 8) (size 9 to 14) (size 15 to 20)
#    0.000    1.400    4.000    3.600    0.000    2.400 
#    0.000    3.000    0.000    3.600    0.000    0.000 
#    0.000    0.000    0.000    0.000    0.000    0.000 
#
# Total GULP energy -247924.698991 kJ/mol
# GULP energy per Si atom -12396.234950 kJ/mol
# Density = 2.271508 g / cm^3
# Si number density = 22.766898 Si / 1000 Ang^3
#
#
#
# Elastic Constant Matrix: (Units=GPa)
#
#
# Indices 1 2 3 4 5 6 
#
# 1 121.3406 29.5451 18.2279 0.0000 21.9967 0.0000
# 2 29.5451 149.3072 -2.0874 0.0000 27.0582 0.0000
# 3 18.2279 -2.0874 53.9269 0.0000 20.0978 0.0000
# 4 0.0000 0.0000 0.0000 20.5017 0.0000 13.4832
# 5 21.9967 27.0582 20.0978 0.0000 35.8722 0.0000
# 6 0.0000 0.0000 0.0000 13.4832 0.0000 14.1307
#
#
#
# Elastic Compliance Matrix: (Units=1/GPa)
#
#
# Indices 1 2 3 4 5 6 
#
# 1 0.009514 -0.001197 -0.001800 0.000000 -0.003923 0.000000
# 2 -0.001197 0.008352 0.003542 0.000000 -0.007550 0.000000
# 3 -0.001800 0.003542 0.025118 0.000000 -0.015640 0.000000
# 4 0.000000 0.000000 0.000000 0.130953 0.000000 -0.124952
# 5 -0.003923 -0.007550 -0.015640 0.000000 0.044740 0.000000
# 6 0.000000 0.000000 0.000000 -0.124952 0.000000 0.189995
#
#
# Mechanical properties :
#
#
# Convention : Reuss Voigt Hill
#
# Bulk Modulus (GPa) = 22.68923 46.21621 34.45272
# Shear Modulus (GPa) = 11.84062 32.69349 22.26706
#
# Velocity S-wave (km/s) = 2.28300 3.79358 3.13076
# Velocity P-wave (km/s) = 4.11546 6.28746 5.31362
#
# Compressibility (1/GPa) = 0.04407378
#
# Stress axis : x y z
#
# Youngs Moduli (GPa) = 105.10534 119.72721 39.81167
#
# Poissons Ratio (x) = 0.14331 0.07168
# Poissons Ratio (y) = 0.12581 -0.14101
# Poissons Ratio (z) = 0.18923 -0.42406
#
# Static dielectric constant tensor:
#      x y z
#    x 4.130260 0.000000 0.229610 
#    y 0.000000 4.289050 0.000000 
#    z 0.229610 0.000000 4.036620 
# 
# 
# High freq. dielectric constant tensor:
#      x y z
#    x 1.909350 0.000000 0.013510 
#    y 0.000000 1.893380 0.000000 
#    z 0.013510 0.000000 1.882700 
# 
# From -- ./inp_files/73377.got.cif
#   From: 2010.06.25/outbox.cif.g09.slc.cpg/sg10_37_cif.got.tgz:73377.got - 2010.06.27 22:07:45.
