data_PCOD8066694
_publ_section_title
;
Structure prediction by ZEFSAII (Michael W. Deem and Ramdas Pophale) SiO2 
 PCOD8066694
Probable space group: P 2/M
;
_chemical_formula_sum "Si O2"
_cell_formula_units_Z 28
_cell_length_a 21.995005
_cell_length_b 8.721476
_cell_length_c 14.968158
_cell_angle_alpha 90.000000
_cell_angle_beta 27.636867
_cell_angle_gamma 90.000000
_cell_volume 1331.910712
_symmetry_space_group_name_H-M "P 2/M"
_symmetry_group_IT_number 10
_symmetry_cell_setting 'monoclinic'
loop_
_space_group_symop_operation_xyz
x,y,z
-x,y,-z
-x,-y,-z
x,-y,z
loop_
_atom_site_type_symbol
_atom_site_label
_atom_site_fract_x
_atom_site_fract_y
_atom_site_fract_z
Si Si1 0.648776 0.179648 0.805579
Si Si2 0.692615 0.679627 0.252374
Si Si3 0.391584 0.827732 0.465892
Si Si4 0.151194 0.817782 0.302657
Si Si5 0.238538 0.322904 0.513264
Si Si6 0.680644 0.172093 0.082925
Si Si7 0.972672 0.319995 0.939691
O O1 0.753072 0.248223 0.742923
O O2 0.704549 0.212450 0.635472
O O3 0.638772 0.000000 0.835667
O O4 0.500000 0.249662 0.000000
O O5 0.674698 0.500000 0.292586
O O6 0.597316 0.767073 0.445977
O O7 0.667850 0.713697 0.181811
O O8 0.837495 0.746322 0.079990
O O9 0.300408 0.712898 0.529163
O O10 0.534056 0.830094 0.233079
O O11 0.333634 0.000000 0.541009
O O12 0.000000 0.754233 0.500000
O O13 0.147538 0.000000 0.315812
O O14 0.216713 0.765802 0.124005
O O15 0.264392 0.500000 0.455213
O O16 0.084772 0.284826 0.721265
O O17 0.720535 0.000000 0.061312
O O18 0.958698 0.500000 0.971827
O O19 0.000000 0.241877 0.000000
#
# Coordination Sequence:
#
# PCOD8066694 Si02
#       7
#     4   4   4   4   4   4   4
#     4  10  21  39  62  88 118 154 195 246 304 351
#     4  11  22  37  59  85 116 155 194 235 287 348
#     4  11  22  38  58  85 120 156 191 234 289 346
#     4   9  19  37  60  84 113 151 197 244 288 345
#     4  11  22  37  61  88 117 153 193 239 291 347
#     4  10  22  39  59  83 115 152 190 240 293 340
#     4   9  18  36  56  78 115 155 186 230 291 343
#
# _framework density 21.02243
#
# number of rings (size 3 to 8) (size 9 to 14) (size 15 to 20)
#    0.000    1.857    1.429    2.571    2.000    5.429 
#    0.000    3.571    0.000    0.857    0.000    0.000 
#    0.000    0.000    0.000    0.000    0.000    0.000 
#
# Total GULP energy -347061.821855 kJ/mol
# GULP energy per Si atom -12395.065066 kJ/mol
# Density = 2.097458 g / cm^3
# Si number density = 21.022430 Si / 1000 Ang^3
#
#
#
# Elastic Constant Matrix: (Units=GPa)
#
#
# Indices 1 2 3 4 5 6 
#
# 1 97.9829 8.7634 47.3345 0.0000 -2.2546 0.0000
# 2 8.7634 32.0578 29.8646 0.0000 -3.9822 0.0000
# 3 47.3345 29.8646 142.4511 0.0000 -0.2881 0.0000
# 4 0.0000 0.0000 0.0000 21.0041 0.0000 4.5987
# 5 -2.2546 -3.9822 -0.2881 0.0000 35.0095 0.0000
# 6 0.0000 0.0000 0.0000 4.5987 0.0000 23.3690
#
#
#
# Elastic Compliance Matrix: (Units=1/GPa)
#
#
# Indices 1 2 3 4 5 6 
#
# 1 0.012189 0.000674 -0.004190 0.000000 0.000827 0.000000
# 2 0.000674 0.039473 -0.008490 0.000000 0.004464 0.000000
# 3 -0.004190 -0.008490 0.010190 0.000000 -0.001152 0.000000
# 4 0.000000 0.000000 0.000000 0.049753 0.000000 -0.009791
# 5 0.000827 0.004464 -0.001152 0.000000 0.029115 0.000000
# 6 0.000000 0.000000 0.000000 -0.009791 0.000000 0.044718
#
#
# Mechanical properties :
#
#
# Convention : Reuss Voigt Hill
#
# Bulk Modulus (GPa) = 26.42748 49.37963 37.90355
# Shear Modulus (GPa) = 22.51599 28.31182 25.41390
#
# Velocity S-wave (km/s) = 3.27623 3.67378 3.48069
# Velocity P-wave (km/s) = 5.18748 6.44481 5.85002
#
# Compressibility (1/GPa) = 0.03783940
#
# Stress axis : x y z
#
# Youngs Moduli (GPa) = 82.04373 25.33350 98.13724
#
# Poissons Ratio (x) = -0.01707 0.41117
# Poissons Ratio (y) = -0.05529 0.83323
# Poissons Ratio (z) = 0.34374 0.21509
#
# Static dielectric constant tensor:
#      x y z
#    x 3.827470 0.000000 -0.293900 
#    y 0.000000 3.332350 0.000000 
#    z -0.293900 0.000000 4.126830 
# 
# 
# High freq. dielectric constant tensor:
#      x y z
#    x 1.822090 0.000000 -0.006170 
#    y 0.000000 1.785220 0.000000 
#    z -0.006170 0.000000 1.842930 
# 
# From -- ./inp_files/49593.got.cif
#   From: 2010.06.25/outbox.cif.g09.slc.cpg/sg10_25_cif.got.tgz:49593.got - 2010.06.27 22:07:45.
