data_PCOD8066237
_publ_section_title
;
Structure prediction by ZEFSAII (Michael W. Deem and Ramdas Pophale) SiO2 
 PCOD8066237
Probable space group: P 2/M
;
_chemical_formula_sum "Si O2"
_cell_formula_units_Z 20
_cell_length_a 8.631232
_cell_length_b 22.363994
_cell_length_c 9.612777
_cell_angle_alpha 90.000000
_cell_angle_beta 148.510911
_cell_angle_gamma 90.000000
_cell_volume 969.217255
_symmetry_space_group_name_H-M "P 2/M"
_symmetry_group_IT_number 10
_symmetry_cell_setting 'monoclinic'
loop_
_space_group_symop_operation_xyz
x,y,z
-x,y,-z
-x,-y,-z
x,-y,z
loop_
_atom_site_type_symbol
_atom_site_label
_atom_site_fract_x
_atom_site_fract_y
_atom_site_fract_z
Si Si1 0.237299 0.629637 0.560012
Si Si2 0.864895 0.567990 0.048776
Si Si3 0.148478 0.830118 0.968055
Si Si4 0.155982 0.066155 0.758656
Si Si5 0.346144 0.244344 0.528817
O O1 0.332456 0.698403 0.617623
O O2 0.000000 0.620623 0.500000
O O3 0.085226 0.609109 0.302907
O O4 0.529510 0.590545 0.809266
O O5 0.872605 0.500000 0.109029
O O6 0.000000 0.572452 0.000000
O O7 0.114284 0.890818 0.856999
O O8 0.984190 0.777836 0.757050
O O9 0.481735 0.807425 0.253111
O O10 0.000000 0.844545 0.000000
O O11 0.000000 0.092046 0.500000
O O12 0.022330 0.000000 0.689907
O O13 0.500000 0.060152 0.000000
O O14 0.500000 0.260481 0.500000
#
# Coordination Sequence:
#
# PCOD8066237 Si02
#       5
#     4   4   4   4   4
#     4  12  25  40  62  93 124 155 197 250 303 351
#     4  11  24  43  66  89 118 161 204 241 294 362
#     4  10  21  37  59  85 112 150 198 244 288 339
#     4  10  21  37  57  83 116 153 190 233 291 352
#     4  10  21  38  59  84 117 155 195 239 292 354
#
# _framework density 20.635207999999999
#
# number of rings (size 3 to 8) (size 9 to 14) (size 15 to 20)
#    0.000    1.400    0.000    5.400    0.000    8.400 
#    0.000    0.000    0.000    7.200    0.000    0.000 
#    0.000    0.000    0.000    0.000    0.000    0.000 
#
# Total GULP energy -248007.415596 kJ/mol
# GULP energy per Si atom -12400.370780 kJ/mol
# Density = 2.058824 g / cm^3
# Si number density = 20.635208 Si / 1000 Ang^3
#
#
#
# Elastic Constant Matrix: (Units=GPa)
#
#
# Indices 1 2 3 4 5 6 
#
# 1 109.1931 29.5259 37.4977 0.0000 12.6283 0.0000
# 2 29.5259 121.7645 26.9265 0.0000 -18.2253 0.0000
# 3 37.4977 26.9265 130.0335 0.0000 0.5339 0.0000
# 4 0.0000 0.0000 0.0000 29.5829 0.0000 -2.6424
# 5 12.6283 -18.2253 0.5339 0.0000 34.6083 0.0000
# 6 0.0000 0.0000 0.0000 -2.6424 0.0000 21.3325
#
#
#
# Elastic Compliance Matrix: (Units=1/GPa)
#
#
# Indices 1 2 3 4 5 6 
#
# 1 0.011584 -0.003087 -0.002678 0.000000 -0.005811 0.000000
# 2 -0.003087 0.010214 -0.001252 0.000000 0.006525 0.000000
# 3 -0.002678 -0.001252 0.008721 0.000000 0.000183 0.000000
# 4 0.000000 0.000000 0.000000 0.034181 0.000000 0.004234
# 5 -0.005811 0.006525 0.000183 0.000000 0.034448 0.000000
# 6 0.000000 0.000000 0.000000 0.004234 0.000000 0.047401
#
#
# Mechanical properties :
#
#
# Convention : Reuss Voigt Hill
#
# Bulk Modulus (GPa) = 60.65179 60.98794 60.81986
# Shear Modulus (GPa) = 30.10617 34.90748 32.50682
#
# Velocity S-wave (km/s) = 3.82379 4.11743 3.97332
# Velocity P-wave (km/s) = 6.99653 7.22660 7.11249
#
# Compressibility (1/GPa) = 0.01648756
#
# Stress axis : x y z
#
# Youngs Moduli (GPa) = 86.32378 97.90026 114.66691
#
# Poissons Ratio (x) = 0.30219 0.30702
# Poissons Ratio (y) = 0.26646 0.14354
# Poissons Ratio (z) = 0.23113 0.12255
#
# Static dielectric constant tensor:
#      x y z
#    x 3.581030 0.000000 0.016220 
#    y 0.000000 3.916060 0.000000 
#    z 0.016220 0.000000 3.991290 
# 
# 
# High freq. dielectric constant tensor:
#      x y z
#    x 1.796770 0.000000 0.000400 
#    y 0.000000 1.814070 0.000000 
#    z 0.000400 0.000000 1.829140 
# 
# From -- ./inp_files/4690.got.cif
#   From: 2010.06.25/outbox.cif.g09.slc.cpg/sg10_3_cif.got.tgz:4690.got - 2010.06.27 22:07:45.
