data_PCOD8066080
_publ_section_title
;
Structure prediction by ZEFSAII (Michael W. Deem and Ramdas Pophale) SiO2 
 PCOD8066080
Probable space group: P 2/M
;
_chemical_formula_sum "Si O2"
_cell_formula_units_Z 32
_cell_length_a 12.042989
_cell_length_b 9.408185
_cell_length_c 28.353726
_cell_angle_alpha 90.000000
_cell_angle_beta 32.524405
_cell_angle_gamma 90.000000
_cell_volume 1727.257293
_symmetry_space_group_name_H-M "P 2/M"
_symmetry_group_IT_number 10
_symmetry_cell_setting 'monoclinic'
loop_
_space_group_symop_operation_xyz
x,y,z
-x,y,-z
-x,-y,-z
x,-y,z
loop_
_atom_site_type_symbol
_atom_site_label
_atom_site_fract_x
_atom_site_fract_y
_atom_site_fract_z
Si Si1 0.865429 0.168110 0.750907
Si Si2 0.572367 0.341077 0.345850
Si Si3 0.733600 0.161117 0.900336
Si Si4 0.329579 0.168178 0.598028
Si Si5 0.154378 0.840018 0.901502
Si Si6 0.372519 0.832146 0.255842
Si Si7 0.777311 0.665988 0.600051
Si Si8 0.974352 0.340249 0.139521
O O1 0.761849 0.220585 0.836964
O O2 0.735930 0.227772 0.752953
O O3 0.102927 0.222108 0.663183
O O4 0.857666 0.000000 0.751619
O O5 0.534998 0.500000 0.379405
O O6 0.609303 0.231781 0.374064
O O7 0.378458 0.287406 0.385255
O O8 0.764237 0.339734 0.242864
O O9 0.853336 0.258577 0.893483
O O10 0.820141 0.000000 0.872078
O O11 0.500000 0.166234 0.000000
O O12 0.500000 0.221125 0.500000
O O13 0.331400 0.000000 0.603011
O O14 0.385093 0.794005 0.834154
O O15 0.062491 0.733366 0.896819
O O16 0.160438 0.000000 0.878494
O O17 0.000000 0.832415 0.000000
O O18 0.264529 0.755651 0.338240
O O19 0.337168 0.000000 0.274069
O O20 0.752207 0.500000 0.621550
O O21 0.000000 0.703257 0.500000
O O22 0.052572 0.500000 0.102321
#
# Coordination Sequence:
#
# PCOD8066080 Si02
#       8
#     4   4   4   4   4   4   4   4
#     4   9  19  36  54  80 115 144 179 229 279 327
#     4  10  21  38  58  81 112 149 190 235 280 333
#     4  10  21  37  62  87 112 151 193 233 282 339
#     4  10  21  36  57  84 112 145 184 230 283 335
#     4  10  22  38  60  87 114 148 193 238 284 344
#     4  10  21  37  58  84 115 147 184 237 287 334
#     4  10  22  40  59  81 113 152 191 232 282 341
#     4  11  22  38  60  84 117 152 190 240 286 336
#
# _framework density 18.526481
#
# number of rings (size 3 to 8) (size 9 to 14) (size 15 to 20)
#    0.000    2.000    2.500    0.375    3.500    2.000 
#    0.000    1.250    0.000    0.000    0.000    0.000 
#    0.000    0.000    0.000    0.000    0.000    0.000 
#
# Total GULP energy -396830.827096 kJ/mol
# GULP energy per Si atom -12400.963347 kJ/mol
# Density = 1.848431 g / cm^3
# Si number density = 18.526481 Si / 1000 Ang^3
#
#
#
# Elastic Constant Matrix: (Units=GPa)
#
#
# Indices 1 2 3 4 5 6 
#
# 1 164.4899 63.5895 61.5964 0.0000 -6.4184 0.0000
# 2 63.5895 68.9425 37.6313 0.0000 -0.0165 0.0000
# 3 61.5964 37.6313 112.7132 0.0000 -0.2856 0.0000
# 4 0.0000 0.0000 0.0000 20.4532 0.0000 18.9118
# 5 -6.4184 -0.0165 -0.2856 0.0000 28.6417 0.0000
# 6 0.0000 0.0000 0.0000 18.9118 0.0000 8.9280
#
#
#
# Elastic Compliance Matrix: (Units=1/GPa)
#
#
# Indices 1 2 3 4 5 6 
#
# 1 0.010352 -0.007903 -0.003013 0.000000 0.002285 0.000000
# 2 -0.007903 0.023771 -0.003622 0.000000 -0.001793 0.000000
# 3 -0.003013 -0.003622 0.011726 0.000000 -0.000560 0.000000
# 4 0.000000 0.000000 0.000000 -0.051002 0.000000 0.108036
# 5 0.002285 -0.001793 -0.000560 0.000000 0.035420 0.000000
# 6 0.000000 0.000000 0.000000 0.108036 0.000000 -0.116841
#
#
# Mechanical properties :
#
#
# Convention : Reuss Voigt Hill
#
# Bulk Modulus (GPa) = 59.61793 74.64221 67.13007
# Shear Modulus (GPa) = -96.32557 23.82648 -36.24955
#
# Velocity S-wave (km/s) = -7.21847 3.59008 -4.42818
# Velocity P-wave (km/s) = 6.10126 7.58695 3.18877
#
# Compressibility (1/GPa) = 0.01677348
#
# Stress axis : x y z
#
# Youngs Moduli (GPa) = 96.59914 42.06817 85.27780
#
# Poissons Ratio (x) = 0.33247 0.25693
# Poissons Ratio (y) = 0.76344 0.30887
# Poissons Ratio (z) = 0.29104 0.15237
#
# Static dielectric constant tensor:
#      x y z
#    x 3.528820 0.000000 -0.215630 
#    y 0.000000 3.399170 0.000000 
#    z -0.215630 0.000000 2.908010 
# 
# 
# High freq. dielectric constant tensor:
#      x y z
#    x 1.728890 0.000000 -0.004700 
#    y 0.000000 1.702220 0.000000 
#    z -0.004700 0.000000 1.729970 
# 
# From -- ./inp_files/49815.got.cif
#   From: 2010.06.25/outbox.cif.g09.slc.cpg/sg10_25_cif.got.tgz:49815.got - 2010.06.27 22:07:45.
