data_PCOD8066056
_publ_section_title
;
Structure prediction by ZEFSAII (Michael W. Deem and Ramdas Pophale) SiO2 
 PCOD8066056
Probable space group: P 2/M
;
_chemical_formula_sum "Si O2"
_cell_formula_units_Z 24
_cell_length_a 17.344409
_cell_length_b 8.624805
_cell_length_c 13.964519
_cell_angle_alpha 90.000000
_cell_angle_beta 36.065779
_cell_angle_gamma 90.000000
_cell_volume 1229.812460
_symmetry_space_group_name_H-M "P 2/M"
_symmetry_group_IT_number 10
_symmetry_cell_setting 'monoclinic'
loop_
_space_group_symop_operation_xyz
x,y,z
-x,y,-z
-x,-y,-z
x,-y,z
loop_
_atom_site_type_symbol
_atom_site_label
_atom_site_fract_x
_atom_site_fract_y
_atom_site_fract_z
Si Si1 0.497632 0.181899 0.392342
Si Si2 0.999727 0.321579 0.889034
Si Si3 0.135845 0.181043 0.260897
Si Si4 0.236748 0.820670 0.544416
Si Si5 0.144405 0.319028 0.452056
Si Si6 0.738704 0.679744 0.040921
O O1 0.500000 0.236448 0.500000
O O2 0.357862 0.228588 0.488970
O O3 0.526619 0.000000 0.354942
O O4 0.605257 0.274348 0.225587
O O5 0.037142 0.500000 0.830418
O O6 0.104140 0.211438 0.734471
O O7 0.856669 0.279801 0.993937
O O8 0.000000 0.283681 0.000000
O O9 0.188329 0.227339 0.313020
O O10 0.245632 0.224042 0.072964
O O11 0.003296 0.274194 0.369314
O O12 0.104061 0.000000 0.290319
O O13 0.241798 0.724308 0.440546
O O14 0.242833 0.000000 0.510999
O O15 0.151431 0.500000 0.423249
O O16 0.735496 0.500000 0.017374
#
# Coordination Sequence:
#
# PCOD8066056 Si02
#       6
#     4   4   4   4   4   4
#     4  10  23  42  61  84 119 162 204 247 297 354
#     4  10  21  36  56  84 117 151 193 248 300 351
#     4  11  21  36  60  89 121 155 194 241 295 355
#     4  11  22  37  59  87 117 156 201 245 297 354
#     4  11  21  36  59  88 122 155 193 243 297 354
#     4  11  22  37  59  88 120 157 199 244 296 354
#
# _framework density 19.515170000000001
#
# number of rings (size 3 to 8) (size 9 to 14) (size 15 to 20)
#    0.000    1.333    1.667    6.000    0.000    2.667 
#    0.000    0.833    0.000    5.000    0.000    0.000 
#    0.000    0.000    0.000    0.000    0.000    0.000 
#
# Total GULP energy -297753.471636 kJ/mol
# GULP energy per Si atom -12406.394651 kJ/mol
# Density = 1.947075 g / cm^3
# Si number density = 19.515170 Si / 1000 Ang^3
#
#
#
# Elastic Constant Matrix: (Units=GPa)
#
#
# Indices 1 2 3 4 5 6 
#
# 1 121.0529 28.1121 28.2408 0.0000 11.2456 0.0000
# 2 28.1121 76.3439 20.4165 0.0000 3.7344 0.0000
# 3 28.2408 20.4165 74.7081 0.0000 14.6530 0.0000
# 4 0.0000 0.0000 0.0000 33.6762 0.0000 4.2922
# 5 11.2456 3.7344 14.6530 0.0000 31.1583 0.0000
# 6 0.0000 0.0000 0.0000 4.2922 0.0000 29.2684
#
#
#
# Elastic Compliance Matrix: (Units=1/GPa)
#
#
# Indices 1 2 3 4 5 6 
#
# 1 0.009679 -0.002797 -0.002506 0.000000 -0.001980 0.000000
# 2 -0.002797 0.014940 -0.003164 0.000000 0.000707 0.000000
# 3 -0.002506 -0.003164 0.016464 0.000000 -0.006459 0.000000
# 4 0.000000 0.000000 0.000000 0.030260 0.000000 -0.004438
# 5 -0.001980 0.000707 -0.006459 0.000000 0.035761 0.000000
# 6 0.000000 0.000000 0.000000 -0.004438 0.000000 0.034817
#
#
# Mechanical properties :
#
#
# Convention : Reuss Voigt Hill
#
# Bulk Modulus (GPa) = 41.41017 47.29376 44.35197
# Shear Modulus (GPa) = 29.95682 31.84294 30.89988
#
# Velocity S-wave (km/s) = 3.92223 4.04382 3.98348
# Velocity P-wave (km/s) = 6.46354 6.78898 6.62826
#
# Compressibility (1/GPa) = 0.02414866
#
# Stress axis : x y z
#
# Youngs Moduli (GPa) = 103.31670 66.93342 60.73712
#
# Poissons Ratio (x) = 0.18722 0.15222
# Poissons Ratio (y) = 0.28898 0.19219
# Poissons Ratio (z) = 0.25893 0.21179
#
# Static dielectric constant tensor:
#      x y z
#    x 3.825580 0.000000 0.153210 
#    y 0.000000 3.539050 0.000000 
#    z 0.153210 0.000000 3.380850 
# 
# 
# High freq. dielectric constant tensor:
#      x y z
#    x 1.770860 0.000000 0.017250 
#    y 0.000000 1.766730 0.000000 
#    z 0.017250 0.000000 1.746490 
# 
# From -- ./inp_files/68479.got.cif
#   From: 2010.06.25/outbox.cif.g09.slc.cpg/sg10_35_cif.got.tgz:68479.got - 2010.06.27 22:07:45.
