data_PCOD8066779
_publ_section_title
;
Structure prediction by ZEFSAII (Michael W. Deem and Ramdas Pophale) SiO2 
 PCOD8066779
Probable space group: P 2/M
;
_chemical_formula_sum "Si O2"
_cell_formula_units_Z 32
_cell_length_a 9.665475
_cell_length_b 23.363429
_cell_length_c 14.132466
_cell_angle_alpha 90.000000
_cell_angle_beta 28.667205
_cell_angle_gamma 90.000000
_cell_volume 1530.970380
_symmetry_space_group_name_H-M "P 2/M"
_symmetry_group_IT_number 10
_symmetry_cell_setting 'monoclinic'
loop_
_space_group_symop_operation_xyz
x,y,z
-x,y,-z
-x,-y,-z
x,-y,z
loop_
_atom_site_type_symbol
_atom_site_label
_atom_site_fract_x
_atom_site_fract_y
_atom_site_fract_z
Si Si1 0.309286 0.641523 0.358318
Si Si2 0.374221 0.932360 0.973982
Si Si3 0.736381 0.870049 0.599416
Si Si4 0.183599 0.872265 0.651462
Si Si5 0.445039 0.755722 0.739654
Si Si6 0.029266 0.248453 0.821238
Si Si7 0.743036 0.359149 0.931892
Si Si8 0.742003 0.566215 0.432554
O O1 0.311918 0.708082 0.387272
O O2 0.363296 0.599858 0.412646
O O3 0.000000 0.627015 0.500000
O O4 0.581777 0.630135 0.127201
O O5 0.564704 0.912595 0.770353
O O6 0.360239 0.000000 0.980108
O O7 0.500000 0.910595 0.000000
O O8 0.057488 0.906476 0.144700
O O9 0.846266 0.899533 0.436652
O O10 0.565263 0.818616 0.652899
O O11 0.000000 0.843901 0.500000
O O12 0.500000 0.886452 0.500000
O O13 0.109166 0.804257 0.704559
O O14 0.289213 0.737103 0.736604
O O15 0.248047 0.764844 0.949463
O O16 0.956278 0.304182 0.802520
O O17 0.941896 0.413660 0.791127
O O18 0.500000 0.349056 0.000000
O O19 0.500000 0.577407 0.500000
O O20 0.769682 0.500000 0.442179
#
# Coordination Sequence:
#
# PCOD8066779 Si02
#       8
#     4   4   4   4   4   4   4   4
#     4  11  23  43  66 102 137 177 225 283 338 397
#     4  11  26  49  71  96 136 179 230 289 335 398
#     4  12  24  40  70 104 131 177 226 277 335 407
#     4  12  25  42  70 103 137 179 224 272 345 405
#     4  10  21  39  65  98 139 176 219 272 337 408
#     4  10  22  39  65  96 140 180 212 274 339 406
#     4  11  24  43  68 103 138 180 229 280 339 410
#     4  11  26  46  70  98 135 182 234 284 342 408
#
# _framework density 20.901776000000002
#
# number of rings (size 3 to 8) (size 9 to 14) (size 15 to 20)
#    0.000    1.000    5.000    1.125    1.750    7.000 
#    0.000    1.875    0.000    0.000    0.000    0.000 
#    0.000    0.000    0.000    0.000    0.000    0.000 
#
# Total GULP energy -396775.724365 kJ/mol
# GULP energy per Si atom -12399.241386 kJ/mol
# Density = 2.085420 g / cm^3
# Si number density = 20.901776 Si / 1000 Ang^3
#
#
#
# Elastic Constant Matrix: (Units=GPa)
#
#
# Indices 1 2 3 4 5 6 
#
# 1 91.5628 34.3020 37.0465 0.0000 1.0530 0.0000
# 2 34.3020 94.4982 37.4807 0.0000 1.2788 0.0000
# 3 37.0465 37.4807 92.2067 0.0000 3.2943 0.0000
# 4 0.0000 0.0000 0.0000 -88.8061 0.0000 42.8464
# 5 1.0530 1.2788 3.2943 0.0000 43.7974 0.0000
# 6 0.0000 0.0000 0.0000 42.8464 0.0000 16.7189
#
#
#
# Elastic Compliance Matrix: (Units=1/GPa)
#
#
# Indices 1 2 3 4 5 6 
#
# 1 0.013888 -0.003372 -0.004212 0.000000 0.000081 0.000000
# 2 -0.003372 0.013435 -0.004106 0.000000 -0.000002 0.000000
# 3 -0.004212 -0.004106 0.014237 0.000000 -0.000850 0.000000
# 4 0.000000 0.000000 0.000000 -0.005035 0.000000 0.012903
# 5 0.000081 -0.000002 -0.000850 0.000000 0.022894 0.000000
# 6 0.000000 0.000000 0.000000 0.012903 0.000000 0.026744
#
#
# Mechanical properties :
#
#
# Convention : Reuss Voigt Hill
#
# Bulk Modulus (GPa) = 55.00714 55.10291 55.05503
# Shear Modulus (GPa) = 43.25116 5.63794 24.44455
#
# Velocity S-wave (km/s) = 4.55384 1.64414 3.42350
# Velocity P-wave (km/s) = 7.35011 5.47944 6.48261
#
# Compressibility (1/GPa) = 0.01817946
#
# Stress axis : x y z
#
# Youngs Moduli (GPa) = 72.00506 74.43362 70.23894
#
# Poissons Ratio (x) = 0.25096 0.29586
# Poissons Ratio (y) = 0.24277 0.28843
# Poissons Ratio (z) = 0.30330 0.30565
#
# Static dielectric constant tensor:
#      x y z
#    x 3.897220 0.000000 0.094040 
#    y 0.000000 3.602440 0.000000 
#    z 0.094040 0.000000 4.038610 
# 
# 
# High freq. dielectric constant tensor:
#      x y z
#    x 1.828060 0.000000 0.005470 
#    y 0.000000 1.802370 0.000000 
#    z 0.005470 0.000000 1.838380 
# 
# From -- ./inp_files/62680.got.cif
#   From: 2010.06.25/outbox.cif.g09.slc.cpg/sg10_32_cif.got.tgz:62680.got - 2010.06.27 22:07:45.
