data_PCOD8066416
_publ_section_title
;
Structure prediction by ZEFSAII (Michael W. Deem and Ramdas Pophale) SiO2 
 PCOD8066416
Probable space group: P 2/M
;
_chemical_formula_sum "Si O2"
_cell_formula_units_Z 22
_cell_length_a 12.726363
_cell_length_b 20.125504
_cell_length_c 12.660701
_cell_angle_alpha 90.000000
_cell_angle_beta 23.232185
_cell_angle_gamma 90.000000
_cell_volume 1279.115512
_symmetry_space_group_name_H-M "P 2/M"
_symmetry_group_IT_number 10
_symmetry_cell_setting 'monoclinic'
loop_
_space_group_symop_operation_xyz
x,y,z
-x,y,-z
-x,-y,-z
x,-y,z
loop_
_atom_site_type_symbol
_atom_site_label
_atom_site_fract_x
_atom_site_fract_y
_atom_site_fract_z
Si Si1 0.300604 0.869491 0.498194
Si Si2 0.909799 0.353200 0.964665
Si Si3 0.588231 0.575191 0.539627
Si Si4 0.857439 0.799247 0.020616
Si Si5 0.778960 0.000000 0.296004
Si Si6 0.288530 0.076811 0.280766
O O1 0.579954 0.839581 0.281438
O O2 0.331459 0.880570 0.345647
O O3 0.203217 0.935859 0.646863
O O4 0.055949 0.819843 0.743391
O O5 0.163766 0.376206 0.660982
O O6 0.662192 0.399737 0.160502
O O7 0.808590 0.278114 0.044459
O O8 0.000000 0.366472 0.000000
O O9 0.500000 0.580435 0.500000
O O10 0.663900 0.500000 0.500374
O O11 0.000000 0.813148 0.000000
O O12 0.500000 0.000000 0.500000
O O13 0.000000 0.000000 0.000000
O O14 0.000000 0.088859 0.500000
O O15 0.339170 0.000000 0.262117
O O16 0.500000 0.102339 0.000000
#
# Coordination Sequence:
#
# PCOD8066416 Si02
#       6
#     4   4   4   4   2   4
#     4  12  22  37  53  74  95 129 166 204 256 297
#     4   9  17  28  40  60  88 125 164 200 233 272
#     4   9  15  24  40  60  84 116 163 212 241 260
#     4  11  22  34  50  69 102 138 171 200 235 297
#     4  12  24  36  50  72 100 126 160 206 243 282
#     4  10  21  38  58  76  94 116 154 209 263 309
#
# _framework density 17.199386000000001
#
# number of rings (size 3 to 8) (size 9 to 14) (size 15 to 20)
#    0.000    1.636    0.909    6.000    0.000    5.091 
#    0.000    0.000    0.000    0.000    0.000    0.000 
#    0.000    0.000    0.000    0.000    0.000  229.091 
#
# Total GULP energy -272730.747773 kJ/mol
# GULP energy per Si atom -12396.852171 kJ/mol
# Density = 1.716024 g / cm^3
# Si number density = 17.199386 Si / 1000 Ang^3
#
#
#
# Elastic Constant Matrix: (Units=GPa)
#
#
# Indices 1 2 3 4 5 6 
#
# 1 43.6949 25.9874 25.6677 0.0000 11.2391 0.0000
# 2 25.9874 85.7540 53.0249 0.0000 -3.9192 0.0000
# 3 25.6677 53.0249 150.6205 0.0000 -0.1207 0.0000
# 4 0.0000 0.0000 0.0000 36.0642 0.0000 -2.1160
# 5 11.2391 -3.9192 -0.1207 0.0000 20.5692 0.0000
# 6 0.0000 0.0000 0.0000 -2.1160 0.0000 4.1912
#
#
#
# Elastic Compliance Matrix: (Units=1/GPa)
#
#
# Indices 1 2 3 4 5 6 
#
# 1 0.036134 -0.010386 -0.002519 0.000000 -0.021737 0.000000
# 2 -0.010386 0.018056 -0.004579 0.000000 0.009088 0.000000
# 3 -0.002519 -0.004579 0.008681 0.000000 0.000555 0.000000
# 4 0.000000 0.000000 0.000000 0.028575 0.000000 0.014427
# 5 -0.021737 0.009088 0.000555 0.000000 0.062229 0.000000
# 6 0.000000 0.000000 0.000000 0.014427 0.000000 0.245880
#
#
# Mechanical properties :
#
#
# Convention : Reuss Voigt Hill
#
# Bulk Modulus (GPa) = 35.83935 54.38104 45.11020
# Shear Modulus (GPa) = 11.26574 23.85753 17.56164
#
# Velocity S-wave (km/s) = 2.56209 3.72844 3.19887
# Velocity P-wave (km/s) = 5.44382 7.08673 6.31890
#
# Compressibility (1/GPa) = 0.02790229
#
# Stress axis : x y z
#
# Youngs Moduli (GPa) = 27.67478 55.38459 115.19528
#
# Poissons Ratio (x) = 0.57524 0.29014
# Poissons Ratio (y) = 0.28744 0.52749
# Poissons Ratio (z) = 0.06970 0.25361
#
# Static dielectric constant tensor:
#      x y z
#    x 2.755030 0.000000 -0.081260 
#    y 0.000000 3.170740 0.000000 
#    z -0.081260 0.000000 3.549800 
# 
# 
# High freq. dielectric constant tensor:
#      x y z
#    x 1.599720 0.000000 -0.012830 
#    y 0.000000 1.664360 0.000000 
#    z -0.012830 0.000000 1.692350 
# 
# From -- ./inp_files/48094.got.cif
#   From: 2010.06.25/outbox.cif.g09.slc.cpg/sg10_25_cif.got.tgz:48094.got - 2010.06.27 22:07:45.
