data_PCOD8066894
_publ_section_title
;
Structure prediction by ZEFSAII (Michael W. Deem and Ramdas Pophale) SiO2 
 PCOD8066894
Probable space group: P 2/M
;
_chemical_formula_sum "Si O2"
_cell_formula_units_Z 32
_cell_length_a 11.391904
_cell_length_b 14.161092
_cell_length_c 17.667622
_cell_angle_alpha 90.000000
_cell_angle_beta 30.477372
_cell_angle_gamma 90.000000
_cell_volume 1445.601946
_symmetry_space_group_name_H-M "P 2/M"
_symmetry_group_IT_number 10
_symmetry_cell_setting 'monoclinic'
loop_
_space_group_symop_operation_xyz
x,y,z
-x,y,-z
-x,-y,-z
x,-y,z
loop_
_atom_site_type_symbol
_atom_site_label
_atom_site_fract_x
_atom_site_fract_y
_atom_site_fract_z
Si Si1 0.998190 0.388462 0.808926
Si Si2 0.985436 0.108659 0.323753
Si Si3 0.004077 0.611547 0.630288
Si Si4 0.358045 0.891396 0.243233
Si Si5 0.116181 0.889711 0.083145
Si Si6 0.840815 0.264024 0.154542
Si Si7 0.498485 0.602848 0.089843
Si Si8 0.683249 0.230768 0.591562
O O1 0.008827 0.500000 0.817380
O O2 0.177208 0.335790 0.764392
O O3 0.056446 0.367043 0.689361
O O4 0.741719 0.346318 0.975344
O O5 0.208682 0.126267 0.251533
O O6 0.053677 0.142799 0.202475
O O7 0.770229 0.171022 0.471151
O O8 0.907808 0.000000 0.367402
O O9 0.023221 0.500000 0.602799
O O10 0.745440 0.652057 0.752070
O O11 0.187652 0.667830 0.477454
O O12 0.257217 0.826986 0.365990
O O13 0.340933 0.000000 0.279383
O O14 0.618883 0.862544 0.078989
O O15 0.949194 0.836271 0.118012
O O16 0.072376 0.000000 0.095557
O O17 0.587598 0.247451 0.263304
O O18 0.000000 0.308826 0.000000
O O19 0.499357 0.500000 0.128468
O O20 0.500000 0.586772 0.000000
#
# Coordination Sequence:
#
# PCOD8066894 Si02
#       8
#     4   4   4   4   4   4   4   4
#     4   9  19  38  65  91 124 170 217 266 313 362
#     4  10  22  41  68 101 126 153 206 269 321 374
#     4   9  19  37  63  98 130 163 210 264 322 376
#     4  10  21  42  69  95 128 166 206 254 319 386
#     4  10  22  42  69  95 123 164 211 262 313 367
#     4  12  26  43  58  87 130 173 222 256 300 381
#     4   7  12  29  58  90 119 148 194 254 311 364
#     4  12  24  39  61  93 132 177 205 251 318 378
#
# _framework density 22.136106999999999
#
# number of rings (size 3 to 8) (size 9 to 14) (size 15 to 20)
#    0.000    2.125    1.250    3.375    0.000    7.500 
#    2.250    5.000    0.000    1.500    0.000    0.000 
#    0.000    1.000    0.000    0.000    0.000    0.000 
#
# Total GULP energy -396729.391205 kJ/mol
# GULP energy per Si atom -12397.793475 kJ/mol
# Density = 2.208572 g / cm^3
# Si number density = 22.136107 Si / 1000 Ang^3
#
#
#
# Elastic Constant Matrix: (Units=GPa)
#
#
# Indices 1 2 3 4 5 6 
#
# 1 42.2383 3.1044 11.9536 0.0000 -0.6797 0.0000
# 2 3.1044 55.9727 32.0546 0.0000 6.1148 0.0000
# 3 11.9536 32.0546 110.9059 0.0000 -4.0399 0.0000
# 4 0.0000 0.0000 0.0000 37.9617 0.0000 2.2297
# 5 -0.6797 6.1148 -4.0399 0.0000 37.4945 0.0000
# 6 0.0000 0.0000 0.0000 2.2297 0.0000 20.1564
#
#
#
# Elastic Compliance Matrix: (Units=1/GPa)
#
#
# Indices 1 2 3 4 5 6 
#
# 1 0.024422 0.000163 -0.002675 0.000000 0.000128 0.000000
# 2 0.000163 0.022082 -0.006557 0.000000 -0.004305 0.000000
# 3 -0.002675 -0.006557 0.011281 0.000000 0.002236 0.000000
# 4 0.000000 0.000000 0.000000 0.026515 0.000000 -0.002933
# 5 0.000128 -0.004305 0.002236 0.000000 0.027616 0.000000
# 6 0.000000 0.000000 0.000000 -0.002933 0.000000 0.049937
#
#
# Mechanical properties :
#
#
# Convention : Reuss Voigt Hill
#
# Bulk Modulus (GPa) = 25.22112 33.70469 29.46291
# Shear Modulus (GPa) = 25.87919 29.92279 27.90099
#
# Velocity S-wave (km/s) = 3.42291 3.68062 3.55410
# Velocity P-wave (km/s) = 5.20001 5.77251 5.49372
#
# Compressibility (1/GPa) = 0.03964931
#
# Stress axis : x y z
#
# Youngs Moduli (GPa) = 40.94632 45.28589 88.64116
#
# Poissons Ratio (x) = -0.00740 0.23710
# Poissons Ratio (y) = -0.00669 0.58119
# Poissons Ratio (z) = 0.10952 0.29692
#
# Static dielectric constant tensor:
#      x y z
#    x 3.805840 0.000000 -0.040740 
#    y 0.000000 3.932740 0.000000 
#    z -0.040740 0.000000 4.092300 
# 
# 
# High freq. dielectric constant tensor:
#      x y z
#    x 1.856670 0.000000 0.000900 
#    y 0.000000 1.875440 0.000000 
#    z 0.000900 0.000000 1.870810 
# 
# From -- ./inp_files/76990.got.cif
#   From: 2010.06.25/outbox.cif.g09.slc.cpg/sg10_39_cif.got.tgz:76990.got - 2010.06.27 22:07:45.
