data_PCOD8066185
_publ_section_title
;
Structure prediction by ZEFSAII (Michael W. Deem and Ramdas Pophale) SiO2 
 PCOD8066185
Probable space group: P 2/M
;
_chemical_formula_sum "Si O2"
_cell_formula_units_Z 24
_cell_length_a 22.448918
_cell_length_b 7.735123
_cell_length_c 9.681041
_cell_angle_alpha 90.000000
_cell_angle_beta 130.306115
_cell_angle_gamma 90.000000
_cell_volume 1281.979548
_symmetry_space_group_name_H-M "P 2/M"
_symmetry_group_IT_number 10
_symmetry_cell_setting 'monoclinic'
loop_
_space_group_symop_operation_xyz
x,y,z
-x,y,-z
-x,-y,-z
x,-y,z
loop_
_atom_site_type_symbol
_atom_site_label
_atom_site_fract_x
_atom_site_fract_y
_atom_site_fract_z
Si Si1 0.690590 0.306607 0.878579
Si Si2 0.577895 0.000000 0.029311
Si Si3 0.309410 0.693393 0.806810
Si Si4 0.168468 0.205799 0.410649
Si Si5 1.000000 0.811299 0.163385
Si Si6 0.577895 0.000000 0.704375
Si Si7 0.168468 0.794201 0.094754
O O1 0.655574 0.500000 0.811802
O O2 0.768308 0.296057 0.905483
O O3 0.626023 0.169975 0.731787
O O4 0.714060 0.264663 0.071089
O O5 0.626023 0.169975 0.146282
O O6 0.500000 0.000000 0.000000
O O7 0.557881 0.000000 0.836822
O O8 0.344426 0.500000 0.845079
O O9 0.231692 0.703943 0.600559
O O10 0.082307 0.280413 0.326805
O O11 0.186810 0.256243 0.280214
O O12 0.170589 0.000000 0.432724
O O13 1.000000 0.000000 0.233677
O O14 0.000000 0.835938 0.000000
O O15 0.917693 0.719587 0.079884
O O16 0.500000 0.000000 0.500000
O O17 0.170589 0.000000 0.079042
#
# Coordination Sequence:
#
# PCOD8066185 Si02
#       7
#     4   2   4   4   4   2   4
#     4  10  21  37  56  79 109 143 175 211 260 315
#     4  10  22  40  60  81 106 135 169 212 263 318
#     4  10  21  37  56  79 109 143 175 211 260 315
#     4   9  16  29  52  79 107 141 182 224 264 307
#     4   7  12  24  44  73 106 139 177 222 265 302
#     4  10  22  40  60  81 106 135 169 212 263 318
#     4   9  16  29  52  79 107 141 182 224 264 307
#
# _framework density 18.721049000000001
#
# number of rings (size 3 to 8) (size 9 to 14) (size 15 to 20)
#    0.000    2.833    1.667    2.000    0.000    2.667 
#    0.000    1.667    0.000    8.000    0.000    0.000 
#    0.000    0.000    0.000    0.000    0.000    0.000 
#
# Total GULP energy -297380.669864 kJ/mol
# GULP energy per Si atom -12390.861244 kJ/mol
# Density = 1.867844 g / cm^3
# Si number density = 18.721049 Si / 1000 Ang^3
#
#
#
# Elastic Constant Matrix: (Units=GPa)
#
#
# Indices 1 2 3 4 5 6 
#
# 1 126.6206 48.8091 56.3483 0.0000 23.8798 0.0000
# 2 48.8091 97.0845 43.8854 0.0000 13.9697 0.0000
# 3 56.3483 43.8854 108.8813 0.0000 26.4501 0.0000
# 4 0.0000 0.0000 0.0000 12.0891 0.0000 -7.3708
# 5 23.8798 13.9697 26.4501 0.0000 23.6356 0.0000
# 6 0.0000 0.0000 0.0000 -7.3708 0.0000 9.4912
#
#
#
# Elastic Compliance Matrix: (Units=1/GPa)
#
#
# Indices 1 2 3 4 5 6 
#
# 1 0.011901 -0.003647 -0.003147 0.000000 -0.006346 0.000000
# 2 -0.003647 0.013815 -0.003560 0.000000 -0.000496 0.000000
# 3 -0.003147 -0.003560 0.015058 0.000000 -0.011567 0.000000
# 4 0.000000 0.000000 0.000000 0.157110 0.000000 0.122011
# 5 -0.006346 -0.000496 -0.011567 0.000000 0.061958 0.000000
# 6 0.000000 0.000000 0.000000 0.122011 0.000000 0.200114
#
#
# Mechanical properties :
#
#
# Convention : Reuss Voigt Hill
#
# Bulk Modulus (GPa) = 49.83971 70.07465 59.95718
# Shear Modulus (GPa) = 10.25950 21.27943 15.76946
#
# Velocity S-wave (km/s) = 2.34352 3.37509 2.90546
# Velocity P-wave (km/s) = 5.83120 7.25951 6.58420
#
# Compressibility (1/GPa) = 0.02006432
#
# Stress axis : x y z
#
# Youngs Moduli (GPa) = 84.02642 72.38697 66.41024
#
# Poissons Ratio (x) = 0.26402 0.20901
# Poissons Ratio (y) = 0.30648 0.23642
# Poissons Ratio (z) = 0.26445 0.25770
#
# Static dielectric constant tensor:
#      x y z
#    x 3.428430 0.000000 0.179720 
#    y 0.000000 3.441060 0.000000 
#    z 0.179720 0.000000 3.365090 
# 
# 
# High freq. dielectric constant tensor:
#      x y z
#    x 1.716150 0.000000 0.014020 
#    y 0.000000 1.720070 0.000000 
#    z 0.014020 0.000000 1.711200 
# 
# From -- ./inp_files/34024.got.cif
#   From: 2010.06.25/outbox.cif.g09.slc.cpg/sg10_18_cif.got.tgz:34024.got - 2010.06.27 22:07:45.
