data_PCOD8066604
_publ_section_title
;
Structure prediction by ZEFSAII (Michael W. Deem and Ramdas Pophale) SiO2 
 PCOD8066604
Probable space group: P 2/M
;
_chemical_formula_sum "Si O2"
_cell_formula_units_Z 28
_cell_length_a 9.691448
_cell_length_b 25.970085
_cell_length_c 9.775781
_cell_angle_alpha 90.000000
_cell_angle_beta 147.517206
_cell_angle_gamma 90.000000
_cell_volume 1321.372438
_symmetry_space_group_name_H-M "P 2/M"
_symmetry_group_IT_number 10
_symmetry_cell_setting 'monoclinic'
loop_
_space_group_symop_operation_xyz
x,y,z
-x,y,-z
-x,-y,-z
x,-y,z
loop_
_atom_site_type_symbol
_atom_site_label
_atom_site_fract_x
_atom_site_fract_y
_atom_site_fract_z
Si Si1 0.427930 0.155707 0.085350
Si Si2 0.921505 0.699112 0.585883
Si Si3 0.706360 0.560421 0.789160
Si Si4 0.232123 0.942503 0.589532
Si Si5 0.932975 0.114584 0.794056
Si Si6 0.580484 0.637260 0.915742
Si Si7 0.335961 0.214693 0.480451
O O1 0.559297 0.100042 0.204484
O O2 0.503952 0.200428 0.251968
O O3 0.500000 0.180140 0.000000
O O4 0.133946 0.143252 0.863606
O O5 0.646972 0.670055 0.346223
O O6 0.893440 0.748450 0.661902
O O7 0.000000 0.717378 0.500000
O O8 0.148458 0.666931 0.846507
O O9 0.500000 0.576756 0.500000
O O10 0.690997 0.500000 0.803099
O O11 0.624756 0.587032 0.861912
O O12 0.000000 0.576826 0.000000
O O13 0.000000 0.934812 0.500000
O O14 0.158561 0.934783 0.368407
O O15 0.347977 0.000000 0.701950
O O16 0.735379 0.160815 0.652959
O O17 0.000000 0.093191 0.000000
O O18 0.500000 0.619128 0.000000
O O19 0.500000 0.244134 0.500000
#
# Coordination Sequence:
#
# PCOD8066604 Si02
#       7
#     4   4   4   4   4   4   4
#     4  11  23  39  63  87 114 155 194 239 301 358
#     4  10  24  40  63  92 128 165 212 263 316 376
#     4  10  21  38  63  95 130 171 219 268 320 378
#     4  10  22  39  60  90 117 146 195 239 288 366
#     4  11  23  41  60  86 120 149 189 247 299 359
#     4  10  22  42  62  92 129 169 214 266 317 374
#     4  11  25  40  60  88 116 152 200 251 297 367
#
# _framework density 21.190090000000001
#
# number of rings (size 3 to 8) (size 9 to 14) (size 15 to 20)
#    0.000    1.571    2.857    0.857    4.000    3.714 
#    0.000    0.714    0.000    5.143    0.000    0.000 
#    0.000    0.000    0.000    0.000    0.000    0.000 
#
# Total GULP energy -347003.158130 kJ/mol
# GULP energy per Si atom -12392.969933 kJ/mol
# Density = 2.114186 g / cm^3
# Si number density = 21.190090 Si / 1000 Ang^3
#
#
#
# Elastic Constant Matrix: (Units=GPa)
#
#
# Indices 1 2 3 4 5 6 
#
# 1 129.4406 49.9396 40.1623 0.0000 -13.5853 0.0000
# 2 49.9396 80.4640 28.0033 0.0000 -7.5325 0.0000
# 3 40.1623 28.0033 112.5578 0.0000 -1.1565 0.0000
# 4 0.0000 0.0000 0.0000 -21.8611 0.0000 4.0472
# 5 -13.5853 -7.5325 -1.1565 0.0000 42.8654 0.0000
# 6 0.0000 0.0000 0.0000 4.0472 0.0000 35.7731
#
#
#
# Elastic Compliance Matrix: (Units=1/GPa)
#
#
# Indices 1 2 3 4 5 6 
#
# 1 0.010944 -0.005712 -0.002459 0.000000 0.002398 0.000000
# 2 -0.005712 0.016818 -0.002135 0.000000 0.001087 0.000000
# 3 -0.002459 -0.002135 0.010284 0.000000 -0.000877 0.000000
# 4 0.000000 0.000000 0.000000 -0.044805 0.000000 0.005069
# 5 0.002398 0.001087 -0.000877 0.000000 0.024256 0.000000
# 6 0.000000 0.000000 0.000000 0.005069 0.000000 0.027380
#
#
# Mechanical properties :
#
#
# Convention : Reuss Voigt Hill
#
# Bulk Modulus (GPa) = 57.36029 62.07474 59.71751
# Shear Modulus (GPa) = 70.12525 24.97931 47.55228
#
# Velocity S-wave (km/s) = 5.75893 3.43712 4.74231
# Velocity P-wave (km/s) = 8.44680 6.71636 7.63079
#
# Compressibility (1/GPa) = 0.01743366
#
# Stress axis : x y z
#
# Youngs Moduli (GPa) = 91.37367 59.46081 97.23893
#
# Poissons Ratio (x) = 0.33964 0.23914
# Poissons Ratio (y) = 0.52192 0.20759
# Poissons Ratio (z) = 0.22471 0.12694
#
# Static dielectric constant tensor:
#      x y z
#    x 3.971830 0.000000 0.042930 
#    y 0.000000 3.648260 0.000000 
#    z 0.042930 0.000000 4.001570 
# 
# 
# High freq. dielectric constant tensor:
#      x y z
#    x 1.849230 0.000000 -0.001210 
#    y 0.000000 1.811280 0.000000 
#    z -0.001210 0.000000 1.836810 
# 
# From -- ./inp_files/20845.got.cif
#   From: 2010.06.25/outbox.cif.g09.slc.cpg/sg10_11_cif.got.tgz:20845.got - 2010.06.27 22:07:45.
