data_PCOD8066612
_publ_section_title
;
Structure prediction by ZEFSAII (Michael W. Deem and Ramdas Pophale) SiO2 
 PCOD8066612
Probable space group: P 2/M
;
_chemical_formula_sum "Si O2"
_cell_formula_units_Z 28
_cell_length_a 9.327188
_cell_length_b 10.954344
_cell_length_c 16.072668
_cell_angle_alpha 90.000000
_cell_angle_beta 117.567411
_cell_angle_gamma 90.000000
_cell_volume 1455.752783
_symmetry_space_group_name_H-M "P 2/M"
_symmetry_group_IT_number 10
_symmetry_cell_setting 'monoclinic'
loop_
_space_group_symop_operation_xyz
x,y,z
-x,y,-z
-x,-y,-z
x,-y,z
loop_
_atom_site_type_symbol
_atom_site_label
_atom_site_fract_x
_atom_site_fract_y
_atom_site_fract_z
Si Si1 0.160288 0.142001 0.596437
Si Si2 0.190534 0.856071 0.239397
Si Si3 0.676930 0.860710 0.046398
Si Si4 0.477214 0.856309 0.585785
Si Si5 0.120434 0.753390 0.763581
Si Si6 0.824504 0.724289 0.936128
Si Si7 0.735758 0.500000 0.140167
Si Si8 0.633459 0.500000 0.921660
O O1 0.313521 0.191852 0.585205
O O2 0.145922 0.227628 0.672896
O O3 0.000000 0.159815 0.500000
O O4 0.181558 0.000000 0.627996
O O5 0.369334 0.820854 0.317388
O O6 0.175462 0.817162 0.140165
O O7 0.064325 0.782985 0.262613
O O8 0.155898 0.000000 0.238337
O O9 0.759212 0.847046 0.158037
O O10 0.655478 0.000000 0.015601
O O11 0.500000 0.796477 0.000000
O O12 0.788822 0.799495 0.008997
O O13 0.500000 0.797992 0.500000
O O14 0.459507 0.000000 0.571321
O O15 0.162816 0.616441 0.802849
O O16 0.694204 0.617960 0.887314
O O17 0.000000 0.665425 0.000000
O O18 0.559143 0.500000 0.133554
O O19 0.713261 0.500000 0.034759
#
# Coordination Sequence:
#
# PCOD8066612 Si02
#       8
#     4   4   4   4   4   4   2   2
#     4  10  21  38  65  96 125 159 202 251 313 381
#     4  11  23  37  59  92 129 161 197 253 316 375
#     4  11  23  36  56  85 122 161 200 250 311 372
#     4   9  19  36  59  89 125 158 192 240 304 375
#     4  12  23  40  62  87 121 165 212 258 304 361
#     4  12  23  38  59  86 122 162 209 249 307 359
#     4  11  24  42  63  86 115 166 225 260 305 336
#     4  11  23  42  62  82 118 168 218 269 291 358
#
# _framework density 19.234034999999999
#
# number of rings (size 3 to 8) (size 9 to 14) (size 15 to 20)
#    0.000    1.143    2.857    3.643    4.000    3.429 
#    0.000    0.357    0.000    0.000    0.000    2.500 
#    0.000    0.000    0.000    0.000    0.000    0.000 
#
# Total GULP energy -347276.995642 kJ/mol
# GULP energy per Si atom -12402.749844 kJ/mol
# Density = 1.919026 g / cm^3
# Si number density = 19.234035 Si / 1000 Ang^3
#
#
#
# Elastic Constant Matrix: (Units=GPa)
#
#
# Indices 1 2 3 4 5 6 
#
# 1 162.8221 43.1296 56.1925 0.0000 10.1042 0.0000
# 2 43.1296 81.3200 23.3429 0.0000 2.5849 0.0000
# 3 56.1925 23.3429 95.0649 0.0000 -2.9450 0.0000
# 4 0.0000 0.0000 0.0000 -1.2913 0.0000 -2.4011
# 5 10.1042 2.5849 -2.9450 0.0000 37.0655 0.0000
# 6 0.0000 0.0000 0.0000 -2.4011 0.0000 26.7303
#
#
#
# Elastic Compliance Matrix: (Units=1/GPa)
#
#
# Indices 1 2 3 4 5 6 
#
# 1 0.008681 -0.003260 -0.004408 0.000000 -0.002489 0.000000
# 2 -0.003260 0.014506 -0.001643 0.000000 -0.000254 0.000000
# 3 -0.004408 -0.001643 0.013602 0.000000 0.002397 0.000000
# 4 0.000000 0.000000 0.000000 -0.663597 0.000000 -0.059608
# 5 -0.002489 -0.000254 0.002397 0.000000 0.027866 0.000000
# 6 0.000000 0.000000 0.000000 -0.059608 0.000000 0.032056
#
#
# Mechanical properties :
#
#
# Convention : Reuss Voigt Hill
#
# Bulk Modulus (GPa) = 55.04250 64.94856 59.99553
# Shear Modulus (GPa) = -9.22153 26.93703 8.85775
#
# Velocity S-wave (km/s) = -2.19198 3.74637 2.14831
# Velocity P-wave (km/s) = 4.71943 7.24945 6.11668
#
# Compressibility (1/GPa) = 0.01816778
#
# Stress axis : x y z
#
# Youngs Moduli (GPa) = 115.19625 68.93909 73.51692
#
# Poissons Ratio (x) = 0.22472 0.32406
# Poissons Ratio (y) = 0.37550 0.12078
# Poissons Ratio (z) = 0.50778 0.11326
#
# Static dielectric constant tensor:
#      x y z
#    x 3.873450 0.000000 0.062670 
#    y 0.000000 3.331340 0.000000 
#    z 0.062670 0.000000 3.476750 
# 
# 
# High freq. dielectric constant tensor:
#      x y z
#    x 1.772990 0.000000 0.004230 
#    y 0.000000 1.721620 0.000000 
#    z 0.004230 0.000000 1.743730 
# 
# From -- ./inp_files/60972.got.cif
#   From: 2010.06.25/outbox.cif.g09.slc.cpg/sg10_31_cif.got.tgz:60972.got - 2010.06.27 22:07:45.
