data_PCOD8066303
_publ_section_title
;
Structure prediction by ZEFSAII (Michael W. Deem and Ramdas Pophale) SiO2 
 PCOD8066303
Probable space group: P 2/M
;
_chemical_formula_sum "Si O2"
_cell_formula_units_Z 32
_cell_length_a 12.053063
_cell_length_b 9.140767
_cell_length_c 31.387032
_cell_angle_alpha 90.000000
_cell_angle_beta 151.721431
_cell_angle_gamma 90.000000
_cell_volume 1638.278165
_symmetry_space_group_name_H-M "P 2/M"
_symmetry_group_IT_number 10
_symmetry_cell_setting 'monoclinic'
loop_
_space_group_symop_operation_xyz
x,y,z
-x,y,-z
-x,-y,-z
x,-y,z
loop_
_atom_site_type_symbol
_atom_site_label
_atom_site_fract_x
_atom_site_fract_y
_atom_site_fract_z
Si Si1 0.468999 0.173494 0.251250
Si Si2 0.734249 0.171775 0.908511
Si Si3 0.124027 0.669207 0.813378
Si Si4 0.285077 0.170513 0.485378
Si Si5 0.942688 0.674120 0.842594
Si Si6 0.810740 0.169121 0.642859
Si Si7 0.948085 0.329745 0.433167
Si Si8 0.372156 0.330690 0.045390
O O1 0.382584 0.218620 0.175207
O O2 0.299464 0.246681 0.228545
O O3 0.726931 0.235007 0.344440
O O4 0.468958 0.000000 0.257888
O O5 0.591192 0.245271 0.898235
O O6 0.724240 0.000000 0.912134
O O7 0.000000 0.229888 0.000000
O O8 0.066253 0.500000 0.789733
O O9 0.402341 0.697572 0.907939
O O10 0.017129 0.729842 0.821088
O O11 0.012221 0.744234 0.734703
O O12 0.557531 0.213411 0.575514
O O13 0.168898 0.203805 0.400360
O O14 0.170728 0.273062 0.482168
O O15 0.252169 0.000000 0.486107
O O16 0.909566 0.500000 0.832893
O O17 0.143279 0.726326 0.943164
O O18 0.854838 0.000000 0.666013
O O19 0.903464 0.500000 0.408167
O O20 0.000000 0.303499 0.500000
O O21 0.345007 0.500000 0.047412
#
# Coordination Sequence:
#
# PCOD8066303 Si02
#       8
#     4   4   4   4   4   4   4   4
#     4  11  24  41  63  89 119 159 203 247 300 358
#     4  10  21  39  60  86 121 157 197 249 299 349
#     4  10  22  37  57  87 120 154 196 244 295 348
#     4   9  20  41  64  86 117 154 194 239 292 353
#     4  10  21  39  60  83 120 161 199 244 293 349
#     4   9  20  39  62  88 116 151 194 243 294 347
#     4  11  26  44  63  90 124 157 196 248 302 356
#     4  10  21  37  59  86 118 159 201 241 291 350
#
# _framework density 19.532703999999999
#
# number of rings (size 3 to 8) (size 9 to 14) (size 15 to 20)
#    0.000    2.000    1.250    1.875    3.500    5.750 
#    0.000    1.250    0.000    2.250    0.000    0.000 
#    0.000    0.000    0.000    0.000    0.000    0.000 
#
# Total GULP energy -396925.945694 kJ/mol
# GULP energy per Si atom -12403.935803 kJ/mol
# Density = 1.948825 g / cm^3
# Si number density = 19.532704 Si / 1000 Ang^3
#
#
#
# Elastic Constant Matrix: (Units=GPa)
#
#
# Indices 1 2 3 4 5 6 
#
# 1 108.2715 36.2383 12.6582 0.0000 -3.8079 0.0000
# 2 36.2383 47.6415 24.9467 0.0000 -3.5570 0.0000
# 3 12.6582 24.9467 73.2598 0.0000 -3.5098 0.0000
# 4 0.0000 0.0000 0.0000 28.2946 0.0000 1.4502
# 5 -3.8079 -3.5570 -3.5098 0.0000 26.0510 0.0000
# 6 0.0000 0.0000 0.0000 1.4502 0.0000 21.2067
#
#
#
# Elastic Compliance Matrix: (Units=1/GPa)
#
#
# Indices 1 2 3 4 5 6 
#
# 1 0.012503 -0.010160 0.001329 0.000000 0.000619 0.000000
# 2 -0.010160 0.033943 -0.009715 0.000000 0.001841 0.000000
# 3 0.001329 -0.009715 0.016783 0.000000 0.001129 0.000000
# 4 0.000000 0.000000 0.000000 0.035467 0.000000 -0.002425
# 5 0.000619 0.001841 0.001129 0.000000 0.038880 0.000000
# 6 0.000000 0.000000 0.000000 -0.002425 0.000000 0.047321
#
#
# Mechanical properties :
#
#
# Convention : Reuss Voigt Hill
#
# Bulk Modulus (GPa) = 38.25989 41.87325 40.06657
# Shear Modulus (GPa) = 21.67323 25.46575 23.56949
#
# Velocity S-wave (km/s) = 3.33466 3.61466 3.47748
# Velocity P-wave (km/s) = 5.86999 6.23740 6.05648
#
# Compressibility (1/GPa) = 0.02613703
#
# Stress axis : x y z
#
# Youngs Moduli (GPa) = 79.98079 29.46149 59.58576
#
# Poissons Ratio (x) = 0.29933 -0.07919
# Poissons Ratio (y) = 0.81261 0.57885
# Poissons Ratio (z) = -0.10630 0.28621
#
# Static dielectric constant tensor:
#      x y z
#    x 3.636340 0.000000 -0.028080 
#    y 0.000000 3.417770 0.000000 
#    z -0.028080 0.000000 3.552820 
# 
# 
# High freq. dielectric constant tensor:
#      x y z
#    x 1.772190 0.000000 0.000940 
#    y 0.000000 1.752650 0.000000 
#    z 0.000940 0.000000 1.765860 
# 
# From -- ./inp_files/95021.got.cif
#   From: 2010.06.25/outbox.cif.g09.slc.cpg/sg10_48_cif.got.tgz:95021.got - 2010.06.27 22:07:45.
