data_PCOD8066638
_publ_section_title
;
Structure prediction by ZEFSAII (Michael W. Deem and Ramdas Pophale) SiO2 
 PCOD8066638
Probable space group: P 2/M
;
_chemical_formula_sum "Si O2"
_cell_formula_units_Z 32
_cell_length_a 9.172264
_cell_length_b 14.033172
_cell_length_c 11.926004
_cell_angle_alpha 90.000000
_cell_angle_beta 93.848594
_cell_angle_gamma 90.000000
_cell_volume 1531.605306
_symmetry_space_group_name_H-M "P 2/M"
_symmetry_group_IT_number 10
_symmetry_cell_setting 'monoclinic'
loop_
_space_group_symop_operation_xyz
x,y,z
-x,y,-z
-x,-y,-z
x,-y,z
loop_
_atom_site_type_symbol
_atom_site_label
_atom_site_fract_x
_atom_site_fract_y
_atom_site_fract_z
Si Si1 0.262442 0.732955 0.251644
Si Si2 0.465581 0.610237 0.121372
Si Si3 0.745467 0.389210 0.287834
Si Si4 0.327745 0.723518 0.500476
Si Si5 0.144169 0.109314 0.580183
Si Si6 0.434893 0.106847 0.171812
Si Si7 0.934022 0.224826 0.209768
Si Si8 0.728633 0.891546 0.067225
O O1 0.320351 0.655999 0.165807
O O2 0.255609 0.692827 0.377906
O O3 0.376668 0.821502 0.263260
O O4 0.106114 0.768097 0.200577
O O5 0.430364 0.500000 0.106054
O O6 0.599232 0.631006 0.210749
O O7 0.500000 0.654228 0.000000
O O8 0.789247 0.500000 0.287243
O O9 0.722452 0.356961 0.414470
O O10 0.876169 0.329634 0.238778
O O11 0.500000 0.724541 0.500000
O O12 0.273479 0.827998 0.533987
O O13 0.105912 0.145186 0.701373
O O14 0.000000 0.121634 0.500000
O O15 0.197176 0.000000 0.588067
O O16 0.605282 0.125352 0.156542
O O17 0.409946 0.000000 0.213727
O O18 0.341121 0.127941 0.056338
O O19 0.859236 0.184006 0.092748
O O20 0.786701 0.000000 0.076786
#
# Coordination Sequence:
#
# PCOD8066638 Si02
#       8
#     4   4   4   4   4   4   4   4
#     4  12  24  38  62  94 128 161 204 257 317 367
#     4  10  23  44  68  93 120 159 209 261 318 379
#     4  10  23  43  68  92 121 163 206 254 319 383
#     4  11  23  41  62  92 125 157 211 265 303 368
#     4  10  21  39  60  84 126 171 204 249 309 369
#     4   9  21  38  60  89 123 164 214 256 298 359
#     4  11  23  38  60  93 130 161 206 253 315 381
#     4   9  19  39  62  86 120 168 212 252 301 361
#
# _framework density 20.893111999999999
#
# number of rings (size 3 to 8) (size 9 to 14) (size 15 to 20)
#    0.000    1.750    2.500    1.875    5.250    3.500 
#    0.000    1.875    0.000    2.250    0.000    0.000 
#    0.000    0.000    0.000    0.000    0.000    0.000 
#
# Total GULP energy -396890.935123 kJ/mol
# GULP energy per Si atom -12402.841723 kJ/mol
# Density = 2.084556 g / cm^3
# Si number density = 20.893112 Si / 1000 Ang^3
#
#
#
# Elastic Constant Matrix: (Units=GPa)
#
#
# Indices 1 2 3 4 5 6 
#
# 1 73.6118 23.3733 8.7658 0.0000 3.1632 0.0000
# 2 23.3733 104.0568 25.7476 0.0000 -1.5269 0.0000
# 3 8.7658 25.7476 85.9263 0.0000 0.3712 0.0000
# 4 0.0000 0.0000 0.0000 39.7061 0.0000 -1.4935
# 5 3.1632 -1.5269 0.3712 0.0000 30.4469 0.0000
# 6 0.0000 0.0000 0.0000 -1.4935 0.0000 28.7811
#
#
#
# Elastic Compliance Matrix: (Units=1/GPa)
#
#
# Indices 1 2 3 4 5 6 
#
# 1 0.014738 -0.003202 -0.000537 0.000000 -0.001685 0.000000
# 2 -0.003202 0.011085 -0.002999 0.000000 0.000925 0.000000
# 3 -0.000537 -0.002999 0.012592 0.000000 -0.000248 0.000000
# 4 0.000000 0.000000 0.000000 0.025234 0.000000 0.001309
# 5 -0.001685 0.000925 -0.000248 0.000000 0.033069 0.000000
# 6 0.000000 0.000000 0.000000 0.001309 0.000000 0.034813
#
#
# Mechanical properties :
#
#
# Convention : Reuss Voigt Hill
#
# Bulk Modulus (GPa) = 40.09715 42.15206 41.12460
# Shear Modulus (GPa) = 32.61150 33.50071 33.05610
#
# Velocity S-wave (km/s) = 3.95507 4.00863 3.98194
# Velocity P-wave (km/s) = 6.33167 6.45325 6.39275
#
# Compressibility (1/GPa) = 0.02493943
#
# Stress axis : x y z
#
# Youngs Moduli (GPa) = 67.85220 90.21134 79.41355
#
# Poissons Ratio (x) = 0.28889 0.04262
# Poissons Ratio (y) = 0.21729 0.23815
# Poissons Ratio (z) = 0.03641 0.27054
#
# Static dielectric constant tensor:
#      x y z
#    x 3.687890 0.000000 0.008340 
#    y 0.000000 3.780970 0.000000 
#    z 0.008340 0.000000 3.828340 
# 
# 
# High freq. dielectric constant tensor:
#      x y z
#    x 1.811780 0.000000 0.006840 
#    y 0.000000 1.818300 0.000000 
#    z 0.006840 0.000000 1.821800 
# 
# From -- ./inp_files/42991.got.cif
#   From: 2010.06.25/outbox.cif.g09.slc.cpg/sg10_22_cif.got.tgz:42991.got - 2010.06.27 22:07:45.
