data_PCOD8066944
_publ_section_title
;
Structure prediction by ZEFSAII (Michael W. Deem and Ramdas Pophale) SiO2 
 PCOD8066944
Probable space group: P 2/M
;
_chemical_formula_sum "Si O2"
_cell_formula_units_Z 32
_cell_length_a 31.776194
_cell_length_b 8.740771
_cell_length_c 12.221041
_cell_angle_alpha 90.000000
_cell_angle_beta 28.443236
_cell_angle_gamma 90.000000
_cell_volume 1616.699630
_symmetry_space_group_name_H-M "P 2/M"
_symmetry_group_IT_number 10
_symmetry_cell_setting 'monoclinic'
loop_
_space_group_symop_operation_xyz
x,y,z
-x,y,-z
-x,-y,-z
x,-y,z
loop_
_atom_site_type_symbol
_atom_site_label
_atom_site_fract_x
_atom_site_fract_y
_atom_site_fract_z
Si Si1 0.635562 0.181589 0.722969
Si Si2 0.763215 0.818851 0.919863
Si Si3 0.902464 0.321202 0.765918
Si Si4 0.825793 0.822270 0.359288
Si Si5 0.864126 0.320033 0.500482
Si Si6 0.951090 0.177589 0.870394
Si Si7 0.527950 0.182056 0.765016
Si Si8 0.569622 0.182231 0.429457
O O1 0.733109 0.244068 0.525981
O O2 0.602688 0.241840 0.679436
O O3 0.637657 0.000000 0.714172
O O4 0.568079 0.236653 0.972125
O O5 0.832766 0.760682 0.848541
O O6 0.784173 0.752828 0.752059
O O7 0.766675 0.000000 0.906360
O O8 0.666473 0.759962 0.174830
O O9 0.881998 0.500000 0.815185
O O10 0.891418 0.250572 0.911738
O O11 0.000000 0.284965 0.500000
O O12 0.854986 0.725096 0.395961
O O13 0.817556 0.000000 0.411350
O O14 0.901134 0.797517 0.097986
O O15 0.861395 0.500000 0.520790
O O16 0.955778 0.261894 0.340212
O O17 0.967246 0.000000 0.809089
O O18 0.545621 0.250217 0.604128
O O19 0.530793 0.000000 0.754251
O O20 0.500000 0.246076 0.500000
O O21 0.565931 0.000000 0.441296
#
# Coordination Sequence:
#
# PCOD8066944 Si02
#       8
#     4   4   4   4   4   4   4   4
#     4   8  15  28  50  80 112 147 181 232 292 344
#     4  11  23  38  62  91 120 156 202 254 302 348
#     4  11  23  40  62  88 122 163 202 242 295 360
#     4  10  22  37  59  89 117 147 195 250 298 345
#     4  12  25  41  59  81 117 161 201 239 293 363
#     4  11  23  39  62  90 120 152 195 249 299 346
#     4   8  14  27  48  77 116 150 181 224 290 352
#     4   9  19  32  52  87 124 152 187 243 304 356
#
# _framework density 19.793410999999999
#
# number of rings (size 3 to 8) (size 9 to 14) (size 15 to 20)
#    0.000    2.000    1.250    3.375    3.500    3.000 
#    0.000    0.000    0.000    1.500    0.000    1.750 
#    0.000    0.000    0.000    0.000    0.000    0.000 
#
# Total GULP energy -396849.184261 kJ/mol
# GULP energy per Si atom -12401.537008 kJ/mol
# Density = 1.974836 g / cm^3
# Si number density = 19.793411 Si / 1000 Ang^3
#
#
#
# Elastic Constant Matrix: (Units=GPa)
#
#
# Indices 1 2 3 4 5 6 
#
# 1 117.0914 36.6982 48.5762 0.0000 12.8080 0.0000
# 2 36.6982 71.0490 39.5463 0.0000 3.0707 0.0000
# 3 48.5762 39.5463 114.2693 0.0000 6.7138 0.0000
# 4 0.0000 0.0000 0.0000 4.5258 0.0000 8.8317
# 5 12.8080 3.0707 6.7138 0.0000 36.0970 0.0000
# 6 0.0000 0.0000 0.0000 8.8317 0.0000 1.2923
#
#
#
# Elastic Compliance Matrix: (Units=1/GPa)
#
#
# Indices 1 2 3 4 5 6 
#
# 1 0.011506 -0.003948 -0.003341 0.000000 -0.003125 0.000000
# 2 -0.003948 0.018792 -0.004867 0.000000 0.000707 0.000000
# 3 -0.003341 -0.004867 0.011892 0.000000 -0.000612 0.000000
# 4 0.000000 0.000000 0.000000 -0.017912 0.000000 0.122407
# 5 -0.003125 0.000707 -0.000612 0.000000 0.028866 0.000000
# 6 0.000000 0.000000 0.000000 0.122407 0.000000 -0.062727
#
#
# Mechanical properties :
#
#
# Convention : Reuss Voigt Hill
#
# Bulk Modulus (GPa) = 55.93557 61.33903 58.63730
# Shear Modulus (GPa) = 241.68573 20.22231 130.95402
#
# Velocity S-wave (km/s) = 11.06206 3.19982 8.14273
# Velocity P-wave (km/s) = 13.83763 6.68646 10.86712
#
# Compressibility (1/GPa) = 0.01787771
#
# Stress axis : x y z
#
# Youngs Moduli (GPa) = 86.91371 53.21284 84.09108
#
# Poissons Ratio (x) = 0.21009 0.28096
# Poissons Ratio (y) = 0.34315 0.40926
# Poissons Ratio (z) = 0.29039 0.25898
#
# Static dielectric constant tensor:
#      x y z
#    x 3.893490 0.000000 0.011250 
#    y 0.000000 3.214330 0.000000 
#    z 0.011250 0.000000 3.882140 
# 
# 
# High freq. dielectric constant tensor:
#      x y z
#    x 1.787070 0.000000 0.004240 
#    y 0.000000 1.732220 0.000000 
#    z 0.004240 0.000000 1.780300 
# 
# From -- ./inp_files/58183.got.cif
#   From: 2010.06.25/outbox.cif.g09.slc.cpg/sg10_30_cif.got.tgz:58183.got - 2010.06.27 22:07:45.
