data_PCOD8066668
_publ_section_title
;
Structure prediction by ZEFSAII (Michael W. Deem and Ramdas Pophale) SiO2 
 PCOD8066668
Probable space group: P 2/M
;
_chemical_formula_sum "Si O2"
_cell_formula_units_Z 28
_cell_length_a 20.863672
_cell_length_b 8.846186
_cell_length_c 14.357616
_cell_angle_alpha 90.000000
_cell_angle_beta 150.547560
_cell_angle_gamma 90.000000
_cell_volume 1302.957271
_symmetry_space_group_name_H-M "P 2/M"
_symmetry_group_IT_number 10
_symmetry_cell_setting 'monoclinic'
loop_
_space_group_symop_operation_xyz
x,y,z
-x,y,-z
-x,-y,-z
x,-y,z
loop_
_atom_site_type_symbol
_atom_site_label
_atom_site_fract_x
_atom_site_fract_y
_atom_site_fract_z
Si Si1 0.258539 0.172795 0.912370
Si Si2 0.083222 0.326969 0.822959
Si Si3 0.636250 0.668645 0.221143
Si Si4 0.130313 0.828937 0.562006
Si Si5 0.891455 0.324001 0.934867
Si Si6 0.516746 0.328475 0.261233
Si Si7 0.606534 0.822240 0.559262
O O1 0.203393 0.222024 0.943173
O O2 0.142422 0.195377 0.689177
O O3 0.304540 0.000000 0.974547
O O4 0.380634 0.277676 0.042162
O O5 0.124114 0.500000 0.860076
O O6 0.960682 0.291823 0.602959
O O7 0.050011 0.294464 0.888416
O O8 0.689672 0.500000 0.264414
O O9 0.727193 0.802213 0.299889
O O10 0.625723 0.683225 0.319506
O O11 0.500000 0.694613 0.000000
O O12 0.083749 0.000000 0.481382
O O13 0.870221 0.500000 0.886610
O O14 0.749627 0.249144 0.750254
O O15 0.000000 0.257805 0.000000
O O16 0.505170 0.500000 0.283525
O O17 0.551287 0.217241 0.388379
O O18 0.500000 0.762214 0.500000
O O19 0.623211 0.000000 0.590647
#
# Coordination Sequence:
#
# PCOD8066668 Si02
#       7
#     4   4   4   4   4   4   4
#     4  11  23  40  61  91 130 166 204 253 309 370
#     4  11  24  41  65  91 121 163 210 258 309 368
#     4  10  21  39  61  88 123 162 206 254 303 366
#     4  11  24  39  60  90 127 166 204 251 308 370
#     4  10  24  46  68  93 126 165 214 270 324 381
#     4  11  23  39  65  94 124 164 208 256 310 368
#     4  11  25  44  67  97 131 167 211 267 325 385
#
# _framework density 21.489578000000002
#
# number of rings (size 3 to 8) (size 9 to 14) (size 15 to 20)
#    0.000    1.286    1.429    3.429    2.000    9.714 
#    0.000    0.000    0.000    0.000    0.000    0.000 
#    0.000    0.000    0.000    0.000    0.000    0.000 
#
# Total GULP energy -347231.754059 kJ/mol
# GULP energy per Si atom -12401.134074 kJ/mol
# Density = 2.144067 g / cm^3
# Si number density = 21.489578 Si / 1000 Ang^3
#
#
#
# Elastic Constant Matrix: (Units=GPa)
#
#
# Indices 1 2 3 4 5 6 
#
# 1 121.9599 40.1854 27.1709 0.0000 -1.4310 0.0000
# 2 40.1854 59.1845 27.1424 0.0000 -0.1690 0.0000
# 3 27.1709 27.1424 74.1324 0.0000 -2.7416 0.0000
# 4 0.0000 0.0000 0.0000 36.7202 0.0000 2.2259
# 5 -1.4310 -0.1690 -2.7416 0.0000 31.8597 0.0000
# 6 0.0000 0.0000 0.0000 2.2259 0.0000 27.4256
#
#
#
# Elastic Compliance Matrix: (Units=1/GPa)
#
#
# Indices 1 2 3 4 5 6 
#
# 1 0.010706 -0.006579 -0.001503 0.000000 0.000317 0.000000
# 2 -0.006579 0.024357 -0.006534 0.000000 -0.000729 0.000000
# 3 -0.001503 -0.006534 0.016481 0.000000 0.001316 0.000000
# 4 0.000000 0.000000 0.000000 0.027368 0.000000 -0.002221
# 5 0.000317 -0.000729 0.001316 0.000000 0.031511 0.000000
# 6 0.000000 0.000000 0.000000 -0.002221 0.000000 0.036643
#
#
# Mechanical properties :
#
#
# Convention : Reuss Voigt Hill
#
# Bulk Modulus (GPa) = 44.81760 49.36380 47.09070
# Shear Modulus (GPa) = 27.21306 29.91966 28.56636
#
# Velocity S-wave (km/s) = 3.56242 3.73538 3.64993
# Velocity P-wave (km/s) = 6.14995 6.45175 6.30266
#
# Compressibility (1/GPa) = 0.02231266
#
# Stress axis : x y z
#
# Youngs Moduli (GPa) = 93.40806 41.05518 60.67463
#
# Poissons Ratio (x) = 0.27009 0.09122
# Poissons Ratio (y) = 0.61450 0.39644
# Poissons Ratio (z) = 0.14044 0.26825
#
# Static dielectric constant tensor:
#      x y z
#    x 4.151990 0.000000 0.021290 
#    y 0.000000 3.783670 0.000000 
#    z 0.021290 0.000000 3.837990 
# 
# 
# High freq. dielectric constant tensor:
#      x y z
#    x 1.856410 0.000000 -0.000320 
#    y 0.000000 1.840680 0.000000 
#    z -0.000320 0.000000 1.842940 
# 
# From -- ./inp_files/49603.got.cif
#   From: 2010.06.25/outbox.cif.g09.slc.cpg/sg10_25_cif.got.tgz:49603.got - 2010.06.27 22:07:45.
