data_PCOD8066133
_publ_section_title
;
Structure prediction by ZEFSAII (Michael W. Deem and Ramdas Pophale) SiO2 
 PCOD8066133
Probable space group: P 2/M
;
_chemical_formula_sum "Si O2"
_cell_formula_units_Z 28
_cell_length_a 8.825824
_cell_length_b 16.635788
_cell_length_c 20.573092
_cell_angle_alpha 90.000000
_cell_angle_beta 28.499379
_cell_angle_gamma 90.000000
_cell_volume 1441.293540
_symmetry_space_group_name_H-M "P 2/M"
_symmetry_group_IT_number 10
_symmetry_cell_setting 'monoclinic'
loop_
_space_group_symop_operation_xyz
x,y,z
-x,y,-z
-x,-y,-z
x,-y,z
loop_
_atom_site_type_symbol
_atom_site_label
_atom_site_fract_x
_atom_site_fract_y
_atom_site_fract_z
Si Si1 0.008895 0.500000 0.828142
Si Si2 0.469626 0.089849 0.086895
Si Si3 0.306271 0.343054 0.264228
Si Si4 0.711295 0.665961 0.242043
Si Si5 0.784184 0.761161 0.019414
Si Si6 0.842731 0.088112 0.402369
Si Si7 0.674712 0.745455 0.503326
Si Si8 0.405485 0.500000 0.143923
O O1 0.844318 0.500000 0.820251
O O2 0.230277 0.578415 0.749301
O O3 0.760632 0.500000 0.981314
O O4 0.729789 0.147222 0.020668
O O5 0.109902 0.105059 0.246901
O O6 0.578496 0.000000 0.062992
O O7 0.500000 0.107464 0.000000
O O8 0.478118 0.343484 0.268939
O O9 0.443079 0.275564 0.164607
O O10 0.355480 0.426581 0.210540
O O11 0.936493 0.324131 0.411504
O O12 0.570748 0.728098 0.347004
O O13 0.049603 0.705948 0.097457
O O14 0.000000 0.760441 0.000000
O O15 0.500000 0.082431 0.500000
O O16 0.832037 0.165241 0.454852
O O17 0.911326 0.000000 0.410281
O O18 0.500000 0.740830 0.500000
#
# Coordination Sequence:
#
# PCOD8066133 Si02
#       8
#     2   4   4   4   4   4   4   2
#     4  11  23  40  61  96 123 152 198 252 301 360
#     4  10  21  36  60  91 121 155 202 254 300 354
#     4  11  22  42  62  88 120 161 202 244 297 365
#     4  11  24  40  63  87 124 161 201 244 299 363
#     4  10  22  38  59  87 120 161 201 243 294 360
#     4   9  19  36  58  85 121 158 195 245 304 354
#     4  11  23  39  61  92 120 159 201 253 301 350
#     4  11  23  38  65  92 123 156 196 250 305 352
#
# _framework density 19.426994000000001
#
# number of rings (size 3 to 8) (size 9 to 14) (size 15 to 20)
#    0.000    1.571    2.857    1.714    4.000    2.571 
#    0.000    2.857    0.000    2.571    0.000    0.000 
#    0.000    0.000    0.000    0.000    0.000    0.000 
#
# Total GULP energy -347103.265653 kJ/mol
# GULP energy per Si atom -12396.545202 kJ/mol
# Density = 1.938278 g / cm^3
# Si number density = 19.426994 Si / 1000 Ang^3
#
#
#
# Elastic Constant Matrix: (Units=GPa)
#
#
# Indices 1 2 3 4 5 6 
#
# 1 59.5126 32.8378 35.5253 0.0000 13.1194 0.0000
# 2 32.8378 127.5771 47.1192 0.0000 18.7615 0.0000
# 3 35.5253 47.1192 79.7540 0.0000 7.6718 0.0000
# 4 0.0000 0.0000 0.0000 37.2705 0.0000 -0.6020
# 5 13.1194 18.7615 7.6718 0.0000 28.3914 0.0000
# 6 0.0000 0.0000 0.0000 -0.6020 0.0000 30.6055
#
#
#
# Elastic Compliance Matrix: (Units=1/GPa)
#
#
# Indices 1 2 3 4 5 6 
#
# 1 0.025141 -0.001865 -0.009340 0.000000 -0.007861 0.000000
# 2 -0.001865 0.010959 -0.005164 0.000000 -0.004984 0.000000
# 3 -0.009340 -0.005164 0.019514 0.000000 0.002456 0.000000
# 4 0.000000 0.000000 0.000000 0.026839 0.000000 0.000528
# 5 -0.007861 -0.004984 0.002456 0.000000 0.041484 0.000000
# 6 0.000000 0.000000 0.000000 0.000528 0.000000 0.032684
#
#
# Mechanical properties :
#
#
# Convention : Reuss Voigt Hill
#
# Bulk Modulus (GPa) = 43.71826 55.31203 49.51514
# Shear Modulus (GPa) = 25.38241 29.34423 27.36332
#
# Velocity S-wave (km/s) = 3.61855 3.89072 3.75710
# Velocity P-wave (km/s) = 6.32545 6.97976 6.66064
#
# Compressibility (1/GPa) = 0.02287374
#
# Stress axis : x y z
#
# Youngs Moduli (GPa) = 39.77560 91.25017 51.24532
#
# Poissons Ratio (x) = 0.17022 0.47866
# Poissons Ratio (y) = 0.07420 0.26464
# Poissons Ratio (z) = 0.37152 0.47124
#
# Static dielectric constant tensor:
#      x y z
#    x 3.291530 0.000000 0.035140 
#    y 0.000000 4.004480 0.000000 
#    z 0.035140 0.000000 3.790810 
# 
# 
# High freq. dielectric constant tensor:
#      x y z
#    x 1.733500 0.000000 -0.001870 
#    y 0.000000 1.776600 0.000000 
#    z -0.001870 0.000000 1.768150 
# 
# From -- ./inp_files/35336.got.cif
#   From: 2010.06.25/outbox.cif.g09.slc.cpg/sg10_18_cif.got.tgz:35336.got - 2010.06.27 22:07:45.
