data_PCOD8066463
_publ_section_title
;
Structure prediction by ZEFSAII (Michael W. Deem and Ramdas Pophale) SiO2 
 PCOD8066463
Probable space group: P 2/M
;
_chemical_formula_sum "Si O2"
_cell_formula_units_Z 32
_cell_length_a 13.445411
_cell_length_b 8.969983
_cell_length_c 15.129245
_cell_angle_alpha 90.000000
_cell_angle_beta 121.043021
_cell_angle_gamma 90.000000
_cell_volume 1563.336436
_symmetry_space_group_name_H-M "P 2/M"
_symmetry_group_IT_number 10
_symmetry_cell_setting 'monoclinic'
loop_
_space_group_symop_operation_xyz
x,y,z
-x,y,-z
-x,-y,-z
x,-y,z
loop_
_atom_site_type_symbol
_atom_site_label
_atom_site_fract_x
_atom_site_fract_y
_atom_site_fract_z
Si Si1 0.382185 0.327513 0.993680
Si Si2 0.414507 0.174382 0.187862
Si Si3 0.667786 0.826683 0.361601
Si Si4 0.867007 0.326867 0.187457
Si Si5 0.015013 0.174534 0.108619
Si Si6 0.096264 0.176538 0.615332
Si Si7 0.382428 0.667062 0.484216
Si Si8 0.749177 0.668254 0.752017
O O1 0.391140 0.500000 0.026393
O O2 0.272251 0.300767 0.879022
O O3 0.500000 0.274924 0.000000
O O4 0.363566 0.227248 0.071480
O O5 0.551673 0.209753 0.253611
O O6 0.356061 0.266381 0.239351
O O7 0.387755 0.000000 0.188189
O O8 0.778394 0.764424 0.359373
O O9 0.667394 0.757792 0.457768
O O10 0.684077 0.000000 0.384165
O O11 0.898328 0.500000 0.205651
O O12 0.925684 0.249988 0.299360
O O13 0.919656 0.260501 0.121993
O O14 0.142742 0.223077 0.193736
O O15 0.999114 0.000000 0.117923
O O16 0.000000 0.218075 0.000000
O O17 0.000000 0.228641 0.500000
O O18 0.092162 0.000000 0.626289
O O19 0.500000 0.742197 0.500000
O O20 0.412627 0.500000 0.530643
O O21 0.284359 0.665603 0.365408
O O22 0.778085 0.500000 0.797765
#
# Coordination Sequence:
#
# PCOD8066463 Si02
#       8
#     4   4   4   4   4   4   4   4
#     4  10  22  40  63  90 121 158 201 249 307 365
#     4  11  22  36  58  90 123 158 200 249 305 367
#     4  10  22  38  59  88 123 162 206 255 308 363
#     4  11  24  42  65  94 126 163 208 259 311 367
#     4  11  25  44  66  92 125 166 208 254 311 372
#     4  10  23  43  64  89 122 165 213 259 310 366
#     4  10  21  38  59  88 123 161 201 247 307 369
#     4  11  23  39  61  89 121 158 202 250 305 367
#
# _framework density 20.469042000000002
#
# number of rings (size 3 to 8) (size 9 to 14) (size 15 to 20)
#    0.000    1.500    1.250    3.000    1.750    6.750 
#    0.000    0.000    0.000    0.000    0.000    0.000 
#    0.000    0.000    0.000    0.000    0.000    0.000 
#
# Total GULP energy -396952.198781 kJ/mol
# GULP energy per Si atom -12404.756212 kJ/mol
# Density = 2.042245 g / cm^3
# Si number density = 20.469042 Si / 1000 Ang^3
#
#
#
# Elastic Constant Matrix: (Units=GPa)
#
#
# Indices 1 2 3 4 5 6 
#
# 1 103.6249 34.2278 36.6321 0.0000 -0.7952 0.0000
# 2 34.2278 54.6875 45.7892 0.0000 -4.3737 0.0000
# 3 36.6321 45.7892 117.6248 0.0000 -4.1907 0.0000
# 4 0.0000 0.0000 0.0000 72.2055 0.0000 -31.5797
# 5 -0.7952 -4.3737 -4.1907 0.0000 34.8779 0.0000
# 6 0.0000 0.0000 0.0000 -31.5797 0.0000 51.4015
#
#
#
# Elastic Compliance Matrix: (Units=1/GPa)
#
#
# Indices 1 2 3 4 5 6 
#
# 1 0.012302 -0.006717 -0.001242 0.000000 -0.000711 0.000000
# 2 -0.006717 0.030955 -0.009868 0.000000 0.002543 0.000000
# 3 -0.001242 -0.009868 0.012739 0.000000 0.000265 0.000000
# 4 0.000000 0.000000 0.000000 0.018938 0.000000 0.011635
# 5 -0.000711 0.002543 0.000265 0.000000 0.029006 0.000000
# 6 0.000000 0.000000 0.000000 0.011635 0.000000 0.026603
#
#
# Mechanical properties :
#
#
# Convention : Reuss Voigt Hill
#
# Bulk Modulus (GPa) = 49.15560 56.58173 52.86866
# Shear Modulus (GPa) = 28.90537 42.31618 35.61078
#
# Velocity S-wave (km/s) = 3.76194 4.55172 4.17554
# Velocity P-wave (km/s) = 6.55258 7.43820 7.00939
#
# Compressibility (1/GPa) = 0.02034356
#
# Stress axis : x y z
#
# Youngs Moduli (GPa) = 81.28519 32.30468 78.49772
#
# Poissons Ratio (x) = 0.21698 0.09749
# Poissons Ratio (y) = 0.54598 0.77461
# Poissons Ratio (z) = 0.10095 0.31878
#
# Static dielectric constant tensor:
#      x y z
#    x 3.637830 0.000000 0.258130 
#    y 0.000000 3.684510 0.000000 
#    z 0.258130 0.000000 3.492910 
# 
# 
# High freq. dielectric constant tensor:
#      x y z
#    x 1.807690 0.000000 0.002730 
#    y 0.000000 1.799160 0.000000 
#    z 0.002730 0.000000 1.807310 
# 
# From -- ./inp_files/63865.got.cif
#   From: 2010.06.25/outbox.cif.g09.slc.cpg/sg10_32_cif.got.tgz:63865.got - 2010.06.27 22:07:45.
