data_PCOD8066283
_publ_section_title
;
Structure prediction by ZEFSAII (Michael W. Deem and Ramdas Pophale) SiO2 
 PCOD8066283
Probable space group: P 2/M
;
_chemical_formula_sum "Si O2"
_cell_formula_units_Z 32
_cell_length_a 19.200252
_cell_length_b 19.523735
_cell_length_c 11.491836
_cell_angle_alpha 90.000000
_cell_angle_beta 157.639763
_cell_angle_gamma 90.000000
_cell_volume 1638.824596
_symmetry_space_group_name_H-M "P 2/M"
_symmetry_group_IT_number 10
_symmetry_cell_setting 'monoclinic'
loop_
_space_group_symop_operation_xyz
x,y,z
-x,y,-z
-x,-y,-z
x,-y,z
loop_
_atom_site_type_symbol
_atom_site_label
_atom_site_fract_x
_atom_site_fract_y
_atom_site_fract_z
Si Si1 0.796183 0.289848 0.673789
Si Si2 0.035995 0.076582 0.690353
Si Si3 0.305711 0.196344 0.152764
Si Si4 0.368182 0.075629 0.903209
Si Si5 0.571959 0.215900 0.904151
Si Si6 0.708605 0.338341 0.777783
Si Si7 0.696215 0.329434 0.272146
Si Si8 0.010618 0.577616 0.379031
O O1 0.643637 0.230763 0.437347
O O2 0.738713 0.346780 0.684109
O O3 0.805828 0.323168 0.561184
O O4 0.000000 0.259025 0.000000
O O5 0.000000 0.093690 0.500000
O O6 0.844119 0.081276 0.463401
O O7 0.119908 0.000000 0.832618
O O8 0.170463 0.132413 0.951944
O O9 0.500000 0.169648 0.500000
O O10 0.325277 0.232597 0.056801
O O11 0.228118 0.259025 0.109229
O O12 0.403020 0.000000 0.011998
O O13 0.500000 0.088898 0.000000
O O14 0.411482 0.133978 0.062659
O O15 0.667506 0.257365 0.157559
O O16 0.500000 0.349277 0.500000
O O17 0.834675 0.389149 0.045641
O O18 0.802579 0.383019 0.358276
O O19 0.500000 0.361246 0.000000
O O20 0.023177 0.500000 0.352921
O O21 0.000000 0.580295 0.500000
#
# Coordination Sequence:
#
# PCOD8066283 Si02
#       8
#     4   4   4   4   4   4   4   4
#     4  11  21  40  62  94 124 157 206 263 307 358
#     4  10  21  37  59  84 114 159 211 253 302 369
#     4  11  22  37  60  91 122 158 205 255 315 360
#     4  10  21  37  58  86 122 158 204 259 311 370
#     4  11  21  39  61  94 120 162 209 257 310 366
#     4  11  23  41  64  88 128 164 205 254 306 371
#     4  10  23  40  67  94 122 161 211 257 308 363
#     4  11  25  43  65  95 129 167 206 249 308 369
#
# _framework density 19.526188999999999
#
# number of rings (size 3 to 8) (size 9 to 14) (size 15 to 20)
#    0.000    1.375    5.000    1.875    3.500    2.250 
#    0.000    1.250    0.000    0.375    0.000    0.000 
#    0.000    0.000    0.000    0.000    0.000    0.000 
#
# Total GULP energy -396619.520379 kJ/mol
# GULP energy per Si atom -12394.360012 kJ/mol
# Density = 1.948175 g / cm^3
# Si number density = 19.526189 Si / 1000 Ang^3
#
#
#
# Elastic Constant Matrix: (Units=GPa)
#
#
# Indices 1 2 3 4 5 6 
#
# 1 93.8934 25.1696 36.3678 0.0000 1.8079 0.0000
# 2 25.1696 116.0526 58.2300 0.0000 2.1090 0.0000
# 3 36.3678 58.2300 106.9460 0.0000 0.5353 0.0000
# 4 0.0000 0.0000 0.0000 7.3261 0.0000 -4.3171
# 5 1.8079 2.1090 0.5353 0.0000 34.9172 0.0000
# 6 0.0000 0.0000 0.0000 -4.3171 0.0000 18.9524
#
#
#
# Elastic Compliance Matrix: (Units=1/GPa)
#
#
# Indices 1 2 3 4 5 6 
#
# 1 0.012328 -0.000773 -0.003768 0.000000 -0.000534 0.000000
# 2 -0.000773 0.011918 -0.006223 0.000000 -0.000584 0.000000
# 3 -0.003768 -0.006223 0.014019 0.000000 0.000356 0.000000
# 4 0.000000 0.000000 0.000000 0.157661 0.000000 0.035913
# 5 -0.000534 -0.000584 0.000356 0.000000 0.028697 0.000000
# 6 0.000000 0.000000 0.000000 0.035913 0.000000 0.060944
#
#
# Mechanical properties :
#
#
# Convention : Reuss Voigt Hill
#
# Bulk Modulus (GPa) = 59.75700 61.82519 60.79110
# Shear Modulus (GPa) = 15.99114 25.38077 20.68595
#
# Velocity S-wave (km/s) = 2.86485 3.60923 3.25837
# Velocity P-wave (km/s) = 6.45082 7.00715 6.73473
#
# Compressibility (1/GPa) = 0.01673444
#
# Stress axis : x y z
#
# Youngs Moduli (GPa) = 81.11921 83.91019 71.33396
#
# Poissons Ratio (x) = 0.06487 0.26882
# Poissons Ratio (y) = 0.06271 0.44391
# Poissons Ratio (z) = 0.30570 0.52218
#
# Static dielectric constant tensor:
#      x y z
#    x 3.941540 0.000000 0.001910 
#    y 0.000000 3.474220 0.000000 
#    z 0.001910 0.000000 3.622800 
# 
# 
# High freq. dielectric constant tensor:
#      x y z
#    x 1.777460 0.000000 0.011810 
#    y 0.000000 1.739970 0.000000 
#    z 0.011810 0.000000 1.759600 
# 
# From -- ./inp_files/56144.got.cif
#   From: 2010.06.25/outbox.cif.g09.slc.cpg/sg10_29_cif.got.tgz:56144.got - 2010.06.27 22:07:45.
