data_PCOD8066962
_publ_section_title
;
Structure prediction by ZEFSAII (Michael W. Deem and Ramdas Pophale) SiO2 
 PCOD8066962
Probable space group: P 2/M
;
_chemical_formula_sum "Si O2"
_cell_formula_units_Z 32
_cell_length_a 22.938057
_cell_length_b 13.207871
_cell_length_c 8.409275
_cell_angle_alpha 90.000000
_cell_angle_beta 144.688619
_cell_angle_gamma 90.000000
_cell_volume 1472.619890
_symmetry_space_group_name_H-M "P 2/M"
_symmetry_group_IT_number 10
_symmetry_cell_setting 'monoclinic'
loop_
_space_group_symop_operation_xyz
x,y,z
-x,y,-z
-x,-y,-z
x,-y,z
loop_
_atom_site_type_symbol
_atom_site_label
_atom_site_fract_x
_atom_site_fract_y
_atom_site_fract_z
Si Si1 0.035139 0.616508 0.905777
Si Si2 0.181447 0.614937 0.687118
Si Si3 0.786703 0.299967 0.906077
Si Si4 0.532826 0.883212 0.750154
Si Si5 0.884298 0.884278 0.287809
Si Si6 0.410847 0.264621 0.704688
Si Si7 0.282152 0.789455 0.711397
Si Si8 0.910188 0.116447 0.697854
O O1 0.067268 0.500000 0.991489
O O2 0.938725 0.634219 0.579706
O O3 0.132181 0.673866 0.050510
O O4 0.000000 0.658233 0.000000
O O5 0.205705 0.500000 0.688494
O O6 0.243145 0.683695 0.698898
O O7 0.210664 0.628279 0.935455
O O8 0.672398 0.321234 0.588568
O O9 0.811619 0.184229 0.016228
O O10 0.500000 0.860061 0.500000
O O11 0.464493 0.820459 0.719236
O O12 0.522370 0.000000 0.773766
O O13 0.649930 0.848644 0.009285
O O14 0.886747 0.836019 0.471095
O O15 0.000000 0.881183 0.500000
O O16 0.843011 0.000000 0.189380
O O17 0.346693 0.215409 0.698780
O O18 0.500000 0.328070 0.000000
O O19 0.192903 0.860207 0.442253
O O20 0.937413 0.000000 0.733210
O O21 0.000000 0.167621 0.000000
#
# Coordination Sequence:
#
# PCOD8066962 Si02
#       8
#     4   4   4   4   4   4   4   4
#     4  10  22  40  64  97 133 168 211 262 318 383
#     4  11  23  40  65  99 133 167 211 262 319 388
#     4  12  22  40  66  92 125 173 214 265 321 386
#     4  10  22  42  68  95 125 161 209 271 328 378
#     4  10  22  38  55  87 130 171 212 255 306 377
#     4  10  25  42  63  91 124 161 209 266 321 380
#     4  11  22  40  63  92 126 166 213 259 317 389
#     4  10  22  38  58  88 129 171 212 255 302 375
#
# _framework density 21.729980999999999
#
# number of rings (size 3 to 8) (size 9 to 14) (size 15 to 20)
#    0.000    1.500    1.250    3.375    1.750    4.750 
#    0.000    0.625    0.000   17.625    0.000    0.000 
#    0.000    0.000    0.000    0.000    0.000    0.000 
#
# Total GULP energy -396439.406164 kJ/mol
# GULP energy per Si atom -12388.731443 kJ/mol
# Density = 2.168052 g / cm^3
# Si number density = 21.729981 Si / 1000 Ang^3
#
#
#
# Elastic Constant Matrix: (Units=GPa)
#
#
# Indices 1 2 3 4 5 6 
#
# 1 111.7777 39.4347 51.7462 0.0000 5.8723 0.0000
# 2 39.4347 72.7741 37.8853 0.0000 -2.6251 0.0000
# 3 51.7462 37.8853 196.0564 0.0000 2.5150 0.0000
# 4 0.0000 0.0000 0.0000 24.7663 0.0000 -0.3053
# 5 5.8723 -2.6251 2.5150 0.0000 32.4884 0.0000
# 6 0.0000 0.0000 0.0000 -0.3053 0.0000 8.8027
#
#
#
# Elastic Compliance Matrix: (Units=1/GPa)
#
#
# Indices 1 2 3 4 5 6 
#
# 1 0.011972 -0.005500 -0.002065 0.000000 -0.002448 0.000000
# 2 -0.005500 0.017875 -0.002036 0.000000 0.002596 0.000000
# 3 -0.002065 -0.002036 0.006042 0.000000 -0.000259 0.000000
# 4 0.000000 0.000000 0.000000 0.040395 0.000000 0.001401
# 5 -0.002448 0.002596 -0.000259 0.000000 0.031453 0.000000
# 6 0.000000 0.000000 0.000000 0.001401 0.000000 0.113651
#
#
# Mechanical properties :
#
#
# Convention : Reuss Voigt Hill
#
# Bulk Modulus (GPa) = 59.92962 70.97118 65.45040
# Shear Modulus (GPa) = 20.31266 29.98093 25.14680
#
# Velocity S-wave (km/s) = 3.06073 3.71847 3.40551
# Velocity P-wave (km/s) = 6.33481 7.15314 6.75638
#
# Compressibility (1/GPa) = 0.01668624
#
# Stress axis : x y z
#
# Youngs Moduli (GPa) = 83.53106 55.94405 165.49658
#
# Poissons Ratio (x) = 0.30770 0.34183
# Poissons Ratio (y) = 0.45944 0.33690
# Poissons Ratio (z) = 0.17253 0.11389
#
# Static dielectric constant tensor:
#      x y z
#    x 4.701400 0.000000 1.216310 
#    y 0.000000 3.831860 0.000000 
#    z 1.216310 0.000000 6.948000 
# 
# 
# High freq. dielectric constant tensor:
#      x y z
#    x 1.862340 0.000000 -0.006920 
#    y 0.000000 1.838400 0.000000 
#    z -0.006920 0.000000 1.868560 
# 
# From -- ./inp_files/36384.got.cif
#   From: 2010.06.25/outbox.cif.g09.slc.cpg/sg10_19_cif.got.tgz:36384.got - 2010.06.27 22:07:45.
