data_PCOD8066135
_publ_section_title
;
Structure prediction by ZEFSAII (Michael W. Deem and Ramdas Pophale) SiO2 
 PCOD8066135
Probable space group: P 2/M
;
_chemical_formula_sum "Si O2"
_cell_formula_units_Z 32
_cell_length_a 10.724901
_cell_length_b 12.406169
_cell_length_c 12.291901
_cell_angle_alpha 90.000000
_cell_angle_beta 107.252899
_cell_angle_gamma 90.000000
_cell_volume 1561.908744
_symmetry_space_group_name_H-M "P 2/M"
_symmetry_group_IT_number 10
_symmetry_cell_setting 'monoclinic'
loop_
_space_group_symop_operation_xyz
x,y,z
-x,y,-z
-x,-y,-z
x,-y,z
loop_
_atom_site_type_symbol
_atom_site_label
_atom_site_fract_x
_atom_site_fract_y
_atom_site_fract_z
Si Si1 0.855714 0.728206 0.002773
Si Si2 0.042370 0.372599 0.758823
Si Si3 0.345325 0.875643 0.936843
Si Si4 0.340715 0.374214 0.204941
Si Si5 0.215481 0.695411 0.381990
Si Si6 0.214316 0.617942 0.608104
Si Si7 0.583102 0.232505 0.254089
Si Si8 0.627151 0.121979 0.472745
O O1 0.792673 0.650560 0.895171
O O2 0.868436 0.658083 0.115649
O O3 0.755335 0.828151 0.999191
O O4 0.000000 0.767810 0.000000
O O5 0.009400 0.500000 0.754541
O O6 0.106926 0.334144 0.661776
O O7 0.911605 0.299546 0.728059
O O8 0.329741 0.802700 0.825629
O O9 0.305623 0.000000 0.908570
O O10 0.500000 0.868664 0.000000
O O11 0.379523 0.500000 0.196695
O O12 0.327593 0.351440 0.331282
O O13 0.446148 0.287903 0.185029
O O14 0.175995 0.615394 0.470881
O O15 0.251958 0.808375 0.449068
O O16 0.241989 0.500000 0.659403
O O17 0.349660 0.678852 0.653211
O O18 0.585101 0.129427 0.334742
O O19 0.500000 0.163605 0.500000
O O20 0.664958 0.000000 0.509968
#
# Coordination Sequence:
#
# PCOD8066135 Si02
#       8
#     4   4   4   4   4   4   4   4
#     4  12  25  43  65  95 132 168 218 269 317 384
#     4  11  22  39  63  89 124 173 214 255 313 378
#     4  11  24  45  70  92 120 166 218 272 331 380
#     4  12  24  38  61  96 136 174 211 257 321 385
#     4  11  22  38  60  90 129 166 210 259 310 377
#     4  10  21  36  61  91 124 165 209 255 309 376
#     4  11  21  40  63  94 126 160 208 266 318 382
#     4  10  21  39  62  90 122 161 207 259 319 373
#
# _framework density 20.487753000000001
#
# number of rings (size 3 to 8) (size 9 to 14) (size 15 to 20)
#    0.000    1.000    5.000    2.625    0.000    1.750 
#    0.000    3.750    0.000    1.500    0.000    0.000 
#    0.000    0.000    0.000    0.000    0.000    0.000 
#
# Total GULP energy -396462.239021 kJ/mol
# GULP energy per Si atom -12389.444969 kJ/mol
# Density = 2.044112 g / cm^3
# Si number density = 20.487753 Si / 1000 Ang^3
#
#
#
# Elastic Constant Matrix: (Units=GPa)
#
#
# Indices 1 2 3 4 5 6 
#
# 1 93.5080 43.3605 27.5074 0.0000 -7.5026 0.0000
# 2 43.3605 95.1022 37.8282 0.0000 3.3972 0.0000
# 3 27.5074 37.8282 97.7542 0.0000 -5.2157 0.0000
# 4 0.0000 0.0000 0.0000 23.1076 0.0000 3.0792
# 5 -7.5026 3.3972 -5.2157 0.0000 42.6403 0.0000
# 6 0.0000 0.0000 0.0000 3.0792 0.0000 18.0895
#
#
#
# Elastic Compliance Matrix: (Units=1/GPa)
#
#
# Indices 1 2 3 4 5 6 
#
# 1 0.014114 -0.005925 -0.001531 0.000000 0.002768 0.000000
# 2 -0.005925 0.015023 -0.004294 0.000000 -0.002765 0.000000
# 3 -0.001531 -0.004294 0.012407 0.000000 0.001590 0.000000
# 4 0.000000 0.000000 0.000000 0.044280 0.000000 -0.007537
# 5 0.002768 -0.002765 0.001590 0.000000 0.024354 0.000000
# 6 0.000000 0.000000 0.000000 -0.007537 0.000000 0.056564
#
#
# Mechanical properties :
#
#
# Convention : Reuss Voigt Hill
#
# Bulk Modulus (GPa) = 55.41859 55.97295 55.69577
# Shear Modulus (GPa) = 25.47681 28.61203 27.04442
#
# Velocity S-wave (km/s) = 3.53017 3.74109 3.63716
# Velocity P-wave (km/s) = 6.61245 6.78532 6.69944
#
# Compressibility (1/GPa) = 0.01804449
#
# Stress axis : x y z
#
# Youngs Moduli (GPa) = 70.85005 66.56404 80.59957
#
# Poissons Ratio (x) = 0.39440 0.12341
# Poissons Ratio (y) = 0.41979 0.34608
# Poissons Ratio (z) = 0.10848 0.28581
#
# Static dielectric constant tensor:
#      x y z
#    x 3.734330 0.000000 -0.158280 
#    y 0.000000 3.517710 0.000000 
#    z -0.158280 0.000000 4.036920 
# 
# 
# High freq. dielectric constant tensor:
#      x y z
#    x 1.800710 0.000000 -0.008830 
#    y 0.000000 1.782630 0.000000 
#    z -0.008830 0.000000 1.813820 
# 
# From -- ./inp_files/47012.got.cif
#   From: 2010.06.25/outbox.cif.g09.slc.cpg/sg10_24_cif.got.tgz:47012.got - 2010.06.27 22:07:45.
