data_PCOD8066636
_publ_section_title
;
Structure prediction by ZEFSAII (Michael W. Deem and Ramdas Pophale) SiO2 
 PCOD8066636
Probable space group: P 2/M
;
_chemical_formula_sum "Si O2"
_cell_formula_units_Z 32
_cell_length_a 15.177674
_cell_length_b 9.456416
_cell_length_c 22.656171
_cell_angle_alpha 90.000000
_cell_angle_beta 30.533102
_cell_angle_gamma 90.000000
_cell_volume 1652.010698
_symmetry_space_group_name_H-M "P 2/M"
_symmetry_group_IT_number 10
_symmetry_cell_setting 'monoclinic'
loop_
_space_group_symop_operation_xyz
x,y,z
-x,y,-z
-x,-y,-z
x,-y,z
loop_
_atom_site_type_symbol
_atom_site_label
_atom_site_fract_x
_atom_site_fract_y
_atom_site_fract_z
Si Si1 0.830928 0.346487 0.661412
Si Si2 0.611919 0.157870 0.856847
Si Si3 0.204560 0.657230 0.455978
Si Si4 0.473907 0.831793 0.690515
Si Si5 0.020304 0.334618 0.146424
Si Si6 0.611982 0.336410 0.377404
Si Si7 0.234350 0.160812 0.110077
Si Si8 0.153441 0.162067 0.957654
O O1 0.783230 0.500000 0.714434
O O2 0.676500 0.240842 0.763479
O O3 0.834033 0.352650 0.590133
O O4 0.011603 0.299518 0.589627
O O5 0.700774 0.220878 0.864542
O O6 0.679893 0.000000 0.813196
O O7 0.405654 0.162799 0.971186
O O8 0.261181 0.500000 0.446561
O O9 0.341288 0.776556 0.393825
O O10 0.441525 0.761690 0.646008
O O11 0.328580 0.788894 0.822814
O O12 0.478755 0.000000 0.679393
O O13 0.066609 0.500000 0.116732
O O14 0.815359 0.310075 0.269691
O O15 0.093486 0.265926 0.164045
O O16 0.109637 0.260727 0.038440
O O17 0.500000 0.293481 0.500000
O O18 0.575537 0.500000 0.382548
O O19 0.160946 0.000000 0.155571
O O20 0.169902 0.000000 0.970373
O O21 0.000000 0.177581 0.000000
#
# Coordination Sequence:
#
# PCOD8066636 Si02
#       8
#     4   4   4   4   4   4   4   4
#     4   9  19  36  57  80 110 150 189 229 279 330
#     4   9  19  36  57  80 109 149 190 229 277 332
#     4   9  20  38  56  79 115 152 184 226 283 336
#     4  11  23  38  60  89 115 148 194 236 282 339
#     4  11  23  37  59  89 114 146 195 238 279 338
#     4  10  23  43  62  82 115 154 189 233 287 338
#     4   9  20  38  56  78 114 152 183 225 285 338
#     4  10  21  39  60  83 118 154 183 230 291 341
#
# _framework density 19.370335000000001
#
# number of rings (size 3 to 8) (size 9 to 14) (size 15 to 20)
#    0.000    2.250    1.250    2.250    1.750    5.000 
#    0.000    6.250    0.000    0.000    0.000    0.000 
#    0.000    0.000    0.000    0.000    0.000    0.000 
#
# Total GULP energy -396543.628678 kJ/mol
# GULP energy per Si atom -12391.988396 kJ/mol
# Density = 1.932625 g / cm^3
# Si number density = 19.370335 Si / 1000 Ang^3
#
#
#
# Elastic Constant Matrix: (Units=GPa)
#
#
# Indices 1 2 3 4 5 6 
#
# 1 70.2262 43.5498 25.0416 0.0000 -17.0347 0.0000
# 2 43.5498 86.7339 47.9408 0.0000 -7.3169 0.0000
# 3 25.0416 47.9408 76.5520 0.0000 0.6154 0.0000
# 4 0.0000 0.0000 0.0000 32.0301 0.0000 -7.9511
# 5 -17.0347 -7.3169 0.6154 0.0000 26.1341 0.0000
# 6 0.0000 0.0000 0.0000 -7.9511 0.0000 41.0400
#
#
#
# Elastic Compliance Matrix: (Units=1/GPa)
#
#
# Indices 1 2 3 4 5 6 
#
# 1 0.024315 -0.010177 -0.001685 0.000000 0.013039 0.000000
# 2 -0.010177 0.022629 -0.010842 0.000000 -0.000043 0.000000
# 3 -0.001685 -0.010842 0.020441 0.000000 -0.004615 0.000000
# 4 0.000000 0.000000 0.000000 0.032798 0.000000 0.006354
# 5 0.013039 -0.000043 -0.004615 0.000000 0.046860 0.000000
# 6 0.000000 0.000000 0.000000 0.006354 0.000000 0.025598
#
#
# Mechanical properties :
#
#
# Convention : Reuss Voigt Hill
#
# Bulk Modulus (GPa) = 45.50373 51.84184 48.67278
# Shear Modulus (GPa) = 22.18543 27.63948 24.91246
#
# Velocity S-wave (km/s) = 3.38794 3.78153 3.59013
# Velocity P-wave (km/s) = 6.23271 6.77408 6.50903
#
# Compressibility (1/GPa) = 0.02197622
#
# Stress axis : x y z
#
# Youngs Moduli (GPa) = 41.12735 44.19203 48.92143
#
# Poissons Ratio (x) = 0.44975 0.08244
# Poissons Ratio (y) = 0.41856 0.53039
# Poissons Ratio (z) = 0.06930 0.47911
#
# Static dielectric constant tensor:
#      x y z
#    x 3.488600 0.000000 -0.123270 
#    y 0.000000 3.573950 0.000000 
#    z -0.123270 0.000000 3.786080 
# 
# 
# High freq. dielectric constant tensor:
#      x y z
#    x 1.752650 0.000000 -0.007820 
#    y 0.000000 1.751740 0.000000 
#    z -0.007820 0.000000 1.757100 
# 
# From -- ./inp_files/89487.got.cif
#   From: 2010.06.25/outbox.cif.g09.slc.cpg/sg10_45_cif.got.tgz:89487.got - 2010.06.27 22:07:45.
