data_PCOD8066568
_publ_section_title
;
Structure prediction by ZEFSAII (Michael W. Deem and Ramdas Pophale) SiO2 
 PCOD8066568
Probable space group: P 2/M
;
_chemical_formula_sum "Si O2"
_cell_formula_units_Z 20
_cell_length_a 15.779164
_cell_length_b 8.259854
_cell_length_c 24.990465
_cell_angle_alpha 90.000000
_cell_angle_beta 18.177599
_cell_angle_gamma 90.000000
_cell_volume 1016.095337
_symmetry_space_group_name_H-M "P 2/M"
_symmetry_group_IT_number 10
_symmetry_cell_setting 'monoclinic'
loop_
_space_group_symop_operation_xyz
x,y,z
-x,y,-z
-x,-y,-z
x,-y,z
loop_
_atom_site_type_symbol
_atom_site_label
_atom_site_fract_x
_atom_site_fract_y
_atom_site_fract_z
Si Si1 0.872347 0.500000 0.384228
Si Si2 0.457443 0.825424 0.274841
Si Si3 0.245285 0.500000 0.773740
Si Si4 0.000000 0.749437 0.000000
Si Si5 0.545348 0.675049 0.836185
Si Si6 0.960457 0.500000 0.834871
Si Si7 0.008956 0.186919 0.364250
O O1 0.566943 0.500000 0.588593
O O2 0.876391 0.500000 0.317850
O O3 0.019063 0.330719 0.313965
O O4 0.750467 0.851118 0.126550
O O5 0.462366 0.704681 0.222518
O O6 0.240880 0.764095 0.447972
O O7 0.363834 0.000000 0.309219
O O8 0.115087 0.347483 0.880657
O O9 0.180335 0.500000 0.749991
O O10 0.692174 0.500000 0.755764
O O11 0.710171 0.808711 0.770568
O O12 0.233441 0.660105 0.044112
O O13 0.979554 0.000000 0.359523
#
# Coordination Sequence:
#
# PCOD8066568 Si02
#       7
#     2   4   2   2   4   2   4
#     4  12  23  43  69  83 126 172 202 262 304 347
#     4  11  22  36  58  93 130 159 198 257 319 375
#     4  11  21  38  66  92 119 155 206 252 320 373
#     4  11  19  36  64  92 118 160 200 255 321 372
#     4  10  21  38  62  87 128 157 203 254 304 364
#     4  10  23  41  63  93 116 162 220 248 300 373
#     4  11  24  40  62  96 126 163 209 250 310 376
#
# _framework density 19.683191999999998
#
# number of rings (size 3 to 8) (size 9 to 14) (size 15 to 20)
#    0.600    0.600    5.000    1.800    2.800    4.000 
#    0.000    3.000    0.000    1.200    0.000    0.000 
#    0.000    0.000    0.000    0.000    0.000    0.000 
#
# Total GULP energy -247796.384463 kJ/mol
# GULP energy per Si atom -12389.819223 kJ/mol
# Density = 1.963839 g / cm^3
# Si number density = 19.683192 Si / 1000 Ang^3
#
#
#
# Elastic Constant Matrix: (Units=GPa)
#
#
# Indices 1 2 3 4 5 6 
#
# 1 101.3455 35.0087 17.9362 0.0000 1.2051 0.0000
# 2 35.0087 101.2064 13.6142 0.0000 7.5640 0.0000
# 3 17.9362 13.6142 44.5170 0.0000 -5.8868 0.0000
# 4 0.0000 0.0000 0.0000 5.3670 0.0000 -8.0161
# 5 1.2051 7.5640 -5.8868 0.0000 39.6636 0.0000
# 6 0.0000 0.0000 0.0000 -8.0161 0.0000 18.0953
#
#
#
# Elastic Compliance Matrix: (Units=1/GPa)
#
#
# Indices 1 2 3 4 5 6 
#
# 1 0.011748 -0.003552 -0.003677 0.000000 -0.000225 0.000000
# 2 -0.003552 0.011624 -0.002451 0.000000 -0.002473 0.000000
# 3 -0.003677 -0.002451 0.025267 0.000000 0.004329 0.000000
# 4 0.000000 0.000000 0.000000 0.550676 0.000000 0.243945
# 5 -0.000225 -0.002473 0.004329 0.000000 0.026333 0.000000
# 6 0.000000 0.000000 0.000000 0.243945 0.000000 0.163328
#
#
# Mechanical properties :
#
#
# Convention : Reuss Voigt Hill
#
# Bulk Modulus (GPa) = 34.15386 42.24303 38.19844
# Shear Modulus (GPa) = 6.11177 24.65916 15.38546
#
# Velocity S-wave (km/s) = 1.76403 3.54334 2.79884
# Velocity P-wave (km/s) = 4.64096 6.18453 5.46749
#
# Compressibility (1/GPa) = 0.02927927
#
# Stress axis : x y z
#
# Youngs Moduli (GPa) = 85.12300 86.02864 39.57794
#
# Poissons Ratio (x) = 0.30560 0.14551
# Poissons Ratio (y) = 0.30238 0.09699
# Poissons Ratio (z) = 0.31297 0.21082
#
# Static dielectric constant tensor:
#      x y z
#    x 3.354780 0.000000 -0.132180 
#    y 0.000000 5.002560 0.000000 
#    z -0.132180 0.000000 3.458910 
# 
# 
# High freq. dielectric constant tensor:
#      x y z
#    x 1.760560 0.000000 -0.013510 
#    y 0.000000 1.760260 0.000000 
#    z -0.013510 0.000000 1.762280 
# 
# From -- ./inp_files/89334.got.cif
#   From: 2010.06.25/outbox.cif.g09.slc.cpg/sg10_45_cif.got.tgz:89334.got - 2010.06.27 22:07:45.
