data_PCOD8066607
_publ_section_title
;
Structure prediction by ZEFSAII (Michael W. Deem and Ramdas Pophale) SiO2 
 PCOD8066607
Probable space group: P 2/M
;
_chemical_formula_sum "Si O2"
_cell_formula_units_Z 28
_cell_length_a 8.785605
_cell_length_b 14.693605
_cell_length_c 21.037014
_cell_angle_alpha 90.000000
_cell_angle_beta 151.904275
_cell_angle_gamma 90.000000
_cell_volume 1278.955105
_symmetry_space_group_name_H-M "P 2/M"
_symmetry_group_IT_number 10
_symmetry_cell_setting 'monoclinic'
loop_
_space_group_symop_operation_xyz
x,y,z
-x,y,-z
-x,-y,-z
x,-y,z
loop_
_atom_site_type_symbol
_atom_site_label
_atom_site_fract_x
_atom_site_fract_y
_atom_site_fract_z
Si Si1 0.562226 0.140586 0.449336
Si Si2 0.289867 0.396783 0.221849
Si Si3 0.259384 0.272768 0.967476
Si Si4 0.162367 0.900771 0.190627
Si Si5 0.285956 0.900828 0.703075
Si Si6 0.187467 0.683899 0.508540
Si Si7 0.422120 0.297085 0.787732
O O1 0.500000 0.121795 0.500000
O O2 0.250531 0.100599 0.298031
O O3 0.565685 0.247431 0.433880
O O4 0.900189 0.097390 0.550400
O O5 0.215118 0.500000 0.174273
O O6 0.601870 0.398125 0.383888
O O7 0.328402 0.332850 0.173558
O O8 0.992492 0.349705 0.149115
O O9 0.083602 0.177968 0.921839
O O10 0.500000 0.248721 0.000000
O O11 0.448474 0.321746 0.095275
O O12 0.512966 0.887744 0.287516
O O13 0.009714 0.000000 0.117761
O O14 0.379279 0.812498 0.778554
O O15 0.381283 0.000000 0.768609
O O16 0.000000 0.730233 0.500000
O O17 0.921286 0.654664 0.357334
#
# Coordination Sequence:
#
# PCOD8066607 Si02
#       7
#     4   4   4   4   4   4   4
#     4  11  21  35  62  98 137 175 219 272 327 379
#     4  11  23  44  74 100 127 162 213 274 334 400
#     4  12  27  44  63  94 136 182 216 267 327 389
#     4  11  23  41  63  91 131 182 228 269 322 382
#     4  10  21  38  64  94 129 172 221 271 320 381
#     4   9  19  39  68  98 127 165 214 266 329 387
#     4  10  22  41  67  98 131 168 219 265 322 387
#
# _framework density 21.892872000000001
#
# number of rings (size 3 to 8) (size 9 to 14) (size 15 to 20)
#    0.000    1.429    2.857    3.000    4.000    7.143 
#    0.000    1.429    0.000    3.000    0.000    0.000 
#    0.000    0.000    0.000    0.000    0.000    0.000 
#
# Total GULP energy -346870.564371 kJ/mol
# GULP energy per Si atom -12388.234442 kJ/mol
# Density = 2.184304 g / cm^3
# Si number density = 21.892872 Si / 1000 Ang^3
#
#
#
# Elastic Constant Matrix: (Units=GPa)
#
#
# Indices 1 2 3 4 5 6 
#
# 1 75.1152 17.3624 48.0238 0.0000 4.4597 0.0000
# 2 17.3624 118.0759 33.7393 0.0000 16.2123 0.0000
# 3 48.0238 33.7393 118.3132 0.0000 -7.6589 0.0000
# 4 0.0000 0.0000 0.0000 13.2650 0.0000 0.3542
# 5 4.4597 16.2123 -7.6589 0.0000 27.3635 0.0000
# 6 0.0000 0.0000 0.0000 0.3542 0.0000 7.6031
#
#
#
# Elastic Compliance Matrix: (Units=1/GPa)
#
#
# Indices 1 2 3 4 5 6 
#
# 1 0.018703 0.000296 -0.008030 0.000000 -0.005471 0.000000
# 2 0.000296 0.010437 -0.003564 0.000000 -0.007229 0.000000
# 3 -0.008030 -0.003564 0.013188 0.000000 0.007112 0.000000
# 4 0.000000 0.000000 0.000000 0.075480 0.000000 -0.003516
# 5 -0.005471 -0.007229 0.007112 0.000000 0.043711 0.000000
# 6 0.000000 0.000000 0.000000 -0.003516 0.000000 0.131689
#
#
# Mechanical properties :
#
#
# Convention : Reuss Voigt Hill
#
# Bulk Modulus (GPa) = 50.68219 56.63950 53.66085
# Shear Modulus (GPa) = 15.50949 23.80490 19.65720
#
# Velocity S-wave (km/s) = 2.66452 3.30105 2.99972
# Velocity P-wave (km/s) = 5.71546 6.36055 6.04662
#
# Compressibility (1/GPa) = 0.01973080
#
# Stress axis : x y z
#
# Youngs Moduli (GPa) = 53.46630 95.81547 75.82421
#
# Poissons Ratio (x) = -0.02832 0.60888
# Poissons Ratio (y) = -0.01580 0.27025
# Poissons Ratio (z) = 0.42935 0.34150
#
# Static dielectric constant tensor:
#      x y z
#    x 3.659650 0.000000 0.139130 
#    y 0.000000 3.752780 0.000000 
#    z 0.139130 0.000000 3.914880 
# 
# 
# High freq. dielectric constant tensor:
#      x y z
#    x 1.831600 0.000000 0.007910 
#    y 0.000000 1.842870 0.000000 
#    z 0.007910 0.000000 1.859920 
# 
# From -- ./inp_files/82943.got.cif
#   From: 2010.06.25/outbox.cif.g09.slc.cpg/sg10_42_cif.got.tgz:82943.got - 2010.06.27 22:07:45.
