data_PCOD8066918
_publ_section_title
;
Structure prediction by ZEFSAII (Michael W. Deem and Ramdas Pophale) SiO2 
 PCOD8066918
Probable space group: P 2/M
;
_chemical_formula_sum "Si O2"
_cell_formula_units_Z 20
_cell_length_a 9.284182
_cell_length_b 16.938309
_cell_length_c 9.284195
_cell_angle_alpha 90.000000
_cell_angle_beta 46.664718
_cell_angle_gamma 90.000000
_cell_volume 1061.943897
_symmetry_space_group_name_H-M "P 2/M"
_symmetry_group_IT_number 10
_symmetry_cell_setting 'monoclinic'
loop_
_space_group_symop_operation_xyz
x,y,z
-x,y,-z
-x,-y,-z
x,-y,z
loop_
_atom_site_type_symbol
_atom_site_label
_atom_site_fract_x
_atom_site_fract_y
_atom_site_fract_z
Si Si1 0.205053 0.912896 0.608292
Si Si2 0.906337 0.204448 0.906339
Si Si3 0.125800 0.500000 0.557717
Si Si4 0.906977 0.617639 0.906979
Si Si5 0.608293 0.087104 0.205053
Si Si6 0.442286 0.500000 0.874197
O O1 0.297391 0.910315 0.702608
O O2 0.374015 0.897639 0.374014
O O3 0.046494 0.843108 0.699682
O O4 0.109422 0.000000 0.650073
O O5 0.873753 0.293311 0.873754
O O6 0.699679 0.156893 0.046497
O O7 0.000000 0.205984 0.000000
O O8 0.361848 0.500000 0.361850
O O9 0.000000 0.500000 0.500000
O O10 0.062804 0.576843 0.691927
O O11 0.691924 0.576843 0.062807
O O12 0.000000 0.614570 0.000000
O O13 0.650081 0.000000 0.109419
O O14 0.500000 0.500000 0.000000
#
# Coordination Sequence:
#
# PCOD8066918 Si02
#       6
#     4   4   2   4   4   2
#     4   8  13  21  35  57  90 136 179 204 238 300
#     4   9  16  26  40  63 103 137 161 208 264 301
#     4  11  21  39  62  77 100 141 177 216 269 329
#     4  10  22  36  54  88 115 133 176 226 268 324
#     4   8  13  21  35  57  90 136 179 204 238 300
#     4  11  21  39  62  77 100 141 177 216 269 329
#
# _framework density 18.833387999999999
#
# number of rings (size 3 to 8) (size 9 to 14) (size 15 to 20)
#    0.000    2.800    2.000    3.000    0.000    5.600 
#    0.000    4.000    0.000    0.000    0.000    0.000 
#    0.000    6.400    0.000    0.000    0.000    0.000 
#
# Total GULP energy -247829.550896 kJ/mol
# GULP energy per Si atom -12391.477545 kJ/mol
# Density = 1.879052 g / cm^3
# Si number density = 18.833388 Si / 1000 Ang^3
#
#
#
# Elastic Constant Matrix: (Units=GPa)
#
#
# Indices 1 2 3 4 5 6 
#
# 1 51.1097 38.4383 34.5021 0.0000 -11.8718 0.0000
# 2 38.4383 210.1572 90.8838 0.0000 -31.2505 0.0000
# 3 34.5021 90.8838 131.1631 0.0000 -35.8293 0.0000
# 4 0.0000 0.0000 0.0000 9.2904 0.0000 -5.4428
# 5 -11.8718 -31.2505 -35.8293 0.0000 32.5413 0.0000
# 6 0.0000 0.0000 0.0000 -5.4428 0.0000 0.1563
#
#
#
# Elastic Compliance Matrix: (Units=1/GPa)
#
#
# Indices 1 2 3 4 5 6 
#
# 1 0.024720 -0.002354 -0.004327 0.000000 0.001994 0.000000
# 2 -0.002354 0.007103 -0.003824 0.000000 0.001752 0.000000
# 3 -0.004327 -0.003824 0.014269 0.000000 0.010460 0.000000
# 4 0.000000 0.000000 0.000000 -0.005548 0.000000 -0.193199
# 5 0.001994 0.001752 0.010460 0.000000 0.044657 0.000000
# 6 0.000000 0.000000 0.000000 -0.193199 0.000000 -0.329774
#
#
# Mechanical properties :
#
#
# Convention : Reuss Voigt Hill
#
# Bulk Modulus (GPa) = 39.86731 80.00869 59.93800
# Shear Modulus (GPa) = -23.23394 23.63800 0.20203
#
# Velocity S-wave (km/s) = -3.51616 3.54660 0.32788
# Velocity P-wave (km/s) = 2.17484 7.70362 5.66020
#
# Compressibility (1/GPa) = 0.02508321
#
# Stress axis : x y z
#
# Youngs Moduli (GPa) = 40.45306 140.78333 70.08022
#
# Poissons Ratio (x) = 0.33135 0.30324
# Poissons Ratio (y) = 0.09521 0.26799
# Poissons Ratio (z) = 0.17504 0.53836
#
# Static dielectric constant tensor:
#      x y z
#    x 3.341640 0.000000 -0.949170 
#    y 0.000000 3.844950 0.000000 
#    z -0.949170 0.000000 4.934540 
# 
# 
# High freq. dielectric constant tensor:
#      x y z
#    x 1.685350 0.000000 -0.025990 
#    y 0.000000 1.738730 0.000000 
#    z -0.025990 0.000000 1.728970 
# 
# From -- ./inp_files/19553.got.cif
#   From: 2010.06.25/outbox.cif.g09.slc.cpg/sg10_10_cif.got.tgz:19553.got - 2010.06.27 22:07:45.
