data_PCOD8066855
_publ_section_title
;
Structure prediction by ZEFSAII (Michael W. Deem and Ramdas Pophale) SiO2 
 PCOD8066855
Probable space group: P 2/M
;
_chemical_formula_sum "Si O2"
_cell_formula_units_Z 24
_cell_length_a 9.651959
_cell_length_b 18.499313
_cell_length_c 9.407206
_cell_angle_alpha 90.000000
_cell_angle_beta 132.863297
_cell_angle_gamma 90.000000
_cell_volume 1231.184511
_symmetry_space_group_name_H-M "P 2/M"
_symmetry_group_IT_number 10
_symmetry_cell_setting 'monoclinic'
loop_
_space_group_symop_operation_xyz
x,y,z
-x,y,-z
-x,-y,-z
x,-y,z
loop_
_atom_site_type_symbol
_atom_site_label
_atom_site_fract_x
_atom_site_fract_y
_atom_site_fract_z
Si Si1 0.620194 0.681863 0.945174
Si Si2 0.602013 0.415735 0.425843
Si Si3 0.281613 0.079346 0.343582
Si Si4 0.820081 0.807570 0.957091
Si Si5 0.025233 0.660539 0.358786
Si Si6 0.946830 0.826336 0.618719
O O1 0.502943 0.621436 0.780299
O O2 0.650485 0.749983 0.859397
O O3 0.500000 0.705426 0.000000
O O4 0.828730 0.653933 0.135773
O O5 0.500000 0.396148 0.500000
O O6 0.599608 0.500000 0.390176
O O7 0.816387 0.389672 0.600765
O O8 0.500000 0.066613 0.500000
O O9 0.236566 0.121846 0.168481
O O10 0.224232 0.125335 0.442333
O O11 0.182119 0.000000 0.273064
O O12 0.000000 0.770847 0.000000
O O13 0.875096 0.835635 0.152214
O O14 0.109073 0.741852 0.423103
O O15 0.000000 0.631289 0.500000
O O16 0.000000 0.854667 0.500000
#
# Coordination Sequence:
#
# PCOD8066855 Si02
#       6
#     4   4   4   4   4   4
#     4  11  23  40  65  94 120 159 209 254 303 364
#     4  11  27  43  61  92 124 165 203 247 317 366
#     4  10  22  37  56  87 120 158 198 241 299 359
#     4   9  21  37  60  89 115 157 199 248 300 355
#     4  10  21  41  63  92 123 158 207 257 302 362
#     4   9  20  36  59  87 114 153 201 244 299 350
#
# _framework density 19.493424000000001
#
# number of rings (size 3 to 8) (size 9 to 14) (size 15 to 20)
#    0.000    2.000    1.667    0.000    9.333    4.667 
#    0.000    1.667    0.000    2.500    0.000    0.000 
#    0.000    0.000    0.000    0.000    0.000    0.000 
#
# Total GULP energy -297528.731487 kJ/mol
# GULP energy per Si atom -12397.030479 kJ/mol
# Density = 1.944906 g / cm^3
# Si number density = 19.493424 Si / 1000 Ang^3
#
#
#
# Elastic Constant Matrix: (Units=GPa)
#
#
# Indices 1 2 3 4 5 6 
#
# 1 131.6009 66.4834 47.6171 0.0000 -5.2591 0.0000
# 2 66.4834 75.8001 25.1577 0.0000 -4.8357 0.0000
# 3 47.6171 25.1577 80.2279 0.0000 -8.3079 0.0000
# 4 0.0000 0.0000 0.0000 26.6344 0.0000 4.0355
# 5 -5.2591 -4.8357 -8.3079 0.0000 39.4502 0.0000
# 6 0.0000 0.0000 0.0000 4.0355 0.0000 17.1495
#
#
#
# Elastic Compliance Matrix: (Units=1/GPa)
#
#
# Indices 1 2 3 4 5 6 
#
# 1 0.015587 -0.011850 -0.005592 0.000000 -0.000552 0.000000
# 2 -0.011850 0.023762 -0.000286 0.000000 0.001273 0.000000
# 3 -0.005592 -0.000286 0.016145 0.000000 0.002619 0.000000
# 4 0.000000 0.000000 0.000000 0.038933 0.000000 -0.009162
# 5 -0.000552 0.001273 0.002619 0.000000 0.025982 0.000000
# 6 0.000000 0.000000 0.000000 -0.009162 0.000000 0.060467
#
#
# Mechanical properties :
#
#
# Convention : Reuss Voigt Hill
#
# Bulk Modulus (GPa) = 49.90919 62.90504 56.40711
# Shear Modulus (GPa) = 22.42028 26.53820 24.47924
#
# Velocity S-wave (km/s) = 3.39506 3.69371 3.54753
# Velocity P-wave (km/s) = 6.40525 7.10853 6.76604
#
# Compressibility (1/GPa) = 0.02003639
#
# Stress axis : x y z
#
# Youngs Moduli (GPa) = 64.15744 42.08338 61.93989
#
# Poissons Ratio (x) = 0.49869 0.34639
# Poissons Ratio (y) = 0.76027 0.01773
# Poissons Ratio (z) = 0.35879 0.01205
#
# Static dielectric constant tensor:
#      x y z
#    x 3.759660 0.000000 -0.038920 
#    y 0.000000 3.628880 0.000000 
#    z -0.038920 0.000000 3.769900 
# 
# 
# High freq. dielectric constant tensor:
#      x y z
#    x 1.767560 0.000000 -0.005460 
#    y 0.000000 1.746320 0.000000 
#    z -0.005460 0.000000 1.760640 
# 
# From -- ./inp_files/20255.got.cif
#   From: 2010.06.25/outbox.cif.g09.slc.cpg/sg10_11_cif.got.tgz:20255.got - 2010.06.27 22:07:45.
