data_PCOD8066273
_publ_section_title
;
Structure prediction by ZEFSAII (Michael W. Deem and Ramdas Pophale) SiO2 
 PCOD8066273
Probable space group: P 2/M
;
_chemical_formula_sum "Si O2"
_cell_formula_units_Z 28
_cell_length_a 8.882494
_cell_length_b 23.239278
_cell_length_c 14.951082
_cell_angle_alpha 90.000000
_cell_angle_beta 151.072476
_cell_angle_gamma 90.000000
_cell_volume 1492.824854
_symmetry_space_group_name_H-M "P 2/M"
_symmetry_group_IT_number 10
_symmetry_cell_setting 'monoclinic'
loop_
_space_group_symop_operation_xyz
x,y,z
-x,y,-z
-x,-y,-z
x,-y,z
loop_
_atom_site_type_symbol
_atom_site_label
_atom_site_fract_x
_atom_site_fract_y
_atom_site_fract_z
Si Si1 0.628425 0.644144 0.301760
Si Si2 0.673864 0.432172 0.000151
Si Si3 0.149565 0.936797 0.177104
Si Si4 0.351866 0.934150 0.687366
Si Si5 0.319356 0.857886 0.997171
Si Si6 0.829294 0.738494 0.000325
Si Si7 0.271246 0.357455 0.297975
O O1 0.532011 0.591450 0.188477
O O2 0.478780 0.702548 0.185005
O O3 0.485156 0.630039 0.323681
O O4 0.000000 0.650969 0.500000
O O5 0.691974 0.500000 0.999555
O O6 0.500000 0.413044 0.000000
O O7 0.027876 0.409319 0.184429
O O8 0.513036 0.925896 0.343573
O O9 0.018623 0.889465 0.178438
O O10 0.095012 0.000000 0.191152
O O11 0.000000 0.933317 0.000000
O O12 0.000000 0.917378 0.500000
O O13 0.409268 0.000000 0.750384
O O14 0.491621 0.888590 0.827412
O O15 0.500000 0.867222 0.000000
O O16 0.278744 0.790681 0.994283
O O17 0.000000 0.761755 0.000000
O O18 0.072182 0.700629 0.183122
O O19 0.500000 0.350908 0.500000
#
# Coordination Sequence:
#
# PCOD8066273 Si02
#       7
#     4   4   4   4   4   4   4
#     4  10  21  37  59  83 109 147 186 225 275 325
#     4  10  21  37  58  85 116 148 184 227 270 318
#     4   8  15  30  51  71  96 133 169 203 252 314
#     4   9  18  34  55  76 100 134 174 215 263 320
#     4  11  21  32  51  78 105 135 172 217 266 315
#     4   9  20  38  55  75 106 143 185 226 267 321
#     4  10  21  38  60  83 110 145 183 228 278 326
#
# _framework density 18.756387
#
# number of rings (size 3 to 8) (size 9 to 14) (size 15 to 20)
#    0.000    2.429    0.000    4.714    0.000    6.857 
#    0.000    3.571    0.000    2.571    0.000    0.000 
#    0.000    0.000    0.000    0.000    0.000    0.000 
#
# Total GULP energy -347047.206862 kJ/mol
# GULP energy per Si atom -12394.543102 kJ/mol
# Density = 1.871370 g / cm^3
# Si number density = 18.756387 Si / 1000 Ang^3
#
#
#
# Elastic Constant Matrix: (Units=GPa)
#
#
# Indices 1 2 3 4 5 6 
#
# 1 148.5995 66.4775 56.0106 0.0000 15.7308 0.0000
# 2 66.4775 102.6232 39.2242 0.0000 4.0552 0.0000
# 3 56.0106 39.2242 120.5762 0.0000 16.5812 0.0000
# 4 0.0000 0.0000 0.0000 21.4649 0.0000 7.4777
# 5 15.7308 4.0552 16.5812 0.0000 36.4475 0.0000
# 6 0.0000 0.0000 0.0000 7.4777 0.0000 30.5791
#
#
#
# Elastic Compliance Matrix: (Units=1/GPa)
#
#
# Indices 1 2 3 4 5 6 
#
# 1 0.010590 -0.005727 -0.002683 0.000000 -0.002713 0.000000
# 2 -0.005727 0.014232 -0.002231 0.000000 0.001903 0.000000
# 3 -0.002683 -0.002231 0.010744 0.000000 -0.003482 0.000000
# 4 0.000000 0.000000 0.000000 0.050926 0.000000 -0.012453
# 5 -0.002713 0.001903 -0.003482 0.000000 0.029980 0.000000
# 6 0.000000 0.000000 0.000000 -0.012453 0.000000 0.035747
#
#
# Mechanical properties :
#
#
# Convention : Reuss Voigt Hill
#
# Bulk Modulus (GPa) = 70.01077 77.24704 73.62890
# Shear Modulus (GPa) = 28.04828 31.70409 29.87618
#
# Velocity S-wave (km/s) = 3.87123 4.11580 3.99539
# Velocity P-wave (km/s) = 7.57557 7.99126 7.78619
#
# Compressibility (1/GPa) = 0.01428352
#
# Stress axis : x y z
#
# Youngs Moduli (GPa) = 94.42640 70.26416 93.07112
#
# Poissons Ratio (x) = 0.40243 0.24973
# Poissons Ratio (y) = 0.54082 0.20764
# Poissons Ratio (z) = 0.25337 0.15676
#
# Static dielectric constant tensor:
#      x y z
#    x 3.957010 0.000000 0.519060 
#    y 0.000000 3.380010 0.000000 
#    z 0.519060 0.000000 3.585750 
# 
# 
# High freq. dielectric constant tensor:
#      x y z
#    x 1.740100 0.000000 0.022280 
#    y 0.000000 1.726430 0.000000 
#    z 0.022280 0.000000 1.716240 
# 
# From -- ./inp_files/62623.got.cif
#   From: 2010.06.25/outbox.cif.g09.slc.cpg/sg10_32_cif.got.tgz:62623.got - 2010.06.27 22:07:45.
