data_PCOD8066780
_publ_section_title
;
Structure prediction by ZEFSAII (Michael W. Deem and Ramdas Pophale) SiO2 
 PCOD8066780
Probable space group: P 2/M
;
_chemical_formula_sum "Si O2"
_cell_formula_units_Z 26
_cell_length_a 8.551521
_cell_length_b 20.091694
_cell_length_c 9.113121
_cell_angle_alpha 90.000000
_cell_angle_beta 125.170171
_cell_angle_gamma 90.000000
_cell_volume 1279.928000
_symmetry_space_group_name_H-M "P 2/M"
_symmetry_group_IT_number 10
_symmetry_cell_setting 'monoclinic'
loop_
_space_group_symop_operation_xyz
x,y,z
-x,y,-z
-x,-y,-z
x,-y,z
loop_
_atom_site_type_symbol
_atom_site_label
_atom_site_fract_x
_atom_site_fract_y
_atom_site_fract_z
Si Si1 0.193863 0.074682 0.016154
Si Si2 0.421391 0.307703 0.295419
Si Si3 0.973138 0.575542 0.257111
Si Si4 0.507821 0.161770 0.329353
Si Si5 0.320867 0.423335 0.644806
Si Si6 0.201430 0.073192 0.682415
Si Si7 0.000000 0.337471 0.000000
O O1 0.174681 0.096353 0.835998
O O2 0.279007 0.000000 0.071837
O O3 0.323431 0.127890 0.164113
O O4 0.000000 0.077675 0.000000
O O5 0.500000 0.318552 0.500000
O O6 0.512624 0.239175 0.285043
O O7 0.499896 0.372586 0.250296
O O8 0.189851 0.297801 0.157007
O O9 0.956932 0.500000 0.198200
O O10 0.814602 0.591726 0.291740
O O11 0.189428 0.589389 0.430235
O O12 0.922821 0.619486 0.091639
O O13 0.500000 0.152872 0.500000
O O14 0.689482 0.127667 0.353825
O O15 0.395698 0.500000 0.687074
O O16 0.000000 0.065951 0.500000
O O17 0.302562 0.000000 0.731687
#
# Coordination Sequence:
#
# PCOD8066780 Si02
#       7
#     4   4   4   4   4   4   2
#     4  10  21  39  66  96 126 160 205 258 308 367
#     4  11  25  44  61  92 127 171 212 264 317 376
#     4   9  19  37  66  96 119 155 206 263 324 384
#     4  11  24  41  60  88 130 170 212 255 314 373
#     4   9  19  41  65  89 126 164 205 263 324 379
#     4  10  21  41  67  98 128 162 209 257 311 377
#     4  12  23  40  64  90 125 162 210 264 308 384
#
# _framework density 20.313641000000001
#
# number of rings (size 3 to 8) (size 9 to 14) (size 15 to 20)
#    0.000    1.846    1.538    3.000    1.077    5.846 
#    8.308    1.538    0.000    0.000    0.000    0.000 
#    0.000    0.000    0.000    0.000    0.000    0.000 
#
# Total GULP energy -322231.547558 kJ/mol
# GULP energy per Si atom -12393.521060 kJ/mol
# Density = 2.026741 g / cm^3
# Si number density = 20.313641 Si / 1000 Ang^3
#
#
#
# Elastic Constant Matrix: (Units=GPa)
#
#
# Indices 1 2 3 4 5 6 
#
# 1 102.2698 64.7471 39.3462 0.0000 3.1692 0.0000
# 2 64.7471 131.1506 44.9838 0.0000 -1.1036 0.0000
# 3 39.3462 44.9838 107.5127 0.0000 -5.0307 0.0000
# 4 0.0000 0.0000 0.0000 -20.7971 0.0000 -15.2953
# 5 3.1692 -1.1036 -5.0307 0.0000 36.3904 0.0000
# 6 0.0000 0.0000 0.0000 -15.2953 0.0000 29.6788
#
#
#
# Elastic Compliance Matrix: (Units=1/GPa)
#
#
# Indices 1 2 3 4 5 6 
#
# 1 0.015030 -0.006443 -0.002893 0.000000 -0.001904 0.000000
# 2 -0.006443 0.011667 -0.002497 0.000000 0.000570 0.000000
# 3 -0.002893 -0.002497 0.011487 0.000000 0.001764 0.000000
# 4 0.000000 0.000000 0.000000 -0.034868 0.000000 -0.017970
# 5 -0.001904 0.000570 0.001764 0.000000 0.027907 0.000000
# 6 0.000000 0.000000 0.000000 -0.017970 0.000000 0.024433
#
#
# Mechanical properties :
#
#
# Convention : Reuss Voigt Hill
#
# Bulk Modulus (GPa) = 68.88685 71.00971 69.94828
# Shear Modulus (GPa) = 59.40873 21.84481 40.62677
#
# Velocity S-wave (km/s) = 5.41380 3.28285 4.47696
# Velocity P-wave (km/s) = 8.54776 7.02866 7.82516
#
# Compressibility (1/GPa) = 0.01451656
#
# Stress axis : x y z
#
# Youngs Moduli (GPa) = 66.53511 85.71151 87.05213
#
# Poissons Ratio (x) = 0.55228 0.25188
# Poissons Ratio (y) = 0.42872 0.21735
# Poissons Ratio (z) = 0.19252 0.21400
#
# Static dielectric constant tensor:
#      x y z
#    x 3.539130 0.000000 -0.140480 
#    y 0.000000 3.798740 0.000000 
#    z -0.140480 0.000000 3.373140 
# 
# 
# High freq. dielectric constant tensor:
#      x y z
#    x 1.794090 0.000000 -0.001440 
#    y 0.000000 1.789810 0.000000 
#    z -0.001440 0.000000 1.800350 
# 
# From -- ./inp_files/20431.got.cif
#   From: 2010.06.25/outbox.cif.g09.slc.cpg/sg10_11_cif.got.tgz:20431.got - 2010.06.27 22:07:45.
