data_PCOD8066833
_publ_section_title
;
Structure prediction by ZEFSAII (Michael W. Deem and Ramdas Pophale) SiO2 
 PCOD8066833
Probable space group: P 2/M
;
_chemical_formula_sum "Si O2"
_cell_formula_units_Z 28
_cell_length_a 8.719947
_cell_length_b 8.854837
_cell_length_c 19.956747
_cell_angle_alpha 90.000000
_cell_angle_beta 130.546273
_cell_angle_gamma 90.000000
_cell_volume 1170.927148
_symmetry_space_group_name_H-M "P 2/M"
_symmetry_group_IT_number 10
_symmetry_cell_setting 'monoclinic'
loop_
_space_group_symop_operation_xyz
x,y,z
-x,y,-z
-x,-y,-z
x,-y,z
loop_
_atom_site_type_symbol
_atom_site_label
_atom_site_fract_x
_atom_site_fract_y
_atom_site_fract_z
Si Si1 0.131691 0.229572 0.772315
Si Si2 0.696499 0.180840 0.675749
Si Si3 0.711329 0.319282 0.453900
Si Si4 0.831149 0.162832 0.070266
Si Si5 0.234662 0.677285 0.168783
Si Si6 0.901833 0.168619 0.385243
Si Si7 0.549409 0.336069 0.904812
O O1 0.166282 0.130521 0.848937
O O2 0.173631 0.152149 0.712593
O O3 0.305843 0.355857 0.828763
O O4 0.894126 0.274147 0.705789
O O5 0.501942 0.248856 0.582697
O O6 0.669531 0.217967 0.746389
O O7 0.719324 0.000000 0.669988
O O8 0.710320 0.500000 0.458710
O O9 0.754181 0.269943 0.389026
O O10 0.878837 0.248182 0.550416
O O11 0.998565 0.283072 0.093880
O O12 0.871761 0.000000 0.048281
O O13 0.615331 0.224967 0.983470
O O14 0.259797 0.500000 0.193097
O O15 0.353970 0.724168 0.136387
O O16 0.912669 0.000000 0.418714
O O17 0.637527 0.500000 0.946787
#
# Coordination Sequence:
#
# PCOD8066833 Si02
#       7
#     4   4   4   4   4   4   4
#     4  11  25  41  63  92 126 162 207 260 311 368
#     4  11  23  42  65  93 128 166 209 254 307 368
#     4  11  24  43  66  96 130 163 204 254 306 365
#     4  11  24  42  63  91 126 164 209 260 313 369
#     4  10  21  40  65  93 126 164 209 260 312 368
#     4  11  22  42  70  97 125 162 207 254 309 367
#     4  11  25  42  63  91 124 165 212 260 312 370
#
# _framework density 23.912675
#
# number of rings (size 3 to 8) (size 9 to 14) (size 15 to 20)
#    0.000    1.143    0.000    7.714    0.000   12.000 
#    0.000    2.143    0.000    0.000    0.000    0.000 
#    0.000    0.000    0.000    0.000    0.000    0.000 
#
# Total GULP energy -346868.346230 kJ/mol
# GULP energy per Si atom -12388.155222 kJ/mol
# Density = 2.385825 g / cm^3
# Si number density = 23.912675 Si / 1000 Ang^3
#
#
#
# Elastic Constant Matrix: (Units=GPa)
#
#
# Indices 1 2 3 4 5 6 
#
# 1 93.3552 21.8928 46.6514 0.0000 11.6106 0.0000
# 2 21.8928 118.5060 32.0903 0.0000 4.1177 0.0000
# 3 46.6514 32.0903 87.9615 0.0000 13.6145 0.0000
# 4 0.0000 0.0000 0.0000 25.2977 0.0000 5.4749
# 5 11.6106 4.1177 13.6145 0.0000 43.6954 0.0000
# 6 0.0000 0.0000 0.0000 5.4749 0.0000 18.5636
#
#
#
# Elastic Compliance Matrix: (Units=1/GPa)
#
#
# Indices 1 2 3 4 5 6 
#
# 1 0.014723 -0.000684 -0.007316 0.000000 -0.001568 0.000000
# 2 -0.000684 0.009397 -0.003106 0.000000 0.000264 0.000000
# 3 -0.007316 -0.003106 0.016848 0.000000 -0.003013 0.000000
# 4 0.000000 0.000000 0.000000 0.042224 0.000000 -0.012453
# 5 -0.001568 0.000264 -0.003013 0.000000 0.024216 0.000000
# 6 0.000000 0.000000 0.000000 -0.012453 0.000000 0.057542
#
#
# Mechanical properties :
#
#
# Convention : Reuss Voigt Hill
#
# Bulk Modulus (GPa) = 53.31899 55.67685 54.49792
# Shear Modulus (GPa) = 25.85102 30.79057 28.32080
#
# Velocity S-wave (km/s) = 3.29151 3.59224 3.44516
# Velocity P-wave (km/s) = 6.06557 6.36707 6.21815
#
# Compressibility (1/GPa) = 0.01875504
#
# Stress axis : x y z
#
# Youngs Moduli (GPa) = 67.91902 106.41999 59.35276
#
# Poissons Ratio (x) = 0.07282 0.43425
# Poissons Ratio (y) = 0.04648 0.18435
# Poissons Ratio (z) = 0.49692 0.33055
#
# Static dielectric constant tensor:
#      x y z
#    x 4.392860 0.000000 0.174020 
#    y 0.000000 3.968430 0.000000 
#    z 0.174020 0.000000 4.406050 
# 
# 
# High freq. dielectric constant tensor:
#      x y z
#    x 1.953120 0.000000 0.007840 
#    y 0.000000 1.931540 0.000000 
#    z 0.007840 0.000000 1.956120 
# 
# From -- ./inp_files/82218.got.cif
#   From: 2010.06.25/outbox.cif.g09.slc.cpg/sg10_42_cif.got.tgz:82218.got - 2010.06.27 22:07:45.
