data_PCOD8066315
_publ_section_title
;
Structure prediction by ZEFSAII (Michael W. Deem and Ramdas Pophale) SiO2 
 PCOD8066315
Probable space group: P 2/M
;
_chemical_formula_sum "Si O2"
_cell_formula_units_Z 32
_cell_length_a 12.673957
_cell_length_b 8.715137
_cell_length_c 29.780239
_cell_angle_alpha 90.000000
_cell_angle_beta 28.217437
_cell_angle_gamma 90.000000
_cell_volume 1555.283281
_symmetry_space_group_name_H-M "P 2/M"
_symmetry_group_IT_number 10
_symmetry_cell_setting 'monoclinic'
loop_
_space_group_symop_operation_xyz
x,y,z
-x,y,-z
-x,-y,-z
x,-y,z
loop_
_atom_site_type_symbol
_atom_site_label
_atom_site_fract_x
_atom_site_fract_y
_atom_site_fract_z
Si Si1 0.608873 0.319067 0.100465
Si Si2 0.472104 0.174805 0.393262
Si Si3 0.010829 0.177822 0.101431
Si Si4 0.279797 0.824737 0.559874
Si Si5 0.064810 0.678695 0.777145
Si Si6 0.856878 0.321896 0.762805
Si Si7 0.752856 0.678946 0.603975
Si Si8 0.426652 0.177308 0.790755
O O1 0.636234 0.500000 0.082974
O O2 0.379559 0.254259 0.164885
O O3 0.619942 0.281037 0.148734
O O4 0.811195 0.232725 0.001267
O O5 0.300283 0.189956 0.498635
O O6 0.718652 0.221742 0.316531
O O7 0.401068 0.290365 0.381128
O O8 0.478014 0.000000 0.372789
O O9 0.042294 0.271929 0.135539
O O10 0.765059 0.208126 0.173991
O O11 0.047428 0.000000 0.098302
O O12 0.500000 0.748972 0.500000
O O13 0.055106 0.743406 0.658542
O O14 0.264435 0.000000 0.581674
O O15 0.128243 0.500000 0.754750
O O16 0.886956 0.713158 0.804382
O O17 0.856982 0.500000 0.752643
O O18 0.750211 0.500000 0.616854
O O19 0.661700 0.772288 0.680927
O O20 0.000000 0.738561 0.500000
O O21 0.436456 0.000000 0.801571
#
# Coordination Sequence:
#
# PCOD8066315 Si02
#       8
#     4   4   4   4   4   4   4   4
#     4  11  25  44  65  92 127 165 208 259 316 375
#     4  11  22  38  60  90 125 163 208 257 308 368
#     4  11  24  43  67  95 123 158 207 263 319 376
#     4  10  21  37  59  88 122 161 203 247 300 364
#     4  11  22  39  65  93 124 165 211 259 312 369
#     4  10  24  42  61  91 128 166 209 259 311 368
#     4  11  25  42  62  92 128 166 209 254 307 370
#     4  11  24  43  67  94 127 163 208 261 312 373
#
# _framework density 20.575030000000002
#
# number of rings (size 3 to 8) (size 9 to 14) (size 15 to 20)
#    0.000    1.250    2.500    2.625    1.750    7.250 
#    0.000    2.500    0.000    0.000    0.000    0.000 
#    0.000    0.000    0.000    0.000    0.000    0.000 
#
# Total GULP energy -396979.311309 kJ/mol
# GULP energy per Si atom -12405.603478 kJ/mol
# Density = 2.052820 g / cm^3
# Si number density = 20.575030 Si / 1000 Ang^3
#
#
#
# Elastic Constant Matrix: (Units=GPa)
#
#
# Indices 1 2 3 4 5 6 
#
# 1 65.8832 28.9090 23.0002 0.0000 14.4609 0.0000
# 2 28.9090 48.6200 29.7364 0.0000 -3.3611 0.0000
# 3 23.0002 29.7364 122.3115 0.0000 8.2594 0.0000
# 4 0.0000 0.0000 0.0000 29.8339 0.0000 11.9715
# 5 14.4609 -3.3611 8.2594 0.0000 32.0382 0.0000
# 6 0.0000 0.0000 0.0000 11.9715 0.0000 17.1492
#
#
#
# Elastic Compliance Matrix: (Units=1/GPa)
#
#
# Indices 1 2 3 4 5 6 
#
# 1 0.024890 -0.015693 0.000005 0.000000 -0.012882 0.000000
# 2 -0.015693 0.034601 -0.006294 0.000000 0.012336 0.000000
# 3 0.000005 -0.006294 0.009923 0.000000 -0.003220 0.000000
# 4 0.000000 0.000000 0.000000 0.046562 0.000000 -0.032504
# 5 -0.012882 0.012336 -0.003220 0.000000 0.039152 0.000000
# 6 0.000000 0.000000 0.000000 -0.032504 0.000000 0.081002
#
#
# Mechanical properties :
#
#
# Convention : Reuss Voigt Hill
#
# Bulk Modulus (GPa) = 39.29438 44.45619 41.87529
# Shear Modulus (GPa) = 17.32643 26.14887 21.73765
#
# Velocity S-wave (km/s) = 2.90506 3.56884 3.25392
# Velocity P-wave (km/s) = 5.51290 6.21578 5.87486
#
# Compressibility (1/GPa) = 0.02544893
#
# Stress axis : x y z
#
# Youngs Moduli (GPa) = 40.17652 28.90105 100.77923
#
# Poissons Ratio (x) = 0.45354 -0.00047
# Poissons Ratio (y) = 0.63048 0.63432
# Poissons Ratio (z) = -0.00019 0.18191
#
# Static dielectric constant tensor:
#      x y z
#    x 3.809270 0.000000 -0.058330 
#    y 0.000000 3.690530 0.000000 
#    z -0.058330 0.000000 3.789510 
# 
# 
# High freq. dielectric constant tensor:
#      x y z
#    x 1.809640 0.000000 0.007650 
#    y 0.000000 1.806210 0.000000 
#    z 0.007650 0.000000 1.811310 
# 
# From -- ./inp_files/94868.got.cif
#   From: 2010.06.25/outbox.cif.g09.slc.cpg/sg10_48_cif.got.tgz:94868.got - 2010.06.27 22:07:45.
