data_PCOD8066793
_publ_section_title
;
Structure prediction by ZEFSAII (Michael W. Deem and Ramdas Pophale) SiO2 
 PCOD8066793
Probable space group: P 2/M
;
_chemical_formula_sum "Si O2"
_cell_formula_units_Z 22
_cell_length_a 9.648108
_cell_length_b 25.762728
_cell_length_c 8.320834
_cell_angle_alpha 90.000000
_cell_angle_beta 148.391547
_cell_angle_gamma 90.000000
_cell_volume 1083.988312
_symmetry_space_group_name_H-M "P 2/M"
_symmetry_group_IT_number 10
_symmetry_cell_setting 'monoclinic'
loop_
_space_group_symop_operation_xyz
x,y,z
-x,y,-z
-x,-y,-z
x,-y,z
loop_
_atom_site_type_symbol
_atom_site_label
_atom_site_fract_x
_atom_site_fract_y
_atom_site_fract_z
Si Si1 0.751859 0.500000 0.637089
Si Si2 0.239126 0.222202 0.346344
Si Si3 0.103181 0.108138 0.278299
Si Si4 0.250283 0.701179 0.645609
Si Si5 0.600381 0.939846 0.922156
Si Si6 0.248222 0.580849 0.641809
O O1 0.500000 0.500000 0.500000
O O2 0.745574 0.550897 0.519921
O O3 0.000000 0.500000 0.000000
O O4 0.500000 0.212049 0.500000
O O5 0.158786 0.169082 0.355726
O O6 0.290533 0.266995 0.523972
O O7 0.000000 0.241787 0.000000
O O8 0.373909 0.077005 0.573748
O O9 0.000000 0.094323 0.000000
O O10 0.871866 0.091902 0.171809
O O11 0.225068 0.641091 0.572960
O O12 0.000000 0.720472 0.500000
O O13 0.500000 0.712303 0.000000
O O14 0.665689 0.000000 0.960893
O O15 0.500000 0.927361 0.000000
O O16 0.000000 0.561805 0.500000
O O17 0.500000 0.568330 0.000000
#
# Coordination Sequence:
#
# PCOD8066793 Si02
#       6
#     2   4   4   4   4   4
#     4  12  24  36  58  92 122 154 204 252 292 346
#     4  11  23  40  60  85 120 154 187 238 296 344
#     4  11  23  40  60  86 117 152 193 231 283 352
#     4  10  22  39  62  90 116 152 203 244 285 350
#     4  11  24  41  61  87 117 149 189 239 291 339
#     4  10  21  40  61  83 119 162 198 240 296 352
#
# _framework density 20.295421999999999
#
# number of rings (size 3 to 8) (size 9 to 14) (size 15 to 20)
#    0.000    1.273    0.000    6.545    0.000    7.273 
#    0.000    0.000    0.000    0.000    0.000    0.000 
#    0.000    0.000    0.000    0.000    0.000    0.000 
#
# Total GULP energy -272929.855038 kJ/mol
# GULP energy per Si atom -12405.902502 kJ/mol
# Density = 2.024923 g / cm^3
# Si number density = 20.295422 Si / 1000 Ang^3
#
#
#
# Elastic Constant Matrix: (Units=GPa)
#
#
# Indices 1 2 3 4 5 6 
#
# 1 122.9884 81.1699 56.4733 0.0000 11.9503 0.0000
# 2 81.1699 116.3576 49.0521 0.0000 -1.1385 0.0000
# 3 56.4733 49.0521 114.6793 0.0000 22.2498 0.0000
# 4 0.0000 0.0000 0.0000 40.0588 0.0000 20.6858
# 5 11.9503 -1.1385 22.2498 0.0000 41.1860 0.0000
# 6 0.0000 0.0000 0.0000 20.6858 0.0000 67.2590
#
#
#
# Elastic Compliance Matrix: (Units=1/GPa)
#
#
# Indices 1 2 3 4 5 6 
#
# 1 0.016785 -0.010421 -0.003136 0.000000 -0.003464 0.000000
# 2 -0.010421 0.017304 -0.003295 0.000000 0.005282 0.000000
# 3 -0.003136 -0.003295 0.012863 0.000000 -0.006130 0.000000
# 4 0.000000 0.000000 0.000000 0.029676 0.000000 -0.009127
# 5 -0.003464 0.005282 -0.006130 0.000000 0.028743 0.000000
# 6 0.000000 0.000000 0.000000 -0.009127 0.000000 0.017675
#
#
# Mechanical properties :
#
#
# Convention : Reuss Voigt Hill
#
# Bulk Modulus (GPa) = 75.47932 80.82401 78.15167
# Shear Modulus (GPa) = 31.02380 40.85609 35.93994
#
# Velocity S-wave (km/s) = 3.91399 4.49159 4.21270
# Velocity P-wave (km/s) = 7.59584 8.17370 7.89006
#
# Compressibility (1/GPa) = 0.01324866
#
# Stress axis : x y z
#
# Youngs Moduli (GPa) = 59.57655 57.78917 77.74224
#
# Poissons Ratio (x) = 0.60221 0.24383
# Poissons Ratio (y) = 0.62084 0.25614
# Poissons Ratio (z) = 0.18685 0.19040
#
# Static dielectric constant tensor:
#      x y z
#    x 3.662250 0.000000 0.106850 
#    y 0.000000 3.690480 0.000000 
#    z 0.106850 0.000000 3.928820 
# 
# 
# High freq. dielectric constant tensor:
#      x y z
#    x 1.797670 0.000000 0.008040 
#    y 0.000000 1.797480 0.000000 
#    z 0.008040 0.000000 1.815840 
# 
# From -- ./inp_files/20805.got.cif
#   From: 2010.06.25/outbox.cif.g09.slc.cpg/sg10_11_cif.got.tgz:20805.got - 2010.06.27 22:07:45.
