data_PCOD8066321
_publ_section_title
;
Structure prediction by ZEFSAII (Michael W. Deem and Ramdas Pophale) SiO2 
 PCOD8066321
Probable space group: P 2/M
;
_chemical_formula_sum "Si O2"
_cell_formula_units_Z 20
_cell_length_a 10.984358
_cell_length_b 9.116406
_cell_length_c 18.651790
_cell_angle_alpha 90.000000
_cell_angle_beta 150.020675
_cell_angle_gamma 90.000000
_cell_volume 933.291497
_symmetry_space_group_name_H-M "P 2/M"
_symmetry_group_IT_number 10
_symmetry_cell_setting 'monoclinic'
loop_
_space_group_symop_operation_xyz
x,y,z
-x,y,-z
-x,-y,-z
x,-y,z
loop_
_atom_site_type_symbol
_atom_site_label
_atom_site_fract_x
_atom_site_fract_y
_atom_site_fract_z
Si Si1 0.988878 0.827736 0.828670
Si Si2 0.508174 0.827747 0.668414
Si Si3 0.459110 0.669339 0.060006
Si Si4 0.261806 0.669331 0.660905
Si Si5 0.747261 0.336243 0.582432
O O1 0.778700 0.789209 0.778717
O O2 0.943997 0.750989 0.729205
O O3 0.005651 0.000000 0.824542
O O4 0.243205 0.763305 0.986714
O O5 0.473688 0.763339 0.730198
O O6 0.299587 0.750907 0.514400
O O7 0.462176 0.000000 0.643322
O O8 0.378638 0.500000 0.017264
O O9 0.698439 0.690586 0.232815
O O10 0.500000 0.727396 0.000000
O O11 0.294592 0.500000 0.655921
O O12 0.000000 0.727394 0.500000
O O13 0.500000 0.346345 0.500000
O O14 0.846567 0.500000 0.615549
#
# Coordination Sequence:
#
# PCOD8066321 Si02
#       5
#     4   4   4   4   4
#     4  10  21  37  59  90 126 161 202 252 307 367
#     4  10  21  37  59  90 126 161 202 252 307 367
#     4  10  23  42  63  89 121 160 206 255 308 367
#     4  10  23  42  63  89 121 160 206 255 308 367
#     4   9  17  31  55  87 121 159 200 243 296 355
#
# _framework density 21.429532999999999
#
# number of rings (size 3 to 8) (size 9 to 14) (size 15 to 20)
#    0.000    2.200    0.000    1.800    2.800    7.200 
#    0.000    4.000    0.000    0.000    0.000    0.000 
#    0.000    0.000    0.000    0.000    0.000    0.000 
#
# Total GULP energy -248004.399283 kJ/mol
# GULP energy per Si atom -12400.219964 kJ/mol
# Density = 2.138076 g / cm^3
# Si number density = 21.429533 Si / 1000 Ang^3
#
#
#
# Elastic Constant Matrix: (Units=GPa)
#
#
# Indices 1 2 3 4 5 6 
#
# 1 97.5588 43.8158 51.1244 0.0000 -13.7660 0.0000
# 2 43.8158 94.2558 41.0766 0.0000 1.4218 0.0000
# 3 51.1244 41.0766 132.0425 0.0000 -3.9535 0.0000
# 4 0.0000 0.0000 0.0000 30.0018 0.0000 1.0203
# 5 -13.7660 1.4218 -3.9535 0.0000 31.5846 0.0000
# 6 0.0000 0.0000 0.0000 1.0203 0.0000 31.9735
#
#
#
# Elastic Compliance Matrix: (Units=1/GPa)
#
#
# Indices 1 2 3 4 5 6 
#
# 1 0.015950 -0.005681 -0.004208 0.000000 0.006681 0.000000
# 2 -0.005681 0.014331 -0.002361 0.000000 -0.003417 0.000000
# 3 -0.004208 -0.002361 0.009922 0.000000 -0.000486 0.000000
# 4 0.000000 0.000000 0.000000 0.033368 0.000000 -0.001065
# 5 0.006681 -0.003417 -0.000486 0.000000 0.034666 0.000000
# 6 0.000000 0.000000 0.000000 -0.001065 0.000000 0.031310
#
#
# Mechanical properties :
#
#
# Convention : Reuss Voigt Hill
#
# Bulk Modulus (GPa) = 63.68285 66.21006 64.94645
# Shear Modulus (GPa) = 29.53682 31.23468 30.38575
#
# Velocity S-wave (km/s) = 3.71661 3.82193 3.76964
# Velocity P-wave (km/s) = 6.94258 7.10211 7.02280
#
# Compressibility (1/GPa) = 0.01570281
#
# Stress axis : x y z
#
# Youngs Moduli (GPa) = 62.69740 69.77994 100.78191
#
# Poissons Ratio (x) = 0.39644 0.42409
# Poissons Ratio (y) = 0.35620 0.23792
# Poissons Ratio (z) = 0.26383 0.16473
#
# Static dielectric constant tensor:
#      x y z
#    x 3.726320 0.000000 -0.076460 
#    y 0.000000 3.790080 0.000000 
#    z -0.076460 0.000000 3.874240 
# 
# 
# High freq. dielectric constant tensor:
#      x y z
#    x 1.834210 0.000000 -0.002350 
#    y 0.000000 1.836780 0.000000 
#    z -0.002350 0.000000 1.838720 
# 
# From -- ./inp_files/76251.got.cif
#   From: 2010.06.25/outbox.cif.g09.slc.cpg/sg10_39_cif.got.tgz:76251.got - 2010.06.27 22:07:45.
