data_PCOD8066001
_publ_section_title
;
Structure prediction by ZEFSAII (Michael W. Deem and Ramdas Pophale) SiO2 
 PCOD8066001
Probable space group: P 2/M
;
_chemical_formula_sum "Si O2"
_cell_formula_units_Z 28
_cell_length_a 16.586909
_cell_length_b 10.862981
_cell_length_c 9.923835
_cell_angle_alpha 90.000000
_cell_angle_beta 55.315257
_cell_angle_gamma 90.000000
_cell_volume 1470.354261
_symmetry_space_group_name_H-M "P 2/M"
_symmetry_group_IT_number 10
_symmetry_cell_setting 'monoclinic'
loop_
_space_group_symop_operation_xyz
x,y,z
-x,y,-z
-x,-y,-z
x,-y,z
loop_
_atom_site_type_symbol
_atom_site_label
_atom_site_fract_x
_atom_site_fract_y
_atom_site_fract_z
Si Si1 0.119640 0.359493 0.639258
Si Si2 0.101219 0.000000 0.816755
Si Si3 0.207878 0.248102 0.800546
Si Si4 0.786409 0.641811 0.716994
Si Si5 0.910852 0.255634 0.821972
Si Si6 0.973804 0.000000 0.682764
Si Si7 0.583854 0.354281 0.017575
Si Si8 0.407588 0.643393 0.683079
O O1 0.091397 0.500000 0.635389
O O2 0.182718 0.351043 0.714092
O O3 0.181584 0.300717 0.456732
O O4 0.022323 0.281175 0.754336
O O5 0.170580 0.884365 0.784779
O O6 0.070543 0.000000 0.687871
O O7 0.000000 0.000000 0.000000
O O8 0.324103 0.261383 0.713358
O O9 0.156083 0.284880 0.987674
O O10 0.764434 0.500000 0.713838
O O11 0.876246 0.657572 0.734065
O O12 0.687602 0.704135 0.869691
O O13 0.903616 0.114627 0.782443
O O14 0.000000 0.000000 0.500000
O O15 0.587190 0.500000 0.998759
O O16 0.562956 0.319446 0.192448
O O17 0.500000 0.298660 0.000000
O O18 0.500000 0.664818 0.500000
O O19 0.372666 0.500000 0.710646
#
# Coordination Sequence:
#
# PCOD8066001 Si02
#       8
#     4   2   4   4   4   2   4   4
#     4  11  23  34  53  85 123 160 194 240 300 367
#     4  12  22  44  61  86 120 160 204 252 296 354
#     4  12  23  39  61  86 118 160 204 250 304 358
#     4  10  21  36  54  84 122 156 195 242 300 361
#     4  12  22  38  58  83 119 159 202 248 293 356
#     4  12  24  40  62  86 115 160 210 250 293 349
#     4   9  18  34  57  82 112 152 193 241 298 357
#     4  10  22  39  60  90 123 155 201 257 310 366
#
# _framework density 19.043030999999999
#
# number of rings (size 3 to 8) (size 9 to 14) (size 15 to 20)
#    0.000    1.143    4.286    2.571    2.000    3.429 
#    0.000    0.357    0.000    0.000    0.000    1.000 
#    0.000    0.000    0.000    0.000    0.000    0.000 
#
# Total GULP energy -347180.774832 kJ/mol
# GULP energy per Si atom -12399.313387 kJ/mol
# Density = 1.899969 g / cm^3
# Si number density = 19.043031 Si / 1000 Ang^3
#
#
#
# Elastic Constant Matrix: (Units=GPa)
#
#
# Indices 1 2 3 4 5 6 
#
# 1 132.8489 26.7637 63.7044 0.0000 5.6260 0.0000
# 2 26.7637 43.9751 33.0261 0.0000 -0.6795 0.0000
# 3 63.7044 33.0261 155.0425 0.0000 6.3981 0.0000
# 4 0.0000 0.0000 0.0000 10.5675 0.0000 3.1622
# 5 5.6260 -0.6795 6.3981 0.0000 34.3537 0.0000
# 6 0.0000 0.0000 0.0000 3.1622 0.0000 24.9472
#
#
#
# Elastic Compliance Matrix: (Units=1/GPa)
#
#
# Indices 1 2 3 4 5 6 
#
# 1 0.009847 -0.003577 -0.003240 0.000000 -0.001080 0.000000
# 2 -0.003577 0.028460 -0.004676 0.000000 0.002020 0.000000
# 3 -0.003240 -0.004676 0.008827 0.000000 -0.001206 0.000000
# 4 0.000000 0.000000 0.000000 0.098361 0.000000 -0.012468
# 5 -0.001080 0.002020 -0.001206 0.000000 0.029550 0.000000
# 6 0.000000 0.000000 0.000000 -0.012468 0.000000 0.041665
#
#
# Mechanical properties :
#
#
# Convention : Reuss Voigt Hill
#
# Bulk Modulus (GPa) = 41.40944 64.31721 52.86333
# Shear Modulus (GPa) = 20.18206 27.86515 24.02360
#
# Velocity S-wave (km/s) = 3.25901 3.82942 3.55567
# Velocity P-wave (km/s) = 5.99616 7.30758 6.68411
#
# Compressibility (1/GPa) = 0.02414908
#
# Stress axis : x y z
#
# Youngs Moduli (GPa) = 101.55268 35.13702 113.29204
#
# Poissons Ratio (x) = 0.12568 0.36701
# Poissons Ratio (y) = 0.36323 0.52976
# Poissons Ratio (z) = 0.32898 0.16430
#
# Static dielectric constant tensor:
#      x y z
#    x 3.624910 0.000000 0.063310 
#    y 0.000000 3.269280 0.000000 
#    z 0.063310 0.000000 3.726550 
# 
# 
# High freq. dielectric constant tensor:
#      x y z
#    x 1.741560 0.000000 0.014540 
#    y 0.000000 1.705750 0.000000 
#    z 0.014540 0.000000 1.756550 
# 
# From -- ./inp_files/28536.got.cif
#   From: 2010.06.25/outbox.cif.g09.slc.cpg/sg10_15_cif.got.tgz:28536.got - 2010.06.27 22:07:45.
