data_PCOD8066925
_publ_section_title
;
Structure prediction by ZEFSAII (Michael W. Deem and Ramdas Pophale) SiO2 
 PCOD8066925
Probable space group: P 2/M
;
_chemical_formula_sum "Si O2"
_cell_formula_units_Z 24
_cell_length_a 17.717561
_cell_length_b 10.820030
_cell_length_c 11.684966
_cell_angle_alpha 90.000000
_cell_angle_beta 148.171896
_cell_angle_gamma 90.000000
_cell_volume 1181.346844
_symmetry_space_group_name_H-M "P 2/M"
_symmetry_group_IT_number 10
_symmetry_cell_setting 'monoclinic'
loop_
_space_group_symop_operation_xyz
x,y,z
-x,y,-z
-x,-y,-z
x,-y,z
loop_
_atom_site_type_symbol
_atom_site_label
_atom_site_fract_x
_atom_site_fract_y
_atom_site_fract_z
Si Si1 0.164417 0.500000 0.335671
Si Si2 0.726211 0.000000 0.825796
Si Si3 0.828182 0.500000 0.905360
Si Si4 0.554357 0.000000 0.384984
Si Si5 0.565159 0.821168 0.194588
Si Si6 0.836390 0.298019 0.487820
Si Si7 0.324695 0.640213 0.938825
Si Si8 0.168009 0.257895 0.947552
O O1 0.242383 0.500000 0.312249
O O2 0.208967 0.380665 0.463002
O O3 0.995604 0.500000 0.104870
O O4 0.692435 0.000000 0.646319
O O5 0.583581 0.000000 0.714686
O O6 0.812428 0.874306 0.965316
O O7 0.783073 0.373487 0.910689
O O8 0.551383 0.882446 0.299686
O O9 0.733134 0.817445 0.378238
O O10 0.500000 0.893442 0.000000
O O11 0.477194 0.691377 0.090480
O O12 0.794010 0.362836 0.314403
O O13 0.002427 0.264532 0.698514
O O14 0.344510 0.500000 0.009516
O O15 0.265109 0.731621 0.960064
#
# Coordination Sequence:
#
# PCOD8066925 Si02
#       8
#     2   2   2   2   4   4   4   4
#     4   9  18  35  55  88 132 161 193 246 325 372
#     4  11  26  43  67  88 130 166 214 259 314 372
#     4   9  20  35  62  86 127 167 200 250 312 377
#     4  11  23  47  66  83 120 176 213 248 320 380
#     4  10  23  40  64  91 122 164 208 261 310 375
#     4  10  22  36  63  95 127 160 204 263 321 364
#     4  11  21  38  64  96 128 164 211 258 310 377
#     4  11  22  42  62  96 125 168 210 263 311 370
#
# _framework density 20.315795999999999
#
# number of rings (size 3 to 8) (size 9 to 14) (size 15 to 20)
#    0.000    1.667    3.333    0.750    3.500    2.333 
#    0.000    3.333    0.000    3.000    0.000    0.000 
#    0.000    0.000    0.000    0.000    0.000    0.000 
#
# Total GULP energy -297364.734345 kJ/mol
# GULP energy per Si atom -12390.197264 kJ/mol
# Density = 2.026956 g / cm^3
# Si number density = 20.315796 Si / 1000 Ang^3
#
#
#
# Elastic Constant Matrix: (Units=GPa)
#
#
# Indices 1 2 3 4 5 6 
#
# 1 102.8829 27.0023 35.9452 0.0000 -18.2998 0.0000
# 2 27.0023 122.9383 37.4671 0.0000 -10.2308 0.0000
# 3 35.9452 37.4671 73.3665 0.0000 -12.3332 0.0000
# 4 0.0000 0.0000 0.0000 -15.9374 0.0000 25.6699
# 5 -18.2998 -10.2308 -12.3332 0.0000 44.2199 0.0000
# 6 0.0000 0.0000 0.0000 25.6699 0.0000 3.4501
#
#
#
# Elastic Compliance Matrix: (Units=1/GPa)
#
#
# Indices 1 2 3 4 5 6 
#
# 1 0.012321 -0.000894 -0.004992 0.000000 0.003500 0.000000
# 2 -0.000894 0.009732 -0.004423 0.000000 0.000648 0.000000
# 3 -0.004992 -0.004423 0.018692 0.000000 0.002124 0.000000
# 4 0.000000 0.000000 0.000000 -0.004833 0.000000 0.035956
# 5 0.003500 0.000648 0.002124 0.000000 0.024805 0.000000
# 6 0.000000 0.000000 0.000000 0.035956 0.000000 0.022324
#
#
# Mechanical properties :
#
#
# Convention : Reuss Voigt Hill
#
# Bulk Modulus (GPa) = 49.68308 55.55745 52.62027
# Shear Modulus (GPa) = 45.30289 19.59806 32.45048
#
# Velocity S-wave (km/s) = 4.72734 3.10928 4.00096
# Velocity P-wave (km/s) = 7.36923 6.34795 6.87757
#
# Compressibility (1/GPa) = 0.02012758
#
# Stress axis : x y z
#
# Youngs Moduli (GPa) = 81.16311 102.74873 53.49895
#
# Poissons Ratio (x) = 0.09182 0.26706
# Poissons Ratio (y) = 0.07253 0.23665
# Poissons Ratio (z) = 0.40515 0.45450
#
# Static dielectric constant tensor:
#      x y z
#    x 3.809490 0.000000 -0.381010 
#    y 0.000000 3.550840 0.000000 
#    z -0.381010 0.000000 3.828160 
# 
# 
# High freq. dielectric constant tensor:
#      x y z
#    x 1.803680 0.000000 -0.012510 
#    y 0.000000 1.781720 0.000000 
#    z -0.012510 0.000000 1.792540 
# 
# From -- ./inp_files/53762.got.cif
#   From: 2010.06.25/outbox.cif.g09.slc.cpg/sg10_27_cif.got.tgz:53762.got - 2010.06.27 22:07:45.
