data_PCOD8066626
_publ_section_title
;
Structure prediction by ZEFSAII (Michael W. Deem and Ramdas Pophale) SiO2 
 PCOD8066626
Probable space group: P 2/M
;
_chemical_formula_sum "Si O2"
_cell_formula_units_Z 32
_cell_length_a 11.779535
_cell_length_b 9.009937
_cell_length_c 28.373998
_cell_angle_alpha 90.000000
_cell_angle_beta 31.343418
_cell_angle_gamma 90.000000
_cell_volume 1566.436453
_symmetry_space_group_name_H-M "P 2/M"
_symmetry_group_IT_number 10
_symmetry_cell_setting 'monoclinic'
loop_
_space_group_symop_operation_xyz
x,y,z
-x,y,-z
-x,-y,-z
x,-y,z
loop_
_atom_site_type_symbol
_atom_site_label
_atom_site_fract_x
_atom_site_fract_y
_atom_site_fract_z
Si Si1 0.461250 0.675172 0.774735
Si Si2 0.928452 0.666675 0.317951
Si Si3 0.116318 0.174844 0.410371
Si Si4 0.659414 0.169156 0.341805
Si Si5 0.574811 0.328616 0.839626
Si Si6 0.125669 0.829917 0.833482
Si Si7 0.766764 0.330310 0.474977
Si Si8 0.632886 0.824360 0.997900
O O1 0.481251 0.500000 0.761805
O O2 0.647876 0.749766 0.676620
O O3 0.482634 0.722382 0.821702
O O4 0.226170 0.731245 0.839812
O O5 0.915981 0.500000 0.301476
O O6 0.866887 0.783478 0.299479
O O7 0.759137 0.682453 0.421173
O O8 0.168213 0.702104 0.251881
O O9 0.000000 0.222168 0.500000
O O10 0.965427 0.229383 0.421565
O O11 0.150530 0.000000 0.395111
O O12 0.719716 0.187009 0.266288
O O13 0.459435 0.276183 0.423461
O O14 0.595655 0.000000 0.376247
O O15 0.520702 0.500000 0.868305
O O16 0.465365 0.232400 0.918722
O O17 0.115246 0.000000 0.854223
O O18 0.884227 0.771927 0.905937
O O19 0.807543 0.500000 0.476217
O O20 0.614571 0.000000 0.003903
O O21 0.500000 0.758873 0.000000
#
# Coordination Sequence:
#
# PCOD8066626 Si02
#       8
#     4   4   4   4   4   4   4   4
#     4  11  23  41  63  89 122 161 206 250 302 366
#     4  10  21  39  59  83 120 160 199 247 305 364
#     4  11  23  38  58  86 121 161 207 257 304 355
#     4  11  23  38  58  87 121 158 204 255 305 360
#     4  10  22  41  63  90 123 158 201 254 306 362
#     4  10  23  42  61  87 125 159 197 252 306 360
#     4  11  22  38  58  84 120 161 203 249 303 363
#     4  10  22  42  67  94 123 159 202 248 305 369
#
# _framework density 20.428533000000002
#
# number of rings (size 3 to 8) (size 9 to 14) (size 15 to 20)
#    0.000    1.500    1.250    3.375    0.000   11.250 
#    0.000    2.500    0.000    0.000    0.000    0.000 
#    0.000    0.000    0.000    0.000    0.000    0.000 
#
# Total GULP energy -396955.538092 kJ/mol
# GULP energy per Si atom -12404.860565 kJ/mol
# Density = 2.038204 g / cm^3
# Si number density = 20.428533 Si / 1000 Ang^3
#
#
#
# Elastic Constant Matrix: (Units=GPa)
#
#
# Indices 1 2 3 4 5 6 
#
# 1 129.4566 45.5477 43.8079 0.0000 -12.2829 0.0000
# 2 45.5477 56.6927 35.7457 0.0000 3.9554 0.0000
# 3 43.8079 35.7457 100.8929 0.0000 -3.1975 0.0000
# 4 0.0000 0.0000 0.0000 33.5324 0.0000 -0.7044
# 5 -12.2829 3.9554 -3.1975 0.0000 32.0198 0.0000
# 6 0.0000 0.0000 0.0000 -0.7044 0.0000 29.8681
#
#
#
# Elastic Compliance Matrix: (Units=1/GPa)
#
#
# Indices 1 2 3 4 5 6 
#
# 1 0.011995 -0.008816 -0.001910 0.000000 0.005499 0.000000
# 2 -0.008816 0.029618 -0.006911 0.000000 -0.007731 0.000000
# 3 -0.001910 -0.006911 0.013235 0.000000 0.001443 0.000000
# 4 0.000000 0.000000 0.000000 0.029837 0.000000 0.000704
# 5 0.005499 -0.007731 0.001443 0.000000 0.034439 0.000000
# 6 0.000000 0.000000 0.000000 0.000704 0.000000 0.033497
#
#
# Mechanical properties :
#
#
# Convention : Reuss Voigt Hill
#
# Bulk Modulus (GPa) = 51.08761 59.69387 55.39074
# Shear Modulus (GPa) = 25.71755 29.88011 27.79883
#
# Velocity S-wave (km/s) = 3.55195 3.82863 3.69288
# Velocity P-wave (km/s) = 6.47179 6.98776 6.73472
#
# Compressibility (1/GPa) = 0.01957422
#
# Stress axis : x y z
#
# Youngs Moduli (GPa) = 83.37116 33.76287 75.55625
#
# Poissons Ratio (x) = 0.29764 0.14434
# Poissons Ratio (y) = 0.73498 0.52215
# Poissons Ratio (z) = 0.15927 0.23333
#
# Static dielectric constant tensor:
#      x y z
#    x 3.849020 0.000000 -0.094970 
#    y 0.000000 3.677930 0.000000 
#    z -0.094970 0.000000 3.723010 
# 
# 
# High freq. dielectric constant tensor:
#      x y z
#    x 1.808720 0.000000 -0.004550 
#    y 0.000000 1.795970 0.000000 
#    z -0.004550 0.000000 1.799540 
# 
# From -- ./inp_files/94941.got.cif
#   From: 2010.06.25/outbox.cif.g09.slc.cpg/sg10_48_cif.got.tgz:94941.got - 2010.06.27 22:07:45.
