data_PCOD8066036
_publ_section_title
;
Structure prediction by ZEFSAII (Michael W. Deem and Ramdas Pophale) SiO2 
 PCOD8066036
Probable space group: P 2/M
;
_chemical_formula_sum "Si O2"
_cell_formula_units_Z 32
_cell_length_a 27.893781
_cell_length_b 9.070961
_cell_length_c 21.530371
_cell_angle_alpha 90.000000
_cell_angle_beta 18.410528
_cell_angle_gamma 90.000000
_cell_volume 1720.507164
_symmetry_space_group_name_H-M "P 2/M"
_symmetry_group_IT_number 10
_symmetry_cell_setting 'monoclinic'
loop_
_space_group_symop_operation_xyz
x,y,z
-x,y,-z
-x,-y,-z
x,-y,z
loop_
_atom_site_type_symbol
_atom_site_label
_atom_site_fract_x
_atom_site_fract_y
_atom_site_fract_z
Si Si1 0.670373 0.172779 0.274782
Si Si2 0.187561 0.329340 0.154235
Si Si3 0.941662 0.326030 0.005042
Si Si4 0.317106 0.829656 0.332609
Si Si5 0.116574 0.667769 0.669157
Si Si6 0.795784 0.666655 0.007255
Si Si7 0.837422 0.326133 0.592719
Si Si8 0.671593 0.170705 0.907638
O O1 0.500000 0.219632 0.500000
O O2 0.781682 0.250450 0.186967
O O3 0.702828 0.222134 0.164501
O O4 0.696274 0.000000 0.248436
O O5 0.209618 0.500000 0.145355
O O6 0.291327 0.226589 0.069111
O O7 0.013233 0.282671 0.375994
O O8 0.243389 0.299390 0.015645
O O9 0.913558 0.500000 0.038425
O O10 0.000000 0.270733 0.000000
O O11 0.066444 0.281780 0.799831
O O12 0.252081 0.770492 0.478116
O O13 0.245973 0.742058 0.363406
O O14 0.274484 0.000000 0.378209
O O15 0.495587 0.803727 0.111067
O O16 0.175292 0.500000 0.597948
O O17 0.975845 0.685627 0.795169
O O18 0.749910 0.500000 0.082065
O O19 0.813791 0.500000 0.618886
O O20 0.768546 0.264896 0.740552
O O21 0.715609 0.000000 0.846985
#
# Coordination Sequence:
#
# PCOD8066036 Si02
#       8
#     4   4   4   4   4   4   4   4
#     4  10  21  36  55  84 119 151 185 226 274 332
#     4  10  21  39  60  84 111 142 185 234 281 328
#     4   9  19  37  60  85 113 145 187 234 277 325
#     4  11  23  38  56  81 115 150 185 227 275 332
#     4   9  17  34  59  84 110 142 186 234 273 324
#     4   9  18  36  60  84 110 143 189 236 272 323
#     4  11  22  39  63  85 107 141 188 236 279 329
#     4  11  25  40  53  81 119 150 183 226 278 335
#
# _framework density 18.599167000000001
#
# number of rings (size 3 to 8) (size 9 to 14) (size 15 to 20)
#    0.000    2.000    1.250    3.000    0.000    9.750 
#    2.250    0.000    0.000    0.000    0.000    0.000 
#    0.000    0.000    0.000    0.000    0.000    0.000 
#
# Total GULP energy -396912.725050 kJ/mol
# GULP energy per Si atom -12403.522658 kJ/mol
# Density = 1.855683 g / cm^3
# Si number density = 18.599167 Si / 1000 Ang^3
#
#
#
# Elastic Constant Matrix: (Units=GPa)
#
#
# Indices 1 2 3 4 5 6 
#
# 1 110.1526 38.8980 28.5628 0.0000 5.4206 0.0000
# 2 38.8980 70.8737 38.7525 0.0000 -7.0545 0.0000
# 3 28.5628 38.7525 66.9529 0.0000 4.7009 0.0000
# 4 0.0000 0.0000 0.0000 30.8125 0.0000 -5.1338
# 5 5.4206 -7.0545 4.7009 0.0000 18.6488 0.0000
# 6 0.0000 0.0000 0.0000 -5.1338 0.0000 12.4414
#
#
#
# Elastic Compliance Matrix: (Units=1/GPa)
#
#
# Indices 1 2 3 4 5 6 
#
# 1 0.011934 -0.006678 -0.000820 0.000000 -0.005788 0.000000
# 2 -0.006678 0.026870 -0.013798 0.000000 0.015584 0.000000
# 3 -0.000820 -0.013798 0.024047 0.000000 -0.011043 0.000000
# 4 0.000000 0.000000 0.000000 0.034850 0.000000 0.014381
# 5 -0.005788 0.015584 -0.011043 0.000000 0.063984 0.000000
# 6 0.000000 0.000000 0.000000 0.014381 0.000000 0.086311
#
#
# Mechanical properties :
#
#
# Convention : Reuss Voigt Hill
#
# Bulk Modulus (GPa) = 49.35669 51.15621 50.25645
# Shear Modulus (GPa) = 16.81576 21.83159 19.32368
#
# Velocity S-wave (km/s) = 3.01011 3.42978 3.22678
# Velocity P-wave (km/s) = 6.21898 6.57639 6.40018
#
# Compressibility (1/GPa) = 0.02026068
#
# Stress axis : x y z
#
# Youngs Moduli (GPa) = 83.79599 37.21604 41.58493
#
# Poissons Ratio (x) = 0.24852 0.03408
# Poissons Ratio (y) = 0.55956 0.57379
# Poissons Ratio (z) = 0.06868 0.51350
#
# Static dielectric constant tensor:
#      x y z
#    x 3.505170 0.000000 0.117680 
#    y 0.000000 3.421000 0.000000 
#    z 0.117680 0.000000 3.396990 
# 
# 
# High freq. dielectric constant tensor:
#      x y z
#    x 1.726330 0.000000 0.009980 
#    y 0.000000 1.724070 0.000000 
#    z 0.009980 0.000000 1.718550 
# 
# From -- ./inp_files/86900.got.cif
#   From: 2010.06.25/outbox.cif.g09.slc.cpg/sg10_44_cif.got.tgz:86900.got - 2010.06.27 22:07:45.
