data_PCOD8066975
_publ_section_title
;
Structure prediction by ZEFSAII (Michael W. Deem and Ramdas Pophale) SiO2 
 PCOD8066975
Probable space group: P 2/M
;
_chemical_formula_sum "Si O2"
_cell_formula_units_Z 24
_cell_length_a 12.307542
_cell_length_b 8.565837
_cell_length_c 11.562950
_cell_angle_alpha 90.000000
_cell_angle_beta 104.565756
_cell_angle_gamma 90.000000
_cell_volume 1179.837418
_symmetry_space_group_name_H-M "P 2/M"
_symmetry_group_IT_number 10
_symmetry_cell_setting 'monoclinic'
loop_
_space_group_symop_operation_xyz
x,y,z
-x,y,-z
-x,-y,-z
x,-y,z
loop_
_atom_site_type_symbol
_atom_site_label
_atom_site_fract_x
_atom_site_fract_y
_atom_site_fract_z
Si Si1 0.936387 0.316056 0.250369
Si Si2 0.384811 0.676628 0.920378
Si Si3 0.626445 0.684472 0.519656
Si Si4 0.818937 0.315616 0.736014
Si Si5 0.734736 0.180536 0.322548
Si Si6 0.172935 0.674813 0.008786
O O1 0.908024 0.500000 0.246105
O O2 0.862347 0.236120 0.330739
O O3 0.067662 0.280126 0.307178
O O4 0.902242 0.248367 0.113677
O O5 0.399325 0.500000 0.875270
O O6 0.341918 0.790248 0.809383
O O7 0.500000 0.745206 0.000000
O O8 0.301924 0.676171 0.006470
O O9 0.500000 0.754483 0.500000
O O10 0.620673 0.500000 0.530358
O O11 0.710284 0.754154 0.640756
O O12 0.679850 0.724531 0.411488
O O13 0.802216 0.500000 0.744984
O O14 0.833074 0.239250 0.867944
O O15 0.736084 0.000000 0.355469
O O16 0.126678 0.500000 0.013824
#
# Coordination Sequence:
#
# PCOD8066975 Si02
#       6
#     4   4   4   4   4   4
#     4   9  17  33  57  83 110 138 179 231 280 329
#     4   9  18  32  57  86 110 141 183 230 274 322
#     4  10  22  38  58  81 108 143 186 234 276 324
#     4   9  17  30  54  85 110 139 179 229 283 327
#     4  11  23  38  55  76 112 151 185 225 272 330
#     4   8  14  26  49  84 114 133 165 220 281 330
#
# _framework density 20.341785999999999
#
# number of rings (size 3 to 8) (size 9 to 14) (size 15 to 20)
#    0.000    2.667    0.000    3.000    2.333    3.333 
#    0.000    4.167    0.000    9.000    0.000    0.000 
#    0.000    0.000    0.000    0.000    0.000    0.000 
#
# Total GULP energy -297441.516554 kJ/mol
# GULP energy per Si atom -12393.396523 kJ/mol
# Density = 2.029549 g / cm^3
# Si number density = 20.341786 Si / 1000 Ang^3
#
#
#
# Elastic Constant Matrix: (Units=GPa)
#
#
# Indices 1 2 3 4 5 6 
#
# 1 154.5498 9.7620 59.4080 0.0000 12.4323 0.0000
# 2 9.7620 15.9174 -0.1381 0.0000 3.6231 0.0000
# 3 59.4080 -0.1381 84.6886 0.0000 -12.3219 0.0000
# 4 0.0000 0.0000 0.0000 7.9523 0.0000 3.4391
# 5 12.4323 3.6231 -12.3219 0.0000 28.6365 0.0000
# 6 0.0000 0.0000 0.0000 3.4391 0.0000 6.1063
#
#
#
# Elastic Compliance Matrix: (Units=1/GPa)
#
#
# Indices 1 2 3 4 5 6 
#
# 1 0.010738 -0.004891 -0.008672 0.000000 -0.007774 0.000000
# 2 -0.004891 0.067022 0.002790 0.000000 -0.005156 0.000000
# 3 -0.008672 0.002790 0.019620 0.000000 0.011854 0.000000
# 4 0.000000 0.000000 0.000000 0.166240 0.000000 -0.093627
# 5 -0.007774 -0.005156 0.011854 0.000000 0.044048 0.000000
# 6 0.000000 0.000000 0.000000 -0.093627 0.000000 0.216495
#
#
# Mechanical properties :
#
#
# Convention : Reuss Voigt Hill
#
# Bulk Modulus (GPa) = 13.18649 43.69106 28.43877
# Shear Modulus (GPa) = 8.75676 20.94729 14.85202
#
# Velocity S-wave (km/s) = 2.07705 3.21248 2.70501
# Velocity P-wave (km/s) = 3.49982 5.94013 4.87513
#
# Compressibility (1/GPa) = 0.07583518
#
# Stress axis : x y z
#
# Youngs Moduli (GPa) = 93.12626 14.92046 50.96741
#
# Poissons Ratio (x) = 0.07298 0.44198
# Poissons Ratio (y) = 0.45550 -0.14222
# Poissons Ratio (z) = 0.80757 -0.04163
#
# Static dielectric constant tensor:
#      x y z
#    x 3.931420 0.000000 0.087810 
#    y 0.000000 3.071170 0.000000 
#    z 0.087810 0.000000 3.758710 
# 
# 
# High freq. dielectric constant tensor:
#      x y z
#    x 1.811480 0.000000 -0.000770 
#    y 0.000000 1.728840 0.000000 
#    z -0.000770 0.000000 1.792190 
# 
# From -- ./inp_files/45178.got.cif
#   From: 2010.06.25/outbox.cif.g09.slc.cpg/sg10_23_cif.got.tgz:45178.got - 2010.06.27 22:07:45.
