data_PCOD8066085
_publ_section_title
;
Structure prediction by ZEFSAII (Michael W. Deem and Ramdas Pophale) SiO2 
 PCOD8066085
Probable space group: P 2/M
;
_chemical_formula_sum "Si O2"
_cell_formula_units_Z 24
_cell_length_a 23.646729
_cell_length_b 9.198930
_cell_length_c 11.553316
_cell_angle_alpha 90.000000
_cell_angle_beta 29.051930
_cell_angle_gamma 90.000000
_cell_volume 1220.381528
_symmetry_space_group_name_H-M "P 2/M"
_symmetry_group_IT_number 10
_symmetry_cell_setting 'monoclinic'
loop_
_space_group_symop_operation_xyz
x,y,z
-x,y,-z
-x,-y,-z
x,-y,z
loop_
_atom_site_type_symbol
_atom_site_label
_atom_site_fract_x
_atom_site_fract_y
_atom_site_fract_z
Si Si1 0.720584 0.170944 0.375727
Si Si2 0.604529 0.664766 0.388802
Si Si3 0.162808 0.663728 0.170202
Si Si4 0.366605 0.669125 0.248876
Si Si5 0.825735 0.668583 0.587612
Si Si6 0.950864 0.829081 0.824366
O O1 0.620344 0.234912 0.472386
O O2 0.705352 0.241894 0.527618
O O3 0.703389 0.000000 0.415934
O O4 0.847824 0.211709 0.097869
O O5 0.500000 0.729071 0.500000
O O6 0.577354 0.500000 0.478715
O O7 0.715034 0.671003 0.110302
O O8 0.113033 0.500000 0.258723
O O9 0.183569 0.720316 0.262940
O O10 0.071410 0.762917 0.263939
O O11 0.365138 0.500000 0.286173
O O12 0.298699 0.698258 0.250247
O O13 0.500000 0.724554 0.000000
O O14 0.858825 0.500000 0.517725
O O15 0.929286 0.760548 0.341420
O O16 0.964229 0.000000 0.787625
#
# Coordination Sequence:
#
# PCOD8066085 Si02
#       6
#     4   4   4   4   4   4
#     4  10  22  39  57  80 115 151 187 233 281 333
#     4   9  18  32  57  85 110 147 190 232 280 333
#     4   9  18  33  54  84 117 145 181 231 283 334
#     4  10  23  41  62  84 111 147 190 238 281 332
#     4  10  21  36  57  85 114 147 186 233 284 331
#     4  10  21  37  57  83 115 150 187 229 279 335
#
# _framework density 19.665980000000001
#
# number of rings (size 3 to 8) (size 9 to 14) (size 15 to 20)
#    0.000    2.333    0.000    1.500    2.333    6.667 
#    0.000    3.333    0.000    0.000    0.000    0.000 
#    0.000    0.000    0.000    0.000    0.000    0.000 
#
# Total GULP energy -297623.585754 kJ/mol
# GULP energy per Si atom -12400.982740 kJ/mol
# Density = 1.962122 g / cm^3
# Si number density = 19.665980 Si / 1000 Ang^3
#
#
#
# Elastic Constant Matrix: (Units=GPa)
#
#
# Indices 1 2 3 4 5 6 
#
# 1 108.7507 44.1032 61.1858 0.0000 -8.3068 0.0000
# 2 44.1032 71.0627 40.3143 0.0000 -0.2480 0.0000
# 3 61.1858 40.3143 67.0575 0.0000 -5.8051 0.0000
# 4 0.0000 0.0000 0.0000 27.3346 0.0000 1.8750
# 5 -8.3068 -0.2480 -5.8051 0.0000 38.1392 0.0000
# 6 0.0000 0.0000 0.0000 1.8750 0.0000 4.6201
#
#
#
# Elastic Compliance Matrix: (Units=1/GPa)
#
#
# Indices 1 2 3 4 5 6 
#
# 1 0.019437 -0.003165 -0.015675 0.000000 0.001827 0.000000
# 2 -0.003165 0.021999 -0.010524 0.000000 -0.002148 0.000000
# 3 -0.015675 -0.010524 0.035711 0.000000 0.001953 0.000000
# 4 0.000000 0.000000 0.000000 0.037631 0.000000 -0.015272
# 5 0.001827 -0.002148 0.001953 0.000000 0.026901 0.000000
# 6 0.000000 0.000000 0.000000 -0.015272 0.000000 0.222643
#
#
# Mechanical properties :
#
#
# Convention : Reuss Voigt Hill
#
# Bulk Modulus (GPa) = 54.28740 59.78640 57.03690
# Shear Modulus (GPa) = 11.64991 20.76994 16.20993
#
# Velocity S-wave (km/s) = 2.43654 3.25335 2.87411
# Velocity P-wave (km/s) = 5.96492 6.67677 6.33086
#
# Compressibility (1/GPa) = 0.01842048
#
# Stress axis : x y z
#
# Youngs Moduli (GPa) = 51.44789 45.45681 28.00285
#
# Poissons Ratio (x) = 0.14385 0.43893
# Poissons Ratio (y) = 0.16281 0.29470
# Poissons Ratio (z) = 0.80642 0.47839
#
# Static dielectric constant tensor:
#      x y z
#    x 3.669740 0.000000 -0.087950 
#    y 0.000000 3.513900 0.000000 
#    z -0.087950 0.000000 3.626810 
# 
# 
# High freq. dielectric constant tensor:
#      x y z
#    x 1.766570 0.000000 -0.006470 
#    y 0.000000 1.753760 0.000000 
#    z -0.006470 0.000000 1.771410 
# 
# From -- ./inp_files/45313.got.cif
#   From: 2010.06.25/outbox.cif.g09.slc.cpg/sg10_23_cif.got.tgz:45313.got - 2010.06.27 22:07:45.
