data_PCOD8066692
_publ_section_title
;
Structure prediction by ZEFSAII (Michael W. Deem and Ramdas Pophale) SiO2 
 PCOD8066692
Probable space group: P 2/M
;
_chemical_formula_sum "Si O2"
_cell_formula_units_Z 32
_cell_length_a 24.174154
_cell_length_b 8.603003
_cell_length_c 15.980923
_cell_angle_alpha 90.000000
_cell_angle_beta 29.285993
_cell_angle_gamma 90.000000
_cell_volume 1625.782188
_symmetry_space_group_name_H-M "P 2/M"
_symmetry_group_IT_number 10
_symmetry_cell_setting 'monoclinic'
loop_
_space_group_symop_operation_xyz
x,y,z
-x,y,-z
-x,-y,-z
x,-y,z
loop_
_atom_site_type_symbol
_atom_site_label
_atom_site_fract_x
_atom_site_fract_y
_atom_site_fract_z
Si Si1 0.539169 0.832142 0.539836
Si Si2 0.649829 0.317945 0.099526
Si Si3 0.890559 0.319330 0.378806
Si Si4 0.656607 0.818321 0.741594
Si Si5 0.105176 0.177642 0.803534
Si Si6 0.437320 0.681972 0.967676
Si Si7 0.762149 0.322015 0.233179
Si Si8 0.859542 0.316495 0.929169
O O1 0.500000 0.868691 0.500000
O O2 0.437746 0.777784 0.731522
O O3 0.627778 0.692334 0.412642
O O4 0.584716 0.000000 0.514865
O O5 0.631757 0.500000 0.139901
O O6 0.628072 0.276926 0.031382
O O7 0.776710 0.267025 0.961899
O O8 0.871342 0.500000 0.423232
O O9 0.786590 0.225785 0.554824
O O10 0.895922 0.293162 0.272808
O O11 0.011167 0.260146 0.258469
O O12 0.570048 0.732342 0.791542
O O13 0.641406 0.000000 0.747259
O O14 0.626852 0.775422 0.875657
O O15 0.209841 0.215300 0.724324
O O16 0.107980 0.000000 0.768237
O O17 0.000000 0.217461 0.000000
O O18 0.431094 0.500000 0.995544
O O19 0.799422 0.500000 0.196822
O O20 0.814115 0.251133 0.078433
O O21 0.859830 0.500000 0.938114
#
# Coordination Sequence:
#
# PCOD8066692 Si02
#       8
#     4   4   4   4   4   4   4   4
#     4  11  23  36  52  81 119 158 197 240 291 345
#     4  10  21  39  62  88 115 151 198 245 293 346
#     4  11  22  39  62  87 116 154 203 244 286 347
#     4  11  23  41  64  89 121 153 186 236 299 355
#     4  11  23  37  54  81 119 155 194 242 294 348
#     4  10  21  40  67  93 117 147 189 240 294 355
#     4  11  21  36  57  78 110 156 203 247 288 339
#     4   9  19  36  59  85 114 152 198 246 288 336
#
# _framework density 19.682832999999999
#
# number of rings (size 3 to 8) (size 9 to 14) (size 15 to 20)
#    0.000    1.500    2.500    3.750    1.750    2.000 
#    0.000    1.875    0.000    3.750    0.000    0.000 
#    0.000    0.000    0.000    0.000    0.000    0.000 
#
# Total GULP energy -396641.470360 kJ/mol
# GULP energy per Si atom -12395.045949 kJ/mol
# Density = 1.963803 g / cm^3
# Si number density = 19.682833 Si / 1000 Ang^3
#
#
#
# Elastic Constant Matrix: (Units=GPa)
#
#
# Indices 1 2 3 4 5 6 
#
# 1 125.3388 22.3397 49.0398 0.0000 -10.0819 0.0000
# 2 22.3397 58.0685 28.5295 0.0000 -0.3701 0.0000
# 3 49.0398 28.5295 107.5689 0.0000 -20.1455 0.0000
# 4 0.0000 0.0000 0.0000 30.8915 0.0000 2.1696
# 5 -10.0819 -0.3701 -20.1455 0.0000 27.2435 0.0000
# 6 0.0000 0.0000 0.0000 2.1696 0.0000 26.4646
#
#
#
# Elastic Compliance Matrix: (Units=1/GPa)
#
#
# Indices 1 2 3 4 5 6 
#
# 1 0.009890 -0.001905 -0.003857 0.000000 0.000782 0.000000
# 2 -0.001905 0.020590 -0.005423 0.000000 -0.004435 0.000000
# 3 -0.003857 -0.005423 0.014175 0.000000 0.008981 0.000000
# 4 0.000000 0.000000 0.000000 0.032559 0.000000 -0.002669
# 5 0.000782 -0.004435 0.008981 0.000000 0.043576 0.000000
# 6 0.000000 0.000000 0.000000 -0.002669 0.000000 0.038005
#
#
# Mechanical properties :
#
#
# Convention : Reuss Voigt Hill
#
# Bulk Modulus (GPa) = 44.87356 54.53270 49.70313
# Shear Modulus (GPa) = 26.51206 29.65772 28.08489
#
# Velocity S-wave (km/s) = 3.67408 3.88594 3.78149
# Velocity P-wave (km/s) = 6.39111 6.92097 6.66131
#
# Compressibility (1/GPa) = 0.02228484
#
# Stress axis : x y z
#
# Youngs Moduli (GPa) = 101.11337 48.56718 70.54639
#
# Poissons Ratio (x) = 0.09251 0.27211
# Poissons Ratio (y) = 0.19260 0.38259
# Poissons Ratio (z) = 0.39001 0.26339
#
# Static dielectric constant tensor:
#      x y z
#    x 5.415150 0.000000 0.776140 
#    y 0.000000 3.487900 0.000000 
#    z 0.776140 0.000000 4.209740 
# 
# 
# High freq. dielectric constant tensor:
#      x y z
#    x 1.767040 0.000000 -0.013670 
#    y 0.000000 1.764920 0.000000 
#    z -0.013670 0.000000 1.759900 
# 
# From -- ./inp_files/71479.got.cif
#   From: 2010.06.25/outbox.cif.g09.slc.cpg/sg10_36_cif.got.tgz:71479.got - 2010.06.27 22:07:45.
