data_PCOD8066186
_publ_section_title
;
Structure prediction by ZEFSAII (Michael W. Deem and Ramdas Pophale) SiO2 
 PCOD8066186
Probable space group: P 2/M
;
_chemical_formula_sum "Si O2"
_cell_formula_units_Z 28
_cell_length_a 8.479028
_cell_length_b 19.739500
_cell_length_c 14.374987
_cell_angle_alpha 90.000000
_cell_angle_beta 32.643777
_cell_angle_gamma 90.000000
_cell_volume 1297.813054
_symmetry_space_group_name_H-M "P 2/M"
_symmetry_group_IT_number 10
_symmetry_cell_setting 'monoclinic'
loop_
_space_group_symop_operation_xyz
x,y,z
-x,y,-z
-x,-y,-z
x,-y,z
loop_
_atom_site_type_symbol
_atom_site_label
_atom_site_fract_x
_atom_site_fract_y
_atom_site_fract_z
Si Si1 0.345559 0.801633 0.476953
Si Si2 0.330001 0.077322 0.357667
Si Si3 0.842208 0.925694 0.980692
Si Si4 0.830793 0.187894 0.852133
Si Si5 0.290096 0.330657 0.020071
Si Si6 0.815336 0.424174 0.185452
Si Si7 0.342078 0.671091 0.350341
O O1 0.500000 0.789799 0.500000
O O2 0.452849 0.871025 0.374886
O O3 0.391313 0.739817 0.383437
O O4 0.999318 0.807295 0.670571
O O5 0.500918 0.086428 0.175052
O O6 0.000000 0.096415 0.500000
O O7 0.366406 0.000000 0.376690
O O8 0.889255 0.000000 0.912440
O O9 0.971645 0.870564 0.845945
O O10 0.000000 0.920216 0.000000
O O11 0.500000 0.167448 0.000000
O O12 0.861240 0.258350 0.890912
O O13 0.485155 0.324643 0.831645
O O14 0.500000 0.351415 0.000000
O O15 0.023203 0.383651 0.153250
O O16 0.760356 0.500000 0.250566
O O17 0.496291 0.389535 0.331900
O O18 0.000000 0.425919 0.000000
O O19 0.000000 0.655609 0.500000
#
# Coordination Sequence:
#
# PCOD8066186 Si02
#       7
#     4   4   4   4   4   4   4
#     4  12  24  37  58  87 120 156 201 252 301 356
#     4  10  21  38  58  81 114 156 201 249 303 358
#     4  10  21  37  56  79 110 150 196 242 290 346
#     4  11  22  36  56  82 114 149 195 243 286 346
#     4  10  21  39  63  90 120 158 202 245 295 357
#     4   9  20  39  63  92 124 159 197 237 290 357
#     4  11  22  38  62  88 123 160 197 250 301 351
#
# _framework density 21.574757000000002
#
# number of rings (size 3 to 8) (size 9 to 14) (size 15 to 20)
#    0.000    1.571    0.000    5.571    0.000    3.429 
#    0.000    0.000    0.000    9.857    0.000    0.000 
#    0.000    0.000    0.000    0.000    0.000    0.000 
#
# Total GULP energy -347104.604183 kJ/mol
# GULP energy per Si atom -12396.593007 kJ/mol
# Density = 2.152565 g / cm^3
# Si number density = 21.574757 Si / 1000 Ang^3
#
#
#
# Elastic Constant Matrix: (Units=GPa)
#
#
# Indices 1 2 3 4 5 6 
#
# 1 110.9142 73.1411 24.9664 0.0000 -7.9981 0.0000
# 2 73.1411 183.1864 36.2889 0.0000 0.1333 0.0000
# 3 24.9664 36.2889 64.7350 0.0000 2.2208 0.0000
# 4 0.0000 0.0000 0.0000 -13.9893 0.0000 -26.1231
# 5 -7.9981 0.1333 2.2208 0.0000 34.9657 0.0000
# 6 0.0000 0.0000 0.0000 -26.1231 0.0000 17.5743
#
#
#
# Elastic Compliance Matrix: (Units=1/GPa)
#
#
# Indices 1 2 3 4 5 6 
#
# 1 0.012861 -0.004650 -0.002460 0.000000 0.003116 0.000000
# 2 -0.004650 0.007823 -0.002560 0.000000 -0.000931 0.000000
# 3 -0.002460 -0.002560 0.017890 0.000000 -0.001689 0.000000
# 4 0.000000 0.000000 0.000000 -0.018932 0.000000 -0.028142
# 5 0.003116 -0.000931 -0.001689 0.000000 0.029423 0.000000
# 6 0.000000 0.000000 0.000000 -0.028142 0.000000 0.015070
#
#
# Mechanical properties :
#
#
# Convention : Reuss Voigt Hill
#
# Bulk Modulus (GPa) = 51.99451 69.73647 60.86549
# Shear Modulus (GPa) = 55.62564 22.67275 39.14919
#
# Velocity S-wave (km/s) = 5.08318 3.24526 4.26441
# Velocity P-wave (km/s) = 7.65530 6.81437 7.24704
#
# Compressibility (1/GPa) = 0.01923280
#
# Stress axis : x y z
#
# Youngs Moduli (GPa) = 77.75608 127.82271 55.89810
#
# Poissons Ratio (x) = 0.59435 0.13753
# Poissons Ratio (y) = 0.36155 0.14312
# Poissons Ratio (z) = 0.19131 0.32727
#
# Static dielectric constant tensor:
#      x y z
#    x 3.849720 0.000000 -0.129390 
#    y 0.000000 4.052750 0.000000 
#    z -0.129390 0.000000 4.423920 
# 
# 
# High freq. dielectric constant tensor:
#      x y z
#    x 1.842450 0.000000 -0.014660 
#    y 0.000000 1.847160 0.000000 
#    z -0.014660 0.000000 1.855710 
# 
# From -- ./inp_files/30421.got.cif
#   From: 2010.06.25/outbox.cif.g09.slc.cpg/sg10_16_cif.got.tgz:30421.got - 2010.06.27 22:07:45.
