data_PCOD8066327
_publ_section_title
;
Structure prediction by ZEFSAII (Michael W. Deem and Ramdas Pophale) SiO2 
 PCOD8066327
Probable space group: P 2/M
;
_chemical_formula_sum "Si O2"
_cell_formula_units_Z 32
_cell_length_a 26.578470
_cell_length_b 8.635500
_cell_length_c 15.786617
_cell_angle_alpha 90.000000
_cell_angle_beta 153.111562
_cell_angle_gamma 90.000000
_cell_volume 1638.663066
_symmetry_space_group_name_H-M "P 2/M"
_symmetry_group_IT_number 10
_symmetry_cell_setting 'monoclinic'
loop_
_space_group_symop_operation_xyz
x,y,z
-x,y,-z
-x,-y,-z
x,-y,z
loop_
_atom_site_type_symbol
_atom_site_label
_atom_site_fract_x
_atom_site_fract_y
_atom_site_fract_z
Si Si1 0.988101 0.316969 0.612001
Si Si2 0.538910 0.683808 0.149688
Si Si3 0.818002 0.316882 0.217733
Si Si4 0.579345 0.180730 0.867177
Si Si5 0.009842 0.685397 0.196775
Si Si6 0.771399 0.315496 0.568186
Si Si7 0.785085 0.682058 0.777628
Si Si8 0.451890 0.681830 0.517264
O O1 0.994128 0.500000 0.624468
O O2 0.876807 0.269981 0.394396
O O3 0.100277 0.260521 0.734451
O O4 0.982384 0.245925 0.697009
O O5 0.535684 0.500000 0.143616
O O6 0.457214 0.737366 0.101191
O O7 0.663872 0.744933 0.355401
O O8 0.500000 0.749977 0.000000
O O9 0.793107 0.500000 0.175818
O O10 0.706315 0.221619 0.039425
O O11 0.508008 0.233453 0.679893
O O12 0.563952 0.000000 0.856378
O O13 0.008539 0.500000 0.195698
O O14 0.116358 0.748578 0.305965
O O15 0.897320 0.752970 0.986022
O O16 0.771692 0.500000 0.569213
O O17 0.765371 0.248548 0.654416
O O18 0.801527 0.500000 0.793602
O O19 0.679720 0.720099 0.679016
O O20 0.500000 0.742314 0.500000
O O21 0.474726 0.500000 0.562435
#
# Coordination Sequence:
#
# PCOD8066327 Si02
#       8
#     4   4   4   4   4   4   4   4
#     4   8  16  30  50  80 111 139 177 235 290 330
#     4  10  21  37  60  86 112 147 194 246 291 338
#     4   9  18  34  56  80 111 145 183 232 282 335
#     4  12  25  39  57  83 117 158 192 234 289 348
#     4   9  16  24  44  79 112 137 170 221 288 343
#     4   9  16  28  46  75 112 141 171 223 287 340
#     4   9  16  28  46  75 112 141 171 223 287 340
#     4  10  21  37  60  86 112 147 194 246 291 338
#
# _framework density 19.528113999999999
#
# number of rings (size 3 to 8) (size 9 to 14) (size 15 to 20)
#    0.000    2.500    1.250    2.250    3.500    2.000 
#    0.000    1.250    0.000    0.000    0.000    1.750 
#    0.000    0.000    0.000    0.000    0.000    0.000 
#
# Total GULP energy -396730.583849 kJ/mol
# GULP energy per Si atom -12397.830745 kJ/mol
# Density = 1.948367 g / cm^3
# Si number density = 19.528114 Si / 1000 Ang^3
#
#
#
# Elastic Constant Matrix: (Units=GPa)
#
#
# Indices 1 2 3 4 5 6 
#
# 1 130.3773 7.0797 40.0908 0.0000 -4.9997 0.0000
# 2 7.0797 11.7211 14.0419 0.0000 -2.0766 0.0000
# 3 40.0908 14.0419 94.6388 0.0000 9.8513 0.0000
# 4 0.0000 0.0000 0.0000 5.2715 0.0000 0.0100
# 5 -4.9997 -2.0766 9.8513 0.0000 37.5035 0.0000
# 6 0.0000 0.0000 0.0000 0.0100 0.0000 2.7018
#
#
#
# Elastic Compliance Matrix: (Units=1/GPa)
#
#
# Indices 1 2 3 4 5 6 
#
# 1 0.009002 -0.000234 -0.004012 0.000000 0.002241 0.000000
# 2 -0.000234 0.107597 -0.016946 0.000000 0.010378 0.000000
# 3 -0.004012 -0.016946 0.015354 0.000000 -0.005506 0.000000
# 4 0.000000 0.000000 0.000000 0.189701 0.000000 -0.000705
# 5 0.002241 0.010378 -0.005506 0.000000 0.028984 0.000000
# 6 0.000000 0.000000 0.000000 -0.000705 0.000000 0.370121
#
#
# Mechanical properties :
#
#
# Convention : Reuss Voigt Hill
#
# Bulk Modulus (GPa) = 11.16449 39.90688 25.53568
# Shear Modulus (GPa) = 6.30517 20.79702 13.55110
#
# Velocity S-wave (km/s) = 1.79883 3.26694 2.63711
# Velocity P-wave (km/s) = 3.16921 5.89156 4.73046
#
# Compressibility (1/GPa) = 0.08956971
#
# Stress axis : x y z
#
# Youngs Moduli (GPa) = 111.08111 9.29390 65.13141
#
# Poissons Ratio (x) = 0.00217 0.26132
# Poissons Ratio (y) = 0.02599 1.10370
# Poissons Ratio (z) = 0.44568 0.15749
#
# Static dielectric constant tensor:
#      x y z
#    x 3.924500 0.000000 -0.097140 
#    y 0.000000 2.888170 0.000000 
#    z -0.097140 0.000000 3.838650 
# 
# 
# High freq. dielectric constant tensor:
#      x y z
#    x 1.774210 0.000000 0.001560 
#    y 0.000000 1.691090 0.000000 
#    z 0.001560 0.000000 1.776520 
# 
# From -- ./inp_files/71651.got.cif
#   From: 2010.06.25/outbox.cif.g09.slc.cpg/sg10_36_cif.got.tgz:71651.got - 2010.06.27 22:07:45.
