data_PCOD8066807
_publ_section_title
;
Structure prediction by ZEFSAII (Michael W. Deem and Ramdas Pophale) SiO2 
 PCOD8066807
Probable space group: P 2/M
;
_chemical_formula_sum "Si O2"
_cell_formula_units_Z 32
_cell_length_a 14.087477
_cell_length_b 8.856600
_cell_length_c 23.795937
_cell_angle_alpha 90.000000
_cell_angle_beta 146.872385
_cell_angle_gamma 90.000000
_cell_volume 1622.548627
_symmetry_space_group_name_H-M "P 2/M"
_symmetry_group_IT_number 10
_symmetry_cell_setting 'monoclinic'
loop_
_space_group_symop_operation_xyz
x,y,z
-x,y,-z
-x,-y,-z
x,-y,z
loop_
_atom_site_type_symbol
_atom_site_label
_atom_site_fract_x
_atom_site_fract_y
_atom_site_fract_z
Si Si1 0.509453 0.822404 0.295744
Si Si2 0.141740 0.177459 0.827955
Si Si3 0.179714 0.677218 0.618388
Si Si4 0.721929 0.823063 0.222656
Si Si5 0.806690 0.677336 0.922410
Si Si6 0.220369 0.327013 0.352729
Si Si7 0.317762 0.823125 0.027792
Si Si8 0.471957 0.326593 0.577893
O O1 0.662741 0.760855 0.333344
O O2 0.325683 0.754959 0.186145
O O3 0.546359 0.782719 0.378514
O O4 0.501964 0.000000 0.283854
O O5 0.222031 0.242643 0.810182
O O6 0.941259 0.218127 0.734582
O O7 0.164143 0.000000 0.837943
O O8 0.248353 0.240697 0.933974
O O9 0.214629 0.500000 0.633034
O O10 0.167184 0.732416 0.676370
O O11 0.000000 0.721809 0.500000
O O12 0.520609 0.789083 0.132608
O O13 0.763775 0.000000 0.248695
O O14 0.774529 0.500000 0.903618
O O15 0.781029 0.733501 0.972884
O O16 0.000000 0.721797 0.000000
O O17 0.158081 0.500000 0.322358
O O18 0.316429 0.287729 0.458379
O O19 0.345819 0.297455 0.362379
O O20 0.278267 0.000000 0.015178
O O21 0.459183 0.500000 0.591607
#
# Coordination Sequence:
#
# PCOD8066807 Si02
#       8
#     4   4   4   4   4   4   4   4
#     4  12  25  41  65  95 125 162 205 254 312 374
#     4  10  22  37  59  91 124 156 198 249 305 364
#     4  11  25  43  64  91 125 164 207 255 308 367
#     4  10  21  40  63  88 121 161 201 247 305 363
#     4  11  25  43  64  91 125 164 207 255 308 367
#     4   9  20  39  61  86 118 160 204 247 299 355
#     4  10  21  40  63  88 121 161 201 247 305 363
#     4   9  20  40  62  84 119 163 203 246 299 359
#
# _framework density 19.722059999999999
#
# number of rings (size 3 to 8) (size 9 to 14) (size 15 to 20)
#    0.000    1.750    1.250    3.000    3.500    5.500 
#    0.000    1.250    0.000    2.250    0.000    0.000 
#    0.000    0.000    0.000    0.000    0.000    0.000 
#
# Total GULP energy -396948.652084 kJ/mol
# GULP energy per Si atom -12404.645378 kJ/mol
# Density = 1.967717 g / cm^3
# Si number density = 19.722060 Si / 1000 Ang^3
#
#
#
# Elastic Constant Matrix: (Units=GPa)
#
#
# Indices 1 2 3 4 5 6 
#
# 1 54.4026 13.5132 30.0164 0.0000 -17.8163 0.0000
# 2 13.5132 51.9513 35.3228 0.0000 -0.0424 0.0000
# 3 30.0164 35.3228 111.7833 0.0000 -10.1330 0.0000
# 4 0.0000 0.0000 0.0000 26.7475 0.0000 -8.8692
# 5 -17.8163 -0.0424 -10.1330 0.0000 37.2444 0.0000
# 6 0.0000 0.0000 0.0000 -8.8692 0.0000 16.9166
#
#
#
# Elastic Compliance Matrix: (Units=1/GPa)
#
#
# Indices 1 2 3 4 5 6 
#
# 1 0.025403 -0.003349 -0.004780 0.000000 0.010848 0.000000
# 2 -0.003349 0.025124 -0.007364 0.000000 -0.003577 0.000000
# 3 -0.004780 -0.007364 0.012661 0.000000 0.001150 0.000000
# 4 0.000000 0.000000 0.000000 0.045254 0.000000 0.023726
# 5 0.010848 -0.003577 0.001150 0.000000 0.032347 0.000000
# 6 0.000000 0.000000 0.000000 0.023726 0.000000 0.071553
#
#
# Mechanical properties :
#
#
# Convention : Reuss Voigt Hill
#
# Bulk Modulus (GPa) = 31.05381 41.76022 36.40702
# Shear Modulus (GPa) = 19.68032 25.46736 22.57384
#
# Velocity S-wave (km/s) = 3.16236 3.59738 3.38686
# Velocity P-wave (km/s) = 5.39573 6.20284 5.81331
#
# Compressibility (1/GPa) = 0.03220217
#
# Stress axis : x y z
#
# Youngs Moduli (GPa) = 39.36546 39.80280 78.98563
#
# Poissons Ratio (x) = 0.13330 0.37753
# Poissons Ratio (y) = 0.13183 0.58165
# Poissons Ratio (z) = 0.18816 0.29311
#
# Static dielectric constant tensor:
#      x y z
#    x 3.739280 0.000000 -0.170570 
#    y 0.000000 3.468130 0.000000 
#    z -0.170570 0.000000 3.750260 
# 
# 
# High freq. dielectric constant tensor:
#      x y z
#    x 1.780900 0.000000 -0.006400 
#    y 0.000000 1.760280 0.000000 
#    z -0.006400 0.000000 1.781040 
# 
# From -- ./inp_files/89613.got.cif
#   From: 2010.06.25/outbox.cif.g09.slc.cpg/sg10_45_cif.got.tgz:89613.got - 2010.06.27 22:07:45.
