data_PCOD8066192
_publ_section_title
;
Structure prediction by ZEFSAII (Michael W. Deem and Ramdas Pophale) SiO2 
 PCOD8066192
Probable space group: P 2/M
;
_chemical_formula_sum "Si O2"
_cell_formula_units_Z 28
_cell_length_a 5.060266
_cell_length_b 31.921171
_cell_length_c 9.756258
_cell_angle_alpha 90.000000
_cell_angle_beta 62.182022
_cell_angle_gamma 90.000000
_cell_volume 1393.802239
_symmetry_space_group_name_H-M "P 2/M"
_symmetry_group_IT_number 10
_symmetry_cell_setting 'monoclinic'
loop_
_space_group_symop_operation_xyz
x,y,z
-x,y,-z
-x,-y,-z
x,-y,z
loop_
_atom_site_type_symbol
_atom_site_label
_atom_site_fract_x
_atom_site_fract_y
_atom_site_fract_z
Si Si1 0.166685 0.047069 0.601751
Si Si2 0.343489 0.679068 0.682214
Si Si3 0.234309 0.409346 0.821670
Si Si4 0.849887 0.730663 0.680049
Si Si5 0.853324 0.895997 0.896874
Si Si6 0.846892 0.198207 0.898319
Si Si7 0.865256 0.547924 0.682436
O O1 0.500000 0.065591 0.500000
O O2 0.000000 0.046460 0.500000
O O3 0.969067 0.075540 0.747251
O O4 0.188732 0.000000 0.657798
O O5 0.500000 0.668384 0.500000
O O6 0.331416 0.638716 0.781718
O O7 0.513634 0.715207 0.728930
O O8 0.010507 0.693926 0.726908
O O9 0.525967 0.436938 0.779086
O O10 0.080897 0.424018 0.720424
O O11 0.000000 0.415044 0.000000
O O12 0.893121 0.772624 0.756083
O O13 0.000000 0.740683 0.500000
O O14 0.967409 0.848528 0.839029
O O15 0.500000 0.899467 0.000000
O O16 0.000000 0.912872 0.000000
O O17 0.500000 0.195003 0.000000
O O18 0.000000 0.216345 0.000000
O O19 0.877195 0.500000 0.729008
O O20 0.000000 0.552981 0.500000
#
# Coordination Sequence:
#
# PCOD8066192 Si02
#       7
#     4   4   4   4   4   4   4
#     4  10  21  37  57  84 117 152 194 246 300 348
#     4  10  21  38  59  83 115 152 191 235 282 341
#     4  12  25  40  62  93 123 152 192 243 293 338
#     4  10  21  37  58  83 109 146 194 237 281 338
#     4  10  21  37  57  83 115 153 196 237 288 354
#     4  10  21  37  56  81 114 149 186 236 292 344
#     4  11  24  43  66  89 118 160 200 233 283 349
#
# _framework density 20.088932
#
# number of rings (size 3 to 8) (size 9 to 14) (size 15 to 20)
#    0.000    1.571    0.000    4.714    0.000    6.857 
#    0.000    2.143    0.000    0.000    0.000    0.000 
#    0.000    0.000    0.000    0.000    0.000    0.000 
#
# Total GULP energy -347209.142549 kJ/mol
# GULP energy per Si atom -12400.326520 kJ/mol
# Density = 2.004321 g / cm^3
# Si number density = 20.088932 Si / 1000 Ang^3
#
#
#
# Elastic Constant Matrix: (Units=GPa)
#
#
# Indices 1 2 3 4 5 6 
#
# 1 124.1254 22.2203 38.3827 0.0000 2.6209 0.0000
# 2 22.2203 103.4030 52.7173 0.0000 6.1104 0.0000
# 3 38.3827 52.7173 102.1595 0.0000 -5.3531 0.0000
# 4 0.0000 0.0000 0.0000 14.9279 0.0000 -14.8438
# 5 2.6209 6.1104 -5.3531 0.0000 35.6955 0.0000
# 6 0.0000 0.0000 0.0000 -14.8438 0.0000 13.1273
#
#
#
# Elastic Compliance Matrix: (Units=1/GPa)
#
#
# Indices 1 2 3 4 5 6 
#
# 1 0.009168 -0.000155 -0.003425 0.000000 -0.001160 0.000000
# 2 -0.000155 0.013520 -0.007095 0.000000 -0.003367 0.000000
# 3 -0.003425 -0.007095 0.014931 0.000000 0.003705 0.000000
# 4 0.000000 0.000000 0.000000 -0.538533 0.000000 -0.608950
# 5 -0.001160 -0.003367 0.003705 0.000000 0.029232 0.000000
# 6 0.000000 0.000000 0.000000 -0.608950 0.000000 -0.612398
#
#
# Mechanical properties :
#
#
# Convention : Reuss Voigt Hill
#
# Bulk Modulus (GPa) = 61.46957 61.81429 61.64193
# Shear Modulus (GPa) = -4.72900 27.17465 11.22282
#
# Velocity S-wave (km/s) = -1.53595 3.68192 2.36616
# Velocity P-wave (km/s) = 5.24592 6.99375 6.18191
#
# Compressibility (1/GPa) = 0.01626821
#
# Stress axis : x y z
#
# Youngs Moduli (GPa) = 109.07739 73.96202 66.97539
#
# Poissons Ratio (x) = 0.01149 0.22940
# Poissons Ratio (y) = 0.01694 0.47519
# Poissons Ratio (z) = 0.37360 0.52476
#
# Static dielectric constant tensor:
#      x y z
#    x 3.897460 0.000000 0.052880 
#    y 0.000000 3.854360 0.000000 
#    z 0.052880 0.000000 3.487020 
# 
# 
# High freq. dielectric constant tensor:
#      x y z
#    x 1.807160 0.000000 0.005130 
#    y 0.000000 1.785450 0.000000 
#    z 0.005130 0.000000 1.778040 
# 
# From -- ./inp_files/15867.got.cif
#   From: 2010.06.25/outbox.cif.g09.slc.cpg/sg10_8_cif.got.tgz:15867.got - 2010.06.27 22:07:45.
