data_PCOD8066169
_publ_section_title
;
Structure prediction by ZEFSAII (Michael W. Deem and Ramdas Pophale) SiO2 
 PCOD8066169
Probable space group: P 2/M
;
_chemical_formula_sum "Si O2"
_cell_formula_units_Z 32
_cell_length_a 20.713001
_cell_length_b 8.895853
_cell_length_c 26.082841
_cell_angle_alpha 90.000000
_cell_angle_beta 159.151331
_cell_angle_gamma 90.000000
_cell_volume 1710.466658
_symmetry_space_group_name_H-M "P 2/M"
_symmetry_group_IT_number 10
_symmetry_cell_setting 'monoclinic'
loop_
_space_group_symop_operation_xyz
x,y,z
-x,y,-z
-x,-y,-z
x,-y,z
loop_
_atom_site_type_symbol
_atom_site_label
_atom_site_fract_x
_atom_site_fract_y
_atom_site_fract_z
Si Si1 0.532571 0.822164 0.352763
Si Si2 0.194689 0.173970 0.169193
Si Si3 0.235103 0.325898 0.943457
Si Si4 0.143831 0.178437 0.335419
Si Si5 0.202157 0.177413 0.649106
Si Si6 0.464783 0.326870 0.917131
Si Si7 0.289363 0.324412 0.342955
Si Si8 0.489124 0.178731 0.779056
O O1 0.347510 0.769662 0.242794
O O2 0.704681 0.760325 0.512335
O O3 0.536784 0.759340 0.297859
O O4 0.541459 0.000000 0.357234
O O5 0.202722 0.276560 0.225091
O O6 0.227229 0.000000 0.208315
O O7 0.000000 0.198553 0.000000
O O8 0.202803 0.500000 0.931965
O O9 0.047317 0.246905 0.790230
O O10 0.356122 0.301009 0.983202
O O11 0.328971 0.250839 0.062604
O O12 0.190484 0.230370 0.313128
O O13 0.132255 0.000000 0.328063
O O14 0.298432 0.232490 0.771865
O O15 0.313635 0.231707 0.681613
O O16 0.000000 0.246245 0.500000
O O17 0.193826 0.000000 0.643872
O O18 0.406009 0.500000 0.874143
O O19 0.500000 0.265497 0.000000
O O20 0.500000 0.282166 0.500000
O O21 0.256353 0.500000 0.327877
O O22 0.513198 0.000000 0.798428
#
# Coordination Sequence:
#
# PCOD8066169 Si02
#       8
#     4   4   4   4   4   4   4   4
#     4   9  19  35  54  79 107 137 179 226 266 319
#     4  10  21  37  58  83 108 140 184 227 271 322
#     4  10  21  37  55  81 113 143 182 227 273 325
#     4  11  22  37  59  82 108 145 185 224 272 327
#     4   9  18  32  52  80 111 143 179 225 274 319
#     4   9  19  36  56  78 109 148 185 224 269 323
#     4  11  23  39  58  82 113 146 180 225 279 324
#     4   9  18  35  56  78 108 145 183 221 270 328
#
# _framework density 18.708345000000001
#
# number of rings (size 3 to 8) (size 9 to 14) (size 15 to 20)
#    0.000    2.250    1.250    1.125    1.750    2.750 
#    0.000    3.125    0.000    0.000    0.000    0.000 
#    0.000    0.000    0.000    0.000    0.000    0.000 
#
# Total GULP energy -396882.896165 kJ/mol
# GULP energy per Si atom -12402.590505 kJ/mol
# Density = 1.866576 g / cm^3
# Si number density = 18.708345 Si / 1000 Ang^3
#
#
#
# Elastic Constant Matrix: (Units=GPa)
#
#
# Indices 1 2 3 4 5 6 
#
# 1 123.2261 20.5981 67.0471 0.0000 -18.6331 0.0000
# 2 20.5981 36.7779 31.4184 0.0000 2.4232 0.0000
# 3 67.0471 31.4184 149.9096 0.0000 3.4240 0.0000
# 4 0.0000 0.0000 0.0000 -300.1621 0.0000 218.8611
# 5 -18.6331 2.4232 3.4240 0.0000 29.1009 0.0000
# 6 0.0000 0.0000 0.0000 218.8611 0.0000 -125.3393
#
#
#
# Elastic Compliance Matrix: (Units=1/GPa)
#
#
# Indices 1 2 3 4 5 6 
#
# 1 0.012946 -0.003326 -0.005303 0.000000 0.009190 0.000000
# 2 -0.003326 0.034085 -0.005558 0.000000 -0.004314 0.000000
# 3 -0.005303 -0.005558 0.010302 0.000000 -0.004145 0.000000
# 4 0.000000 0.000000 0.000000 0.012195 0.000000 0.021294
# 5 0.009190 -0.004314 -0.004145 0.000000 0.041095 0.000000
# 6 0.000000 0.000000 0.000000 0.021294 0.000000 0.029204
#
#
# Mechanical properties :
#
#
# Convention : Reuss Voigt Hill
#
# Bulk Modulus (GPa) = 34.53050 60.89343 47.71196
# Shear Modulus (GPa) = 28.11314 -66.55678 -19.22182
#
# Velocity S-wave (km/s) = 3.88068 -5.97103 -3.20886
# Velocity P-wave (km/s) = 6.21103 3.86240 3.43939
#
# Compressibility (1/GPa) = 0.02895991
#
# Stress axis : x y z
#
# Youngs Moduli (GPa) = 77.24307 29.33847 97.06961
#
# Poissons Ratio (x) = 0.09758 0.51476
# Poissons Ratio (y) = 0.25691 0.53947
# Poissons Ratio (z) = 0.40962 0.16305
#
# Static dielectric constant tensor:
#      x y z
#    x 3.599680 0.000000 0.033090 
#    y 0.000000 3.275960 0.000000 
#    z 0.033090 0.000000 3.632430 
# 
# 
# High freq. dielectric constant tensor:
#      x y z
#    x 1.732170 0.000000 0.000640 
#    y 0.000000 1.711510 0.000000 
#    z 0.000640 0.000000 1.734890 
# 
# From -- ./inp_files/93806.got.cif
#   From: 2010.06.25/outbox.cif.g09.slc.cpg/sg10_47_cif.got.tgz:93806.got - 2010.06.27 22:07:45.
