data_PCOD8066294
_publ_section_title
;
Structure prediction by ZEFSAII (Michael W. Deem and Ramdas Pophale) SiO2 
 PCOD8066294
Probable space group: P 2/M
;
_chemical_formula_sum "Si O2"
_cell_formula_units_Z 28
_cell_length_a 8.775605
_cell_length_b 12.385104
_cell_length_c 15.558282
_cell_angle_alpha 90.000000
_cell_angle_beta 59.929877
_cell_angle_gamma 90.000000
_cell_volume 1463.395403
_symmetry_space_group_name_H-M "P 2/M"
_symmetry_group_IT_number 10
_symmetry_cell_setting 'monoclinic'
loop_
_space_group_symop_operation_xyz
x,y,z
-x,y,-z
-x,-y,-z
x,-y,z
loop_
_atom_site_type_symbol
_atom_site_label
_atom_site_fract_x
_atom_site_fract_y
_atom_site_fract_z
Si Si1 0.924390 0.119475 0.436792
Si Si2 0.200269 0.000000 0.924167
Si Si3 0.387772 0.197948 0.777171
Si Si4 0.239230 0.819022 0.238352
Si Si5 0.128544 0.622570 0.891099
Si Si6 0.308442 0.000000 0.084003
Si Si7 0.007404 0.378490 0.256929
Si Si8 0.670809 0.744780 0.402066
O O1 0.749503 0.167745 0.444958
O O2 0.000000 0.182433 0.500000
O O3 0.083526 0.114185 0.325325
O O4 0.867416 0.000000 0.481107
O O5 0.273124 0.102015 0.850534
O O6 0.000000 0.000000 0.000000
O O7 0.219407 0.000000 0.019458
O O8 0.590091 0.188038 0.748791
O O9 0.307861 0.309348 0.835680
O O10 0.375994 0.199437 0.676392
O O11 0.276470 0.888098 0.143278
O O12 0.168149 0.698482 0.239261
O O13 0.186705 0.500000 0.894564
O O14 0.011479 0.630290 0.839268
O O15 0.000000 0.669447 0.000000
O O16 0.500000 0.000000 0.000000
O O17 0.054159 0.500000 0.273179
O O18 0.818213 0.347862 0.351386
O O19 0.500000 0.697014 0.500000
#
# Coordination Sequence:
#
# PCOD8066294 Si02
#       8
#     4   2   4   4   4   2   4   4
#     4  10  21  37  59  84 116 158 196 241 294 349
#     4  12  28  38  61  86 123 158 205 242 291 360
#     4  11  23  38  58  89 118 157 197 243 294 350
#     4  11  22  38  61  83 124 155 201 239 295 354
#     4   9  19  37  58  82 114 150 196 247 297 345
#     4  12  24  42  57  86 123 166 195 244 299 344
#     4   9  21  39  62  88 116 156 199 245 297 353
#     4  10  22  39  61  88 121 153 195 248 295 354
#
# _framework density 19.133585
#
# number of rings (size 3 to 8) (size 9 to 14) (size 15 to 20)
#    0.000    1.714    2.143    1.286    9.000    1.143 
#    0.000    0.000    0.000   17.571    0.000    0.000 
#    0.000    0.000    0.000    0.000    0.000    0.000 
#
# Total GULP energy -346880.212323 kJ/mol
# GULP energy per Si atom -12388.579012 kJ/mol
# Density = 1.909004 g / cm^3
# Si number density = 19.133585 Si / 1000 Ang^3
#
#
#
# Elastic Constant Matrix: (Units=GPa)
#
#
# Indices 1 2 3 4 5 6 
#
# 1 109.8158 42.2567 40.5508 0.0000 -1.3049 0.0000
# 2 42.2567 111.4954 35.0308 0.0000 1.3329 0.0000
# 3 40.5508 35.0308 106.2662 0.0000 0.9482 0.0000
# 4 0.0000 0.0000 0.0000 19.4697 0.0000 4.2522
# 5 -1.3049 1.3329 0.9482 0.0000 38.9730 0.0000
# 6 0.0000 0.0000 0.0000 4.2522 0.0000 19.9383
#
#
#
# Elastic Compliance Matrix: (Units=1/GPa)
#
#
# Indices 1 2 3 4 5 6 
#
# 1 0.011642 -0.003371 -0.003337 0.000000 0.000586 0.000000
# 2 -0.003371 0.010984 -0.002331 0.000000 -0.000432 0.000000
# 3 -0.003337 -0.002331 0.011455 0.000000 -0.000311 0.000000
# 4 0.000000 0.000000 0.000000 0.053871 0.000000 -0.011489
# 5 0.000586 -0.000432 -0.000311 0.000000 0.025701 0.000000
# 6 0.000000 0.000000 0.000000 -0.011489 0.000000 0.052605
#
#
# Mechanical properties :
#
#
# Convention : Reuss Voigt Hill
#
# Bulk Modulus (GPa) = 62.48324 62.58379 62.53351
# Shear Modulus (GPa) = 26.36164 29.65880 28.01022
#
# Velocity S-wave (km/s) = 3.71586 3.94139 3.83028
# Velocity P-wave (km/s) = 7.15104 7.31387 7.23291
#
# Compressibility (1/GPa) = 0.01600429
#
# Stress axis : x y z
#
# Youngs Moduli (GPa) = 85.89274 91.04089 87.30080
#
# Poissons Ratio (x) = 0.30691 0.29129
# Poissons Ratio (y) = 0.28956 0.20347
# Poissons Ratio (z) = 0.28659 0.21218
#
# Static dielectric constant tensor:
#      x y z
#    x 3.537090 0.000000 0.056440 
#    y 0.000000 3.532000 0.000000 
#    z 0.056440 0.000000 3.692620 
# 
# 
# High freq. dielectric constant tensor:
#      x y z
#    x 1.750420 0.000000 0.002040 
#    y 0.000000 1.735820 0.000000 
#    z 0.002040 0.000000 1.759170 
# 
# From -- ./inp_files/61157.got.cif
#   From: 2010.06.25/outbox.cif.g09.slc.cpg/sg10_31_cif.got.tgz:61157.got - 2010.06.27 22:07:45.
