data_PCOD8066291
_publ_section_title
;
Structure prediction by ZEFSAII (Michael W. Deem and Ramdas Pophale) SiO2 
 PCOD8066291
Probable space group: P 2/M
;
_chemical_formula_sum "Si O2"
_cell_formula_units_Z 32
_cell_length_a 23.736551
_cell_length_b 13.219117
_cell_length_c 8.988564
_cell_angle_alpha 90.000000
_cell_angle_beta 31.734382
_cell_angle_gamma 90.000000
_cell_volume 1483.478818
_symmetry_space_group_name_H-M "P 2/M"
_symmetry_group_IT_number 10
_symmetry_cell_setting 'monoclinic'
loop_
_space_group_symop_operation_xyz
x,y,z
-x,y,-z
-x,-y,-z
x,-y,z
loop_
_atom_site_type_symbol
_atom_site_label
_atom_site_fract_x
_atom_site_fract_y
_atom_site_fract_z
Si Si1 0.540130 0.799209 0.748724
Si Si2 0.305180 0.381408 0.559686
Si Si3 0.748903 0.616449 0.662683
Si Si4 0.714613 0.883091 0.166097
Si Si5 0.396683 0.742100 0.822862
Si Si6 0.037969 0.277893 0.755315
Si Si7 0.061841 0.107958 0.215056
Si Si8 0.083706 0.614114 0.193009
O O1 0.591946 0.685722 0.629151
O O2 0.627167 0.878630 0.493847
O O3 0.437310 0.807093 0.872401
O O4 0.500000 0.832181 0.000000
O O5 0.332903 0.500000 0.517950
O O6 0.278967 0.359223 0.445597
O O7 0.206865 0.348515 0.891792
O O8 0.783461 0.500000 0.602652
O O9 0.838789 0.693633 0.517397
O O10 0.655713 0.641060 0.990053
O O11 0.681765 0.811625 0.100989
O O12 0.726439 0.000000 0.086140
O O13 0.824583 0.842350 0.993538
O O14 0.500000 0.704782 0.500000
O O15 0.011979 0.182475 0.712180
O O16 0.971441 0.374824 0.844481
O O17 0.000000 0.245704 0.000000
O O18 0.000000 0.080637 0.500000
O O19 0.080089 0.000000 0.089101
O O20 0.091767 0.500000 0.227937
O O21 0.000000 0.669692 0.500000
#
# Coordination Sequence:
#
# PCOD8066291 Si02
#       8
#     4   4   4   4   4   4   4   4
#     4  11  22  39  65  93 129 164 219 269 325 378
#     4  10  21  38  62  91 128 174 217 260 319 384
#     4  11  23  39  61  92 131 174 218 261 313 377
#     4  10  23  44  69  94 126 166 211 266 327 393
#     4  10  23  41  64  94 126 169 213 273 324 377
#     4  12  23  36  62  93 131 168 204 262 320 383
#     4  10  22  42  67  93 123 165 211 259 324 394
#     4  10  21  37  58  89 127 168 214 261 314 382
#
# _framework density 21.570920000000001
#
# number of rings (size 3 to 8) (size 9 to 14) (size 15 to 20)
#    0.000    1.500    2.500    2.250    0.000    6.250 
#    0.000    4.375    0.000    0.750    0.000    0.000 
#    0.000    0.000    0.000    0.000    0.000    0.000 
#
# Total GULP energy -396443.668591 kJ/mol
# GULP energy per Si atom -12388.864643 kJ/mol
# Density = 2.152182 g / cm^3
# Si number density = 21.570920 Si / 1000 Ang^3
#
#
#
# Elastic Constant Matrix: (Units=GPa)
#
#
# Indices 1 2 3 4 5 6 
#
# 1 103.9105 41.6108 28.6079 0.0000 2.4253 0.0000
# 2 41.6108 88.4397 30.3031 0.0000 -2.2270 0.0000
# 3 28.6079 30.3031 89.8667 0.0000 16.0862 0.0000
# 4 0.0000 0.0000 0.0000 89.8057 0.0000 246.2291
# 5 2.4253 -2.2270 16.0862 0.0000 37.6424 0.0000
# 6 0.0000 0.0000 0.0000 246.2291 0.0000 1169.4002
#
#
#
# Elastic Compliance Matrix: (Units=1/GPa)
#
#
# Indices 1 2 3 4 5 6 
#
# 1 0.012234 -0.005015 -0.002176 0.000000 -0.000155 0.000000
# 2 -0.005015 0.015121 -0.004029 0.000000 0.002939 0.000000
# 3 -0.002176 -0.004029 0.014289 0.000000 -0.006205 0.000000
# 4 0.000000 0.000000 0.000000 0.026344 0.000000 -0.005547
# 5 -0.000155 0.002939 -0.006205 0.000000 0.029401 0.000000
# 6 0.000000 0.000000 0.000000 -0.005547 0.000000 0.002023
#
#
# Mechanical properties :
#
#
# Convention : Reuss Voigt Hill
#
# Bulk Modulus (GPa) = 52.06611 53.69559 52.88085
# Shear Modulus (GPa) = 38.98541 271.48268 155.23404
#
# Velocity S-wave (km/s) = 4.25586 11.23072 8.49239
# Velocity P-wave (km/s) = 6.95265 13.89672 10.98768
#
# Compressibility (1/GPa) = 0.01920635
#
# Stress axis : x y z
#
# Youngs Moduli (GPa) = 81.73630 66.13381 69.98215
#
# Poissons Ratio (x) = 0.33164 0.15228
# Poissons Ratio (y) = 0.40988 0.28193
# Poissons Ratio (z) = 0.17786 0.26642
#
# Static dielectric constant tensor:
#      x y z
#    x 3.977940 0.000000 0.034650 
#    y 0.000000 3.657730 0.000000 
#    z 0.034650 0.000000 4.117910 
# 
# 
# High freq. dielectric constant tensor:
#      x y z
#    x 1.845350 0.000000 -0.001390 
#    y 0.000000 1.836360 0.000000 
#    z -0.001390 0.000000 1.859580 
# 
# From -- ./inp_files/36345.got.cif
#   From: 2010.06.25/outbox.cif.g09.slc.cpg/sg10_19_cif.got.tgz:36345.got - 2010.06.27 22:07:45.
