data_PCOD8066147
_publ_section_title
;
Structure prediction by ZEFSAII (Michael W. Deem and Ramdas Pophale) SiO2 
 PCOD8066147
Probable space group: P 2/M
;
_chemical_formula_sum "Si O2"
_cell_formula_units_Z 32
_cell_length_a 12.408607
_cell_length_b 8.845459
_cell_length_c 23.385033
_cell_angle_alpha 90.000000
_cell_angle_beta 46.590387
_cell_angle_gamma 90.000000
_cell_volume 1864.630261
_symmetry_space_group_name_H-M "P 2/M"
_symmetry_group_IT_number 10
_symmetry_cell_setting 'monoclinic'
loop_
_space_group_symop_operation_xyz
x,y,z
-x,y,-z
-x,-y,-z
x,-y,z
loop_
_atom_site_type_symbol
_atom_site_label
_atom_site_fract_x
_atom_site_fract_y
_atom_site_fract_z
Si Si1 0.617143 0.671610 0.007912
Si Si2 0.434491 0.676660 0.585860
Si Si3 0.123336 0.176019 0.685779
Si Si4 0.052986 0.677984 0.593292
Si Si5 0.759550 0.174466 0.666022
Si Si6 0.604966 0.177279 0.836415
Si Si7 0.678688 0.825432 0.568202
Si Si8 0.826062 0.825622 0.853252
O O1 0.647053 0.500000 0.012450
O O2 0.552308 0.749399 0.088586
O O3 0.500000 0.695441 0.000000
O O4 0.773367 0.741925 0.930240
O O5 0.500000 0.716304 0.500000
O O6 0.449328 0.500000 0.593968
O O7 0.264052 0.724473 0.650941
O O8 0.520657 0.772717 0.601894
O O9 0.053750 0.230001 0.651735
O O10 0.000405 0.202434 0.779711
O O11 0.166775 0.000000 0.664878
O O12 0.056024 0.500000 0.604756
O O13 0.195450 0.720181 0.504233
O O14 0.906752 0.723587 0.611580
O O15 0.648546 0.228306 0.756579
O O16 0.674019 0.196947 0.637902
O O17 0.807332 0.000000 0.657847
O O18 0.735699 0.234317 0.830867
O O19 0.583555 0.000000 0.847952
O O20 0.708366 0.000000 0.541056
O O21 0.789865 0.000000 0.875385
#
# Coordination Sequence:
#
# PCOD8066147 Si02
#       8
#     4   4   4   4   4   4   4   4
#     4   9  17  27  42  69 103 135 166 200 244 301
#     4  11  23  38  55  77 103 132 170 217 268 312
#     4  11  21  35  56  78 101 135 178 216 256 305
#     4  12  23  34  51  76 107 139 171 211 263 310
#     4  10  21  37  54  76 103 137 179 216 252 302
#     4   9  16  30  49  70 100 135 169 205 247 296
#     4  11  23  38  57  75  98 136 180 220 256 302
#     4   9  17  30  49  72  99 132 169 207 249 298
#
# _framework density 17.161579
#
# number of rings (size 3 to 8) (size 9 to 14) (size 15 to 20)
#    0.000    1.750    2.500    3.000    0.000    6.000 
#    0.000    0.000    0.000    0.000    0.000    0.875 
#    0.000    7.000    0.000    0.000    0.000    0.000 
#
# Total GULP energy -396877.313878 kJ/mol
# GULP energy per Si atom -12402.416059 kJ/mol
# Density = 1.712252 g / cm^3
# Si number density = 17.161579 Si / 1000 Ang^3
#
#
#
# Elastic Constant Matrix: (Units=GPa)
#
#
# Indices 1 2 3 4 5 6 
#
# 1 73.4932 21.4922 28.1800 0.0000 -3.3204 0.0000
# 2 21.4922 54.3333 30.2142 0.0000 -5.0262 0.0000
# 3 28.1800 30.2142 86.6802 0.0000 -14.7510 0.0000
# 4 0.0000 0.0000 0.0000 15.8380 0.0000 -4.0153
# 5 -3.3204 -5.0262 -14.7510 0.0000 15.9194 0.0000
# 6 0.0000 0.0000 0.0000 -4.0153 0.0000 19.6935
#
#
#
# Elastic Compliance Matrix: (Units=1/GPa)
#
#
# Indices 1 2 3 4 5 6 
#
# 1 0.016375 -0.004358 -0.004105 0.000000 -0.001764 0.000000
# 2 -0.004358 0.023991 -0.006899 0.000000 0.000273 0.000000
# 3 -0.004105 -0.006899 0.017523 0.000000 0.013202 0.000000
# 4 0.000000 0.000000 0.000000 0.066581 0.000000 0.013575
# 5 -0.001764 0.000273 0.013202 0.000000 0.074768 0.000000
# 6 0.000000 0.000000 0.000000 0.013575 0.000000 0.053546
#
#
# Mechanical properties :
#
#
# Convention : Reuss Voigt Hill
#
# Bulk Modulus (GPa) = 36.81254 41.58661 39.19957
# Shear Modulus (GPa) = 17.09037 19.26487 18.17762
#
# Velocity S-wave (km/s) = 3.15913 3.35409 3.25807
# Velocity P-wave (km/s) = 5.89949 6.26777 6.08641
#
# Compressibility (1/GPa) = 0.02716466
#
# Stress axis : x y z
#
# Youngs Moduli (GPa) = 61.06725 41.68303 57.06866
#
# Poissons Ratio (x) = 0.18166 0.23426
# Poissons Ratio (y) = 0.26613 0.39373
# Poissons Ratio (z) = 0.25067 0.28758
#
# Static dielectric constant tensor:
#      x y z
#    x 2.939300 0.000000 -0.027780 
#    y 0.000000 3.226400 0.000000 
#    z -0.027780 0.000000 3.324930 
# 
# 
# High freq. dielectric constant tensor:
#      x y z
#    x 1.621920 0.000000 -0.008570 
#    y 0.000000 1.670200 0.000000 
#    z -0.008570 0.000000 1.666620 
# 
# From -- ./inp_files/54860.got.cif
#   From: 2010.06.25/outbox.cif.g09.slc.cpg/sg10_28_cif.got.tgz:54860.got - 2010.06.27 22:07:45.
