data_PCOD8066357
_publ_section_title
;
Structure prediction by ZEFSAII (Michael W. Deem and Ramdas Pophale) SiO2 
 PCOD8066357
Probable space group: P 2/M
;
_chemical_formula_sum "Si O2"
_cell_formula_units_Z 32
_cell_length_a 19.556104
_cell_length_b 8.508118
_cell_length_c 12.082161
_cell_angle_alpha 90.000000
_cell_angle_beta 52.260838
_cell_angle_gamma 90.000000
_cell_volume 1589.754521
_symmetry_space_group_name_H-M "P 2/M"
_symmetry_group_IT_number 10
_symmetry_cell_setting 'monoclinic'
loop_
_space_group_symop_operation_xyz
x,y,z
-x,y,-z
-x,-y,-z
x,-y,z
loop_
_atom_site_type_symbol
_atom_site_label
_atom_site_fract_x
_atom_site_fract_y
_atom_site_fract_z
Si Si1 0.907265 0.183505 0.117827
Si Si2 0.650381 0.678125 0.609574
Si Si3 0.100146 0.318340 0.423911
Si Si4 0.402475 0.178421 0.558959
Si Si5 0.594513 0.182396 0.887324
Si Si6 0.830832 0.180169 0.425609
Si Si7 0.754566 0.187755 0.873917
Si Si8 0.748294 0.813351 0.132544
O O1 0.892629 0.215072 0.261448
O O2 0.831294 0.256405 0.116267
O O3 0.910714 0.000000 0.086977
O O4 0.000000 0.262561 0.000000
O O5 0.632102 0.500000 0.663753
O O6 0.601483 0.714136 0.544839
O O7 0.618342 0.793835 0.736578
O O8 0.751318 0.703174 0.490908
O O9 0.120643 0.500000 0.427920
O O10 0.119233 0.213206 0.511415
O O11 0.158695 0.261021 0.263708
O O12 0.000000 0.290754 0.500000
O O13 0.500000 0.186779 0.500000
O O14 0.338653 0.243019 0.718101
O O15 0.375313 0.000000 0.555344
O O16 0.669892 0.252400 0.891909
O O17 0.587930 0.000000 0.921741
O O18 0.500000 0.261355 0.000000
O O19 0.798465 0.000000 0.456770
O O20 0.760963 0.000000 0.859781
O O21 0.747451 0.248599 0.007308
O O22 0.751044 0.000000 0.128228
#
# Coordination Sequence:
#
# PCOD8066357 Si02
#       8
#     4   4   4   4   4   4   4   4
#     4   9  18  32  55  88 119 144 182 244 303 347
#     4  12  24  39  61  87 124 163 198 244 301 360
#     4  11  25  42  59  84 123 164 200 244 304 365
#     4  10  21  38  64  90 116 155 201 248 294 344
#     4  10  22  39  62  91 120 153 202 253 295 350
#     4  11  21  38  65  90 115 152 205 255 298 350
#     4  10  21  37  61  89 118 154 198 248 296 353
#     4   9  18  34  55  85 119 148 189 243 296 344
#
# _framework density 20.128892
#
# number of rings (size 3 to 8) (size 9 to 14) (size 15 to 20)
#    0.000    1.750    2.500    1.875    3.500    1.500 
#    0.000    0.625    0.000    1.500    0.000    0.000 
#    0.000    0.000    0.000    0.000    0.000    0.000 
#
# Total GULP energy -396812.305524 kJ/mol
# GULP energy per Si atom -12400.384548 kJ/mol
# Density = 2.008308 g / cm^3
# Si number density = 20.128892 Si / 1000 Ang^3
#
#
#
# Elastic Constant Matrix: (Units=GPa)
#
#
# Indices 1 2 3 4 5 6 
#
# 1 117.9249 16.8293 70.2289 0.0000 -0.2093 0.0000
# 2 16.8293 27.9122 9.0317 0.0000 -1.4293 0.0000
# 3 70.2289 9.0317 137.1708 0.0000 3.2399 0.0000
# 4 0.0000 0.0000 0.0000 6.2629 0.0000 -3.1282
# 5 -0.2093 -1.4293 3.2399 0.0000 45.8466 0.0000
# 6 0.0000 0.0000 0.0000 -3.1282 0.0000 16.8040
#
#
#
# Elastic Compliance Matrix: (Units=1/GPa)
#
#
# Indices 1 2 3 4 5 6 
#
# 1 0.013074 -0.005822 -0.006318 0.000000 0.000325 0.000000
# 2 -0.005822 0.039278 0.000367 0.000000 0.001172 0.000000
# 3 -0.006318 0.000367 0.010519 0.000000 -0.000761 0.000000
# 4 0.000000 0.000000 0.000000 0.176039 0.000000 0.032771
# 5 0.000325 0.001172 -0.000761 0.000000 0.021904 0.000000
# 6 0.000000 0.000000 0.000000 0.032771 0.000000 0.065610
#
#
# Mechanical properties :
#
#
# Convention : Reuss Voigt Hill
#
# Bulk Modulus (GPa) = 25.42923 52.79864 39.11394
# Shear Modulus (GPa) = 13.77116 26.24392 20.00754
#
# Velocity S-wave (km/s) = 2.61846 3.61473 3.15615
# Velocity P-wave (km/s) = 4.66931 6.61127 5.72325
#
# Compressibility (1/GPa) = 0.03932482
#
# Stress axis : x y z
#
# Youngs Moduli (GPa) = 76.48767 25.45946 95.06887
#
# Poissons Ratio (x) = 0.14822 0.60064
# Poissons Ratio (y) = 0.44530 -0.03487
# Poissons Ratio (z) = 0.48325 -0.00934
#
# Static dielectric constant tensor:
#      x y z
#    x 3.810790 0.000000 -0.085440 
#    y 0.000000 3.409460 0.000000 
#    z -0.085440 0.000000 3.771490 
# 
# 
# High freq. dielectric constant tensor:
#      x y z
#    x 1.797080 0.000000 -0.000850 
#    y 0.000000 1.747530 0.000000 
#    z -0.000850 0.000000 1.798800 
# 
# From -- ./inp_files/49784.got.cif
#   From: 2010.06.25/outbox.cif.g09.slc.cpg/sg10_25_cif.got.tgz:49784.got - 2010.06.27 22:07:45.
