data_PCOD8066886
_publ_section_title
;
Structure prediction by ZEFSAII (Michael W. Deem and Ramdas Pophale) SiO2 
 PCOD8066886
Probable space group: P 2/M
;
_chemical_formula_sum "Si O2"
_cell_formula_units_Z 24
_cell_length_a 19.116981
_cell_length_b 15.377227
_cell_length_c 10.703680
_cell_angle_alpha 90.000000
_cell_angle_beta 22.700365
_cell_angle_gamma 90.000000
_cell_volume 1214.279445
_symmetry_space_group_name_H-M "P 2/M"
_symmetry_group_IT_number 10
_symmetry_cell_setting 'monoclinic'
loop_
_space_group_symop_operation_xyz
x,y,z
-x,y,-z
-x,-y,-z
x,-y,z
loop_
_atom_site_type_symbol
_atom_site_label
_atom_site_fract_x
_atom_site_fract_y
_atom_site_fract_z
Si Si1 0.253331 0.760632 0.134434
Si Si2 0.450966 0.341075 0.216479
Si Si3 0.509804 0.099874 0.632279
Si Si4 0.478413 0.500000 0.344842
Si Si5 0.902993 0.690580 0.835149
Si Si6 0.807102 0.500000 0.966235
Si Si7 0.178526 0.780326 0.774596
O O1 0.266813 0.712604 0.976384
O O2 0.057383 0.752667 0.521412
O O3 0.379670 0.715268 0.024574
O O4 0.327304 0.858783 0.992998
O O5 0.419450 0.417927 0.363100
O O6 0.275107 0.278804 0.510101
O O7 0.500000 0.378321 0.000000
O O8 0.500000 0.111002 0.500000
O O9 0.692481 0.143552 0.386351
O O10 0.514340 0.000000 0.665324
O O11 0.694603 0.500000 0.020540
O O12 0.352057 0.500000 0.672369
O O13 0.935095 0.585806 0.769527
O O14 0.870141 0.716369 0.031060
O O15 0.000000 0.819260 0.000000
#
# Coordination Sequence:
#
# PCOD8066886 Si02
#       7
#     4   4   4   2   4   2   4
#     4  10  22  37  63  89 123 164 210 255 311 379
#     4  11  22  38  58  85 125 171 216 259 317 370
#     4  10  21  41  69  97 125 161 204 257 324 392
#     4  11  21  35  58  91 122 168 220 275 304 372
#     4  11  21  39  60  92 126 167 215 264 306 358
#     4  11  22  36  63  92 127 168 226 267 309 357
#     4  11  23  40  65  91 127 168 210 262 318 377
#
# _framework density 19.764806
#
# number of rings (size 3 to 8) (size 9 to 14) (size 15 to 20)
#    0.000    1.333    5.000    1.250    0.000    2.333 
#    0.000    5.833    0.000   17.000    0.000    0.000 
#    0.000    0.000    0.000    0.000    0.000    0.000 
#
# Total GULP energy -297415.650282 kJ/mol
# GULP energy per Si atom -12392.318762 kJ/mol
# Density = 1.971982 g / cm^3
# Si number density = 19.764806 Si / 1000 Ang^3
#
#
#
# Elastic Constant Matrix: (Units=GPa)
#
#
# Indices 1 2 3 4 5 6 
#
# 1 89.5101 35.5095 39.6106 0.0000 0.0786 0.0000
# 2 35.5095 145.0697 47.0815 0.0000 -10.6397 0.0000
# 3 39.6106 47.0815 90.1315 0.0000 -5.2609 0.0000
# 4 0.0000 0.0000 0.0000 16.8342 0.0000 16.1381
# 5 0.0786 -10.6397 -5.2609 0.0000 22.4251 0.0000
# 6 0.0000 0.0000 0.0000 16.1381 0.0000 18.8322
#
#
#
# Elastic Compliance Matrix: (Units=1/GPa)
#
#
# Indices 1 2 3 4 5 6 
#
# 1 0.014336 -0.001909 -0.005433 0.000000 -0.002231 0.000000
# 2 -0.001909 0.008753 -0.003539 0.000000 0.003330 0.000000
# 3 -0.005433 -0.003539 0.015446 0.000000 0.001964 0.000000
# 4 0.000000 0.000000 0.000000 0.332809 0.000000 -0.285199
# 5 -0.002231 0.003330 0.001964 0.000000 0.046641 0.000000
# 6 0.000000 0.000000 0.000000 -0.285199 0.000000 0.297500
#
#
# Mechanical properties :
#
#
# Convention : Reuss Voigt Hill
#
# Bulk Modulus (GPa) = 59.62276 63.23495 61.42886
# Shear Modulus (GPa) = 6.73094 25.11896 15.92495
#
# Velocity S-wave (km/s) = 1.84741 3.56883 2.84160
# Velocity P-wave (km/s) = 5.89764 7.00323 6.47408
#
# Compressibility (1/GPa) = 0.01677212
#
# Stress axis : x y z
#
# Youngs Moduli (GPa) = 69.75652 114.24199 64.74253
#
# Poissons Ratio (x) = 0.21813 0.35174
# Poissons Ratio (y) = 0.13319 0.22912
# Poissons Ratio (z) = 0.37898 0.40430
#
# Static dielectric constant tensor:
#      x y z
#    x 3.689970 0.000000 -0.092140 
#    y 0.000000 3.907900 0.000000 
#    z -0.092140 0.000000 3.992170 
# 
# 
# High freq. dielectric constant tensor:
#      x y z
#    x 1.779860 0.000000 0.000390 
#    y 0.000000 1.754610 0.000000 
#    z 0.000390 0.000000 1.766640 
# 
# From -- ./inp_files/56034.got.cif
#   From: 2010.06.25/outbox.cif.g09.slc.cpg/sg10_29_cif.got.tgz:56034.got - 2010.06.27 22:07:45.
