data_PCOD8066654
_publ_section_title
;
Structure prediction by ZEFSAII (Michael W. Deem and Ramdas Pophale) SiO2 
 PCOD8066654
Probable space group: P 2/M
;
_chemical_formula_sum "Si O2"
_cell_formula_units_Z 18
_cell_length_a 8.878129
_cell_length_b 9.896588
_cell_length_c 21.078201
_cell_angle_alpha 90.000000
_cell_angle_beta 151.230792
_cell_angle_gamma 90.000000
_cell_volume 891.334459
_symmetry_space_group_name_H-M "P 2/M"
_symmetry_group_IT_number 10
_symmetry_cell_setting 'monoclinic'
loop_
_space_group_symop_operation_xyz
x,y,z
-x,y,-z
-x,-y,-z
x,-y,z
loop_
_atom_site_type_symbol
_atom_site_label
_atom_site_fract_x
_atom_site_fract_y
_atom_site_fract_z
Si Si1 0.672256 0.500000 0.994633
Si Si2 0.759040 0.000000 0.819342
Si Si3 0.676042 0.285521 0.212514
Si Si4 0.849136 0.500000 0.648072
Si Si5 0.445505 0.000000 0.111202
Si Si6 0.331719 0.500000 0.280941
Si Si7 0.650058 0.754445 0.350751
O O1 0.582675 0.367340 0.921963
O O2 0.500000 0.500000 0.000000
O O3 0.047336 0.500000 0.126648
O O4 0.673525 0.000000 0.861265
O O5 0.601390 0.128715 0.727144
O O6 0.138011 0.000000 0.951736
O O7 0.663018 0.132010 0.180601
O O8 0.616911 0.288363 0.265551
O O9 0.004541 0.360606 0.323555
O O10 0.500000 0.500000 0.500000
O O11 0.875113 0.500000 0.732461
O O12 0.557740 0.628251 0.360104
O O13 0.000000 0.801184 0.500000
#
# Coordination Sequence:
#
# PCOD8066654 Si02
#       7
#     2   2   4   2   2   2   4
#     4  11  21  39  58  82 118 150 202 242 295 345
#     4   9  19  36  59  86 120 154 184 240 303 353
#     4  10  21  39  61  84 120 154 193 253 295 342
#     4  11  22  39  58  82 120 167 198 234 294 349
#     4   9  18  36  61  89 113 149 200 239 301 351
#     4  12  22  35  60  84 116 152 199 243 286 349
#     4  11  22  37  59  91 119 151 197 241 291 356
#
# _framework density 20.19444
#
# number of rings (size 3 to 8) (size 9 to 14) (size 15 to 20)
#    0.000    1.556    2.222    4.667    0.000    3.556 
#    0.000    2.222    0.000    0.000    0.000    0.000 
#    0.000    0.000    0.000    0.000    0.000    0.000 
#
# Total GULP energy -223089.588612 kJ/mol
# GULP energy per Si atom -12393.866034 kJ/mol
# Density = 2.014848 g / cm^3
# Si number density = 20.194440 Si / 1000 Ang^3
#
#
#
# Elastic Constant Matrix: (Units=GPa)
#
#
# Indices 1 2 3 4 5 6 
#
# 1 58.0511 34.4943 6.4328 0.0000 -0.9206 0.0000
# 2 34.4943 178.5511 42.5865 0.0000 15.6475 0.0000
# 3 6.4328 42.5865 116.3017 0.0000 23.4146 0.0000
# 4 0.0000 0.0000 0.0000 29.4531 0.0000 -0.0016
# 5 -0.9206 15.6475 23.4146 0.0000 37.6115 0.0000
# 6 0.0000 0.0000 0.0000 -0.0016 0.0000 5.5607
#
#
#
# Elastic Compliance Matrix: (Units=1/GPa)
#
#
# Indices 1 2 3 4 5 6 
#
# 1 0.019625 -0.003965 -0.000071 0.000000 0.002174 0.000000
# 2 -0.003965 0.006995 -0.001986 0.000000 -0.001771 0.000000
# 3 -0.000071 -0.001986 0.010476 0.000000 -0.005698 0.000000
# 4 0.000000 0.000000 0.000000 0.033952 0.000000 0.000010
# 5 0.002174 -0.001771 -0.005698 0.000000 0.030925 0.000000
# 6 0.000000 0.000000 0.000000 0.000010 0.000000 0.179833
#
#
# Mechanical properties :
#
#
# Convention : Reuss Voigt Hill
#
# Bulk Modulus (GPa) = 39.91584 57.77013 48.84298
# Shear Modulus (GPa) = 16.54530 32.48441 24.51486
#
# Velocity S-wave (km/s) = 2.86545 4.01506 3.48795
# Velocity P-wave (km/s) = 5.54584 7.08261 6.36081
#
# Compressibility (1/GPa) = 0.02505271
#
# Stress axis : x y z
#
# Youngs Moduli (GPa) = 50.95671 142.95080 95.45218
#
# Poissons Ratio (x) = 0.56677 0.00682
# Poissons Ratio (y) = 0.20203 0.18953
# Poissons Ratio (z) = 0.00364 0.28385
#
# Static dielectric constant tensor:
#      x y z
#    x 3.190130 0.000000 0.086040 
#    y 0.000000 4.248180 0.000000 
#    z 0.086040 0.000000 3.712740 
# 
# 
# High freq. dielectric constant tensor:
#      x y z
#    x 1.758580 0.000000 -0.001760 
#    y 0.000000 1.796900 0.000000 
#    z -0.001760 0.000000 1.806880 
# 
# From -- ./inp_files/82159.got.cif
#   From: 2010.06.25/outbox.cif.g09.slc.cpg/sg10_42_cif.got.tgz:82159.got - 2010.06.27 22:07:45.
