data_PCOD8066143
_publ_section_title
;
Structure prediction by ZEFSAII (Michael W. Deem and Ramdas Pophale) SiO2 
 PCOD8066143
Probable space group: P 2/M
;
_chemical_formula_sum "Si O2"
_cell_formula_units_Z 20
_cell_length_a 13.828040
_cell_length_b 9.004652
_cell_length_c 25.820704
_cell_angle_alpha 90.000000
_cell_angle_beta 20.664348
_cell_angle_gamma 90.000000
_cell_volume 1134.588336
_symmetry_space_group_name_H-M "P 2/M"
_symmetry_group_IT_number 10
_symmetry_cell_setting 'monoclinic'
loop_
_space_group_symop_operation_xyz
x,y,z
-x,y,-z
-x,-y,-z
x,-y,z
loop_
_atom_site_type_symbol
_atom_site_label
_atom_site_fract_x
_atom_site_fract_y
_atom_site_fract_z
Si Si1 0.925118 0.323930 0.919062
Si Si2 0.485241 0.173984 0.947421
Si Si3 0.509735 0.323720 0.662818
Si Si4 0.090930 0.326805 0.336678
Si Si5 0.515151 0.672312 0.210162
O O1 0.888089 0.500000 0.931625
O O2 0.242452 0.276451 0.764131
O O3 0.791489 0.247525 0.936094
O O4 0.768389 0.265832 0.049160
O O5 0.758115 0.236666 0.783811
O O6 0.470864 0.000000 0.944564
O O7 0.500000 0.214628 0.000000
O O8 0.529821 0.500000 0.657975
O O9 0.495913 0.252220 0.727541
O O10 0.779471 0.267260 0.497434
O O11 0.105852 0.500000 0.314447
O O12 0.232459 0.298700 0.321413
O O13 0.568734 0.500000 0.192061
#
# Coordination Sequence:
#
# PCOD8066143 Si02
#       5
#     4   4   4   4   4
#     4   9  17  29  49  75  98 123 155 190 227 269
#     4  10  21  37  53  65  83 118 161 202 242 282
#     4   9  15  25  45  76 107 126 147 184 227 271
#     4   9  17  29  49  75  98 123 155 190 227 269
#     4   8  13  23  43  72 103 131 155 179 213 264
#
# _framework density 17.627538000000001
#
# number of rings (size 3 to 8) (size 9 to 14) (size 15 to 20)
#    0.000    3.000    0.000    3.000    0.000    6.400 
#    0.000    2.000    0.000   25.200    0.000    0.000 
#    0.000    0.000    0.000    0.000    0.000    0.000 
#
# Total GULP energy -247914.841593 kJ/mol
# GULP energy per Si atom -12395.742080 kJ/mol
# Density = 1.758742 g / cm^3
# Si number density = 17.627538 Si / 1000 Ang^3
#
#
#
# Elastic Constant Matrix: (Units=GPa)
#
#
# Indices 1 2 3 4 5 6 
#
# 1 126.1198 45.1751 77.5675 0.0000 1.1936 0.0000
# 2 45.1751 37.6240 31.3673 0.0000 1.8060 0.0000
# 3 77.5675 31.3673 128.6393 0.0000 -21.0702 0.0000
# 4 0.0000 0.0000 0.0000 7.0130 0.0000 -3.7925
# 5 1.1936 1.8060 -21.0702 0.0000 27.1213 0.0000
# 6 0.0000 0.0000 0.0000 -3.7925 0.0000 -1.7871
#
#
#
# Elastic Compliance Matrix: (Units=1/GPa)
#
#
# Indices 1 2 3 4 5 6 
#
# 1 0.018666 -0.014822 -0.008725 0.000000 -0.006613 0.000000
# 2 -0.014822 0.047562 -0.003520 0.000000 -0.005249 0.000000
# 3 -0.008725 -0.003520 0.016034 0.000000 0.013075 0.000000
# 4 0.000000 0.000000 0.000000 0.066395 0.000000 -0.140903
# 5 -0.006613 -0.005249 0.013075 0.000000 0.047670 0.000000
# 6 0.000000 0.000000 0.000000 -0.140903 0.000000 -0.260557
#
#
# Mechanical properties :
#
#
# Convention : Reuss Voigt Hill
#
# Bulk Modulus (GPa) = 35.54910 66.73364 51.14137
# Shear Modulus (GPa) = -6938.56530 15.68766 -3461.43882
#
# Velocity S-wave (km/s) = -62.80727 2.98644 -44.36121
# Velocity P-wave (km/s) = 72.38412 7.05915 50.93932
#
# Compressibility (1/GPa) = 0.02813011
#
# Stress axis : x y z
#
# Youngs Moduli (GPa) = 53.57220 21.02535 62.36594
#
# Poissons Ratio (x) = 0.31163 0.54411
# Poissons Ratio (y) = 0.79403 0.21953
# Poissons Ratio (z) = 0.46739 0.07401
#
# Static dielectric constant tensor:
#      x y z
#    x 3.241790 0.000000 -0.101320 
#    y 0.000000 2.827750 0.000000 
#    z -0.101320 0.000000 3.496270 
# 
# 
# High freq. dielectric constant tensor:
#      x y z
#    x 1.673880 0.000000 -0.007860 
#    y 0.000000 1.632200 0.000000 
#    z -0.007860 0.000000 1.687810 
# 
# From -- ./inp_files/26747.got.cif
#   From: 2010.06.25/outbox.cif.g09.slc.cpg/sg10_14_cif.got.tgz:26747.got - 2010.06.27 22:07:45.
