data_PCOD8066537
_publ_section_title
;
Structure prediction by ZEFSAII (Michael W. Deem and Ramdas Pophale) SiO2 
 PCOD8066537
Probable space group: P 2/M
;
_chemical_formula_sum "Si O2"
_cell_formula_units_Z 28
_cell_length_a 13.904137
_cell_length_b 8.725511
_cell_length_c 18.935623
_cell_angle_alpha 90.000000
_cell_angle_beta 144.152997
_cell_angle_gamma 90.000000
_cell_volume 1345.341420
_symmetry_space_group_name_H-M "P 2/M"
_symmetry_group_IT_number 10
_symmetry_cell_setting 'monoclinic'
loop_
_space_group_symop_operation_xyz
x,y,z
-x,y,-z
-x,-y,-z
x,-y,z
loop_
_atom_site_type_symbol
_atom_site_label
_atom_site_fract_x
_atom_site_fract_y
_atom_site_fract_z
Si Si1 0.178064 0.672763 0.071728
Si Si2 0.879155 0.178503 0.106515
Si Si3 0.947532 0.319507 0.391908
Si Si4 0.217884 0.329495 0.313223
Si Si5 0.733068 0.669830 0.495894
Si Si6 0.308478 0.681227 0.874640
Si Si7 0.413252 0.174644 0.313105
O O1 0.247344 0.500000 0.121217
O O2 0.283982 0.798280 0.174776
O O3 0.191061 0.718512 0.998079
O O4 0.000000 0.683907 0.000000
O O5 0.795425 0.231049 0.128725
O O6 0.073608 0.205840 0.223480
O O7 0.844813 0.000000 0.073000
O O8 0.939746 0.500000 0.396463
O O9 0.772075 0.269799 0.250380
O O10 0.000000 0.247573 0.500000
O O11 0.090173 0.266809 0.422888
O O12 0.156573 0.500000 0.252940
O O13 0.283855 0.336660 0.430785
O O14 0.368045 0.278834 0.353328
O O15 0.707289 0.500000 0.448017
O O16 0.589143 0.780885 0.384216
O O17 0.285031 0.500000 0.871303
O O18 0.500000 0.727383 0.000000
O O19 0.413991 0.000000 0.337834
#
# Coordination Sequence:
#
# PCOD8066537 Si02
#       7
#     4   4   4   4   4   4   4
#     4  11  23  40  63  86 117 164 211 253 300 366
#     4  12  24  38  62  92 125 162 201 254 319 374
#     4   9  18  36  63  93 122 157 207 266 316 363
#     4  11  21  38  62  88 119 162 213 254 298 363
#     4  10  21  38  61  87 121 163 210 256 304 366
#     4  10  21  40  66  95 123 161 215 267 315 379
#     4  12  25  38  57  90 129 163 203 255 313 371
#
# _framework density 20.812560999999999
#
# number of rings (size 3 to 8) (size 9 to 14) (size 15 to 20)
#    0.000    1.286    2.857    3.857    0.000    4.857 
#    0.000    2.857    0.000    1.714    0.000    0.000 
#    0.000    0.000    0.000    0.000    0.000    0.000 
#
# Total GULP energy -347050.926650 kJ/mol
# GULP energy per Si atom -12394.675952 kJ/mol
# Density = 2.076519 g / cm^3
# Si number density = 20.812561 Si / 1000 Ang^3
#
#
#
# Elastic Constant Matrix: (Units=GPa)
#
#
# Indices 1 2 3 4 5 6 
#
# 1 82.3826 21.2999 54.1437 0.0000 -8.5022 0.0000
# 2 21.2999 75.8533 28.2908 0.0000 1.4573 0.0000
# 3 54.1437 28.2908 125.6423 0.0000 3.9208 0.0000
# 4 0.0000 0.0000 0.0000 11.3386 0.0000 -1.1207
# 5 -8.5022 1.4573 3.9208 0.0000 34.8330 0.0000
# 6 0.0000 0.0000 0.0000 -1.1207 0.0000 27.0257
#
#
#
# Elastic Compliance Matrix: (Units=1/GPa)
#
#
# Indices 1 2 3 4 5 6 
#
# 1 0.018242 -0.002436 -0.007481 0.000000 0.005397 0.000000
# 2 -0.002436 0.014719 -0.002235 0.000000 -0.000959 0.000000
# 3 -0.007481 -0.002235 0.011782 0.000000 -0.003059 0.000000
# 4 0.000000 0.000000 0.000000 0.088557 0.000000 0.003672
# 5 0.005397 -0.000959 -0.003059 0.000000 0.030410 0.000000
# 6 0.000000 0.000000 0.000000 0.003672 0.000000 0.037154
#
#
# Mechanical properties :
#
#
# Convention : Reuss Voigt Hill
#
# Bulk Modulus (GPa) = 48.92481 54.59411 51.75946
# Shear Modulus (GPa) = 21.55355 26.64906 24.10130
#
# Velocity S-wave (km/s) = 3.22157 3.58219 3.40666
# Velocity P-wave (km/s) = 6.11526 6.58770 6.35587
#
# Compressibility (1/GPa) = 0.02043953
#
# Stress axis : x y z
#
# Youngs Moduli (GPa) = 54.81887 67.93825 84.87845
#
# Poissons Ratio (x) = 0.16549 0.63497
# Poissons Ratio (y) = 0.13353 0.18968
# Poissons Ratio (z) = 0.41010 0.15182
#
# Static dielectric constant tensor:
#      x y z
#    x 3.855830 0.000000 -0.075480 
#    y 0.000000 3.562030 0.000000 
#    z -0.075480 0.000000 3.980140 
# 
# 
# High freq. dielectric constant tensor:
#      x y z
#    x 1.808500 0.000000 -0.004570 
#    y 0.000000 1.792190 0.000000 
#    z -0.004570 0.000000 1.823150 
# 
# From -- ./inp_files/84955.got.cif
#   From: 2010.06.25/outbox.cif.g09.slc.cpg/sg10_43_cif.got.tgz:84955.got - 2010.06.27 22:07:45.
