data_PCOD8066140
_publ_section_title
;
Structure prediction by ZEFSAII (Michael W. Deem and Ramdas Pophale) SiO2 
 PCOD8066140
Probable space group: P 2/M
;
_chemical_formula_sum "Si O2"
_cell_formula_units_Z 26
_cell_length_a 6.614261
_cell_length_b 20.319668
_cell_length_c 12.179183
_cell_angle_alpha 90.000000
_cell_angle_beta 44.451875
_cell_angle_gamma 90.000000
_cell_volume 1146.321338
_symmetry_space_group_name_H-M "P 2/M"
_symmetry_group_IT_number 10
_symmetry_cell_setting 'monoclinic'
loop_
_space_group_symop_operation_xyz
x,y,z
-x,y,-z
-x,-y,-z
x,-y,z
loop_
_atom_site_type_symbol
_atom_site_label
_atom_site_fract_x
_atom_site_fract_y
_atom_site_fract_z
Si Si1 0.702403 0.312627 0.828844
Si Si2 0.310129 0.650433 0.678584
Si Si3 0.420696 0.215946 0.706317
Si Si4 0.000000 0.863136 0.000000
Si Si5 0.168790 0.926630 0.155806
Si Si6 0.042449 0.191761 0.635431
Si Si7 0.664304 0.574158 0.140168
O O1 0.800675 0.250529 0.712168
O O2 0.539581 0.375147 0.842475
O O3 0.977021 0.346338 0.777881
O O4 0.500000 0.279731 0.000000
O O5 0.500000 0.662342 0.500000
O O6 0.410282 0.705681 0.730274
O O7 0.389849 0.581831 0.707276
O O8 0.744763 0.187956 0.553932
O O9 0.284779 0.181630 0.867133
O O10 0.221916 0.208763 0.674801
O O11 0.012719 0.907303 0.103406
O O12 0.100253 0.879242 0.285872
O O13 0.068138 0.000000 0.228635
O O14 0.500000 0.924319 0.000000
O O15 0.594721 0.500000 0.128629
O O16 0.000000 0.593004 0.000000
#
# Coordination Sequence:
#
# PCOD8066140 Si02
#       7
#     4   4   4   2   4   4   4
#     4  11  21  39  69  96 122 168 218 262 321 382
#     4  11  22  42  64  90 129 166 206 275 322 372
#     4   9  18  36  62  92 122 159 208 264 317 371
#     4  10  21  36  64  90 123 166 206 256 317 376
#     4  10  21  38  59  88 126 167 210 256 315 383
#     4   9  18  37  62  90 126 159 210 263 315 368
#     4  11  26  43  64  96 129 168 216 261 320 395
#
# _framework density 22.681251
#
# number of rings (size 3 to 8) (size 9 to 14) (size 15 to 20)
#    0.000    1.846    4.615    0.692    1.077    4.308 
#    0.000   10.000    0.000    1.846    0.000    0.000 
#    0.000    0.000    0.000    0.000    0.000    0.000 
#
# Total GULP energy -322212.033542 kJ/mol
# GULP energy per Si atom -12392.770521 kJ/mol
# Density = 2.262963 g / cm^3
# Si number density = 22.681251 Si / 1000 Ang^3
#
#
#
# Elastic Constant Matrix: (Units=GPa)
#
#
# Indices 1 2 3 4 5 6 
#
# 1 60.8489 58.7707 38.2962 0.0000 -25.1418 0.0000
# 2 58.7707 165.2159 74.3535 0.0000 -7.6394 0.0000
# 3 38.2962 74.3535 130.4838 0.0000 -21.4389 0.0000
# 4 0.0000 0.0000 0.0000 34.0869 0.0000 1.9160
# 5 -25.1418 -7.6394 -21.4389 0.0000 28.6340 0.0000
# 6 0.0000 0.0000 0.0000 1.9160 0.0000 39.1083
#
#
#
# Elastic Compliance Matrix: (Units=1/GPa)
#
#
# Indices 1 2 3 4 5 6 
#
# 1 0.045262 -0.014981 0.001283 0.000000 0.036706 0.000000
# 2 -0.014981 0.013154 -0.005340 0.000000 -0.013643 0.000000
# 3 0.001283 -0.005340 0.011724 0.000000 0.008480 0.000000
# 4 0.000000 0.000000 0.000000 0.029418 0.000000 -0.001441
# 5 0.036706 -0.013643 0.008480 0.000000 0.069862 0.000000
# 6 0.000000 0.000000 0.000000 -0.001441 0.000000 0.025641
#
#
# Mechanical properties :
#
#
# Convention : Reuss Voigt Hill
#
# Bulk Modulus (GPa) = 31.18781 77.70993 54.44887
# Shear Modulus (GPa) = 20.50655 32.70772 26.60713
#
# Velocity S-wave (km/s) = 3.01012 3.80157 3.42875
# Velocity P-wave (km/s) = 5.08541 7.32157 6.30344
#
# Compressibility (1/GPa) = 0.03206381
#
# Stress axis : x y z
#
# Youngs Moduli (GPa) = 22.09350 76.02044 85.29845
#
# Poissons Ratio (x) = 1.13887 -0.10947
# Poissons Ratio (y) = 0.33098 0.45554
# Poissons Ratio (z) = -0.02836 0.40599
#
# Static dielectric constant tensor:
#      x y z
#    x 4.388480 0.000000 -0.031290 
#    y 0.000000 4.241060 0.000000 
#    z -0.031290 0.000000 4.218500 
# 
# 
# High freq. dielectric constant tensor:
#      x y z
#    x 1.913580 0.000000 -0.003030 
#    y 0.000000 1.882410 0.000000 
#    z -0.003030 0.000000 1.896250 
# 
# From -- ./inp_files/39677.got.cif
#   From: 2010.06.25/outbox.cif.g09.slc.cpg/sg10_20_cif.got.tgz:39677.got - 2010.06.27 22:07:45.
