data_PCOD8066545
_publ_section_title
;
Structure prediction by ZEFSAII (Michael W. Deem and Ramdas Pophale) SiO2 
 PCOD8066545
Probable space group: P 2/M
;
_chemical_formula_sum "Si O2"
_cell_formula_units_Z 32
_cell_length_a 15.320379
_cell_length_b 8.905841
_cell_length_c 12.071469
_cell_angle_alpha 90.000000
_cell_angle_beta 90.270496
_cell_angle_gamma 90.000000
_cell_volume 1647.023250
_symmetry_space_group_name_H-M "P 2/M"
_symmetry_group_IT_number 10
_symmetry_cell_setting 'monoclinic'
loop_
_space_group_symop_operation_xyz
x,y,z
-x,y,-z
-x,-y,-z
x,-y,z
loop_
_atom_site_type_symbol
_atom_site_label
_atom_site_fract_x
_atom_site_fract_y
_atom_site_fract_z
Si Si1 0.503576 0.677504 0.124285
Si Si2 0.851328 0.328313 0.216707
Si Si3 0.654894 0.323762 0.722524
Si Si4 0.008825 0.677981 0.373380
Si Si5 0.397861 0.166663 0.492946
Si Si6 0.161708 0.822544 0.237690
Si Si7 0.654487 0.327282 0.288549
Si Si8 0.097408 0.177232 0.001088
O O1 0.499792 0.500000 0.115643
O O2 0.419678 0.733676 0.193207
O O3 0.593338 0.726604 0.185762
O O4 0.500000 0.747417 0.000000
O O5 0.872414 0.500000 0.189996
O O6 0.755666 0.307801 0.264125
O O7 0.923858 0.266606 0.303714
O O8 0.850397 0.238892 0.102668
O O9 0.673733 0.500000 0.736215
O O10 0.625522 0.290446 0.597992
O O11 0.740633 0.227951 0.741682
O O12 0.018087 0.500000 0.368955
O O13 0.096414 0.748623 0.324831
O O14 0.000000 0.733306 0.500000
O O15 0.500000 0.155222 0.500000
O O16 0.361265 0.220225 0.609089
O O17 0.359435 0.000000 0.465873
O O18 0.140546 0.765997 0.114244
O O19 0.152460 0.000000 0.249306
O O20 0.631562 0.500000 0.317670
O O21 0.097451 0.000000 0.992501
O O22 0.000000 0.242519 0.000000
#
# Coordination Sequence:
#
# PCOD8066545 Si02
#       8
#     4   4   4   4   4   4   4   4
#     4   9  19  36  58  86 119 154 195 243 295 353
#     4  10  22  37  60  91 119 151 197 253 299 347
#     4  11  23  39  64  91 119 158 202 249 301 354
#     4  10  22  40  59  86 122 157 197 247 301 356
#     4  11  23  40  62  88 123 159 200 250 297 354
#     4  11  24  41  61  88 121 159 202 247 300 360
#     4  10  21  38  61  89 120 155 200 248 297 352
#     4  10  21  40  62  84 118 160 200 244 296 361
#
# _framework density 19.428991
#
# number of rings (size 3 to 8) (size 9 to 14) (size 15 to 20)
#    0.000    1.750    2.500    1.125    3.500    2.500 
#    0.000    0.000    0.000    1.875    0.000    0.000 
#    0.000    0.000    0.000    0.000    0.000    0.000 
#
# Total GULP energy -396832.326782 kJ/mol
# GULP energy per Si atom -12401.010212 kJ/mol
# Density = 1.938477 g / cm^3
# Si number density = 19.428991 Si / 1000 Ang^3
#
#
#
# Elastic Constant Matrix: (Units=GPa)
#
#
# Indices 1 2 3 4 5 6 
#
# 1 107.2094 14.1168 41.3052 0.0000 4.6305 0.0000
# 2 14.1168 29.5985 27.7512 0.0000 -7.2618 0.0000
# 3 41.3052 27.7512 140.7784 0.0000 4.0721 0.0000
# 4 0.0000 0.0000 0.0000 26.7244 0.0000 -1.7191
# 5 4.6305 -7.2618 4.0721 0.0000 24.1919 0.0000
# 6 0.0000 0.0000 0.0000 -1.7191 0.0000 -1.4858
#
#
#
# Elastic Compliance Matrix: (Units=1/GPa)
#
#
# Indices 1 2 3 4 5 6 
#
# 1 0.010842 -0.003606 -0.002391 0.000000 -0.002755 0.000000
# 2 -0.003606 0.047870 -0.008857 0.000000 0.016550 0.000000
# 3 -0.002391 -0.008857 0.009662 0.000000 -0.003827 0.000000
# 4 0.000000 0.000000 0.000000 0.034827 0.000000 -0.040295
# 5 -0.002755 0.016550 -0.003827 0.000000 0.047476 0.000000
# 6 0.000000 0.000000 0.000000 -0.040295 0.000000 -0.626419
#
#
# Mechanical properties :
#
#
# Convention : Reuss Voigt Hill
#
# Bulk Modulus (GPa) = 25.86202 49.32584 37.59393
# Shear Modulus (GPa) = -11.54346 22.84697 5.65176
#
# Velocity S-wave (km/s) = -2.44013 3.43289 1.70741
# Velocity P-wave (km/s) = 2.32399 6.41528 4.82477
#
# Compressibility (1/GPa) = 0.03866674
#
# Stress axis : x y z
#
# Youngs Moduli (GPa) = 92.23036 20.88984 103.50306
#
# Poissons Ratio (x) = 0.07532 0.24745
# Poissons Ratio (y) = 0.33255 0.91676
# Poissons Ratio (z) = 0.22050 0.18503
#
# Static dielectric constant tensor:
#      x y z
#    x 3.930160 0.000000 0.248520 
#    y 0.000000 3.464100 0.000000 
#    z 0.248520 0.000000 3.821430 
# 
# 
# High freq. dielectric constant tensor:
#      x y z
#    x 1.767330 0.000000 0.002070 
#    y 0.000000 1.740260 0.000000 
#    z 0.002070 0.000000 1.768980 
# 
# From -- ./inp_files/49867.got.cif
#   From: 2010.06.25/outbox.cif.g09.slc.cpg/sg10_25_cif.got.tgz:49867.got - 2010.06.27 22:07:45.
