data_PCOD8066516
_publ_section_title
;
Structure prediction by ZEFSAII (Michael W. Deem and Ramdas Pophale) SiO2 
 PCOD8066516
Probable space group: P 2/M
;
_chemical_formula_sum "Si O2"
_cell_formula_units_Z 18
_cell_length_a 9.341709
_cell_length_b 21.135941
_cell_length_c 8.109943
_cell_angle_alpha 90.000000
_cell_angle_beta 32.282115
_cell_angle_gamma 90.000000
_cell_volume 855.222128
_symmetry_space_group_name_H-M "P 2/M"
_symmetry_group_IT_number 10
_symmetry_cell_setting 'monoclinic'
loop_
_space_group_symop_operation_xyz
x,y,z
-x,y,-z
-x,-y,-z
x,-y,z
loop_
_atom_site_type_symbol
_atom_site_label
_atom_site_fract_x
_atom_site_fract_y
_atom_site_fract_z
Si Si1 0.267077 0.106730 0.845972
Si Si2 0.249919 0.570520 0.638343
Si Si3 0.609663 0.249103 0.215169
Si Si4 0.241474 0.000000 0.139466
Si Si5 0.113142 0.311915 0.571128
O O1 0.500000 0.080106 0.500000
O O2 0.345511 0.174457 0.842902
O O3 0.000000 0.112161 0.000000
O O4 0.226253 0.061514 0.040336
O O5 0.500000 0.596197 0.500000
O O6 0.310245 0.500000 0.509085
O O7 0.197255 0.617086 0.537568
O O8 0.000000 0.568292 0.000000
O O9 0.500000 0.269636 0.500000
O O10 0.377372 0.267868 0.312323
O O11 0.888529 0.285078 0.913842
O O12 0.000000 0.000000 0.500000
O O13 0.500000 0.000000 0.000000
O O14 0.000000 0.312911 0.500000
#
# Coordination Sequence:
#
# PCOD8066516 Si02
#       5
#     4   4   4   2   4
#     4  11  23  43  67  90 119 163 211 250 293 356
#     4  10  21  38  61  85 114 158 207 249 292 354
#     4  11  23  41  64  89 118 161 208 249 294 357
#     4  12  26  42  64  96 130 162 196 250 312 360
#     4  12  24  38  60  92 127 158 193 251 314 362
#
# _framework density 21.047163000000001
#
# number of rings (size 3 to 8) (size 9 to 14) (size 15 to 20)
#    0.000    0.889    0.000    9.333    0.000    3.111 
#    0.000    0.000    0.000    6.667    0.000    0.000 
#    0.000    0.000    0.000    0.000    0.000    0.000 
#
# Total GULP energy -223295.882193 kJ/mol
# GULP energy per Si atom -12405.326788 kJ/mol
# Density = 2.099926 g / cm^3
# Si number density = 21.047163 Si / 1000 Ang^3
#
#
#
# Elastic Constant Matrix: (Units=GPa)
#
#
# Indices 1 2 3 4 5 6 
#
# 1 139.1295 82.7651 36.3904 0.0000 -18.4113 0.0000
# 2 82.7651 154.1679 49.7609 0.0000 0.0280 0.0000
# 3 36.3904 49.7609 131.2849 0.0000 -12.9884 0.0000
# 4 0.0000 0.0000 0.0000 31.8707 0.0000 -22.1264
# 5 -18.4113 0.0280 -12.9884 0.0000 44.2140 0.0000
# 6 0.0000 0.0000 0.0000 -22.1264 0.0000 48.2453
#
#
#
# Elastic Compliance Matrix: (Units=1/GPa)
#
#
# Indices 1 2 3 4 5 6 
#
# 1 0.011513 -0.006040 -0.000440 0.000000 0.004669 0.000000
# 2 -0.006040 0.010590 -0.002667 0.000000 -0.003305 0.000000
# 3 -0.000440 -0.002667 0.008993 0.000000 0.002460 0.000000
# 4 0.000000 0.000000 0.000000 0.046034 0.000000 0.021112
# 5 0.004669 -0.003305 0.002460 0.000000 0.025286 0.000000
# 6 0.000000 0.000000 0.000000 0.021112 0.000000 0.030410
#
#
# Mechanical properties :
#
#
# Convention : Reuss Voigt Hill
#
# Bulk Modulus (GPa) = 78.10504 84.71281 81.40892
# Shear Modulus (GPa) = 32.17734 41.91039 37.04387
#
# Velocity S-wave (km/s) = 3.91426 4.46720 4.19984
# Velocity P-wave (km/s) = 7.59069 8.18194 7.89186
#
# Compressibility (1/GPa) = 0.01280327
#
# Stress axis : x y z
#
# Youngs Moduli (GPa) = 86.85493 94.42624 111.19426
#
# Poissons Ratio (x) = 0.57031 0.04895
# Poissons Ratio (y) = 0.52458 0.29654
# Poissons Ratio (z) = 0.03824 0.25182
#
# Static dielectric constant tensor:
#      x y z
#    x 3.670590 0.000000 -0.257460 
#    y 0.000000 4.233210 0.000000 
#    z -0.257460 0.000000 4.109260 
# 
# 
# High freq. dielectric constant tensor:
#      x y z
#    x 1.821550 0.000000 -0.020120 
#    y 0.000000 1.839350 0.000000 
#    z -0.020120 0.000000 1.841520 
# 
# From -- ./inp_files/20029.got.cif
#   From: 2010.06.25/outbox.cif.g09.slc.cpg/sg10_11_cif.got.tgz:20029.got - 2010.06.27 22:07:45.
