data_PCOD8066600
_publ_section_title
;
Structure prediction by ZEFSAII (Michael W. Deem and Ramdas Pophale) SiO2 
 PCOD8066600
Probable space group: P 2/M
;
_chemical_formula_sum "Si O2"
_cell_formula_units_Z 32
_cell_length_a 14.055175
_cell_length_b 27.666550
_cell_length_c 9.842589
_cell_angle_alpha 90.000000
_cell_angle_beta 25.744081
_cell_angle_gamma 90.000000
_cell_volume 1662.427243
_symmetry_space_group_name_H-M "P 2/M"
_symmetry_group_IT_number 10
_symmetry_cell_setting 'monoclinic'
loop_
_space_group_symop_operation_xyz
x,y,z
-x,y,-z
-x,-y,-z
x,-y,z
loop_
_atom_site_type_symbol
_atom_site_label
_atom_site_fract_x
_atom_site_fract_y
_atom_site_fract_z
Si Si1 0.804877 0.122669 0.850361
Si Si2 0.443309 0.443945 0.729427
Si Si3 0.516537 0.295614 0.324674
Si Si4 0.195122 0.622668 0.649638
Si Si5 0.906021 0.867014 0.269592
Si Si6 0.516538 0.795614 0.824674
Si Si7 0.906020 0.632986 0.769592
Si Si8 0.443308 0.056054 0.229429
O O1 0.000000 0.107441 0.500000
O O2 0.888769 0.134320 0.892745
O O3 0.686551 0.169433 0.942386
O O4 0.636871 0.077765 0.073456
O O5 0.500000 0.433664 0.500000
O O6 0.417492 0.500000 0.795926
O O7 0.636875 0.422237 0.573453
O O8 0.215505 0.418270 0.058531
O O9 0.500000 0.277183 0.500000
O O10 0.313456 0.330569 0.557602
O O11 0.499997 0.250000 0.250005
O O12 0.744895 0.322791 0.007933
O O13 0.111232 0.634319 0.607252
O O14 0.000000 0.607440 0.000000
O O15 0.744889 0.822793 0.507941
O O16 0.784497 0.918271 0.441467
O O17 0.000000 0.860488 0.000000
O O18 0.500000 0.777182 0.000000
O O19 0.000000 0.639513 0.500000
O O20 0.417500 0.000000 0.295925
O O21 0.500000 0.066333 0.000000
#
# Coordination Sequence:
#
# PCOD8066600 Si02
#       8
#     4   4   4   4   4   4   4   4
#     4  11  20  41  64  85 121 162 197 242 296 353
#     4  10  21  38  63  93 120 154 203 246 289 356
#     4  11  25  41  61  91 121 154 202 248 293 356
#     4  11  20  41  64  85 121 162 197 242 296 353
#     4  11  24  41  61  89 124 158 196 247 300 350
#     4  11  25  41  61  91 121 154 202 248 293 356
#     4  11  24  41  61  89 124 158 196 247 300 350
#     4  10  21  38  63  93 120 154 203 246 289 356
#
# _framework density 19.248963
#
# number of rings (size 3 to 8) (size 9 to 14) (size 15 to 20)
#    0.000    1.250    5.000    1.500    3.500    7.000 
#    0.000    1.250    0.000    0.000    0.000    0.000 
#    0.000    0.000    0.000    0.000    0.000    0.000 
#
# Total GULP energy -396989.439766 kJ/mol
# GULP energy per Si atom -12405.919993 kJ/mol
# Density = 1.920515 g / cm^3
# Si number density = 19.248963 Si / 1000 Ang^3
#
#
#
# Elastic Constant Matrix: (Units=GPa)
#
#
# Indices 1 2 3 4 5 6 
#
# 1 166.7957 51.2662 52.8399 0.0000 2.4987 0.0000
# 2 51.2662 133.6942 36.6770 0.0000 -1.8345 0.0000
# 3 52.8399 36.6770 84.1316 0.0000 7.5608 0.0000
# 4 0.0000 0.0000 0.0000 9.7864 0.0000 4.3404
# 5 2.4987 -1.8345 7.5608 0.0000 43.8707 0.0000
# 6 0.0000 0.0000 0.0000 4.3404 0.0000 25.5375
#
#
#
# Elastic Compliance Matrix: (Units=1/GPa)
#
#
# Indices 1 2 3 4 5 6 
#
# 1 0.007886 -0.001883 -0.004148 0.000000 0.000187 0.000000
# 2 -0.001883 0.008990 -0.002823 0.000000 0.000970 0.000000
# 3 -0.004148 -0.002823 0.015959 0.000000 -0.002632 0.000000
# 4 0.000000 0.000000 0.000000 0.110513 0.000000 -0.018783
# 5 0.000187 0.000970 -0.002632 0.000000 0.023278 0.000000
# 6 0.000000 0.000000 0.000000 -0.018783 0.000000 0.042350
#
#
# Mechanical properties :
#
#
# Convention : Reuss Voigt Hill
#
# Bulk Modulus (GPa) = 66.11927 74.02086 70.07006
# Shear Modulus (GPa) = 21.57705 32.09480 26.83593
#
# Velocity S-wave (km/s) = 3.35169 4.08775 3.73788
# Velocity P-wave (km/s) = 7.02869 7.79856 7.42361
#
# Compressibility (1/GPa) = 0.01512418
#
# Stress axis : x y z
#
# Youngs Moduli (GPa) = 126.81377 111.23775 62.66013
#
# Poissons Ratio (x) = 0.20948 0.25995
# Poissons Ratio (y) = 0.23881 0.17692
# Poissons Ratio (z) = 0.52609 0.31408
#
# Static dielectric constant tensor:
#      x y z
#    x 3.823110 0.000000 -0.298200 
#    y 0.000000 3.518910 0.000000 
#    z -0.298200 0.000000 3.720440 
# 
# 
# High freq. dielectric constant tensor:
#      x y z
#    x 1.760310 0.000000 -0.009590 
#    y 0.000000 1.747170 0.000000 
#    z -0.009590 0.000000 1.751870 
# 
# From -- ./inp_files/26213.got.cif
#   From: 2010.06.25/outbox.cif.g09.slc.cpg/sg10_14_cif.got.tgz:26213.got - 2010.06.27 22:07:45.
