data_PCOD8066787
_publ_section_title
;
Structure prediction by ZEFSAII (Michael W. Deem and Ramdas Pophale) SiO2 
 PCOD8066787
Probable space group: P 2/M
;
_chemical_formula_sum "Si O2"
_cell_formula_units_Z 26
_cell_length_a 9.283553
_cell_length_b 14.132544
_cell_length_c 20.896619
_cell_angle_alpha 90.000000
_cell_angle_beta 150.325322
_cell_angle_gamma 90.000000
_cell_volume 1357.317186
_symmetry_space_group_name_H-M "P 2/M"
_symmetry_group_IT_number 10
_symmetry_cell_setting 'monoclinic'
loop_
_space_group_symop_operation_xyz
x,y,z
-x,y,-z
-x,-y,-z
x,-y,z
loop_
_atom_site_type_symbol
_atom_site_label
_atom_site_fract_x
_atom_site_fract_y
_atom_site_fract_z
Si Si1 0.283012 0.744024 0.145330
Si Si2 0.255989 0.607549 0.451543
Si Si3 0.500000 0.783785 0.000000
Si Si4 0.239483 0.747046 0.773856
Si Si5 0.213418 0.891725 0.357912
Si Si6 0.039388 0.890452 0.151490
Si Si7 0.326809 0.607596 0.621955
O O1 0.509192 0.775608 0.178430
O O2 0.189435 0.834331 0.151278
O O3 0.428947 0.664492 0.245682
O O4 0.000000 0.701313 0.000000
O O5 0.500000 0.652665 0.500000
O O6 0.182648 0.500000 0.403761
O O7 0.408193 0.612010 0.579167
O O8 0.952636 0.663095 0.329838
O O9 0.359484 0.716787 0.890796
O O10 0.276315 0.850639 0.951897
O O11 0.061091 0.842050 0.716305
O O12 0.500000 0.846913 0.500000
O O13 0.240464 0.878997 0.291943
O O14 0.177989 0.000000 0.363949
O O15 0.010145 0.000000 0.119714
O O16 0.324768 0.500000 0.647860
O O17 0.000000 0.650645 0.500000
#
# Coordination Sequence:
#
# PCOD8066787 Si02
#       7
#     4   4   2   4   4   4   4
#     4  12  25  39  57  93 127 159 203 250 302 360
#     4  10  22  39  64  94 117 152 205 252 299 357
#     4  10  21  40  59  82 114 160 207 242 299 352
#     4  11  22  37  61  85 121 160 198 252 301 360
#     4   9  20  38  60  87 115 152 202 252 309 361
#     4  10  22  39  60  84 118 158 201 245 293 358
#     4  10  22  42  65  87 119 161 204 245 298 367
#
# _framework density 19.155432999999999
#
# number of rings (size 3 to 8) (size 9 to 14) (size 15 to 20)
#    0.000    1.692    3.077    0.692    6.462    1.846 
#    0.000    0.385    0.000    3.231    0.000    0.000 
#    0.000    0.000    0.000    0.000    0.000    0.000 
#
# Total GULP energy -322341.204760 kJ/mol
# GULP energy per Si atom -12397.738645 kJ/mol
# Density = 1.911183 g / cm^3
# Si number density = 19.155433 Si / 1000 Ang^3
#
#
#
# Elastic Constant Matrix: (Units=GPa)
#
#
# Indices 1 2 3 4 5 6 
#
# 1 134.7435 40.0766 50.9656 0.0000 12.1166 0.0000
# 2 40.0766 78.2419 46.4256 0.0000 -4.3310 0.0000
# 3 50.9656 46.4256 134.1852 0.0000 -8.3647 0.0000
# 4 0.0000 0.0000 0.0000 19.9745 0.0000 -2.7017
# 5 12.1166 -4.3310 -8.3647 0.0000 32.4202 0.0000
# 6 0.0000 0.0000 0.0000 -2.7017 0.0000 27.8036
#
#
#
# Elastic Compliance Matrix: (Units=1/GPa)
#
#
# Indices 1 2 3 4 5 6 
#
# 1 0.010056 -0.003745 -0.002835 0.000000 -0.004990 0.000000
# 2 -0.003745 0.017494 -0.004469 0.000000 0.002584 0.000000
# 3 -0.002835 -0.004469 0.010269 0.000000 0.003112 0.000000
# 4 0.000000 0.000000 0.000000 0.050731 0.000000 0.004930
# 5 -0.004990 0.002584 0.003112 0.000000 0.033858 0.000000
# 6 0.000000 0.000000 0.000000 0.004930 0.000000 0.036446
#
#
# Mechanical properties :
#
#
# Convention : Reuss Voigt Hill
#
# Bulk Modulus (GPa) = 63.60719 69.12291 66.36505
# Shear Modulus (GPa) = 26.85388 30.01984 28.43686
#
# Velocity S-wave (km/s) = 3.74825 3.96305 3.85714
# Velocity P-wave (km/s) = 7.21182 7.55676 7.38630
#
# Compressibility (1/GPa) = 0.01572149
#
# Stress axis : x y z
#
# Youngs Moduli (GPa) = 99.43869 57.16245 97.37716
#
# Poissons Ratio (x) = 0.21408 0.27606
# Poissons Ratio (y) = 0.37241 0.43519
# Poissons Ratio (z) = 0.28190 0.25546
#
# Static dielectric constant tensor:
#      x y z
#    x 3.640550 0.000000 -0.126990 
#    y 0.000000 3.313100 0.000000 
#    z -0.126990 0.000000 3.843850 
# 
# 
# High freq. dielectric constant tensor:
#      x y z
#    x 1.757090 0.000000 -0.006450 
#    y 0.000000 1.727390 0.000000 
#    z -0.006450 0.000000 1.754380 
# 
# From -- ./inp_files/82860.got.cif
#   From: 2010.06.25/outbox.cif.g09.slc.cpg/sg10_42_cif.got.tgz:82860.got - 2010.06.27 22:07:45.
