data_PCOD8066758
_publ_section_title
;
Structure prediction by ZEFSAII (Michael W. Deem and Ramdas Pophale) SiO2 
 PCOD8066758
Probable space group: P 2/M
;
_chemical_formula_sum "Si O2"
_cell_formula_units_Z 28
_cell_length_a 12.616764
_cell_length_b 12.740870
_cell_length_c 8.844592
_cell_angle_alpha 90.000000
_cell_angle_beta 63.626178
_cell_angle_gamma 90.000000
_cell_volume 1273.771674
_symmetry_space_group_name_H-M "P 2/M"
_symmetry_group_IT_number 10
_symmetry_cell_setting 'monoclinic'
loop_
_space_group_symop_operation_xyz
x,y,z
-x,y,-z
-x,-y,-z
x,-y,z
loop_
_atom_site_type_symbol
_atom_site_label
_atom_site_fract_x
_atom_site_fract_y
_atom_site_fract_z
Si Si1 0.200193 0.620658 0.589124
Si Si2 0.488045 0.121305 0.824557
Si Si3 0.295470 0.239476 0.278498
Si Si4 0.039192 0.685908 0.144662
Si Si5 0.693193 0.615386 0.985584
Si Si6 0.388260 0.714054 0.682059
Si Si7 0.918388 0.882392 0.696454
O O1 0.246179 0.500000 0.568843
O O2 0.223534 0.670203 0.410286
O O3 0.267660 0.698646 0.663201
O O4 0.059246 0.620576 0.701015
O O5 0.604454 0.181255 0.685285
O O6 0.385413 0.178705 0.788866
O O7 0.483394 0.000000 0.781084
O O8 0.500000 0.132483 0.000000
O O9 0.357304 0.298596 0.098284
O O10 0.213794 0.146518 0.268659
O O11 0.166428 0.632982 0.080064
O O12 0.036825 0.805927 0.201361
O O13 0.000000 0.684481 0.000000
O O14 0.673777 0.500000 0.931095
O O15 0.617232 0.622418 0.188429
O O16 0.500000 0.701642 0.500000
O O17 0.000000 0.871792 0.500000
O O18 0.918175 0.000000 0.762159
#
# Coordination Sequence:
#
# PCOD8066758 Si02
#       7
#     4   4   4   4   4   4   4
#     4  12  25  42  65  95 133 176 211 259 321 374
#     4  11  24  46  69  90 123 170 217 267 323 376
#     4  11  22  44  65  95 127 164 219 267 309 391
#     4  11  23  41  64  93 135 168 215 259 310 393
#     4  11  24  41  66  96 130 173 215 263 319 377
#     4  12  25  44  64  97 133 160 217 267 318 384
#     4  10  21  39  64  93 126 164 208 265 320 368
#
# _framework density 21.981960999999998
#
# number of rings (size 3 to 8) (size 9 to 14) (size 15 to 20)
#    0.000    0.857    5.714    1.714    0.000    2.286 
#    0.000    3.571    0.000    0.000    0.000    0.000 
#    0.000    0.000    0.000    0.000    0.000    0.000 
#
# Total GULP energy -346963.487351 kJ/mol
# GULP energy per Si atom -12391.553120 kJ/mol
# Density = 2.193193 g / cm^3
# Si number density = 21.981961 Si / 1000 Ang^3
#
#
#
# Elastic Constant Matrix: (Units=GPa)
#
#
# Indices 1 2 3 4 5 6 
#
# 1 50.8596 21.8979 -3.3599 0.0000 -6.0793 0.0000
# 2 21.8979 129.2014 18.0445 0.0000 -13.7505 0.0000
# 3 -3.3599 18.0445 89.2258 0.0000 -14.9591 0.0000
# 4 0.0000 0.0000 0.0000 22.9741 0.0000 2.0744
# 5 -6.0793 -13.7505 -14.9591 0.0000 21.8053 0.0000
# 6 0.0000 0.0000 0.0000 2.0744 0.0000 28.6984
#
#
#
# Elastic Compliance Matrix: (Units=1/GPa)
#
#
# Indices 1 2 3 4 5 6 
#
# 1 0.021995 -0.003473 0.002476 0.000000 0.005641 0.000000
# 2 -0.003473 0.008910 -0.001303 0.000000 0.003757 0.000000
# 3 0.002476 -0.001303 0.013042 0.000000 0.008816 0.000000
# 4 0.000000 0.000000 0.000000 0.043813 0.000000 -0.003167
# 5 0.005641 0.003757 0.008816 0.000000 0.055850 0.000000
# 6 0.000000 0.000000 0.000000 -0.003167 0.000000 0.035074
#
#
# Mechanical properties :
#
#
# Convention : Reuss Voigt Hill
#
# Bulk Modulus (GPa) = 25.41422 38.05022 31.73222
# Shear Modulus (GPa) = 25.45806 30.20919 27.83362
#
# Velocity S-wave (km/s) = 3.40683 3.71114 3.56223
# Velocity P-wave (km/s) = 5.20210 5.97585 5.60234
#
# Compressibility (1/GPa) = 0.03934806
#
# Stress axis : x y z
#
# Youngs Moduli (GPa) = 45.46425 112.22927 76.67319
#
# Poissons Ratio (x) = 0.38982 -0.18987
# Poissons Ratio (y) = 0.15792 0.09990
# Poissons Ratio (z) = -0.11259 0.14623
#
# Static dielectric constant tensor:
#      x y z
#    x 3.746600 0.000000 -0.072010 
#    y 0.000000 3.980340 0.000000 
#    z -0.072010 0.000000 4.172900 
# 
# 
# High freq. dielectric constant tensor:
#      x y z
#    x 1.860190 0.000000 -0.002610 
#    y 0.000000 1.864340 0.000000 
#    z -0.002610 0.000000 1.872530 
# 
# From -- ./inp_files/28478.got.cif
#   From: 2010.06.25/outbox.cif.g09.slc.cpg/sg10_15_cif.got.tgz:28478.got - 2010.06.27 22:07:45.
