data_PCOD8066646
_publ_section_title
;
Structure prediction by ZEFSAII (Michael W. Deem and Ramdas Pophale) SiO2 
 PCOD8066646
Probable space group: P 2/M
;
_chemical_formula_sum "Si O2"
_cell_formula_units_Z 28
_cell_length_a 14.082333
_cell_length_b 15.537071
_cell_length_c 8.157846
_cell_angle_alpha 90.000000
_cell_angle_beta 46.341646
_cell_angle_gamma 90.000000
_cell_volume 1291.336026
_symmetry_space_group_name_H-M "P 2/M"
_symmetry_group_IT_number 10
_symmetry_cell_setting 'monoclinic'
loop_
_space_group_symop_operation_xyz
x,y,z
-x,y,-z
-x,-y,-z
x,-y,z
loop_
_atom_site_type_symbol
_atom_site_label
_atom_site_fract_x
_atom_site_fract_y
_atom_site_fract_z
Si Si1 0.984240 0.764196 0.706807
Si Si2 0.621011 0.407583 0.234415
Si Si3 0.475889 0.235057 0.721213
Si Si4 0.089199 0.596624 0.047998
Si Si5 0.747071 0.178672 0.502104
Si Si6 0.865044 0.095055 0.065430
Si Si7 0.364306 0.093951 0.067457
O O1 0.932984 0.666393 0.782734
O O2 0.000000 0.788422 0.500000
O O3 0.122030 0.764355 0.641205
O O4 0.880269 0.833558 0.904146
O O5 0.500000 0.408980 0.500000
O O6 0.625478 0.500000 0.132558
O O7 0.598177 0.324907 0.144903
O O8 0.755555 0.398030 0.179116
O O9 0.500000 0.224570 0.500000
O O10 0.615057 0.235854 0.650378
O O11 0.379051 0.159074 0.897004
O O12 0.051791 0.500000 0.152745
O O13 0.000000 0.622500 0.000000
O O14 0.752333 0.121507 0.330207
O O15 0.745261 0.121757 0.669887
O O16 0.831092 0.000000 0.033372
O O17 0.000000 0.089100 0.000000
O O18 0.326489 0.000000 0.042233
O O19 0.500000 0.089197 0.000000
#
# Coordination Sequence:
#
# PCOD8066646 Si02
#       7
#     4   4   4   4   4   4   4
#     4  11  25  38  61  89 127 164 206 255 317 374
#     4   9  20  37  63  94 125 157 200 253 310 368
#     4  10  22  35  62  91 124 161 207 256 315 375
#     4  10  22  41  68  95 123 162 210 259 311 371
#     4  10  21  39  60  88 121 167 207 261 310 370
#     4   9  19  37  61  88 119 159 209 259 311 372
#     4   9  19  37  59  85 122 165 210 257 310 368
#
# _framework density 21.682969
#
# number of rings (size 3 to 8) (size 9 to 14) (size 15 to 20)
#    0.000    2.286    0.000    1.714   10.000    2.000 
#    0.000    1.429    0.000    3.857    0.000    0.000 
#    0.000    0.000    0.000    0.000    0.000    0.000 
#
# Total GULP energy -346994.842915 kJ/mol
# GULP energy per Si atom -12392.672961 kJ/mol
# Density = 2.163362 g / cm^3
# Si number density = 21.682969 Si / 1000 Ang^3
#
#
#
# Elastic Constant Matrix: (Units=GPa)
#
#
# Indices 1 2 3 4 5 6 
#
# 1 73.8755 40.5728 26.5701 0.0000 -10.8920 0.0000
# 2 40.5728 205.9484 67.9810 0.0000 10.3292 0.0000
# 3 26.5701 67.9810 118.8070 0.0000 10.6111 0.0000
# 4 0.0000 0.0000 0.0000 20.8217 0.0000 6.2511
# 5 -10.8920 10.3292 10.6111 0.0000 40.0321 0.0000
# 6 0.0000 0.0000 0.0000 6.2511 0.0000 4.3267
#
#
#
# Elastic Compliance Matrix: (Units=1/GPa)
#
#
# Indices 1 2 3 4 5 6 
#
# 1 0.016916 -0.002723 -0.002764 0.000000 0.006038 0.000000
# 2 -0.002723 0.006441 -0.002931 0.000000 -0.001626 0.000000
# 3 -0.002764 -0.002931 0.010972 0.000000 -0.002904 0.000000
# 4 0.000000 0.000000 0.000000 0.084816 0.000000 -0.122541
# 5 0.006038 -0.001626 -0.002904 0.000000 0.027812 0.000000
# 6 0.000000 0.000000 0.000000 -0.122541 0.000000 0.408171
#
#
# Mechanical properties :
#
#
# Convention : Reuss Voigt Hill
#
# Bulk Modulus (GPa) = 57.16949 74.31985 65.74467
# Shear Modulus (GPa) = 8.65357 30.60322 19.62839
#
# Velocity S-wave (km/s) = 1.99990 3.76093 3.01199
# Velocity P-wave (km/s) = 5.63526 7.29449 6.51789
#
# Compressibility (1/GPa) = 0.01749185
#
# Stress axis : x y z
#
# Youngs Moduli (GPa) = 59.11506 155.25072 91.14124
#
# Poissons Ratio (x) = 0.42273 0.25195
# Poissons Ratio (y) = 0.16097 0.26718
# Poissons Ratio (z) = 0.16342 0.45511
#
# Static dielectric constant tensor:
#      x y z
#    x 3.709540 0.000000 -0.245940 
#    y 0.000000 4.760210 0.000000 
#    z -0.245940 0.000000 3.910560 
# 
# 
# High freq. dielectric constant tensor:
#      x y z
#    x 1.840740 0.000000 -0.025430 
#    y 0.000000 1.861800 0.000000 
#    z -0.025430 0.000000 1.836600 
# 
# From -- ./inp_files/29405.got.cif
#   From: 2010.06.25/outbox.cif.g09.slc.cpg/sg10_15_cif.got.tgz:29405.got - 2010.06.27 22:07:45.
