data_PCOD8066226
_publ_section_title
;
Structure prediction by ZEFSAII (Michael W. Deem and Ramdas Pophale) SiO2 
 PCOD8066226
Probable space group: P 2/M
;
_chemical_formula_sum "Si O2"
_cell_formula_units_Z 32
_cell_length_a 11.873487
_cell_length_b 8.870518
_cell_length_c 28.790468
_cell_angle_alpha 90.000000
_cell_angle_beta 30.949096
_cell_angle_gamma 90.000000
_cell_volume 1559.453830
_symmetry_space_group_name_H-M "P 2/M"
_symmetry_group_IT_number 10
_symmetry_cell_setting 'monoclinic'
loop_
_space_group_symop_operation_xyz
x,y,z
-x,y,-z
-x,-y,-z
x,-y,z
loop_
_atom_site_type_symbol
_atom_site_label
_atom_site_fract_x
_atom_site_fract_y
_atom_site_fract_z
Si Si1 0.919133 0.674362 0.579809
Si Si2 0.714943 0.826288 0.322504
Si Si3 0.375014 0.178978 0.998839
Si Si4 0.548427 0.324525 0.215003
Si Si5 0.879502 0.175326 0.164018
Si Si6 0.256147 0.176303 0.526151
Si Si7 0.943230 0.323035 0.321418
Si Si8 0.400281 0.178837 0.175348
O O1 0.972603 0.500000 0.571834
O O2 0.661586 0.708488 0.677771
O O3 0.000000 0.718495 0.500000
O O4 0.046080 0.779838 0.570469
O O5 0.739004 0.796031 0.259787
O O6 0.472170 0.774592 0.422048
O O7 0.894160 0.727475 0.286310
O O8 0.760826 0.000000 0.318730
O O9 0.124796 0.235886 0.086101
O O10 0.379450 0.000000 0.000171
O O11 0.500000 0.245784 0.000000
O O12 0.492152 0.236177 0.910655
O O13 0.568142 0.500000 0.196816
O O14 0.767826 0.269701 0.162752
O O15 0.540096 0.236173 0.169413
O O16 0.881314 0.000000 0.149239
O O17 0.253492 0.264484 0.576059
O O18 0.253023 0.000000 0.537946
O O19 0.968583 0.500000 0.315513
O O20 0.161011 0.248021 0.264060
O O21 0.385620 0.000000 0.182027
#
# Coordination Sequence:
#
# PCOD8066226 Si02
#       8
#     4   4   4   4   4   4   4   4
#     4  10  21  37  57  81 116 163 208 251 300 357
#     4  10  22  39  60  88 120 157 201 252 304 355
#     4   9  19  38  66  96 121 152 198 250 305 361
#     4  11  23  39  59  87 125 163 202 248 301 362
#     4  10  21  40  65  91 121 156 200 251 301 358
#     4  11  22  36  57  86 118 155 203 254 301 355
#     4  12  24  38  58  86 121 161 202 247 305 369
#     4  11  22  39  65  91 119 158 204 255 304 358
#
# _framework density 20.520004
#
# number of rings (size 3 to 8) (size 9 to 14) (size 15 to 20)
#    0.000    1.500    1.250    4.125    0.000    6.250 
#    0.000    3.750    0.000    2.625    0.000    0.000 
#    0.000    0.000    0.000    0.000    0.000    0.000 
#
# Total GULP energy -396961.335299 kJ/mol
# GULP energy per Si atom -12405.041728 kJ/mol
# Density = 2.047330 g / cm^3
# Si number density = 20.520004 Si / 1000 Ang^3
#
#
#
# Elastic Constant Matrix: (Units=GPa)
#
#
# Indices 1 2 3 4 5 6 
#
# 1 130.1992 47.3841 50.3300 0.0000 -3.2649 0.0000
# 2 47.3841 80.7715 35.2897 0.0000 2.6421 0.0000
# 3 50.3300 35.2897 112.6590 0.0000 3.8791 0.0000
# 4 0.0000 0.0000 0.0000 17.5664 0.0000 0.4526
# 5 -3.2649 2.6421 3.8791 0.0000 38.4723 0.0000
# 6 0.0000 0.0000 0.0000 0.4526 0.0000 13.3910
#
#
#
# Elastic Compliance Matrix: (Units=1/GPa)
#
#
# Indices 1 2 3 4 5 6 
#
# 1 0.010806 -0.004933 -0.003337 0.000000 0.001592 0.000000
# 2 -0.004933 0.016607 -0.002955 0.000000 -0.001261 0.000000
# 3 -0.003337 -0.002955 0.011335 0.000000 -0.001223 0.000000
# 4 0.000000 0.000000 0.000000 0.056977 0.000000 -0.001926
# 5 0.001592 -0.001261 -0.001223 0.000000 0.026338 0.000000
# 6 0.000000 0.000000 0.000000 -0.001926 0.000000 0.074742
#
#
# Mechanical properties :
#
#
# Convention : Reuss Voigt Hill
#
# Bulk Modulus (GPa) = 61.35858 65.51525 63.43691
# Shear Modulus (GPa) = 22.25326 26.59432 24.42379
#
# Velocity S-wave (km/s) = 3.29670 3.60393 3.45373
# Velocity P-wave (km/s) = 6.66766 7.02243 6.84735
#
# Compressibility (1/GPa) = 0.01629764
#
# Stress axis : x y z
#
# Youngs Moduli (GPa) = 92.54283 60.21608 88.22424
#
# Poissons Ratio (x) = 0.29706 0.29440
# Poissons Ratio (y) = 0.45654 0.26067
# Poissons Ratio (z) = 0.30881 0.17792
#
# Static dielectric constant tensor:
#      x y z
#    x 3.782910 0.000000 0.078570 
#    y 0.000000 3.492100 0.000000 
#    z 0.078570 0.000000 3.877940 
# 
# 
# High freq. dielectric constant tensor:
#      x y z
#    x 1.812990 0.000000 0.003320 
#    y 0.000000 1.784490 0.000000 
#    z 0.003320 0.000000 1.807600 
# 
# From -- ./inp_files/94938.got.cif
#   From: 2010.06.25/outbox.cif.g09.slc.cpg/sg10_48_cif.got.tgz:94938.got - 2010.06.27 22:07:45.
