data_PCOD8066117
_publ_section_title
;
Structure prediction by ZEFSAII (Michael W. Deem and Ramdas Pophale) SiO2 
 PCOD8066117
Probable space group: P 2/M
;
_chemical_formula_sum "Si O2"
_cell_formula_units_Z 28
_cell_length_a 15.330128
_cell_length_b 9.055658
_cell_length_c 21.004822
_cell_angle_alpha 90.000000
_cell_angle_beta 28.490025
_cell_angle_gamma 90.000000
_cell_volume 1390.940065
_symmetry_space_group_name_H-M "P 2/M"
_symmetry_group_IT_number 10
_symmetry_cell_setting 'monoclinic'
loop_
_space_group_symop_operation_xyz
x,y,z
-x,y,-z
-x,-y,-z
x,-y,z
loop_
_atom_site_type_symbol
_atom_site_label
_atom_site_fract_x
_atom_site_fract_y
_atom_site_fract_z
Si Si1 0.112823 0.826717 0.842685
Si Si2 0.052925 0.823938 0.647808
Si Si3 0.671653 0.674771 0.934418
Si Si4 0.691293 0.175270 0.403694
Si Si5 0.272010 0.827000 0.867098
Si Si6 0.498193 0.673676 0.823767
Si Si7 0.172105 0.838530 0.432608
O O1 0.162135 0.768316 0.741827
O O2 0.275758 0.792868 0.788900
O O3 0.081781 0.000000 0.863425
O O4 0.919372 0.758555 0.985722
O O5 0.858906 0.752950 0.792447
O O6 0.222730 0.771539 0.584424
O O7 0.112521 0.770815 0.539282
O O8 0.026077 0.000000 0.668678
O O9 0.704723 0.500000 0.910252
O O10 0.500000 0.719708 0.000000
O O11 0.617243 0.728406 0.040820
O O12 0.500000 0.243665 0.500000
O O13 0.670043 0.000000 0.418321
O O14 0.426088 0.735473 0.803172
O O15 0.298274 0.000000 0.864605
O O16 0.501720 0.500000 0.821285
O O17 0.704419 0.732324 0.690302
O O18 0.000000 0.864377 0.500000
O O19 0.265736 0.000000 0.384239
#
# Coordination Sequence:
#
# PCOD8066117 Si02
#       7
#     4   4   4   4   4   4   4
#     4   8  15  28  48  75 104 138 178 221 274 324
#     4  10  21  36  59  89 115 146 189 235 287 336
#     4  10  22  40  60  82 111 149 190 232 283 341
#     4   9  17  28  47  77 111 141 177 226 274 326
#     4   9  17  31  53  77 103 137 179 228 276 323
#     4  11  23  36  55  83 111 145 189 226 273 337
#     4  10  22  39  58  84 116 147 183 231 285 337
#
# _framework density 20.130272000000001
#
# number of rings (size 3 to 8) (size 9 to 14) (size 15 to 20)
#    0.000    2.429    0.000    3.000    2.000    3.429 
#    0.000    1.429    0.000    1.286    0.000    0.000 
#    0.000    0.000    0.000    0.000    0.000    0.000 
#
# Total GULP energy -346877.863045 kJ/mol
# GULP energy per Si atom -12388.495109 kJ/mol
# Density = 2.008445 g / cm^3
# Si number density = 20.130272 Si / 1000 Ang^3
#
#
#
# Elastic Constant Matrix: (Units=GPa)
#
#
# Indices 1 2 3 4 5 6 
#
# 1 113.4239 17.7674 34.5586 0.0000 5.0220 0.0000
# 2 17.7674 40.7648 26.4931 0.0000 1.7443 0.0000
# 3 34.5586 26.4931 86.9869 0.0000 5.7138 0.0000
# 4 0.0000 0.0000 0.0000 24.1600 0.0000 -0.0370
# 5 5.0220 1.7443 5.7138 0.0000 40.2185 0.0000
# 6 0.0000 0.0000 0.0000 -0.0370 0.0000 0.5407
#
#
#
# Elastic Compliance Matrix: (Units=1/GPa)
#
#
# Indices 1 2 3 4 5 6 
#
# 1 0.010214 -0.002262 -0.003323 0.000000 -0.000705 0.000000
# 2 -0.002262 0.031086 -0.008579 0.000000 0.000153 0.000000
# 3 -0.003323 -0.008579 0.015522 0.000000 -0.001418 0.000000
# 4 0.000000 0.000000 0.000000 0.041395 0.000000 0.002836
# 5 -0.000705 0.000153 -0.001418 0.000000 0.025147 0.000000
# 6 0.000000 0.000000 0.000000 0.002836 0.000000 1.849520
#
#
# Mechanical properties :
#
#
# Convention : Reuss Voigt Hill
#
# Bulk Modulus (GPa) = 35.09456 44.31264 39.70360
# Shear Modulus (GPa) = 2.48668 23.80762 13.14715
#
# Velocity S-wave (km/s) = 1.11264 3.44274 2.55836
# Velocity P-wave (km/s) = 4.37289 6.15337 5.33789
#
# Compressibility (1/GPa) = 0.02849445
#
# Stress axis : x y z
#
# Youngs Moduli (GPa) = 97.90027 32.16896 64.42460
#
# Poissons Ratio (x) = 0.07278 0.21406
# Poissons Ratio (y) = 0.22149 0.55269
# Poissons Ratio (z) = 0.32529 0.27597
#
# Static dielectric constant tensor:
#      x y z
#    x 3.942460 0.000000 0.116300 
#    y 0.000000 3.209160 0.000000 
#    z 0.116300 0.000000 4.085370 
# 
# 
# High freq. dielectric constant tensor:
#      x y z
#    x 1.806070 0.000000 0.001510 
#    y 0.000000 1.732560 0.000000 
#    z 0.001510 0.000000 1.792120 
# 
# From -- ./inp_files/84655.got.cif
#   From: 2010.06.25/outbox.cif.g09.slc.cpg/sg10_43_cif.got.tgz:84655.got - 2010.06.27 22:07:45.
