data_PCOD8066673
_publ_section_title
;
Structure prediction by ZEFSAII (Michael W. Deem and Ramdas Pophale) SiO2 
 PCOD8066673
Probable space group: P 2/M
;
_chemical_formula_sum "Si O2"
_cell_formula_units_Z 28
_cell_length_a 9.493286
_cell_length_b 8.785870
_cell_length_c 25.094246
_cell_angle_alpha 90.000000
_cell_angle_beta 139.217728
_cell_angle_gamma 90.000000
_cell_volume 1367.138737
_symmetry_space_group_name_H-M "P 2/M"
_symmetry_group_IT_number 10
_symmetry_cell_setting 'monoclinic'
loop_
_space_group_symop_operation_xyz
x,y,z
-x,y,-z
-x,-y,-z
x,-y,z
loop_
_atom_site_type_symbol
_atom_site_label
_atom_site_fract_x
_atom_site_fract_y
_atom_site_fract_z
Si Si1 0.356004 0.820474 0.349578
Si Si2 0.833836 0.824735 0.817333
Si Si3 0.773963 0.678276 0.909141
Si Si4 0.944206 0.322027 0.646687
Si Si5 0.704943 0.825281 0.085592
Si Si6 0.664246 0.821140 0.189649
Si Si7 0.817856 0.677951 0.490533
O O1 0.252444 0.766328 0.264121
O O2 0.231769 0.750356 0.364298
O O3 0.603474 0.772539 0.418052
O O4 0.333749 0.000000 0.349097
O O5 0.749539 0.716878 0.839739
O O6 0.091038 0.805670 0.893667
O O7 0.765276 0.000000 0.807961
O O8 0.740649 0.500000 0.908145
O O9 0.583385 0.769976 0.882483
O O10 0.000000 0.732459 0.000000
O O11 0.937689 0.500000 0.654784
O O12 0.892035 0.279869 0.571068
O O13 0.186967 0.261539 0.724407
O O14 0.759205 0.765072 0.160086
O O15 0.640482 0.000000 0.076029
O O16 0.500000 0.740181 0.000000
O O17 0.680924 0.000000 0.204896
O O18 0.765120 0.500000 0.469763
O O19 0.000000 0.726996 0.500000
#
# Coordination Sequence:
#
# PCOD8066673 Si02
#       7
#     4   4   4   4   4   4   4
#     4  11  23  41  65  95 127 161 205 258 310 365
#     4  10  21  39  61  90 123 159 207 254 306 366
#     4  11  25  42  59  87 127 168 210 256 310 370
#     4  11  23  41  65  93 127 166 205 250 308 372
#     4   9  17  33  59  88 118 153 198 249 298 353
#     4  11  22  39  64  92 124 162 206 258 309 362
#     4  10  24  44  65  92 125 164 206 250 307 374
#
# _framework density 20.480730999999999
#
# number of rings (size 3 to 8) (size 9 to 14) (size 15 to 20)
#    0.000    1.571    1.429    3.000    2.000    6.571 
#    0.000    0.000    0.000    3.000    0.000    0.000 
#    0.000    0.000    0.000    0.000    0.000    0.000 
#
# Total GULP energy -347198.708377 kJ/mol
# GULP energy per Si atom -12399.953871 kJ/mol
# Density = 2.043412 g / cm^3
# Si number density = 20.480731 Si / 1000 Ang^3
#
#
#
# Elastic Constant Matrix: (Units=GPa)
#
#
# Indices 1 2 3 4 5 6 
#
# 1 100.6133 29.4670 29.0578 0.0000 -2.3969 0.0000
# 2 29.4670 54.8631 37.6285 0.0000 -4.5291 0.0000
# 3 29.0578 37.6285 113.1773 0.0000 6.0072 0.0000
# 4 0.0000 0.0000 0.0000 33.2067 0.0000 3.9873
# 5 -2.3969 -4.5291 6.0072 0.0000 34.8113 0.0000
# 6 0.0000 0.0000 0.0000 3.9873 0.0000 31.9857
#
#
#
# Elastic Compliance Matrix: (Units=1/GPa)
#
#
# Indices 1 2 3 4 5 6 
#
# 1 0.011924 -0.005527 -0.001240 0.000000 0.000316 0.000000
# 2 -0.005527 0.026883 -0.007755 0.000000 0.004455 0.000000
# 3 -0.001240 -0.007755 0.011900 0.000000 -0.003148 0.000000
# 4 0.000000 0.000000 0.000000 0.030572 0.000000 -0.003811
# 5 0.000316 0.004455 -0.003148 0.000000 0.029871 0.000000
# 6 0.000000 0.000000 0.000000 -0.003811 0.000000 0.031739
#
#
# Mechanical properties :
#
#
# Convention : Reuss Voigt Hill
#
# Bulk Modulus (GPa) = 46.16780 51.21780 48.69280
# Shear Modulus (GPa) = 27.90900 31.50076 29.70488
#
# Velocity S-wave (km/s) = 3.69548 3.92608 3.81252
# Velocity P-wave (km/s) = 6.38747 6.75383 6.57320
#
# Compressibility (1/GPa) = 0.02166012
#
# Stress axis : x y z
#
# Youngs Moduli (GPa) = 83.86719 37.19875 84.03625
#
# Poissons Ratio (x) = 0.20561 0.10424
# Poissons Ratio (y) = 0.46356 0.65171
# Poissons Ratio (z) = 0.10403 0.28848
#
# Static dielectric constant tensor:
#      x y z
#    x 3.760710 0.000000 -0.070440 
#    y 0.000000 3.510490 0.000000 
#    z -0.070440 0.000000 3.903850 
# 
# 
# High freq. dielectric constant tensor:
#      x y z
#    x 1.810010 0.000000 -0.001290 
#    y 0.000000 1.783870 0.000000 
#    z -0.001290 0.000000 1.817110 
# 
# From -- ./inp_files/92095.got.cif
#   From: 2010.06.25/outbox.cif.g09.slc.cpg/sg10_47_cif.got.tgz:92095.got - 2010.06.27 22:07:45.
