data_PCOD8066435
_publ_section_title
;
Structure prediction by ZEFSAII (Michael W. Deem and Ramdas Pophale) SiO2 
 PCOD8066435
Probable space group: P 2/M
;
_chemical_formula_sum "Si O2"
_cell_formula_units_Z 28
_cell_length_a 11.073726
_cell_length_b 8.583063
_cell_length_c 14.755423
_cell_angle_alpha 90.000000
_cell_angle_beta 110.708247
_cell_angle_gamma 90.000000
_cell_volume 1311.843174
_symmetry_space_group_name_H-M "P 2/M"
_symmetry_group_IT_number 10
_symmetry_cell_setting 'monoclinic'
loop_
_space_group_symop_operation_xyz
x,y,z
-x,y,-z
-x,-y,-z
x,-y,z
loop_
_atom_site_type_symbol
_atom_site_label
_atom_site_fract_x
_atom_site_fract_y
_atom_site_fract_z
Si Si1 0.645033 0.181809 0.570020
Si Si2 0.384733 0.677212 0.068480
Si Si3 0.919686 0.182483 0.566686
Si Si4 0.345715 0.821698 0.881538
Si Si5 0.894442 0.678331 0.240288
Si Si6 0.261996 0.320570 0.224517
Si Si7 0.005884 0.820750 0.105154
O O1 0.500000 0.225933 0.500000
O O2 0.764094 0.220831 0.529830
O O3 0.661414 0.283742 0.663896
O O4 0.652040 0.000000 0.595627
O O5 0.353659 0.500000 0.033504
O O6 0.536511 0.707230 0.104142
O O7 0.351969 0.712246 0.163120
O O8 0.306782 0.789481 0.977323
O O9 0.000000 0.246039 0.500000
O O10 0.984347 0.260757 0.671017
O O11 0.942372 0.000000 0.579559
O O12 0.236071 0.777705 0.778251
O O13 0.385479 0.000000 0.878360
O O14 0.869140 0.500000 0.256738
O O15 0.917810 0.704284 0.139581
O O16 0.212837 0.500000 0.214331
O O17 0.147577 0.197842 0.183730
O O18 0.960550 0.000000 0.104812
O O19 0.000000 0.765219 0.000000
#
# Coordination Sequence:
#
# PCOD8066435 Si02
#       7
#     4   4   4   4   4   4   4
#     4  10  22  41  65  91 122 163 211 266 325 386
#     4  10  21  38  58  86 126 165 205 254 313 375
#     4  10  22  42  66  92 124 163 211 268 326 390
#     4  11  22  37  59  87 121 165 214 256 305 370
#     4  12  24  39  61  89 124 162 204 256 319 379
#     4  11  23  38  60  90 123 161 201 253 315 377
#     4  11  23  38  60  90 124 163 207 255 308 373
#
# _framework density 21.344014000000001
#
# number of rings (size 3 to 8) (size 9 to 14) (size 15 to 20)
#    0.000    1.286    1.429    5.571    0.000    7.429 
#    0.000    1.429    0.000    0.000    0.000    0.000 
#    0.000    0.000    0.000    0.000    0.000    0.000 
#
# Total GULP energy -347011.181801 kJ/mol
# GULP energy per Si atom -12393.256493 kJ/mol
# Density = 2.129543 g / cm^3
# Si number density = 21.344014 Si / 1000 Ang^3
#
#
#
# Elastic Constant Matrix: (Units=GPa)
#
#
# Indices 1 2 3 4 5 6 
#
# 1 99.7555 18.4775 41.6471 0.0000 11.3823 0.0000
# 2 18.4775 60.3161 22.0293 0.0000 0.2834 0.0000
# 3 41.6471 22.0293 82.6213 0.0000 7.9015 0.0000
# 4 0.0000 0.0000 0.0000 24.2943 0.0000 6.6748
# 5 11.3823 0.2834 7.9015 0.0000 42.5566 0.0000
# 6 0.0000 0.0000 0.0000 6.6748 0.0000 8.8839
#
#
#
# Elastic Compliance Matrix: (Units=1/GPa)
#
#
# Indices 1 2 3 4 5 6 
#
# 1 0.013095 -0.001854 -0.005877 0.000000 -0.002399 0.000000
# 2 -0.001854 0.018657 -0.004149 0.000000 0.001142 0.000000
# 3 -0.005877 -0.004149 0.016309 0.000000 -0.001428 0.000000
# 4 0.000000 0.000000 0.000000 0.051869 0.000000 -0.038972
# 5 -0.002399 0.001142 -0.001428 0.000000 0.024397 0.000000
# 6 0.000000 0.000000 0.000000 -0.038972 0.000000 0.141844
#
#
# Mechanical properties :
#
#
# Convention : Reuss Voigt Hill
#
# Bulk Modulus (GPa) = 41.15112 45.22230 43.18671
# Shear Modulus (GPa) = 16.77661 25.84956 21.31309
#
# Velocity S-wave (km/s) = 2.80663 3.48385 3.16341
# Velocity P-wave (km/s) = 5.46120 6.11689 5.79832
#
# Compressibility (1/GPa) = 0.02430067
#
# Stress axis : x y z
#
# Youngs Moduli (GPa) = 76.36305 53.59816 61.31607
#
# Poissons Ratio (x) = 0.09936 0.36037
# Poissons Ratio (y) = 0.14157 0.25442
# Poissons Ratio (z) = 0.44881 0.22240
#
# Static dielectric constant tensor:
#      x y z
#    x 4.380730 0.000000 -0.184890 
#    y 0.000000 3.705210 0.000000 
#    z -0.184890 0.000000 3.983360 
# 
# 
# High freq. dielectric constant tensor:
#      x y z
#    x 1.848150 0.000000 0.006550 
#    y 0.000000 1.832900 0.000000 
#    z 0.006550 0.000000 1.827130 
# 
# From -- ./inp_files/63509.got.cif
#   From: 2010.06.25/outbox.cif.g09.slc.cpg/sg10_32_cif.got.tgz:63509.got - 2010.06.27 22:07:45.
