data_PCOD8066949
_publ_section_title
;
Structure prediction by ZEFSAII (Michael W. Deem and Ramdas Pophale) SiO2 
 PCOD8066949
Probable space group: P 2/M
;
_chemical_formula_sum "Si O2"
_cell_formula_units_Z 32
_cell_length_a 19.929068
_cell_length_b 13.926265
_cell_length_c 23.691229
_cell_angle_alpha 90.000000
_cell_angle_beta 162.448285
_cell_angle_gamma 90.000000
_cell_volume 1982.861264
_symmetry_space_group_name_H-M "P 2/M"
_symmetry_group_IT_number 10
_symmetry_cell_setting 'monoclinic'
loop_
_space_group_symop_operation_xyz
x,y,z
-x,y,-z
-x,-y,-z
x,-y,z
loop_
_atom_site_type_symbol
_atom_site_label
_atom_site_fract_x
_atom_site_fract_y
_atom_site_fract_z
Si Si1 0.937248 0.705872 0.111445
Si Si2 0.339020 0.891645 0.288392
Si Si3 0.834739 0.386828 0.414094
Si Si4 0.668419 0.389230 0.991379
Si Si5 0.330349 0.386238 0.487424
Si Si6 0.926305 0.388716 0.610156
Si Si7 0.794799 0.704972 0.872591
Si Si8 0.825747 0.108281 0.719341
O O1 0.168148 0.649795 0.307496
O O2 0.986298 0.819959 0.153230
O O3 0.749589 0.679067 0.006173
O O4 0.839575 0.676332 0.972720
O O5 0.239678 0.819951 0.161938
O O6 0.232301 0.864340 0.262945
O O7 0.604830 0.881321 0.504344
O O8 0.273690 0.000000 0.218473
O O9 0.878163 0.500000 0.451769
O O10 0.583125 0.362929 0.194142
O O11 0.884411 0.340151 0.515528
O O12 0.000000 0.341017 0.500000
O O13 0.689607 0.500000 0.987994
O O14 0.817177 0.372075 0.166312
O O15 0.328564 0.500000 0.484879
O O16 0.235898 0.345851 0.471598
O O17 0.576757 0.348179 0.674408
O O18 0.868793 0.500000 0.558486
O O19 0.000000 0.667766 0.000000
O O20 0.918124 0.000000 0.789065
#
# Coordination Sequence:
#
# PCOD8066949 Si02
#       8
#     4   4   4   4   4   4   4   4
#     4  11  20  33  53  70  92 122 162 200 242 284
#     4   9  18  34  52  71  94 118 146 192 254 311
#     4   9  16  26  43  68  96 121 150 190 226 262
#     4   9  18  31  46  65  90 127 165 188 219 272
#     4  10  22  38  50  62  91 131 168 203 235 272
#     4   8  15  29  46  61  82 119 156 186 225 269
#     4  12  23  32  50  71  90 117 162 207 244 294
#     4   9  17  32  55  72  91 120 149 191 250 305
#
# _framework density 16.138294999999999
#
# number of rings (size 3 to 8) (size 9 to 14) (size 15 to 20)
#    0.000    2.375    2.500    2.625    0.000    4.000 
#    0.000    3.125    0.000    0.000    0.000    0.000 
#    0.000    0.500    0.000    5.750    0.000    5.250 
#
# Total GULP energy -396750.414270 kJ/mol
# GULP energy per Si atom -12398.450446 kJ/mol
# Density = 1.610156 g / cm^3
# Si number density = 16.138295 Si / 1000 Ang^3
#
#
#
# Elastic Constant Matrix: (Units=GPa)
#
#
# Indices 1 2 3 4 5 6 
#
# 1 59.9108 22.8607 38.9616 0.0000 3.1548 0.0000
# 2 22.8607 55.7044 23.0022 0.0000 6.7680 0.0000
# 3 38.9616 23.0022 98.9800 0.0000 6.3145 0.0000
# 4 0.0000 0.0000 0.0000 19.0091 0.0000 -2.4700
# 5 3.1548 6.7680 6.3145 0.0000 29.5482 0.0000
# 6 0.0000 0.0000 0.0000 -2.4700 0.0000 9.1769
#
#
#
# Elastic Compliance Matrix: (Units=1/GPa)
#
#
# Indices 1 2 3 4 5 6 
#
# 1 0.024529 -0.006796 -0.008119 0.000000 0.000673 0.000000
# 2 -0.006796 0.022128 -0.002221 0.000000 -0.003868 0.000000
# 3 -0.008119 -0.002221 0.013917 0.000000 -0.001599 0.000000
# 4 0.000000 0.000000 0.000000 0.054513 0.000000 0.014672
# 5 0.000673 -0.003868 -0.001599 0.000000 0.034999 0.000000
# 6 0.000000 0.000000 0.000000 0.014672 0.000000 0.112919
#
#
# Mechanical properties :
#
#
# Convention : Reuss Voigt Hill
#
# Bulk Modulus (GPa) = 38.01813 42.69381 40.35597
# Shear Modulus (GPa) = 16.33757 20.19822 18.26790
#
# Velocity S-wave (km/s) = 3.18519 3.54159 3.36811
# Velocity P-wave (km/s) = 6.09394 6.57543 6.33926
#
# Compressibility (1/GPa) = 0.02630324
#
# Stress axis : x y z
#
# Youngs Moduli (GPa) = 40.76767 45.19214 71.85463
#
# Poissons Ratio (x) = 0.30711 0.58339
# Poissons Ratio (y) = 0.27705 0.15956
# Poissons Ratio (z) = 0.33100 0.10035
#
# Static dielectric constant tensor:
#      x y z
#    x 3.048370 0.000000 -0.061100 
#    y 0.000000 2.820700 0.000000 
#    z -0.061100 0.000000 3.208830 
# 
# 
# High freq. dielectric constant tensor:
#      x y z
#    x 1.596640 0.000000 -0.009790 
#    y 0.000000 1.581130 0.000000 
#    z -0.009790 0.000000 1.639700 
# 
# From -- ./inp_files/85956.got.cif
#   From: 2010.06.25/outbox.cif.g09.slc.cpg/sg10_43_cif.got.tgz:85956.got - 2010.06.27 22:07:45.
