data_PCOD8066153
_publ_section_title
;
Structure prediction by ZEFSAII (Michael W. Deem and Ramdas Pophale) SiO2 
 PCOD8066153
Probable space group: P 2/M
;
_chemical_formula_sum "Si O2"
_cell_formula_units_Z 28
_cell_length_a 19.643208
_cell_length_b 9.208102
_cell_length_c 24.677115
_cell_angle_alpha 90.000000
_cell_angle_beta 19.809944
_cell_angle_gamma 90.000000
_cell_volume 1512.690368
_symmetry_space_group_name_H-M "P 2/M"
_symmetry_group_IT_number 10
_symmetry_cell_setting 'monoclinic'
loop_
_space_group_symop_operation_xyz
x,y,z
-x,y,-z
-x,-y,-z
x,-y,z
loop_
_atom_site_type_symbol
_atom_site_label
_atom_site_fract_x
_atom_site_fract_y
_atom_site_fract_z
Si Si1 0.824159 0.335967 0.747017
Si Si2 0.150086 0.828944 0.732749
Si Si3 0.598555 0.326470 0.544768
Si Si4 0.793068 0.832550 0.184783
Si Si5 0.488765 0.661691 0.921290
Si Si6 0.789570 0.840868 0.935296
Si Si7 0.892337 0.837406 0.398808
O O1 0.898574 0.500000 0.679707
O O2 0.696550 0.274837 0.791041
O O3 0.015717 0.233590 0.615268
O O4 0.680722 0.338058 0.906236
O O5 0.311099 0.736979 0.578507
O O6 0.180789 0.793011 0.772041
O O7 0.923077 0.781288 0.885591
O O8 0.181266 0.000000 0.696031
O O9 0.613520 0.500000 0.533697
O O10 0.369236 0.274022 0.720244
O O11 0.712359 0.263118 0.511988
O O12 0.725694 0.000000 0.228263
O O13 0.000000 0.801617 0.000000
O O14 0.531130 0.500000 0.869210
O O15 0.409666 0.747815 0.927888
O O16 0.934647 0.845105 0.775191
O O17 0.708088 0.000000 0.010412
O O18 0.813723 0.000000 0.470782
#
# Coordination Sequence:
#
# PCOD8066153 Si02
#       7
#     4   4   4   4   4   4   4
#     4   8  13  21  32  50  79 114 149 184 224 267
#     4   9  18  33  51  71  95 123 158 197 234 277
#     4  11  21  32  49  72  97 125 157 194 236 280
#     4  10  21  37  55  72  93 123 156 192 237 285
#     4   8  13  20  31  49  78 115 149 181 220 268
#     4   8  14  23  36  56  82 112 147 187 225 262
#     4   9  16  26  40  59  84 116 154 192 228 269
#
# _framework density 18.510066999999999
#
# number of rings (size 3 to 8) (size 9 to 14) (size 15 to 20)
#    0.000    3.000    0.000    3.857    0.000    6.571 
#    0.000    2.857    0.000    0.000    0.000    0.000 
#    0.000    1.143    0.000   13.143    0.000   14.429 
#
# Total GULP energy -346998.545248 kJ/mol
# GULP energy per Si atom -12392.805187 kJ/mol
# Density = 1.846794 g / cm^3
# Si number density = 18.510067 Si / 1000 Ang^3
#
#
#
# Elastic Constant Matrix: (Units=GPa)
#
#
# Indices 1 2 3 4 5 6 
#
# 1 76.5434 52.0784 51.7717 0.0000 -44.4817 0.0000
# 2 52.0784 110.9426 47.1664 0.0000 -26.5820 0.0000
# 3 51.7717 47.1664 59.8197 0.0000 -24.8010 0.0000
# 4 0.0000 0.0000 0.0000 20.9175 0.0000 -15.3258
# 5 -44.4817 -26.5820 -24.8010 0.0000 27.8162 0.0000
# 6 0.0000 0.0000 0.0000 -15.3258 0.0000 26.7002
#
#
#
# Elastic Compliance Matrix: (Units=1/GPa)
#
#
# Indices 1 2 3 4 5 6 
#
# 1 0.683659 -0.019594 -0.207398 0.000000 0.889621 0.000000
# 2 -0.019594 0.014659 -0.002829 0.000000 -0.019847 0.000000
# 3 -0.207398 -0.002829 0.094897 0.000000 -0.249750 0.000000
# 4 0.000000 0.000000 0.000000 0.082504 0.000000 0.047357
# 5 0.889621 -0.019847 -0.249750 0.000000 1.216928 0.000000
# 6 0.000000 0.000000 0.000000 0.047357 0.000000 0.064636
#
#
# Mechanical properties :
#
#
# Convention : Reuss Voigt Hill
#
# Bulk Modulus (GPa) = 2.99784 61.03763 32.01774
# Shear Modulus (GPa) = 1.83277 21.50605 11.66941
#
# Velocity S-wave (km/s) = 0.99614 3.41230 2.51357
# Velocity P-wave (km/s) = 1.71643 6.96936 5.07534
#
# Compressibility (1/GPa) = 0.33357365
#
# Stress axis : x y z
#
# Youngs Moduli (GPa) = 1.46272 68.21935 10.53772
#
# Poissons Ratio (x) = 1.33666 2.18551
# Poissons Ratio (y) = 0.02866 0.02981
# Poissons Ratio (z) = 0.30336 0.19298
#
# Static dielectric constant tensor:
#      x y z
#    x 3.576760 0.000000 -0.513500 
#    y 0.000000 3.525150 0.000000 
#    z -0.513500 0.000000 3.006510 
# 
# 
# High freq. dielectric constant tensor:
#      x y z
#    x 1.714230 0.000000 -0.046690 
#    y 0.000000 1.710860 0.000000 
#    z -0.046690 0.000000 1.669140 
# 
# From -- ./inp_files/86697.got.cif
#   From: 2010.06.25/outbox.cif.g09.slc.cpg/sg10_44_cif.got.tgz:86697.got - 2010.06.27 22:07:45.
