data_PCOD8066290
_publ_section_title
;
Structure prediction by ZEFSAII (Michael W. Deem and Ramdas Pophale) SiO2 
 PCOD8066290
Probable space group: P 2/M
;
_chemical_formula_sum "Si O2"
_cell_formula_units_Z 28
_cell_length_a 22.433825
_cell_length_b 13.446314
_cell_length_c 9.919211
_cell_angle_alpha 90.000000
_cell_angle_beta 153.079307
_cell_angle_gamma 90.000000
_cell_volume 1354.717218
_symmetry_space_group_name_H-M "P 2/M"
_symmetry_group_IT_number 10
_symmetry_cell_setting 'monoclinic'
loop_
_space_group_symop_operation_xyz
x,y,z
-x,y,-z
-x,-y,-z
x,-y,z
loop_
_atom_site_type_symbol
_atom_site_label
_atom_site_fract_x
_atom_site_fract_y
_atom_site_fract_z
Si Si1 0.352231 0.719168 0.687484
Si Si2 0.700586 0.610132 0.692167
Si Si3 0.898010 0.811020 0.895895
Si Si4 0.273934 0.614669 0.798383
Si Si5 0.641777 0.246992 0.798317
Si Si6 0.023155 0.609561 0.841936
Si Si7 0.124159 0.116218 0.841725
O O1 0.347976 0.658131 0.542590
O O2 0.249101 0.811903 0.465610
O O3 0.310750 0.642579 0.720279
O O4 0.500000 0.762566 0.000000
O O5 0.645489 0.500000 0.580719
O O6 0.632105 0.661798 0.677680
O O7 0.859542 0.616137 0.032522
O O8 0.947677 0.696573 0.993365
O O9 0.899879 0.854214 0.050772
O O10 0.000000 0.868484 0.000000
O O11 0.319118 0.500000 0.919180
O O12 0.117835 0.623217 0.511731
O O13 0.338450 0.701973 0.016956
O O14 0.500000 0.191920 0.500000
O O15 0.751885 0.169179 0.975889
O O16 0.031273 0.500000 0.929150
O O17 0.000000 0.145909 0.500000
O O18 0.152387 0.000000 0.893167
#
# Coordination Sequence:
#
# PCOD8066290 Si02
#       7
#     4   4   4   4   4   4   4
#     4  11  22  36  57  89 130 179 216 248 300 368
#     4  10  21  37  58  87 130 178 220 257 305 366
#     4  11  21  41  68  97 125 165 204 266 319 375
#     4  11  23  35  57  94 136 175 220 261 298 365
#     4  12  25  40  63  93 129 173 213 261 319 376
#     4   9  18  33  55  88 125 166 209 248 299 361
#     4  11  26  49  74  96 120 155 210 274 335 391
#
# _framework density 20.668519
#
# number of rings (size 3 to 8) (size 9 to 14) (size 15 to 20)
#    0.000    1.286    4.286    2.571    0.000    4.857 
#    0.000    2.143    0.000    0.429    0.000    0.000 
#    0.000    0.000    0.000    0.000    0.000    0.000 
#
# Total GULP energy -346946.968013 kJ/mol
# GULP energy per Si atom -12390.963143 kJ/mol
# Density = 2.062148 g / cm^3
# Si number density = 20.668519 Si / 1000 Ang^3
#
#
#
# Elastic Constant Matrix: (Units=GPa)
#
#
# Indices 1 2 3 4 5 6 
#
# 1 127.8050 74.5235 64.7835 0.0000 -3.4857 0.0000
# 2 74.5235 109.4077 57.3809 0.0000 1.5747 0.0000
# 3 64.7835 57.3809 154.0307 0.0000 22.4995 0.0000
# 4 0.0000 0.0000 0.0000 -1.9913 0.0000 3.7726
# 5 -3.4857 1.5747 22.4995 0.0000 35.8076 0.0000
# 6 0.0000 0.0000 0.0000 3.7726 0.0000 9.6753
#
#
#
# Elastic Compliance Matrix: (Units=1/GPa)
#
#
# Indices 1 2 3 4 5 6 
#
# 1 0.014461 -0.007961 -0.003714 0.000000 0.004091 0.000000
# 2 -0.007961 0.015929 -0.002610 0.000000 0.000164 0.000000
# 3 -0.003714 -0.002610 0.009978 0.000000 -0.006517 0.000000
# 4 0.000000 0.000000 0.000000 -0.288827 0.000000 0.112620
# 5 0.004091 0.000164 -0.006517 0.000000 0.032413 0.000000
# 6 0.000000 0.000000 0.000000 0.112620 0.000000 0.059443
#
#
# Mechanical properties :
#
#
# Convention : Reuss Voigt Hill
#
# Bulk Modulus (GPa) = 84.75449 87.17993 85.96721
# Shear Modulus (GPa) = -40.29007 21.66868 -9.31069
#
# Velocity S-wave (km/s) = -4.41993 3.24140 -2.12475
# Velocity P-wave (km/s) = 3.87916 7.50203 5.97195
#
# Compressibility (1/GPa) = 0.01179879
#
# Stress axis : x y z
#
# Youngs Moduli (GPa) = 69.15324 62.77795 100.21686
#
# Poissons Ratio (x) = 0.49977 0.37220
# Poissons Ratio (y) = 0.55053 0.26155
# Poissons Ratio (z) = 0.25683 0.16384
#
# Static dielectric constant tensor:
#      x y z
#    x 3.801910 0.000000 0.251050 
#    y 0.000000 3.503050 0.000000 
#    z 0.251050 0.000000 3.366420 
# 
# 
# High freq. dielectric constant tensor:
#      x y z
#    x 1.822370 0.000000 0.012210 
#    y 0.000000 1.771360 0.000000 
#    z 0.012210 0.000000 1.815660 
# 
# From -- ./inp_files/35286.got.cif
#   From: 2010.06.25/outbox.cif.g09.slc.cpg/sg10_18_cif.got.tgz:35286.got - 2010.06.27 22:07:45.
