data_PCOD8066431
_publ_section_title
;
Structure prediction by ZEFSAII (Michael W. Deem and Ramdas Pophale) SiO2 
 PCOD8066431
Probable space group: P 2/M
;
_chemical_formula_sum "Si O2"
_cell_formula_units_Z 28
_cell_length_a 19.387408
_cell_length_b 8.719004
_cell_length_c 14.385253
_cell_angle_alpha 90.000000
_cell_angle_beta 147.157179
_cell_angle_gamma 90.000000
_cell_volume 1318.781305
_symmetry_space_group_name_H-M "P 2/M"
_symmetry_group_IT_number 10
_symmetry_cell_setting 'monoclinic'
loop_
_space_group_symop_operation_xyz
x,y,z
-x,y,-z
-x,-y,-z
x,-y,z
loop_
_atom_site_type_symbol
_atom_site_label
_atom_site_fract_x
_atom_site_fract_y
_atom_site_fract_z
Si Si1 0.800555 0.818733 0.018544
Si Si2 0.534355 0.179107 0.140905
Si Si3 0.287704 0.678133 0.905070
Si Si4 0.946278 0.319759 0.716509
Si Si5 0.673491 0.678318 0.455499
Si Si6 0.098986 0.679288 0.539699
Si Si7 0.470872 0.818618 0.364637
O O1 0.814742 0.732160 0.133939
O O2 0.926226 0.766479 0.102537
O O3 0.800427 0.000000 0.030935
O O4 0.670005 0.759792 0.822827
O O5 0.648490 0.269224 0.320182
O O6 0.565915 0.000000 0.174548
O O7 0.500000 0.244274 0.000000
O O8 0.410021 0.215225 0.062603
O O9 0.321469 0.500000 0.957879
O O10 0.237209 0.708369 0.742991
O O11 0.973854 0.500000 0.745095
O O12 0.823701 0.286880 0.643920
O O13 0.910746 0.250956 0.574186
O O14 0.643880 0.500000 0.430668
O O15 0.584061 0.766614 0.425432
O O16 0.069361 0.500000 0.498764
O O17 0.000000 0.755473 0.500000
O O18 0.500000 0.753013 0.500000
O O19 0.472373 0.000000 0.365817
#
# Coordination Sequence:
#
# PCOD8066431 Si02
#       7
#     4   4   4   4   4   4   4
#     4  11  22  37  60  89 118 152 199 250 306 369
#     4  11  23  37  54  81 123 167 207 253 303 359
#     4  11  20  33  56  81 113 157 206 256 301 349
#     4  10  21  38  58  85 123 164 205 248 301 361
#     4  11  23  39  63  93 124 161 205 257 312 369
#     4   9  16  29  50  76 111 159 207 244 284 346
#     4  10  23  45  70  92 119 157 201 255 318 383
#
# _framework density 21.231722999999999
#
# number of rings (size 3 to 8) (size 9 to 14) (size 15 to 20)
#    0.000    1.571    2.857    2.571    0.000    4.286 
#    0.000    2.857    0.000    4.286    0.000    0.000 
#    0.000    0.000    0.000    0.000    0.000    0.000 
#
# Total GULP energy -347061.957189 kJ/mol
# GULP energy per Si atom -12395.069900 kJ/mol
# Density = 2.118340 g / cm^3
# Si number density = 21.231723 Si / 1000 Ang^3
#
#
#
# Elastic Constant Matrix: (Units=GPa)
#
#
# Indices 1 2 3 4 5 6 
#
# 1 76.3361 7.7771 58.0977 0.0000 9.1854 0.0000
# 2 7.7771 22.3643 24.2690 0.0000 2.8906 0.0000
# 3 58.0977 24.2690 108.8151 0.0000 18.0401 0.0000
# 4 0.0000 0.0000 0.0000 26.6349 0.0000 5.9132
# 5 9.1854 2.8906 18.0401 0.0000 37.1111 0.0000
# 6 0.0000 0.0000 0.0000 5.9132 0.0000 21.6651
#
#
#
# Elastic Compliance Matrix: (Units=1/GPa)
#
#
# Indices 1 2 3 4 5 6 
#
# 1 0.022875 0.007026 -0.013869 0.000000 0.000533 0.000000
# 2 0.007026 0.061281 -0.017771 0.000000 0.002127 0.000000
# 3 -0.013869 -0.017771 0.021492 0.000000 -0.005630 0.000000
# 4 0.000000 0.000000 0.000000 0.039966 0.000000 -0.010908
# 5 0.000533 0.002127 -0.005630 0.000000 0.029386 0.000000
# 6 0.000000 0.000000 0.000000 -0.010908 0.000000 0.049134
#
#
# Mechanical properties :
#
#
# Convention : Reuss Voigt Hill
#
# Bulk Modulus (GPa) = 17.72422 43.08922 30.40672
# Shear Modulus (GPa) = 17.11341 24.90700 21.01020
#
# Velocity S-wave (km/s) = 2.84215 3.42877 3.14915
# Velocity P-wave (km/s) = 4.37453 6.00118 5.25122
#
# Compressibility (1/GPa) = 0.05641998
#
# Stress axis : x y z
#
# Youngs Moduli (GPa) = 43.71541 16.31829 46.52985
#
# Poissons Ratio (x) = -0.11466 0.64531
# Poissons Ratio (y) = -0.30716 0.82690
# Poissons Ratio (z) = 0.60628 0.29000
#
# Static dielectric constant tensor:
#      x y z
#    x 3.791120 0.000000 0.133320 
#    y 0.000000 3.439350 0.000000 
#    z 0.133320 0.000000 4.019980 
# 
# 
# High freq. dielectric constant tensor:
#      x y z
#    x 1.821690 0.000000 0.026080 
#    y 0.000000 1.808640 0.000000 
#    z 0.026080 0.000000 1.833240 
# 
# From -- ./inp_files/70262.got.cif
#   From: 2010.06.25/outbox.cif.g09.slc.cpg/sg10_36_cif.got.tgz:70262.got - 2010.06.27 22:07:45.
