data_PCOD8066709
_publ_section_title
;
Structure prediction by ZEFSAII (Michael W. Deem and Ramdas Pophale) SiO2 
 PCOD8066709
Probable space group: P 2/M
;
_chemical_formula_sum "Si O2"
_cell_formula_units_Z 28
_cell_length_a 18.530318
_cell_length_b 9.426024
_cell_length_c 13.684773
_cell_angle_alpha 90.000000
_cell_angle_beta 143.592975
_cell_angle_gamma 90.000000
_cell_volume 1418.673940
_symmetry_space_group_name_H-M "P 2/M"
_symmetry_group_IT_number 10
_symmetry_cell_setting 'monoclinic'
loop_
_space_group_symop_operation_xyz
x,y,z
-x,y,-z
-x,-y,-z
x,-y,z
loop_
_atom_site_type_symbol
_atom_site_label
_atom_site_fract_x
_atom_site_fract_y
_atom_site_fract_z
Si Si1 0.811122 0.831776 0.542945
Si Si2 0.786943 0.661938 0.974791
Si Si3 0.531587 0.163720 0.235670
Si Si4 0.317895 0.336402 0.933200
Si Si5 0.576914 0.165077 0.674438
Si Si6 0.962213 0.336009 0.850323
Si Si7 0.885061 0.665135 0.440798
O O1 0.670748 0.792902 0.371287
O O2 0.888978 0.762762 0.540604
O O3 0.853064 0.762296 0.691403
O O4 0.832475 0.000000 0.570742
O O5 0.750192 0.500000 0.915659
O O6 0.705684 0.756205 0.814201
O O7 0.763483 0.705619 0.061476
O O8 0.926819 0.688182 0.103037
O O9 0.498258 0.200980 0.310437
O O10 0.509774 0.000000 0.188621
O O11 0.443894 0.249722 0.066877
O O12 0.354313 0.500000 0.976531
O O13 0.238808 0.300906 0.752093
O O14 0.500000 0.223357 0.500000
O O15 0.604645 0.000000 0.693146
O O16 0.919963 0.500000 0.805912
O O17 0.000000 0.286762 0.000000
O O18 0.892077 0.500000 0.479618
O O19 0.000000 0.705448 0.500000
#
# Coordination Sequence:
#
# PCOD8066709 Si02
#       7
#     4   4   4   4   4   4   4
#     4  11  24  39  57  84 117 151 188 234 285 342
#     4   9  18  34  54  79 108 137 179 231 280 330
#     4   9  20  37  53  77 115 152 185 229 283 333
#     4   9  18  34  58  84 108 143 188 232 280 334
#     4   9  18  32  53  77 104 144 188 228 273 328
#     4  10  22  39  58  81 112 151 191 235 288 340
#     4  10  21  39  63  87 114 150 189 235 286 335
#
# _framework density 19.736740999999999
#
# number of rings (size 3 to 8) (size 9 to 14) (size 15 to 20)
#    0.000    2.429    0.000    1.286    2.000    6.000 
#    0.000    5.714    0.000    0.000    0.000    0.000 
#    0.000    0.000    0.000    0.000    0.000    0.000 
#
# Total GULP energy -347275.765588 kJ/mol
# GULP energy per Si atom -12402.705914 kJ/mol
# Density = 1.969182 g / cm^3
# Si number density = 19.736741 Si / 1000 Ang^3
#
#
#
# Elastic Constant Matrix: (Units=GPa)
#
#
# Indices 1 2 3 4 5 6 
#
# 1 61.1229 34.6669 33.4626 0.0000 2.0623 0.0000
# 2 34.6669 72.6888 59.6850 0.0000 -0.0357 0.0000
# 3 33.4626 59.6850 112.6730 0.0000 -3.7701 0.0000
# 4 0.0000 0.0000 0.0000 26.0148 0.0000 6.1774
# 5 2.0623 -0.0357 -3.7701 0.0000 28.6757 0.0000
# 6 0.0000 0.0000 0.0000 6.1774 0.0000 21.3705
#
#
#
# Elastic Compliance Matrix: (Units=1/GPa)
#
#
# Indices 1 2 3 4 5 6 
#
# 1 0.022728 -0.009284 -0.001895 0.000000 -0.001895 0.000000
# 2 -0.009284 0.028220 -0.012222 0.000000 -0.000904 0.000000
# 3 -0.001895 -0.012222 0.015987 0.000000 0.002223 0.000000
# 4 0.000000 0.000000 0.000000 0.041273 0.000000 -0.011930
# 5 -0.001895 -0.000904 0.002223 0.000000 0.035300 0.000000
# 6 0.000000 0.000000 0.000000 -0.011930 0.000000 0.050242
#
#
# Mechanical properties :
#
#
# Convention : Reuss Voigt Hill
#
# Bulk Modulus (GPa) = 49.67186 55.79042 52.73114
# Shear Modulus (GPa) = 20.22152 23.12353 21.67252
#
# Velocity S-wave (km/s) = 3.20435 3.42657 3.31732
# Velocity P-wave (km/s) = 6.23797 6.63203 6.43802
#
# Compressibility (1/GPa) = 0.02013212
#
# Stress axis : x y z
#
# Youngs Moduli (GPa) = 43.99927 35.43622 62.55276
#
# Poissons Ratio (x) = 0.32899 0.11856
# Poissons Ratio (y) = 0.40849 0.76449
# Poissons Ratio (z) = 0.08340 0.43308
#
# Static dielectric constant tensor:
#      x y z
#    x 3.504340 0.000000 -0.004020 
#    y 0.000000 3.478370 0.000000 
#    z -0.004020 0.000000 3.711790 
# 
# 
# High freq. dielectric constant tensor:
#      x y z
#    x 1.763970 0.000000 -0.001830 
#    y 0.000000 1.758910 0.000000 
#    z -0.001830 0.000000 1.777890 
# 
# From -- ./inp_files/63932.got.cif
#   From: 2010.06.25/outbox.cif.g09.slc.cpg/sg10_32_cif.got.tgz:63932.got - 2010.06.27 22:07:45.
