data_PCOD8066558
_publ_section_title
;
Structure prediction by ZEFSAII (Michael W. Deem and Ramdas Pophale) SiO2 
 PCOD8066558
Probable space group: P 2/M
;
_chemical_formula_sum "Si O2"
_cell_formula_units_Z 24
_cell_length_a 25.813536
_cell_length_b 11.046751
_cell_length_c 9.022444
_cell_angle_alpha 90.000000
_cell_angle_beta 150.828123
_cell_angle_gamma 90.000000
_cell_volume 1254.063498
_symmetry_space_group_name_H-M "P 2/M"
_symmetry_group_IT_number 10
_symmetry_cell_setting 'monoclinic'
loop_
_space_group_symop_operation_xyz
x,y,z
-x,y,-z
-x,-y,-z
x,-y,z
loop_
_atom_site_type_symbol
_atom_site_label
_atom_site_fract_x
_atom_site_fract_y
_atom_site_fract_z
Si Si1 0.276414 0.748960 0.088511
Si Si2 0.277089 0.141948 0.769418
Si Si3 0.167812 0.500000 0.826816
Si Si4 0.095985 0.251032 0.130048
Si Si5 0.100140 0.861250 0.835384
Si Si6 0.512750 0.867574 0.358852
Si Si7 0.937368 0.500000 0.116028
O O1 0.397885 0.765779 0.450522
O O2 0.258785 0.826671 0.896135
O O3 0.244937 0.611074 0.979668
O O4 0.205318 0.795087 0.045612
O O5 0.204581 0.227248 0.487935
O O6 0.250537 0.000000 0.682129
O O7 0.396541 0.172042 0.010101
O O8 0.130953 0.500000 0.904837
O O9 0.063812 0.500000 0.462474
O O10 0.084135 0.153830 0.969729
O O11 0.095072 0.385276 0.062177
O O12 0.000000 0.227894 0.000000
O O13 0.000000 0.800643 0.500000
O O14 0.108919 0.000000 0.813165
O O15 0.500000 0.885351 0.500000
O O16 0.545541 0.000000 0.373857
#
# Coordination Sequence:
#
# PCOD8066558 Si02
#       7
#     4   4   2   4   4   4   2
#     4  11  20  37  62  87 115 155 202 244 286 343
#     4  10  21  38  61  91 124 154 190 242 301 355
#     4  11  22  38  64  85 113 154 209 249 280 338
#     4  12  24  38  59  85 120 156 195 242 296 352
#     4  11  22  35  55  84 115 150 193 242 296 350
#     4   8  16  34  60  87 117 154 193 238 292 350
#     4  11  23  42  59  81 116 162 203 241 288 348
#
# _framework density 19.137786999999999
#
# number of rings (size 3 to 8) (size 9 to 14) (size 15 to 20)
#    0.000    1.500    1.667    6.250    0.000    3.333 
#    0.000    5.417    0.000    4.000    0.000    0.000 
#    0.000    0.000    0.000    0.000    0.000    0.000 
#
# Total GULP energy -297566.612594 kJ/mol
# GULP energy per Si atom -12398.608858 kJ/mol
# Density = 1.909423 g / cm^3
# Si number density = 19.137787 Si / 1000 Ang^3
#
#
#
# Elastic Constant Matrix: (Units=GPa)
#
#
# Indices 1 2 3 4 5 6 
#
# 1 84.8287 31.2799 48.6388 0.0000 5.1619 0.0000
# 2 31.2799 113.1502 64.4058 0.0000 17.5623 0.0000
# 3 48.6388 64.4058 154.8547 0.0000 13.9599 0.0000
# 4 0.0000 0.0000 0.0000 44.1696 0.0000 9.3301
# 5 5.1619 17.5623 13.9599 0.0000 29.2817 0.0000
# 6 0.0000 0.0000 0.0000 9.3301 0.0000 36.2291
#
#
#
# Elastic Compliance Matrix: (Units=1/GPa)
#
#
# Indices 1 2 3 4 5 6 
#
# 1 0.014680 -0.001933 -0.003843 0.000000 0.000404 0.000000
# 2 -0.001933 0.012535 -0.004137 0.000000 -0.005205 0.000000
# 3 -0.003843 -0.004137 0.009509 0.000000 -0.001375 0.000000
# 4 0.000000 0.000000 0.000000 0.023942 0.000000 -0.006166
# 5 0.000404 -0.005205 -0.001375 0.000000 0.037857 0.000000
# 6 0.000000 0.000000 0.000000 -0.006166 0.000000 0.029190
#
#
# Mechanical properties :
#
#
# Convention : Reuss Voigt Hill
#
# Bulk Modulus (GPa) = 59.18054 71.27584 65.22819
# Shear Modulus (GPa) = 32.64259 35.83668 34.23964
#
# Velocity S-wave (km/s) = 4.13445 4.33200 4.23438
# Velocity P-wave (km/s) = 7.33363 7.89595 7.61998
#
# Compressibility (1/GPa) = 0.01689745
#
# Stress axis : x y z
#
# Youngs Moduli (GPa) = 68.11766 79.77709 105.15951
#
# Poissons Ratio (x) = 0.15424 0.40416
# Poissons Ratio (y) = 0.13170 0.43504
# Poissons Ratio (z) = 0.26180 0.33003
#
# Static dielectric constant tensor:
#      x y z
#    x 3.436520 0.000000 0.192650 
#    y 0.000000 3.570880 0.000000 
#    z 0.192650 0.000000 3.883260 
# 
# 
# High freq. dielectric constant tensor:
#      x y z
#    x 1.735700 0.000000 0.008560 
#    y 0.000000 1.742410 0.000000 
#    z 0.008560 0.000000 1.746390 
# 
# From -- ./inp_files/36218.got.cif
#   From: 2010.06.25/outbox.cif.g09.slc.cpg/sg10_19_cif.got.tgz:36218.got - 2010.06.27 22:07:45.
