data_PCOD8066768
_publ_section_title
;
Structure prediction by ZEFSAII (Michael W. Deem and Ramdas Pophale) SiO2 
 PCOD8066768
Probable space group: P 2/M
;
_chemical_formula_sum "Si O2"
_cell_formula_units_Z 30
_cell_length_a 28.196875
_cell_length_b 10.857395
_cell_length_c 27.320752
_cell_angle_alpha 90.000000
_cell_angle_beta 10.464396
_cell_angle_gamma 90.000000
_cell_volume 1519.125561
_symmetry_space_group_name_H-M "P 2/M"
_symmetry_group_IT_number 10
_symmetry_cell_setting 'monoclinic'
loop_
_space_group_symop_operation_xyz
x,y,z
-x,y,-z
-x,-y,-z
x,-y,z
loop_
_atom_site_type_symbol
_atom_site_label
_atom_site_fract_x
_atom_site_fract_y
_atom_site_fract_z
Si Si1 0.764057 0.500000 0.702349
Si Si2 0.835594 0.634879 0.444856
Si Si3 0.534260 0.137216 0.202809
Si Si4 0.263038 0.646604 0.708640
Si Si5 0.196470 0.709820 0.000097
Si Si6 0.818646 0.712429 0.569982
Si Si7 0.691325 0.861623 0.936337
Si Si8 0.270766 0.641465 0.590282
O O1 0.774621 0.619185 0.658093
O O2 0.000000 0.500000 0.500000
O O3 0.500000 0.500000 0.000000
O O4 0.700798 0.500000 0.572379
O O5 0.673281 0.751044 0.589004
O O6 0.891926 0.643591 0.445256
O O7 0.107271 0.632480 0.138751
O O8 0.404224 0.000000 0.337888
O O9 0.711333 0.157577 0.071708
O O10 0.715871 0.142986 0.970368
O O11 0.500000 0.701156 0.500000
O O12 0.270133 0.500000 0.701987
O O13 0.286363 0.694222 0.629407
O O14 0.000000 0.697675 0.000000
O O15 0.948810 0.721788 0.214987
O O16 0.442360 0.646569 0.724315
O O17 0.055596 0.800739 0.344485
O O18 0.561955 0.792024 0.824713
O O19 0.673251 0.000000 0.935086
O O20 0.174152 0.500000 0.687455
#
# Coordination Sequence:
#
# PCOD8066768 Si02
#       8
#     2   4   4   4   4   4   4   4
#     4  12  26  46  68  94 128 166 202 264 318 361
#     4  11  22  38  61  92 125 164 207 251 299 361
#     4  10  23  40  59  86 126 173 213 247 296 364
#     4   9  17  31  50  72 103 153 205 247 299 372
#     4  12  22  36  52  85 123 166 197 242 299 370
#     4  11  22  41  63  94 121 160 205 252 298 375
#     4  10  21  39  65  93 122 159 206 256 299 356
#     4  11  22  34  51  81 122 162 198 251 316 365
#
# _framework density 19.748201999999999
#
# number of rings (size 3 to 8) (size 9 to 14) (size 15 to 20)
#    0.000    1.333    3.333    3.200    0.000    4.267 
#    1.200    0.000    0.000    8.000    0.000    0.000 
#    0.000   10.667    0.000    0.000    0.000    0.000 
#
# Total GULP energy -371864.121226 kJ/mol
# GULP energy per Si atom -12395.470708 kJ/mol
# Density = 1.970325 g / cm^3
# Si number density = 19.748202 Si / 1000 Ang^3
#
#
#
# Elastic Constant Matrix: (Units=GPa)
#
#
# Indices 1 2 3 4 5 6 
#
# 1 157.6097 48.5590 68.9240 0.0000 -4.4070 0.0000
# 2 48.5590 128.8373 52.3932 0.0000 4.5759 0.0000
# 3 68.9240 52.3932 154.2257 0.0000 3.8799 0.0000
# 4 0.0000 0.0000 0.0000 37.6440 0.0000 -30.6334
# 5 -4.4070 4.5759 3.8799 0.0000 40.8499 0.0000
# 6 0.0000 0.0000 0.0000 -30.6334 0.0000 85.5737
#
#
#
# Elastic Compliance Matrix: (Units=1/GPa)
#
#
# Indices 1 2 3 4 5 6 
#
# 1 0.008337 -0.001929 -0.003106 0.000000 0.001411 0.000000
# 2 -0.001929 0.009474 -0.002330 0.000000 -0.001048 0.000000
# 3 -0.003106 -0.002330 0.008686 0.000000 -0.000899 0.000000
# 4 0.000000 0.000000 0.000000 0.037484 0.000000 0.013418
# 5 0.001411 -0.001048 -0.000899 0.000000 0.024835 0.000000
# 6 0.000000 0.000000 0.000000 0.013418 0.000000 0.016489
#
#
# Mechanical properties :
#
#
# Convention : Reuss Voigt Hill
#
# Bulk Modulus (GPa) = 84.98531 86.71387 85.84959
# Shear Modulus (GPa) = 40.33666 50.86662 45.60164
#
# Velocity S-wave (km/s) = 4.52436 5.08070 4.81058
# Velocity P-wave (km/s) = 8.39172 8.85568 8.62682
#
# Compressibility (1/GPa) = 0.01176674
#
# Stress axis : x y z
#
# Youngs Moduli (GPa) = 119.94972 105.55746 115.12642
#
# Poissons Ratio (x) = 0.20364 0.35757
# Poissons Ratio (y) = 0.23141 0.26822
# Poissons Ratio (z) = 0.37255 0.24592
#
# Static dielectric constant tensor:
#      x y z
#    x 3.732660 0.000000 0.037600 
#    y 0.000000 3.493430 0.000000 
#    z 0.037600 0.000000 3.627390 
# 
# 
# High freq. dielectric constant tensor:
#      x y z
#    x 1.765540 0.000000 0.001200 
#    y 0.000000 1.740970 0.000000 
#    z 0.001200 0.000000 1.778720 
# 
# From -- ./inp_files/94071.got.cif
#   From: 2010.06.25/outbox.cif.g09.slc.cpg/sg10_48_cif.got.tgz:94071.got - 2010.06.27 22:07:45.
