data_PCOD8066989
_publ_section_title
;
Structure prediction by ZEFSAII (Michael W. Deem and Ramdas Pophale) SiO2 
 PCOD8066989
Probable space group: P 2/M
;
_chemical_formula_sum "Si O2"
_cell_formula_units_Z 26
_cell_length_a 21.390762
_cell_length_b 9.323081
_cell_length_c 8.290875
_cell_angle_alpha 90.000000
_cell_angle_beta 132.432724
_cell_angle_gamma 90.000000
_cell_volume 1220.347993
_symmetry_space_group_name_H-M "P 2/M"
_symmetry_group_IT_number 10
_symmetry_cell_setting 'monoclinic'
loop_
_space_group_symop_operation_xyz
x,y,z
-x,y,-z
-x,-y,-z
x,-y,z
loop_
_atom_site_type_symbol
_atom_site_label
_atom_site_fract_x
_atom_site_fract_y
_atom_site_fract_z
Si Si1 0.391283 0.837360 0.642552
Si Si2 0.186537 0.661536 0.775017
Si Si3 0.949586 0.163155 0.061717
Si Si4 0.000000 0.254760 0.500000
Si Si5 0.535776 0.666533 0.739678
Si Si6 0.317282 0.164360 0.865025
Si Si7 0.770484 0.830126 0.842057
O O1 0.468750 0.731019 0.749610
O O2 0.365158 0.828363 0.780949
O O3 0.311157 0.786538 0.400010
O O4 0.418333 0.000000 0.644441
O O5 0.219946 0.500000 0.824255
O O6 0.225635 0.752751 0.692670
O O7 0.084829 0.654336 0.614528
O O8 0.233345 0.745156 0.999265
O O9 0.988923 0.168993 0.312207
O O10 0.943583 0.000000 0.000580
O O11 0.854666 0.226326 0.895928
O O12 0.000000 0.241183 0.000000
O O13 0.500000 0.689834 0.500000
O O14 0.550643 0.500000 0.806632
O O15 0.623509 0.753425 0.902942
O O16 0.302239 0.000000 0.892645
O O17 0.776755 0.000000 0.886467
#
# Coordination Sequence:
#
# PCOD8066989 Si02
#       7
#     4   4   4   2   4   4   4
#     4  10  22  39  61  89 123 157 197 248 302 359
#     4  11  23  40  61  86 121 161 205 251 304 365
#     4   9  18  32  57  89 121 156 204 259 310 368
#     4  10  22  38  60  84 125 166 209 256 319 370
#     4  11  24  41  62  89 122 159 200 243 294 357
#     4  11  24  40  62  91 121 155 199 250 304 360
#     4   9  19  37  59  86 117 154 197 247 305 358
#
# _framework density 21.305399000000001
#
# number of rings (size 3 to 8) (size 9 to 14) (size 15 to 20)
#    0.000    1.846    0.000    3.231    2.154    9.231 
#    0.000    0.000    0.000    2.308    0.000    0.000 
#    0.000    0.000    0.000    0.000    0.000    0.000 
#
# Total GULP energy -322180.179649 kJ/mol
# GULP energy per Si atom -12391.545371 kJ/mol
# Density = 2.125691 g / cm^3
# Si number density = 21.305399 Si / 1000 Ang^3
#
#
#
# Elastic Constant Matrix: (Units=GPa)
#
#
# Indices 1 2 3 4 5 6 
#
# 1 117.8097 43.8830 22.6207 0.0000 14.8653 0.0000
# 2 43.8830 118.8786 25.7021 0.0000 19.3853 0.0000
# 3 22.6207 25.7021 77.6060 0.0000 14.1976 0.0000
# 4 0.0000 0.0000 0.0000 6.8212 0.0000 9.1061
# 5 14.8653 19.3853 14.1976 0.0000 32.7664 0.0000
# 6 0.0000 0.0000 0.0000 9.1061 0.0000 22.8246
#
#
#
# Elastic Compliance Matrix: (Units=1/GPa)
#
#
# Indices 1 2 3 4 5 6 
#
# 1 0.010205 -0.003082 -0.001565 0.000000 -0.002129 0.000000
# 2 -0.003082 0.010619 -0.001873 0.000000 -0.004072 0.000000
# 3 -0.001565 -0.001873 0.014803 0.000000 -0.004596 0.000000
# 4 0.000000 0.000000 0.000000 0.313650 0.000000 -0.125134
# 5 -0.002129 -0.004072 -0.004596 0.000000 0.035886 0.000000
# 6 0.000000 0.000000 0.000000 -0.125134 0.000000 0.093736
#
#
# Mechanical properties :
#
#
# Convention : Reuss Voigt Hill
#
# Bulk Modulus (GPa) = 44.27285 55.41175 49.84230
# Shear Modulus (GPa) = 10.01066 27.28834 18.64950
#
# Velocity S-wave (km/s) = 2.16999 3.58273 2.96183
# Velocity P-wave (km/s) = 5.20612 6.57111 5.92803
#
# Compressibility (1/GPa) = 0.02258720
#
# Stress axis : x y z
#
# Youngs Moduli (GPa) = 97.98915 94.17366 67.55430
#
# Poissons Ratio (x) = 0.29022 0.10569
# Poissons Ratio (y) = 0.30198 0.12656
# Poissons Ratio (z) = 0.15331 0.17643
#
# Static dielectric constant tensor:
#      x y z
#    x 4.417630 0.000000 0.104500 
#    y 0.000000 3.687510 0.000000 
#    z 0.104500 0.000000 3.809550 
# 
# 
# High freq. dielectric constant tensor:
#      x y z
#    x 1.862130 0.000000 0.010060 
#    y 0.000000 1.812860 0.000000 
#    z 0.010060 0.000000 1.829900 
# 
# From -- ./inp_files/34277.got.cif
#   From: 2010.06.25/outbox.cif.g09.slc.cpg/sg10_18_cif.got.tgz:34277.got - 2010.06.27 22:07:45.
