data_PCOD8066521
_publ_section_title
;
Structure prediction by ZEFSAII (Michael W. Deem and Ramdas Pophale) SiO2 
 PCOD8066521
Probable space group: P 2/M
;
_chemical_formula_sum "Si O2"
_cell_formula_units_Z 24
_cell_length_a 10.009428
_cell_length_b 14.835541
_cell_length_c 16.593478
_cell_angle_alpha 90.000000
_cell_angle_beta 30.892415
_cell_angle_gamma 90.000000
_cell_volume 1265.113030
_symmetry_space_group_name_H-M "P 2/M"
_symmetry_group_IT_number 10
_symmetry_cell_setting 'monoclinic'
loop_
_space_group_symop_operation_xyz
x,y,z
-x,y,-z
-x,-y,-z
x,-y,z
loop_
_atom_site_type_symbol
_atom_site_label
_atom_site_fract_x
_atom_site_fract_y
_atom_site_fract_z
Si Si1 0.241623 0.393918 0.176655
Si Si2 0.925814 0.096872 0.630352
Si Si3 0.261436 0.742431 0.815084
Si Si4 0.264521 0.727538 0.313448
Si Si5 0.475414 0.895680 0.419708
Si Si6 0.239204 0.605741 0.682868
O O1 0.242492 0.500000 0.186120
O O2 0.235636 0.355733 0.269180
O O3 0.996030 0.361822 0.251919
O O4 0.500000 0.357863 0.000000
O O5 0.713039 0.177219 0.747817
O O6 0.000000 0.082853 0.500000
O O7 0.180152 0.125330 0.548531
O O8 0.815503 0.000000 0.719620
O O9 0.488302 0.713042 0.758391
O O10 0.329753 0.834351 0.733074
O O11 0.223971 0.659535 0.773780
O O12 0.000000 0.759748 0.000000
O O13 0.000000 0.733431 0.500000
O O14 0.500000 0.869422 0.500000
O O15 0.548949 0.000000 0.365593
O O16 0.500000 0.629515 0.500000
O O17 0.221263 0.500000 0.713111
#
# Coordination Sequence:
#
# PCOD8066521 Si02
#       6
#     4   4   4   4   4   4
#     4  10  22  40  59  81 114 153 188 230 288 342
#     4   9  17  34  59  83 110 145 189 231 273 330
#     4  12  24  36  56  89 123 150 183 238 297 340
#     4  11  21  36  59  87 108 150 196 231 277 331
#     4  10  21  38  61  86 113 152 197 235 278 339
#     4  10  22  40  61  83 112 155 197 237 283 335
#
# _framework density 18.970638000000001
#
# number of rings (size 3 to 8) (size 9 to 14) (size 15 to 20)
#    0.000    1.667    3.333    2.500    2.333    1.667 
#    0.000    0.000    0.000    0.500    0.000    0.000 
#    0.000    0.000    0.000    0.000    0.000    0.000 
#
# Total GULP energy -297580.797676 kJ/mol
# GULP energy per Si atom -12399.199903 kJ/mol
# Density = 1.892746 g / cm^3
# Si number density = 18.970638 Si / 1000 Ang^3
#
#
#
# Elastic Constant Matrix: (Units=GPa)
#
#
# Indices 1 2 3 4 5 6 
#
# 1 176.0183 53.9462 59.4532 0.0000 -6.8702 0.0000
# 2 53.9462 70.4386 40.8061 0.0000 8.3753 0.0000
# 3 59.4532 40.8061 90.1660 0.0000 -7.6394 0.0000
# 4 0.0000 0.0000 0.0000 2.4039 0.0000 5.2496
# 5 -6.8702 8.3753 -7.6394 0.0000 27.2681 0.0000
# 6 0.0000 0.0000 0.0000 5.2496 0.0000 70.0780
#
#
#
# Elastic Compliance Matrix: (Units=1/GPa)
#
#
# Indices 1 2 3 4 5 6 
#
# 1 0.008328 -0.004966 -0.003008 0.000000 0.002781 0.000000
# 2 -0.004966 0.024369 -0.008701 0.000000 -0.011174 0.000000
# 3 -0.003008 -0.008701 0.017592 0.000000 0.006843 0.000000
# 4 0.000000 0.000000 0.000000 0.497346 0.000000 -0.037257
# 5 0.002781 -0.011174 0.006843 0.000000 0.042723 0.000000
# 6 0.000000 0.000000 0.000000 -0.037257 0.000000 0.017061
#
#
# Mechanical properties :
#
#
# Convention : Reuss Voigt Hill
#
# Bulk Modulus (GPa) = 59.03677 71.67046 65.35362
# Shear Modulus (GPa) = 7.73498 32.11115 19.92306
#
# Velocity S-wave (km/s) = 2.02143 4.11868 3.24420
# Velocity P-wave (km/s) = 6.05276 7.77687 6.96834
#
# Compressibility (1/GPa) = 0.01693859
#
# Stress axis : x y z
#
# Youngs Moduli (GPa) = 120.08040 41.03558 56.84497
#
# Poissons Ratio (x) = 0.20378 0.17100
# Poissons Ratio (y) = 0.59630 0.49461
# Poissons Ratio (z) = 0.36122 0.35705
#
# Static dielectric constant tensor:
#      x y z
#    x 3.565310 0.000000 -0.013800 
#    y 0.000000 3.894720 0.000000 
#    z -0.013800 0.000000 3.123010 
# 
# 
# High freq. dielectric constant tensor:
#      x y z
#    x 1.759000 0.000000 -0.004900 
#    y 0.000000 1.752690 0.000000 
#    z -0.004900 0.000000 1.705010 
# 
# From -- ./inp_files/61662.got.cif
#   From: 2010.06.25/outbox.cif.g09.slc.cpg/sg10_31_cif.got.tgz:61662.got - 2010.06.27 22:07:45.
