data_PCOD8066859
_publ_section_title
;
Structure prediction by ZEFSAII (Michael W. Deem and Ramdas Pophale) SiO2 
 PCOD8066859
Probable space group: P 2/M
;
_chemical_formula_sum "Si O2"
_cell_formula_units_Z 18
_cell_length_a 24.807382
_cell_length_b 7.684737
_cell_length_c 5.087450
_cell_angle_alpha 90.000000
_cell_angle_beta 59.679984
_cell_angle_gamma 90.000000
_cell_volume 837.203838
_symmetry_space_group_name_H-M "P 2/M"
_symmetry_group_IT_number 10
_symmetry_cell_setting 'monoclinic'
loop_
_space_group_symop_operation_xyz
x,y,z
-x,y,-z
-x,-y,-z
x,-y,z
loop_
_atom_site_type_symbol
_atom_site_label
_atom_site_fract_x
_atom_site_fract_y
_atom_site_fract_z
Si Si1 0.359244 0.302247 0.839399
Si Si2 0.430506 0.802509 0.163503
Si Si3 0.778921 0.298528 0.826004
Si Si4 0.956697 0.000000 0.856373
Si Si5 0.857150 0.704363 0.146013
O O1 0.354098 0.500000 0.753652
O O2 0.401276 0.201721 0.525633
O O3 0.388889 0.300170 0.055994
O O4 0.290228 0.214806 0.018117
O O5 0.434649 0.000000 0.054346
O O6 0.500000 0.720275 0.000000
O O7 0.771843 0.500000 0.775901
O O8 0.825108 0.223152 0.490449
O O9 0.807277 0.262888 0.040151
O O10 0.000000 0.000000 0.500000
O O11 0.917189 0.177776 0.947080
O O12 0.000000 0.000000 0.000000
O O13 0.876999 0.500000 0.111392
#
# Coordination Sequence:
#
# PCOD8066859 Si02
#       5
#     4   4   4   2   4
#     4  11  22  39  64  91 117 153 209 266 310 366
#     4  11  24  41  56  81 125 166 203 253 314 379
#     4   9  19  38  62  88 120 152 192 248 307 359
#     4  12  26  42  62  94 128 158 205 250 281 348
#     4  10  21  41  64  88 124 165 197 244 308 356
#
# _framework density 21.500140999999999
#
# number of rings (size 3 to 8) (size 9 to 14) (size 15 to 20)
#    0.000    1.556    0.000    4.667    0.000    8.889 
#   12.000    0.000    0.000    0.000    0.000    0.000 
#    0.000    0.000    0.000    0.000    0.000    0.000 
#
# Total GULP energy -223254.019235 kJ/mol
# GULP energy per Si atom -12403.001069 kJ/mol
# Density = 2.145121 g / cm^3
# Si number density = 21.500141 Si / 1000 Ang^3
#
#
#
# Elastic Constant Matrix: (Units=GPa)
#
#
# Indices 1 2 3 4 5 6 
#
# 1 124.7517 36.0991 35.0673 0.0000 -13.7071 0.0000
# 2 36.0991 72.1250 30.1874 0.0000 -13.9934 0.0000
# 3 35.0673 30.1874 144.3008 0.0000 -12.8134 0.0000
# 4 0.0000 0.0000 0.0000 28.7477 0.0000 -6.2611
# 5 -13.7071 -13.9934 -12.8134 0.0000 46.6294 0.0000
# 6 0.0000 0.0000 0.0000 -6.2611 0.0000 28.6553
#
#
#
# Elastic Compliance Matrix: (Units=1/GPa)
#
#
# Indices 1 2 3 4 5 6 
#
# 1 0.009716 -0.004030 -0.001406 0.000000 0.001260 0.000000
# 2 -0.004030 0.017545 -0.002387 0.000000 0.003425 0.000000
# 3 -0.001406 -0.002387 0.007863 0.000000 0.001031 0.000000
# 4 0.000000 0.000000 0.000000 0.036523 0.000000 0.007980
# 5 0.001260 0.003425 0.001031 0.000000 0.023127 0.000000
# 6 0.000000 0.000000 0.000000 0.007980 0.000000 0.036641
#
#
# Mechanical properties :
#
#
# Convention : Reuss Voigt Hill
#
# Bulk Modulus (GPa) = 51.34063 60.43166 55.88615
# Shear Modulus (GPa) = 32.56185 36.79472 34.67828
#
# Velocity S-wave (km/s) = 3.89587 4.14136 4.02049
# Velocity P-wave (km/s) = 6.64591 7.14398 6.89944
#
# Compressibility (1/GPa) = 0.01947775
#
# Stress axis : x y z
#
# Youngs Moduli (GPa) = 102.92572 56.99536 127.18463
#
# Poissons Ratio (x) = 0.22968 0.17884
# Poissons Ratio (y) = 0.41476 0.30359
# Poissons Ratio (z) = 0.14473 0.13605
#
# Static dielectric constant tensor:
#      x y z
#    x 3.854460 0.000000 -0.112820 
#    y 0.000000 3.793340 0.000000 
#    z -0.112820 0.000000 3.970520 
# 
# 
# High freq. dielectric constant tensor:
#      x y z
#    x 1.850900 0.000000 0.002540 
#    y 0.000000 1.832250 0.000000 
#    z 0.002540 0.000000 1.857400 
# 
# From -- ./inp_files/11962.got.cif
#   From: 2010.06.25/outbox.cif.g09.slc.cpg/sg10_6_cif.got.tgz:11962.got - 2010.06.27 22:07:45.
