data_PCOD8066689
_publ_section_title
;
Structure prediction by ZEFSAII (Michael W. Deem and Ramdas Pophale) SiO2 
 PCOD8066689
Probable space group: P 2/M
;
_chemical_formula_sum "Si O2"
_cell_formula_units_Z 28
_cell_length_a 15.158867
_cell_length_b 9.222595
_cell_length_c 20.642144
_cell_angle_alpha 90.000000
_cell_angle_beta 151.355325
_cell_angle_gamma 90.000000
_cell_volume 1383.411052
_symmetry_space_group_name_H-M "P 2/M"
_symmetry_group_IT_number 10
_symmetry_cell_setting 'monoclinic'
loop_
_space_group_symop_operation_xyz
x,y,z
-x,y,-z
-x,-y,-z
x,-y,z
loop_
_atom_site_type_symbol
_atom_site_label
_atom_site_fract_x
_atom_site_fract_y
_atom_site_fract_z
Si Si1 0.303293 0.670451 0.896427
Si Si2 0.668439 0.671403 0.565088
Si Si3 0.490530 0.329618 0.673587
Si Si4 0.865872 0.838728 0.320350
Si Si5 0.827770 0.837604 0.934558
Si Si6 0.071962 0.327427 0.870217
Si Si7 0.273127 0.837680 0.634424
O O1 0.313657 0.500000 0.899130
O O2 0.152540 0.723088 0.748179
O O3 0.229412 0.717423 0.919484
O O4 0.500000 0.737948 0.000000
O O5 0.500000 0.734886 0.500000
O O6 0.669643 0.500000 0.572512
O O7 0.631805 0.717712 0.467098
O O8 0.869061 0.729373 0.716921
O O9 0.529150 0.500000 0.698364
O O10 0.682113 0.245632 0.795700
O O11 0.392746 0.284535 0.677096
O O12 0.722063 0.805465 0.285730
O O13 0.067914 0.825153 0.477605
O O14 0.829132 0.000000 0.269403
O O15 0.760528 0.000000 0.909992
O O16 0.871551 0.749012 0.027425
O O17 0.000000 0.848907 0.000000
O O18 0.068279 0.500000 0.878189
O O19 0.349232 0.000000 0.669260
#
# Coordination Sequence:
#
# PCOD8066689 Si02
#       7
#     4   4   4   4   4   4   4
#     4  10  22  37  54  81 119 155 196 249 294 341
#     4   9  18  34  58  87 115 145 189 244 298 356
#     4  11  22  36  61  91 117 151 196 241 297 360
#     4   9  19  36  57  80 112 155 197 235 285 346
#     4  11  25  43  61  86 122 160 199 247 300 355
#     4  10  21  39  62  87 120 159 198 246 302 358
#     4   9  19  36  56  82 116 150 188 240 291 341
#
# _framework density 20.239829
#
# number of rings (size 3 to 8) (size 9 to 14) (size 15 to 20)
#    0.000    2.143    0.000    3.429    2.000    5.429 
#    0.000    2.857    0.000    3.857    0.000    0.000 
#    0.000    0.000    0.000    0.000    0.000    0.000 
#
# Total GULP energy -347093.992903 kJ/mol
# GULP energy per Si atom -12396.214032 kJ/mol
# Density = 2.019376 g / cm^3
# Si number density = 20.239829 Si / 1000 Ang^3
#
#
#
# Elastic Constant Matrix: (Units=GPa)
#
#
# Indices 1 2 3 4 5 6 
#
# 1 96.4401 33.9745 25.6041 0.0000 2.4966 0.0000
# 2 33.9745 37.6549 29.3137 0.0000 -0.2886 0.0000
# 3 25.6041 29.3137 74.6031 0.0000 -4.7356 0.0000
# 4 0.0000 0.0000 0.0000 37.5625 0.0000 -10.3978
# 5 2.4966 -0.2886 -4.7356 0.0000 36.6014 0.0000
# 6 0.0000 0.0000 0.0000 -10.3978 0.0000 34.6948
#
#
#
# Elastic Compliance Matrix: (Units=1/GPa)
#
#
# Indices 1 2 3 4 5 6 
#
# 1 0.015250 -0.013885 0.000150 0.000000 -0.001130 0.000000
# 2 -0.013885 0.051003 -0.015315 0.000000 -0.000632 0.000000
# 3 0.000150 -0.015315 0.019522 0.000000 0.002395 0.000000
# 4 0.000000 0.000000 0.000000 0.029031 0.000000 0.008700
# 5 -0.001130 -0.000632 0.002395 0.000000 0.027703 0.000000
# 6 0.000000 0.000000 0.000000 0.008700 0.000000 0.031430
#
#
# Mechanical properties :
#
#
# Convention : Reuss Voigt Hill
#
# Bulk Modulus (GPa) = 36.13345 42.94253 39.53799
# Shear Modulus (GPa) = 20.72416 29.75880 25.24148
#
# Velocity S-wave (km/s) = 3.20336 3.83862 3.53529
# Velocity P-wave (km/s) = 5.61902 6.39606 6.02009
#
# Compressibility (1/GPa) = 0.02767519
#
# Stress axis : x y z
#
# Youngs Moduli (GPa) = 65.57367 19.60682 51.22304
#
# Poissons Ratio (x) = 0.27224 -0.00770
# Poissons Ratio (y) = 0.91050 0.78449
# Poissons Ratio (z) = -0.00985 0.30028
#
# Static dielectric constant tensor:
#      x y z
#    x 4.946090 0.000000 0.767870 
#    y 0.000000 3.529250 0.000000 
#    z 0.767870 0.000000 4.184000 
# 
# 
# High freq. dielectric constant tensor:
#      x y z
#    x 1.802950 0.000000 0.003630 
#    y 0.000000 1.769320 0.000000 
#    z 0.003630 0.000000 1.794930 
# 
# From -- ./inp_files/84899.got.cif
#   From: 2010.06.25/outbox.cif.g09.slc.cpg/sg10_43_cif.got.tgz:84899.got - 2010.06.27 22:07:45.
