data_PCOD8066652
_publ_section_title
;
Structure prediction by ZEFSAII (Michael W. Deem and Ramdas Pophale) SiO2 
 PCOD8066652
Probable space group: P 2/M
;
_chemical_formula_sum "Si O2"
_cell_formula_units_Z 28
_cell_length_a 15.870235
_cell_length_b 14.129459
_cell_length_c 8.424223
_cell_angle_alpha 90.000000
_cell_angle_beta 47.841752
_cell_angle_gamma 90.000000
_cell_volume 1400.326043
_symmetry_space_group_name_H-M "P 2/M"
_symmetry_group_IT_number 10
_symmetry_cell_setting 'monoclinic'
loop_
_space_group_symop_operation_xyz
x,y,z
-x,y,-z
-x,-y,-z
x,-y,z
loop_
_atom_site_type_symbol
_atom_site_label
_atom_site_fract_x
_atom_site_fract_y
_atom_site_fract_z
Si Si1 0.562169 0.894880 0.769237
Si Si2 0.231353 0.782951 0.025251
Si Si3 0.793607 0.895470 0.632240
Si Si4 0.605369 0.241035 0.449932
Si Si5 0.385524 0.606827 0.334212
Si Si6 0.346541 0.608087 0.026560
Si Si7 0.017682 0.111780 0.163856
O O1 0.697436 0.896454 0.620181
O O2 0.539977 0.836157 0.639911
O O3 0.511310 0.000000 0.810164
O O4 0.500000 0.847447 0.000000
O O5 0.254160 0.836379 0.160076
O O6 0.260967 0.672752 0.028799
O O7 0.106995 0.812686 0.121663
O O8 0.312653 0.812266 0.777027
O O9 0.906296 0.858181 0.403494
O O10 0.817464 0.000000 0.668810
O O11 0.500000 0.294721 0.500000
O O12 0.672602 0.319464 0.469585
O O13 0.362160 0.500000 0.419510
O O14 0.326409 0.625011 0.239574
O O15 0.520156 0.628760 0.167328
O O16 0.317837 0.500000 0.017049
O O17 0.049636 0.000000 0.149941
O O18 0.000000 0.130779 0.000000
#
# Coordination Sequence:
#
# PCOD8066652 Si02
#       7
#     4   4   4   4   4   4   4
#     4  10  22  38  55  77 115 161 194 228 284 352
#     4  12  22  34  57  90 117 147 192 245 298 345
#     4  10  21  39  61  83 110 151 198 243 289 340
#     4  12  23  32  51  84 120 153 187 235 288 348
#     4   9  19  37  58  81 115 157 196 238 290 345
#     4   9  19  36  59  84 113 153 196 238 289 353
#     4  10  22  41  63  86 113 149 200 254 293 333
#
# _framework density 19.995342999999998
#
# number of rings (size 3 to 8) (size 9 to 14) (size 15 to 20)
#    0.000    1.714    1.429    4.286    2.000    4.571 
#    0.000    0.000    0.000    2.143    0.000    0.000 
#    0.000    0.000    0.000    0.000    0.000    0.000 
#
# Total GULP energy -346941.034790 kJ/mol
# GULP energy per Si atom -12390.751243 kJ/mol
# Density = 1.994983 g / cm^3
# Si number density = 19.995343 Si / 1000 Ang^3
#
#
#
# Elastic Constant Matrix: (Units=GPa)
#
#
# Indices 1 2 3 4 5 6 
#
# 1 76.7756 39.1147 18.2982 0.0000 2.3988 0.0000
# 2 39.1147 92.3371 40.5279 0.0000 12.4728 0.0000
# 3 18.2982 40.5279 121.7763 0.0000 16.4624 0.0000
# 4 0.0000 0.0000 0.0000 5.8798 0.0000 -2.6007
# 5 2.3988 12.4728 16.4624 0.0000 35.4403 0.0000
# 6 0.0000 0.0000 0.0000 -2.6007 0.0000 37.3646
#
#
#
# Elastic Compliance Matrix: (Units=1/GPa)
#
#
# Indices 1 2 3 4 5 6 
#
# 1 0.016690 -0.007127 -0.000344 0.000000 0.001538 0.000000
# 2 -0.007127 0.015967 -0.003786 0.000000 -0.003378 0.000000
# 3 -0.000344 -0.003786 0.009966 0.000000 -0.003274 0.000000
# 4 0.000000 0.000000 0.000000 0.175477 0.000000 0.012214
# 5 0.001538 -0.003378 -0.003274 0.000000 0.030822 0.000000
# 6 0.000000 0.000000 0.000000 0.012214 0.000000 0.027613
#
#
# Mechanical properties :
#
#
# Convention : Reuss Voigt Hill
#
# Bulk Modulus (GPa) = 49.72949 54.08561 51.90755
# Shear Modulus (GPa) = 16.35313 28.60014 22.47663
#
# Velocity S-wave (km/s) = 2.86290 3.78609 3.35639
# Velocity P-wave (km/s) = 5.98772 6.79856 6.40598
#
# Compressibility (1/GPa) = 0.02010879
#
# Stress axis : x y z
#
# Youngs Moduli (GPa) = 59.91705 62.62900 100.33996
#
# Poissons Ratio (x) = 0.44634 0.03451
# Poissons Ratio (y) = 0.42701 0.37992
# Poissons Ratio (z) = 0.02061 0.23714
#
# Static dielectric constant tensor:
#      x y z
#    x 3.543880 0.000000 0.229450 
#    y 0.000000 3.644940 0.000000 
#    z 0.229450 0.000000 3.641210 
# 
# 
# High freq. dielectric constant tensor:
#      x y z
#    x 1.769450 0.000000 0.026390 
#    y 0.000000 1.771050 0.000000 
#    z 0.026390 0.000000 1.774980 
# 
# From -- ./inp_files/29407.got.cif
#   From: 2010.06.25/outbox.cif.g09.slc.cpg/sg10_15_cif.got.tgz:29407.got - 2010.06.27 22:07:45.
