data_PCOD8066970
_publ_section_title
;
Structure prediction by ZEFSAII (Michael W. Deem and Ramdas Pophale) SiO2 
 PCOD8066970
Probable space group: P 2/M
;
_chemical_formula_sum "Si O2"
_cell_formula_units_Z 16
_cell_length_a 19.423419
_cell_length_b 7.951008
_cell_length_c 5.124864
_cell_angle_alpha 90.000000
_cell_angle_beta 58.617135
_cell_angle_gamma 90.000000
_cell_volume 675.676539
_symmetry_space_group_name_H-M "P 2/M"
_symmetry_group_IT_number 10
_symmetry_cell_setting 'monoclinic'
loop_
_space_group_symop_operation_xyz
x,y,z
-x,y,-z
-x,-y,-z
x,-y,z
loop_
_atom_site_type_symbol
_atom_site_label
_atom_site_fract_x
_atom_site_fract_y
_atom_site_fract_z
Si Si1 0.094656 0.179711 0.764297
Si Si2 0.238159 0.806843 0.826823
Si Si3 0.325093 0.691428 0.144173
Si Si4 0.555355 0.000000 0.140982
Si Si5 0.944143 0.500000 0.365888
O O1 0.143153 0.209848 0.938890
O O2 0.111806 0.333070 0.530806
O O3 0.124131 0.000000 0.582731
O O4 0.000000 0.168002 0.000000
O O5 0.253986 0.718330 0.071890
O O6 0.266204 0.000000 0.786087
O O7 0.289544 0.715800 0.501412
O O8 0.358733 0.500000 0.055296
O O9 0.393827 0.827950 0.953111
O O10 0.500000 0.000000 0.500000
O O11 0.500000 0.000000 0.000000
O O12 0.000000 0.500000 0.500000
O O13 0.000000 0.500000 0.000000
#
# Coordination Sequence:
#
# PCOD8066970 Si02
#       5
#     4   4   4   2   2
#     4   9  21  40  63  93 130 180 236 290 338 391
#     4  11  22  44  70  97 142 189 234 287 347 401
#     4  12  26  45  72 107 141 182 227 276 341 415
#     4  12  26  48  78 106 143 176 217 276 340 412
#     4  10  22  38  56  84 122 162 216 282 338 386
#
# _framework density 23.679970000000001
#
# number of rings (size 3 to 8) (size 9 to 14) (size 15 to 20)
#    0.000    1.250    2.500    2.250    3.500    5.500 
#    0.000    7.500    0.000    0.000    0.000    0.000 
#    0.000    0.000    0.000    0.000    0.000    0.000 
#
# Total GULP energy -198294.666007 kJ/mol
# GULP energy per Si atom -12393.416625 kJ/mol
# Density = 2.362607 g / cm^3
# Si number density = 23.679970 Si / 1000 Ang^3
#
#
#
# Elastic Constant Matrix: (Units=GPa)
#
#
# Indices 1 2 3 4 5 6 
#
# 1 123.3324 53.3177 20.2643 0.0000 10.9311 0.0000
# 2 53.3177 227.9555 5.1476 0.0000 8.8431 0.0000
# 3 20.2643 5.1476 64.3920 0.0000 3.0224 0.0000
# 4 0.0000 0.0000 0.0000 14.7330 0.0000 6.3895
# 5 10.9311 8.8431 3.0224 0.0000 46.4670 0.0000
# 6 0.0000 0.0000 0.0000 6.3895 0.0000 29.0789
#
#
#
# Elastic Compliance Matrix: (Units=1/GPa)
#
#
# Indices 1 2 3 4 5 6 
#
# 1 0.009633 -0.002125 -0.002783 0.000000 -0.001681 0.000000
# 2 -0.002125 0.004895 0.000299 0.000000 -0.000451 0.000000
# 3 -0.002783 0.000299 0.016404 0.000000 -0.000469 0.000000
# 4 0.000000 0.000000 0.000000 0.075024 0.000000 -0.016485
# 5 -0.001681 -0.000451 -0.000469 0.000000 0.022032 0.000000
# 6 0.000000 0.000000 0.000000 -0.016485 0.000000 0.038011
#
#
# Mechanical properties :
#
#
# Convention : Reuss Voigt Hill
#
# Bulk Modulus (GPa) = 46.05529 63.68211 54.86870
# Shear Modulus (GPa) = 27.40396 40.51916 33.96156
#
# Velocity S-wave (km/s) = 3.40555 4.14105 3.79118
# Velocity P-wave (km/s) = 5.91227 7.05802 6.51040
#
# Compressibility (1/GPa) = 0.02171303
#
# Stress axis : x y z
#
# Youngs Moduli (GPa) = 103.80926 204.30599 60.96164
#
# Poissons Ratio (x) = 0.43417 0.16964
# Poissons Ratio (y) = 0.22060 -0.01821
# Poissons Ratio (z) = 0.28888 -0.06102
#
# Static dielectric constant tensor:
#      x y z
#    x 4.461420 0.000000 0.116930 
#    y 0.000000 5.555310 0.000000 
#    z 0.116930 0.000000 3.814610 
# 
# 
# High freq. dielectric constant tensor:
#      x y z
#    x 1.943660 0.000000 0.012410 
#    y 0.000000 1.967510 0.000000 
#    z 0.012410 0.000000 1.912930 
# 
# From -- ./inp_files/10499.got.cif
#   From: 2010.06.25/outbox.cif.g09.slc.cpg/sg10_6_cif.got.tgz:10499.got - 2010.06.27 22:07:45.
