data_PCOD8066735
_publ_section_title
;
Structure prediction by ZEFSAII (Michael W. Deem and Ramdas Pophale) SiO2 
 PCOD8066735
Probable space group: P 2/M
;
_chemical_formula_sum "Si O2"
_cell_formula_units_Z 28
_cell_length_a 9.593179
_cell_length_b 13.675527
_cell_length_c 23.745742
_cell_angle_alpha 90.000000
_cell_angle_beta 153.889008
_cell_angle_gamma 90.000000
_cell_volume 1371.055474
_symmetry_space_group_name_H-M "P 2/M"
_symmetry_group_IT_number 10
_symmetry_cell_setting 'monoclinic'
loop_
_space_group_symop_operation_xyz
x,y,z
-x,y,-z
-x,-y,-z
x,-y,z
loop_
_atom_site_type_symbol
_atom_site_label
_atom_site_fract_x
_atom_site_fract_y
_atom_site_fract_z
Si Si1 0.699162 0.291254 0.929572
Si Si2 0.923740 0.389931 0.316395
Si Si3 0.171525 0.774319 0.900198
Si Si4 0.147765 0.389116 0.277252
Si Si5 0.438467 0.111685 0.309127
Si Si6 0.790695 0.704493 0.475862
Si Si7 0.632348 0.894495 0.849159
O O1 0.441974 0.377855 0.836276
O O2 0.493885 0.197169 0.832866
O O3 0.839820 0.265926 0.040927
O O4 0.000000 0.319484 0.000000
O O5 0.961709 0.500000 0.354468
O O6 0.161307 0.377062 0.349752
O O7 0.011343 0.309789 0.395204
O O8 0.129881 0.680269 0.845356
O O9 0.904766 0.855841 0.792699
O O10 0.500000 0.823778 0.000000
O O11 0.067762 0.500000 0.231428
O O12 0.473889 0.359297 0.365515
O O13 0.705977 0.181028 0.434167
O O14 0.432678 0.123128 0.239983
O O15 0.507917 0.000000 0.352594
O O16 0.000000 0.664708 0.500000
O O17 0.485535 0.000000 0.813667
O O18 0.000000 0.894498 0.000000
#
# Coordination Sequence:
#
# PCOD8066735 Si02
#       7
#     4   4   4   4   4   4   4
#     4  11  21  37  61  93 129 159 199 255 307 361
#     4  11  24  42  63  87 121 168 211 248 305 372
#     4  11  21  37  61  94 128 164 199 252 308 365
#     4  10  23  42  63  86 120 169 212 249 304 374
#     4  10  21  39  63  92 125 161 201 248 307 369
#     4  11  24  41  64  91 120 155 208 266 308 352
#     4   9  16  31  58  86 116 156 195 233 290 366
#
# _framework density 20.422222000000001
#
# number of rings (size 3 to 8) (size 9 to 14) (size 15 to 20)
#    0.000    1.571    4.286    1.714    2.000    4.000 
#    0.000    0.714    0.000    6.857    0.000    0.000 
#    0.000    0.000    0.000    0.000    0.000    0.000 
#
# Total GULP energy -347060.614956 kJ/mol
# GULP energy per Si atom -12395.021963 kJ/mol
# Density = 2.037574 g / cm^3
# Si number density = 20.422222 Si / 1000 Ang^3
#
#
#
# Elastic Constant Matrix: (Units=GPa)
#
#
# Indices 1 2 3 4 5 6 
#
# 1 102.0758 34.0759 29.4492 0.0000 -0.0387 0.0000
# 2 34.0759 116.8788 43.1463 0.0000 -21.0377 0.0000
# 3 29.4492 43.1463 69.0647 0.0000 -3.8326 0.0000
# 4 0.0000 0.0000 0.0000 -41.5332 0.0000 8.4852
# 5 -0.0387 -21.0377 -3.8326 0.0000 31.2563 0.0000
# 6 0.0000 0.0000 0.0000 8.4852 0.0000 21.3998
#
#
#
# Elastic Compliance Matrix: (Units=1/GPa)
#
#
# Indices 1 2 3 4 5 6 
#
# 1 0.011639 -0.002459 -0.003541 0.000000 -0.002075 0.000000
# 2 -0.002459 0.013222 -0.006764 0.000000 0.008067 0.000000
# 3 -0.003541 -0.006764 0.020098 0.000000 -0.002092 0.000000
# 4 0.000000 0.000000 0.000000 -0.022273 0.000000 0.008831
# 5 -0.002075 0.008067 -0.002092 0.000000 0.037164 0.000000
# 6 0.000000 0.000000 0.000000 0.008831 0.000000 0.043228
#
#
# Mechanical properties :
#
#
# Convention : Reuss Voigt Hill
#
# Bulk Modulus (GPa) = 51.46674 55.70688 53.58681
# Shear Modulus (GPa) = 37.01434 14.31445 25.66440
#
# Velocity S-wave (km/s) = 4.26191 2.65037 3.54883
# Velocity P-wave (km/s) = 7.03382 6.05828 6.56420
#
# Compressibility (1/GPa) = 0.01943002
#
# Stress axis : x y z
#
# Youngs Moduli (GPa) = 85.92109 75.63336 49.75505
#
# Poissons Ratio (x) = 0.18601 0.17620
# Poissons Ratio (y) = 0.21132 0.33652
# Poissons Ratio (z) = 0.30428 0.51155
#
# Static dielectric constant tensor:
#      x y z
#    x 3.655080 0.000000 -0.041710 
#    y 0.000000 3.972210 0.000000 
#    z -0.041710 0.000000 3.636740 
# 
# 
# High freq. dielectric constant tensor:
#      x y z
#    x 1.790420 0.000000 -0.002660 
#    y 0.000000 1.795790 0.000000 
#    z -0.002660 0.000000 1.796580 
# 
# From -- ./inp_files/29609.got.cif
#   From: 2010.06.25/outbox.cif.g09.slc.cpg/sg10_15_cif.got.tgz:29609.got - 2010.06.27 22:07:45.
