data_PCOD8066559
_publ_section_title
;
Structure prediction by ZEFSAII (Michael W. Deem and Ramdas Pophale) SiO2 
 PCOD8066559
Probable space group: P 2/M
;
_chemical_formula_sum "Si O2"
_cell_formula_units_Z 28
_cell_length_a 9.292729
_cell_length_b 8.099925
_cell_length_c 25.328152
_cell_angle_alpha 90.000000
_cell_angle_beta 43.888139
_cell_angle_gamma 90.000000
_cell_volume 1321.658678
_symmetry_space_group_name_H-M "P 2/M"
_symmetry_group_IT_number 10
_symmetry_cell_setting 'monoclinic'
loop_
_space_group_symop_operation_xyz
x,y,z
-x,y,-z
-x,-y,-z
x,-y,z
loop_
_atom_site_type_symbol
_atom_site_label
_atom_site_fract_x
_atom_site_fract_y
_atom_site_fract_z
Si Si1 0.440132 0.314401 0.267168
Si Si2 0.789426 0.178326 0.314018
Si Si3 0.694611 0.691531 0.915329
Si Si4 0.164004 0.500000 0.559281
Si Si5 0.935219 0.811801 0.577443
Si Si6 0.882253 0.179796 0.169063
Si Si7 0.241723 0.812222 0.217878
Si Si8 0.583807 0.500000 0.399812
O O1 0.412033 0.500000 0.294744
O O2 0.311904 0.201311 0.343538
O O3 0.683508 0.274377 0.199434
O O4 0.359407 0.301355 0.228603
O O5 0.860817 0.153113 0.236318
O O6 0.630600 0.330142 0.356985
O O7 0.996682 0.221842 0.292030
O O8 0.694240 0.000000 0.358900
O O9 0.673627 0.500000 0.909068
O O10 0.690705 0.779702 0.859873
O O11 0.901581 0.722881 0.895802
O O12 0.500000 0.759178 0.000000
O O13 0.337713 0.500000 0.468443
O O14 0.284892 0.500000 0.581883
O O15 0.035740 0.670206 0.587857
O O16 0.000000 0.774638 0.500000
O O17 0.006805 0.000000 0.572768
O O18 0.897168 0.000000 0.137444
O O19 0.295800 0.000000 0.217687
#
# Coordination Sequence:
#
# PCOD8066559 Si02
#       8
#     4   4   4   2   4   4   4   2
#     4  12  24  38  64  93 123 158 203 263 313 366
#     4   9  21  37  59  87 115 154 205 255 305 365
#     4  10  21  39  64  94 128 164 203 247 300 366
#     4  11  25  42  54  88 117 152 203 251 314 377
#     4  11  25  43  63  85 119 164 208 256 314 378
#     4  10  22  38  59  91 122 156 203 251 302 360
#     4  10  21  38  61  91 124 162 207 251 304 369
#     4  11  24  36  62  82 115 157 197 256 312 371
#
# _framework density 21.185500000000001
#
# number of rings (size 3 to 8) (size 9 to 14) (size 15 to 20)
#    0.000    1.571    0.714    4.500    8.000    3.429 
#    0.000    2.143    0.000    4.286    0.000    0.000 
#    0.000    0.000    0.000    0.000    0.000    0.000 
#
# Total GULP energy -347008.493504 kJ/mol
# GULP energy per Si atom -12393.160482 kJ/mol
# Density = 2.113728 g / cm^3
# Si number density = 21.185500 Si / 1000 Ang^3
#
#
#
# Elastic Constant Matrix: (Units=GPa)
#
#
# Indices 1 2 3 4 5 6 
#
# 1 65.2084 12.7409 10.9119 0.0000 -14.7470 0.0000
# 2 12.7409 117.7904 22.6658 0.0000 -9.5494 0.0000
# 3 10.9119 22.6658 93.7376 0.0000 -13.0427 0.0000
# 4 0.0000 0.0000 0.0000 13.8649 0.0000 0.1552
# 5 -14.7470 -9.5494 -13.0427 0.0000 29.2291 0.0000
# 6 0.0000 0.0000 0.0000 0.1552 0.0000 25.6774
#
#
#
# Elastic Compliance Matrix: (Units=1/GPa)
#
#
# Indices 1 2 3 4 5 6 
#
# 1 0.017510 -0.001109 -0.000631 0.000000 0.008191 0.000000
# 2 -0.001109 0.009094 -0.001849 0.000000 0.001587 0.000000
# 3 -0.000631 -0.001849 0.011792 0.000000 0.004340 0.000000
# 4 0.000000 0.000000 0.000000 0.072130 0.000000 -0.000436
# 5 0.008191 0.001587 0.004340 0.000000 0.040800 0.000000
# 6 0.000000 0.000000 0.000000 -0.000436 0.000000 0.038947
#
#
# Mechanical properties :
#
#
# Convention : Reuss Voigt Hill
#
# Bulk Modulus (GPa) = 32.03100 41.04152 36.53626
# Shear Modulus (GPa) = 24.05506 29.11545 26.58525
#
# Velocity S-wave (km/s) = 3.37330 3.71119 3.54627
# Velocity P-wave (km/s) = 5.50675 6.14642 5.83536
#
# Compressibility (1/GPa) = 0.03121976
#
# Stress axis : x y z
#
# Youngs Moduli (GPa) = 57.11043 109.96235 84.80013
#
# Poissons Ratio (x) = 0.12190 0.05347
# Poissons Ratio (y) = 0.06331 0.15681
# Poissons Ratio (z) = 0.03601 0.20333
#
# Static dielectric constant tensor:
#      x y z
#    x 3.782420 0.000000 -0.302740 
#    y 0.000000 3.851870 0.000000 
#    z -0.302740 0.000000 3.881330 
# 
# 
# High freq. dielectric constant tensor:
#      x y z
#    x 1.820680 0.000000 -0.011000 
#    y 0.000000 1.848790 0.000000 
#    z -0.011000 0.000000 1.811790 
# 
# From -- ./inp_files/92005.got.cif
#   From: 2010.06.25/outbox.cif.g09.slc.cpg/sg10_47_cif.got.tgz:92005.got - 2010.06.27 22:07:45.
