data_PCOD8066302
_publ_section_title
;
Structure prediction by ZEFSAII (Michael W. Deem and Ramdas Pophale) SiO2 
 PCOD8066302
Probable space group: P 2/M
;
_chemical_formula_sum "Si O2"
_cell_formula_units_Z 32
_cell_length_a 29.002409
_cell_length_b 9.377684
_cell_length_c 5.349553
_cell_angle_alpha 90.000000
_cell_angle_beta 102.169910
_cell_angle_gamma 90.000000
_cell_volume 1422.249560
_symmetry_space_group_name_H-M "P 2/M"
_symmetry_group_IT_number 10
_symmetry_cell_setting 'monoclinic'
loop_
_space_group_symop_operation_xyz
x,y,z
-x,y,-z
-x,-y,-z
x,-y,z
loop_
_atom_site_type_symbol
_atom_site_label
_atom_site_fract_x
_atom_site_fract_y
_atom_site_fract_z
Si Si1 0.681263 0.166064 0.965319
Si Si2 0.028405 0.334390 0.284887
Si Si3 0.527786 0.332542 0.282031
Si Si4 0.755127 0.343529 0.805199
Si Si5 0.851073 0.344391 0.164917
Si Si6 0.624485 0.165812 0.398116
Si Si7 0.102125 0.843558 0.127608
Si Si8 0.198054 0.155596 0.487164
O O1 0.728398 0.263513 0.002989
O O2 0.651311 0.205791 0.683992
O O3 0.695165 0.000000 0.980351
O O4 0.654357 0.208741 0.187200
O O5 0.042693 0.500000 0.309012
O O6 0.075430 0.236232 0.326138
O O7 0.000000 0.290002 0.500000
O O8 0.000000 0.297128 0.000000
O O9 0.500000 0.285423 0.500000
O O10 0.537605 0.500000 0.295161
O O11 0.577075 0.254016 0.336408
O O12 0.500000 0.286820 0.000000
O O13 0.732064 0.500000 0.723979
O O14 0.810317 0.370276 0.915015
O O15 0.755226 0.235673 0.567155
O O16 0.867981 0.500000 0.284747
O O17 0.897817 0.264639 0.110086
O O18 0.826575 0.249797 0.338885
O O19 0.611465 0.000000 0.376351
O O20 0.157338 0.870263 0.237054
O O21 0.079090 0.000000 0.046159
O O22 0.215016 0.000000 0.606930
#
# Coordination Sequence:
#
# PCOD8066302 Si02
#       8
#     4   4   4   4   4   4   4   4
#     4  10  22  39  58  84 119 159 199 246 297 355
#     4  10  23  42  63  90 122 160 201 243 299 363
#     4  10  21  37  59  87 118 151 192 243 300 357
#     4  10  22  38  56  84 115 153 203 249 296 354
#     4  10  21  37  59  86 117 152 197 249 298 355
#     4  10  22  39  59  86 118 155 201 244 296 358
#     4  10  22  39  59  87 118 153 197 245 301 357
#     4  10  21  37  59  86 117 153 195 245 301 356
#
# _framework density 22.499569000000001
#
# number of rings (size 3 to 8) (size 9 to 14) (size 15 to 20)
#    0.000    2.000    0.000    2.250    3.500    5.000 
#    0.000    0.000    0.000    0.000    0.000    0.000 
#    0.000    0.000    0.000    0.000    0.000    0.000 
#
# Total GULP energy -396582.069339 kJ/mol
# GULP energy per Si atom -12393.189667 kJ/mol
# Density = 2.244836 g / cm^3
# Si number density = 22.499569 Si / 1000 Ang^3
#
#
#
# Elastic Constant Matrix: (Units=GPa)
#
#
# Indices 1 2 3 4 5 6 
#
# 1 95.3032 40.2733 30.3977 0.0000 -27.9085 0.0000
# 2 40.2733 157.2061 30.2958 0.0000 -40.3474 0.0000
# 3 30.3977 30.2958 113.1799 0.0000 -32.7419 0.0000
# 4 0.0000 0.0000 0.0000 23.3022 0.0000 -9.9620
# 5 -27.9085 -40.3474 -32.7419 0.0000 45.7321 0.0000
# 6 0.0000 0.0000 0.0000 -9.9620 0.0000 37.9550
#
#
#
# Elastic Compliance Matrix: (Units=1/GPa)
#
#
# Indices 1 2 3 4 5 6 
#
# 1 0.013317 -0.001696 -0.001519 0.000000 0.005543 0.000000
# 2 -0.001696 0.008441 0.000064 0.000000 0.006458 0.000000
# 3 -0.001519 0.000064 0.011319 0.000000 0.007233 0.000000
# 4 0.000000 0.000000 0.000000 0.048338 0.000000 0.012687
# 5 0.005543 0.006458 0.007233 0.000000 0.036125 0.000000
# 6 0.000000 0.000000 0.000000 0.012687 0.000000 0.029677
#
#
# Mechanical properties :
#
#
# Convention : Reuss Voigt Hill
#
# Bulk Modulus (GPa) = 37.34901 63.06923 50.20912
# Shear Modulus (GPa) = 30.77973 39.04601 34.91287
#
# Velocity S-wave (km/s) = 3.70268 4.17035 3.94345
# Velocity P-wave (km/s) = 5.90895 7.16109 6.56494
#
# Compressibility (1/GPa) = 0.02677447
#
# Stress axis : x y z
#
# Youngs Moduli (GPa) = 75.08993 118.47486 88.34824
#
# Poissons Ratio (x) = 0.20097 0.13422
# Poissons Ratio (y) = 0.12738 -0.00569
# Poissons Ratio (z) = 0.11408 -0.00763
#
# Static dielectric constant tensor:
#      x y z
#    x 4.172990 0.000000 0.032870 
#    y 0.000000 4.641970 0.000000 
#    z 0.032870 0.000000 4.265290 
# 
# 
# High freq. dielectric constant tensor:
#      x y z
#    x 1.874790 0.000000 -0.014980 
#    y 0.000000 1.897940 0.000000 
#    z -0.014980 0.000000 1.886070 
# 
# From -- ./inp_files/13643.got.cif
#   From: 2010.06.25/outbox.cif.g09.slc.cpg/sg10_7_cif.got.tgz:13643.got - 2010.06.27 22:07:45.
