data_PCOD8066749
_publ_section_title
;
Structure prediction by ZEFSAII (Michael W. Deem and Ramdas Pophale) SiO2 
 PCOD8066749
Probable space group: P 2/M
;
_chemical_formula_sum "Si O2"
_cell_formula_units_Z 28
_cell_length_a 29.002273
_cell_length_b 8.760009
_cell_length_c 9.758797
_cell_angle_alpha 90.000000
_cell_angle_beta 33.153840
_cell_angle_gamma 90.000000
_cell_volume 1355.913519
_symmetry_space_group_name_H-M "P 2/M"
_symmetry_group_IT_number 10
_symmetry_cell_setting 'monoclinic'
loop_
_space_group_symop_operation_xyz
x,y,z
-x,y,-z
-x,-y,-z
x,-y,z
loop_
_atom_site_type_symbol
_atom_site_label
_atom_site_fract_x
_atom_site_fract_y
_atom_site_fract_z
Si Si1 0.610075 0.825975 0.468480
Si Si2 0.126483 0.179594 0.554558
Si Si3 0.679739 0.822339 0.585165
Si Si4 0.565888 0.677472 0.082262
Si Si5 0.686530 0.175254 0.991443
Si Si6 0.985994 0.819281 0.689760
Si Si7 0.144937 0.679573 0.791230
O O1 0.664202 0.781181 0.466275
O O2 0.530867 0.715937 0.647069
O O3 0.577050 0.000000 0.561023
O O4 0.673863 0.804625 0.184459
O O5 0.219657 0.229488 0.277155
O O6 0.102006 0.259513 0.758405
O O7 0.063623 0.234517 0.591523
O O8 0.119192 0.000000 0.595638
O O9 0.757685 0.727657 0.449822
O O10 0.698925 0.000000 0.559799
O O11 0.596757 0.774466 0.875236
O O12 0.574849 0.500000 0.026621
O O13 0.620074 0.718120 0.080664
O O14 0.671990 0.000000 0.981905
O O15 0.000000 0.759164 0.500000
O O16 0.975780 0.000000 0.714946
O O17 0.900456 0.748671 0.962637
O O18 0.136956 0.500000 0.815041
#
# Coordination Sequence:
#
# PCOD8066749 Si02
#       7
#     4   4   4   4   4   4   4
#     4  10  23  40  63  91 121 161 210 260 312 363
#     4  10  21  40  67  94 122 163 210 254 301 358
#     4  11  23  41  66  91 120 161 212 262 307 362
#     4  12  24  39  60  90 127 165 206 252 310 372
#     4  10  21  39  64  91 121 161 209 258 304 361
#     4  10  23  42  69  99 127 160 204 253 303 362
#     4  12  25  41  63  93 129 167 205 249 308 368
#
# _framework density 20.650283999999999
#
# number of rings (size 3 to 8) (size 9 to 14) (size 15 to 20)
#    0.000    1.286    1.429    4.286    2.000    7.714 
#    0.000    0.000    0.000    0.000    0.000    0.000 
#    0.000    0.000    0.000    0.000    0.000    0.000 
#
# Total GULP energy -347397.588434 kJ/mol
# GULP energy per Si atom -12407.056730 kJ/mol
# Density = 2.060328 g / cm^3
# Si number density = 20.650284 Si / 1000 Ang^3
#
#
#
# Elastic Constant Matrix: (Units=GPa)
#
#
# Indices 1 2 3 4 5 6 
#
# 1 91.7449 29.4358 25.5389 0.0000 12.7046 0.0000
# 2 29.4358 45.1717 17.0140 0.0000 1.7140 0.0000
# 3 25.5389 17.0140 98.5537 0.0000 14.4846 0.0000
# 4 0.0000 0.0000 0.0000 20.1556 0.0000 2.0628
# 5 12.7046 1.7140 14.4846 0.0000 38.6644 0.0000
# 6 0.0000 0.0000 0.0000 2.0628 0.0000 0.0539
#
#
#
# Elastic Compliance Matrix: (Units=1/GPa)
#
#
# Indices 1 2 3 4 5 6 
#
# 1 0.014734 -0.008802 -0.001740 0.000000 -0.003799 0.000000
# 2 -0.008802 0.028945 -0.003125 0.000000 0.002780 0.000000
# 3 -0.001740 -0.003125 0.011676 0.000000 -0.003664 0.000000
# 4 0.000000 0.000000 0.000000 -0.016993 0.000000 0.650815
# 5 -0.003799 0.002780 -0.003664 0.000000 0.028361 0.000000
# 6 0.000000 0.000000 0.000000 0.650815 0.000000 -6.359045
#
#
# Mechanical properties :
#
#
# Convention : Reuss Voigt Hill
#
# Bulk Modulus (GPa) = 35.68713 42.16086 38.92399
# Shear Modulus (GPa) = -0.79928 22.67355 10.93714
#
# Velocity S-wave (km/s) = -0.62281 3.31717 2.30388
# Velocity P-wave (km/s) = 4.09902 5.92726 5.09580
#
# Compressibility (1/GPa) = 0.02802130
#
# Stress axis : x y z
#
# Youngs Moduli (GPa) = 67.86838 34.54845 85.64882
#
# Poissons Ratio (x) = 0.30409 0.14905
# Poissons Ratio (y) = 0.59737 0.26761
# Poissons Ratio (z) = 0.11811 0.10795
#
# Static dielectric constant tensor:
#      x y z
#    x 3.837190 0.000000 0.098360 
#    y 0.000000 3.555650 0.000000 
#    z 0.098360 0.000000 3.818900 
# 
# 
# High freq. dielectric constant tensor:
#      x y z
#    x 1.816200 0.000000 0.006630 
#    y 0.000000 1.792640 0.000000 
#    z 0.006630 0.000000 1.819410 
# 
# From -- ./inp_files/37056.got.cif
#   From: 2010.06.25/outbox.cif.g09.slc.cpg/sg10_19_cif.got.tgz:37056.got - 2010.06.27 22:07:45.
