data_PCOD8066883
_publ_section_title
;
Structure prediction by ZEFSAII (Michael W. Deem and Ramdas Pophale) SiO2 
 PCOD8066883
Probable space group: P 2/M
;
_chemical_formula_sum "Si O2"
_cell_formula_units_Z 28
_cell_length_a 26.978868
_cell_length_b 8.887336
_cell_length_c 9.239697
_cell_angle_alpha 90.000000
_cell_angle_beta 141.489928
_cell_angle_gamma 90.000000
_cell_volume 1379.426549
_symmetry_space_group_name_H-M "P 2/M"
_symmetry_group_IT_number 10
_symmetry_cell_setting 'monoclinic'
loop_
_space_group_symop_operation_xyz
x,y,z
-x,y,-z
-x,-y,-z
x,-y,z
loop_
_atom_site_type_symbol
_atom_site_label
_atom_site_fract_x
_atom_site_fract_y
_atom_site_fract_z
Si Si1 0.484258 0.822252 0.301104
Si Si2 0.636205 0.176997 0.462598
Si Si3 0.197552 0.674101 0.652500
Si Si4 0.069814 0.668925 0.774123
Si Si5 0.969472 0.832834 0.770077
Si Si6 0.222902 0.822859 0.005410
Si Si7 0.651434 0.326427 0.186948
O O1 0.500000 0.764223 0.500000
O O2 0.556457 0.772958 0.362576
O O3 0.472715 0.000000 0.274811
O O4 0.404067 0.749372 0.059399
O O5 0.710321 0.229595 0.728822
O O6 0.639650 0.255238 0.316264
O O7 0.637779 0.000000 0.438897
O O8 0.176837 0.500000 0.632020
O O9 0.117198 0.760610 0.432919
O O10 0.257520 0.695949 0.655619
O O11 0.238452 0.738925 0.890210
O O12 0.103250 0.500000 0.873864
O O13 0.000000 0.668655 0.500000
O O14 0.035034 0.730572 0.843220
O O15 0.137836 0.779429 0.874947
O O16 0.964478 0.000000 0.688359
O O17 0.000000 0.846759 0.000000
O O18 0.227204 0.000000 0.987354
O O19 0.628421 0.500000 0.144183
#
# Coordination Sequence:
#
# PCOD8066883 Si02
#       7
#     4   4   4   4   4   4   4
#     4  10  21  41  68  94 123 161 205 249 302 362
#     4  10  23  41  63  93 125 160 203 251 304 362
#     4  11  24  42  61  88 123 163 206 250 309 373
#     4  11  23  40  63  91 124 164 204 250 311 372
#     4  11  25  42  63  91 121 158 209 262 308 360
#     4  11  23  40  65  93 121 158 208 260 306 359
#     4  11  25  41  61  92 128 164 203 249 303 363
#
# _framework density 20.298289
#
# number of rings (size 3 to 8) (size 9 to 14) (size 15 to 20)
#    0.000    1.286    1.429    3.429    2.000    8.857 
#    0.000    0.000    0.000    0.000    0.000    0.000 
#    0.000    0.000    0.000    0.000    0.000    0.000 
#
# Total GULP energy -347338.472653 kJ/mol
# GULP energy per Si atom -12404.945452 kJ/mol
# Density = 2.025209 g / cm^3
# Si number density = 20.298289 Si / 1000 Ang^3
#
#
#
# Elastic Constant Matrix: (Units=GPa)
#
#
# Indices 1 2 3 4 5 6 
#
# 1 111.9099 30.5804 29.4073 0.0000 -13.0276 0.0000
# 2 30.5804 72.1828 38.2655 0.0000 -7.1141 0.0000
# 3 29.4073 38.2655 97.9547 0.0000 -11.7493 0.0000
# 4 0.0000 0.0000 0.0000 173.3630 0.0000 -67.9785
# 5 -13.0276 -7.1141 -11.7493 0.0000 34.8744 0.0000
# 6 0.0000 0.0000 0.0000 -67.9785 0.0000 65.3759
#
#
#
# Elastic Compliance Matrix: (Units=1/GPa)
#
#
# Indices 1 2 3 4 5 6 
#
# 1 0.010586 -0.003410 -0.001516 0.000000 0.002748 0.000000
# 2 -0.003410 0.018629 -0.006201 0.000000 0.000437 0.000000
# 3 -0.001516 -0.006201 0.013409 0.000000 0.002686 0.000000
# 4 0.000000 0.000000 0.000000 0.009739 0.000000 0.010127
# 5 0.002748 0.000437 0.002686 0.000000 0.030695 0.000000
# 6 0.000000 0.000000 0.000000 0.010127 0.000000 0.025826
#
#
# Mechanical properties :
#
#
# Convention : Reuss Voigt Hill
#
# Bulk Modulus (GPa) = 49.09557 53.17264 51.13411
# Shear Modulus (GPa) = 36.25079 66.97560 51.61319
#
# Velocity S-wave (km/s) = 4.23058 5.75042 5.04803
# Velocity P-wave (km/s) = 6.93565 8.38703 7.69563
#
# Compressibility (1/GPa) = 0.02036843
#
# Stress axis : x y z
#
# Youngs Moduli (GPa) = 94.46486 53.68029 74.57900
#
# Poissons Ratio (x) = 0.18306 0.11308
# Poissons Ratio (y) = 0.32214 0.46247
# Poissons Ratio (z) = 0.14324 0.33288
#
# Static dielectric constant tensor:
#      x y z
#    x 3.799400 0.000000 -0.043820 
#    y 0.000000 3.878120 0.000000 
#    z -0.043820 0.000000 3.714360 
# 
# 
# High freq. dielectric constant tensor:
#      x y z
#    x 1.807390 0.000000 -0.000420 
#    y 0.000000 1.800430 0.000000 
#    z -0.000420 0.000000 1.800770 
# 
# From -- ./inp_files/37252.got.cif
#   From: 2010.06.25/outbox.cif.g09.slc.cpg/sg10_19_cif.got.tgz:37252.got - 2010.06.27 22:07:45.
