data_PCOD8066016
_publ_section_title
;
Structure prediction by ZEFSAII (Michael W. Deem and Ramdas Pophale) SiO2 
 PCOD8066016
Probable space group: P 2/M
;
_chemical_formula_sum "Si O2"
_cell_formula_units_Z 24
_cell_length_a 16.213564
_cell_length_b 9.213279
_cell_length_c 14.696932
_cell_angle_alpha 90.000000
_cell_angle_beta 37.715702
_cell_angle_gamma 90.000000
_cell_volume 1343.040200
_symmetry_space_group_name_H-M "P 2/M"
_symmetry_group_IT_number 10
_symmetry_cell_setting 'monoclinic'
loop_
_space_group_symop_operation_xyz
x,y,z
-x,y,-z
-x,-y,-z
x,-y,z
loop_
_atom_site_type_symbol
_atom_site_label
_atom_site_fract_x
_atom_site_fract_y
_atom_site_fract_z
Si Si1 0.600040 0.330619 0.834292
Si Si2 0.835509 0.666132 0.405326
Si Si3 0.613101 0.171091 0.330697
Si Si4 0.129166 0.666616 0.827499
Si Si5 0.528333 0.334998 0.695515
Si Si6 0.131187 0.170097 0.444428
O O1 0.635287 0.500000 0.815182
O O2 0.522532 0.301707 0.807717
O O3 0.740257 0.244147 0.715574
O O4 0.500000 0.274701 0.000000
O O5 0.856109 0.500000 0.419180
O O6 0.907478 0.698368 0.246257
O O7 0.677664 0.698264 0.528348
O O8 0.895809 0.768620 0.430770
O O9 0.500000 0.224642 0.500000
O O10 0.755851 0.228087 0.238349
O O11 0.578254 0.232336 0.261471
O O12 0.619944 0.000000 0.318142
O O13 0.176556 0.500000 0.796811
O O14 0.000000 0.701507 0.000000
O O15 0.486814 0.500000 0.711182
O O16 0.000000 0.205493 0.500000
O O17 0.159429 0.000000 0.426959
#
# Coordination Sequence:
#
# PCOD8066016 Si02
#       6
#     4   4   4   4   4   4
#     4   9  19  37  59  83 109 138 177 226 274 316
#     4   9  18  34  57  81 104 138 182 225 268 313
#     4  11  22  34  53  81 110 143 181 217 260 319
#     4  10  21  38  58  80 108 141 179 224 273 318
#     4   9  17  32  56  81 105 138 179 223 266 310
#     4  10  21  36  55  80 110 145 181 217 264 323
#
# _framework density 17.869903999999998
#
# number of rings (size 3 to 8) (size 9 to 14) (size 15 to 20)
#    0.000    2.333    1.667    2.000    0.000    6.000 
#    3.000    0.000    0.000    0.000    0.000    0.000 
#    0.000    0.000    0.000    0.000    0.000    0.000 
#
# Total GULP energy -297645.396534 kJ/mol
# GULP energy per Si atom -12401.891522 kJ/mol
# Density = 1.782923 g / cm^3
# Si number density = 17.869904 Si / 1000 Ang^3
#
#
#
# Elastic Constant Matrix: (Units=GPa)
#
#
# Indices 1 2 3 4 5 6 
#
# 1 118.3021 65.8534 61.5842 0.0000 2.3051 0.0000
# 2 65.8534 82.9813 47.9067 0.0000 -3.8967 0.0000
# 3 61.5842 47.9067 122.1634 0.0000 20.1189 0.0000
# 4 0.0000 0.0000 0.0000 8.5574 0.0000 -10.8802
# 5 2.3051 -3.8967 20.1189 0.0000 24.1690 0.0000
# 6 0.0000 0.0000 0.0000 -10.8802 0.0000 29.0277
#
#
#
# Elastic Compliance Matrix: (Units=1/GPa)
#
#
# Indices 1 2 3 4 5 6 
#
# 1 0.016621 -0.010768 -0.004183 0.000000 0.000160 0.000000
# 2 -0.010768 0.024358 -0.005724 0.000000 0.009719 0.000000
# 3 -0.004183 -0.005724 0.014631 0.000000 -0.012703 0.000000
# 4 0.000000 0.000000 0.000000 0.223250 0.000000 0.083679
# 5 0.000160 0.009719 -0.012703 0.000000 0.053501 0.000000
# 6 0.000000 0.000000 0.000000 0.083679 0.000000 0.065814
#
#
# Mechanical properties :
#
#
# Convention : Reuss Voigt Hill
#
# Bulk Modulus (GPa) = 70.12622 74.90392 72.51507
# Shear Modulus (GPa) = 11.25417 22.22432 16.73924
#
# Velocity S-wave (km/s) = 2.51227 3.53040 3.06392
# Velocity P-wave (km/s) = 6.90964 7.65673 7.29276
#
# Compressibility (1/GPa) = 0.01426000
#
# Stress axis : x y z
#
# Youngs Moduli (GPa) = 60.16322 41.05490 68.34787
#
# Poissons Ratio (x) = 0.44210 0.28587
# Poissons Ratio (y) = 0.64786 0.39122
# Poissons Ratio (z) = 0.25164 0.23500
#
# Static dielectric constant tensor:
#      x y z
#    x 3.264570 0.000000 0.263360 
#    y 0.000000 3.250200 0.000000 
#    z 0.263360 0.000000 3.470910 
# 
# 
# High freq. dielectric constant tensor:
#      x y z
#    x 1.692830 0.000000 0.013400 
#    y 0.000000 1.689960 0.000000 
#    z 0.013400 0.000000 1.681070 
# 
# From -- ./inp_files/66296.got.cif
#   From: 2010.06.25/outbox.cif.g09.slc.cpg/sg10_34_cif.got.tgz:66296.got - 2010.06.27 22:07:45.
