data_PCOD8066106
_publ_section_title
;
Structure prediction by ZEFSAII (Michael W. Deem and Ramdas Pophale) SiO2 
 PCOD8066106
Probable space group: P 2/M
;
_chemical_formula_sum "Si O2"
_cell_formula_units_Z 32
_cell_length_a 8.454677
_cell_length_b 19.890401
_cell_length_c 13.238742
_cell_angle_alpha 90.000000
_cell_angle_beta 133.252102
_cell_angle_gamma 90.000000
_cell_volume 1621.529737
_symmetry_space_group_name_H-M "P 2/M"
_symmetry_group_IT_number 10
_symmetry_cell_setting 'monoclinic'
loop_
_space_group_symop_operation_xyz
x,y,z
-x,y,-z
-x,-y,-z
x,-y,z
loop_
_atom_site_type_symbol
_atom_site_label
_atom_site_fract_x
_atom_site_fract_y
_atom_site_fract_z
Si Si1 0.251329 0.422794 0.585420
Si Si2 0.741624 0.676412 0.578010
Si Si3 0.517743 0.319489 0.173158
Si Si4 0.849284 0.811491 0.529666
Si Si5 0.010617 0.159403 0.191160
Si Si6 0.838823 0.700145 0.132845
Si Si7 0.429583 0.820408 0.241473
Si Si8 0.642022 0.923959 0.963273
O O1 0.322063 0.500000 0.620799
O O2 0.281649 0.395709 0.485019
O O3 0.414253 0.383302 0.730441
O O4 0.000000 0.412703 0.500000
O O5 0.500000 0.701968 0.500000
O O6 0.844479 0.731337 0.547361
O O7 0.912895 0.671471 0.747146
O O8 0.715878 0.305199 0.185061
O O9 0.476371 0.255140 0.224783
O O10 0.296685 0.337761 0.014360
O O11 0.924816 0.849823 0.663727
O O12 0.613122 0.840480 0.401897
O O13 0.000000 0.826612 0.500000
O O14 0.205449 0.175927 0.201827
O O15 0.843005 0.221314 0.105269
O O16 0.891650 0.092446 0.100995
O O17 0.445908 0.873757 0.159236
O O18 0.630923 0.000000 0.917591
O O19 0.500000 0.913726 0.000000
#
# Coordination Sequence:
#
# PCOD8066106 Si02
#       8
#     4   4   4   4   4   4   4   4
#     4  11  23  41  62  87 122 167 215 259 320 391
#     4  11  21  37  59  89 120 159 205 258 318 377
#     4  11  21  37  62  88 123 159 208 266 312 375
#     4  11  21  36  62  91 124 156 208 265 308 366
#     4  11  23  37  59  96 127 160 206 258 321 370
#     4  10  21  36  58  91 121 156 207 259 312 370
#     4  12  22  37  62  95 127 163 205 263 316 370
#     4  11  24  43  64  90 129 174 214 251 305 378
#
# _framework density 19.734451
#
# number of rings (size 3 to 8) (size 9 to 14) (size 15 to 20)
#    0.000    1.000    3.750    5.625    0.000    1.250 
#    0.000    2.500    0.000    4.500    0.000    0.000 
#    0.000    0.000    0.000    0.000    0.000    0.000 
#
# Total GULP energy -396758.859480 kJ/mol
# GULP energy per Si atom -12398.714359 kJ/mol
# Density = 1.968953 g / cm^3
# Si number density = 19.734451 Si / 1000 Ang^3
#
#
#
# Elastic Constant Matrix: (Units=GPa)
#
#
# Indices 1 2 3 4 5 6 
#
# 1 40.8130 21.9266 23.0543 0.0000 2.4735 0.0000
# 2 21.9266 101.0177 48.4459 0.0000 -6.2835 0.0000
# 3 23.0543 48.4459 146.9263 0.0000 10.8079 0.0000
# 4 0.0000 0.0000 0.0000 26.4704 0.0000 3.4501
# 5 2.4735 -6.2835 10.8079 0.0000 31.8506 0.0000
# 6 0.0000 0.0000 0.0000 3.4501 0.0000 10.7869
#
#
#
# Elastic Compliance Matrix: (Units=1/GPa)
#
#
# Indices 1 2 3 4 5 6 
#
# 1 0.028915 -0.005143 -0.002668 0.000000 -0.002355 0.000000
# 2 -0.005143 0.013122 -0.003835 0.000000 0.004289 0.000000
# 3 -0.002668 -0.003835 0.008748 0.000000 -0.003518 0.000000
# 4 0.000000 0.000000 0.000000 0.039421 0.000000 -0.012609
# 5 -0.002355 0.004289 -0.003518 0.000000 0.033619 0.000000
# 6 0.000000 0.000000 0.000000 -0.012609 0.000000 0.096738
#
#
# Mechanical properties :
#
#
# Convention : Reuss Voigt Hill
#
# Bulk Modulus (GPa) = 36.37399 52.84564 44.60982
# Shear Modulus (GPa) = 19.76129 26.84359 23.30244
#
# Velocity S-wave (km/s) = 3.16786 3.69214 3.44000
# Velocity P-wave (km/s) = 5.64377 6.70913 6.19938
#
# Compressibility (1/GPa) = 0.02749217
#
# Stress axis : x y z
#
# Youngs Moduli (GPa) = 34.58420 76.20988 114.31055
#
# Poissons Ratio (x) = 0.39196 0.30498
# Poissons Ratio (y) = 0.17787 0.43839
# Poissons Ratio (z) = 0.09227 0.29227
#
# Static dielectric constant tensor:
#      x y z
#    x 3.602480 0.000000 0.009870 
#    y 0.000000 3.327190 0.000000 
#    z 0.009870 0.000000 4.100540 
# 
# 
# High freq. dielectric constant tensor:
#      x y z
#    x 1.774990 0.000000 0.003220 
#    y 0.000000 1.730150 0.000000 
#    z 0.003220 0.000000 1.792030 
# 
# From -- ./inp_files/62511.got.cif
#   From: 2010.06.25/outbox.cif.g09.slc.cpg/sg10_32_cif.got.tgz:62511.got - 2010.06.27 22:07:45.
