data_PCOD8066254
_publ_section_title
;
Structure prediction by ZEFSAII (Michael W. Deem and Ramdas Pophale) SiO2 
 PCOD8066254
Probable space group: P 2/M
;
_chemical_formula_sum "Si O2"
_cell_formula_units_Z 24
_cell_length_a 12.640876
_cell_length_b 9.273701
_cell_length_c 21.819881
_cell_angle_alpha 90.000000
_cell_angle_beta 30.023895
_cell_angle_gamma 90.000000
_cell_volume 1279.871011
_symmetry_space_group_name_H-M "P 2/M"
_symmetry_group_IT_number 10
_symmetry_cell_setting 'monoclinic'
loop_
_space_group_symop_operation_xyz
x,y,z
-x,y,-z
-x,-y,-z
x,-y,z
loop_
_atom_site_type_symbol
_atom_site_label
_atom_site_fract_x
_atom_site_fract_y
_atom_site_fract_z
Si Si1 0.849023 0.168682 0.763647
Si Si2 0.153973 0.668349 0.112859
Si Si3 0.537507 0.168419 0.127765
Si Si4 0.692210 0.837619 0.505533
Si Si5 0.558573 0.161968 0.255969
Si Si6 0.301406 0.667195 0.708374
O O1 0.774088 0.256097 0.860617
O O2 0.686161 0.202892 0.791271
O O3 0.078606 0.224415 0.626637
O O4 0.851526 0.000000 0.778816
O O5 0.207688 0.500000 0.089353
O O6 0.905576 0.696553 0.227835
O O7 0.278117 0.738128 0.994458
O O8 0.519068 0.218913 0.207460
O O9 0.593806 0.000000 0.093252
O O10 0.663457 0.835908 0.594408
O O11 0.502563 0.739690 0.572284
O O12 0.667115 0.000000 0.492665
O O13 0.724714 0.262011 0.210380
O O14 0.651965 0.000000 0.207163
O O15 0.347113 0.500000 0.694215
#
# Coordination Sequence:
#
# PCOD8066254 Si02
#       6
#     4   4   4   4   4   4
#     4  10  21  37  58  82 108 141 180 221 265 318
#     4  11  24  38  53  77 111 148 182 221 266 313
#     4  10  21  37  58  82 108 141 180 221 265 318
#     4   8  17  35  57  83 109 136 173 221 272 318
#     4   8  17  35  57  83 109 136 173 221 272 318
#     4   9  19  36  55  78 108 143 180 219 266 319
#
# _framework density 18.751888000000001
#
# number of rings (size 3 to 8) (size 9 to 14) (size 15 to 20)
#    1.000    1.667    0.000    1.000    0.000    8.667 
#    0.000   10.000    0.000    1.000    0.000    0.000 
#    0.000    0.000    0.000    0.000    0.000    0.000 
#
# Total GULP energy -297445.185699 kJ/mol
# GULP energy per Si atom -12393.549404 kJ/mol
# Density = 1.870921 g / cm^3
# Si number density = 18.751888 Si / 1000 Ang^3
#
#
#
# Elastic Constant Matrix: (Units=GPa)
#
#
# Indices 1 2 3 4 5 6 
#
# 1 66.1945 29.3786 -3.6139 0.0000 4.7447 0.0000
# 2 29.3786 69.0374 21.9080 0.0000 -6.9284 0.0000
# 3 -3.6139 21.9080 59.2462 0.0000 -3.6955 0.0000
# 4 0.0000 0.0000 0.0000 13.8163 0.0000 -0.9730
# 5 4.7447 -6.9284 -3.6955 0.0000 30.4598 0.0000
# 6 0.0000 0.0000 0.0000 -0.9730 0.0000 19.9056
#
#
#
# Elastic Compliance Matrix: (Units=1/GPa)
#
#
# Indices 1 2 3 4 5 6 
#
# 1 0.020539 -0.010815 0.004936 0.000000 -0.005060 0.000000
# 2 -0.010815 0.022385 -0.008579 0.000000 0.005735 0.000000
# 3 0.004936 -0.008579 0.020337 0.000000 -0.000253 0.000000
# 4 0.000000 0.000000 0.000000 0.072628 0.000000 0.003550
# 5 -0.005060 0.005735 -0.000253 0.000000 0.034892 0.000000
# 6 0.000000 0.000000 0.000000 0.003550 0.000000 0.050411
#
#
# Mechanical properties :
#
#
# Convention : Reuss Voigt Hill
#
# Bulk Modulus (GPa) = 29.11634 32.20261 30.65947
# Shear Modulus (GPa) = 19.11637 22.62335 20.86986
#
# Velocity S-wave (km/s) = 3.19633 3.47718 3.33971
# Velocity P-wave (km/s) = 5.40212 5.77333 5.59080
#
# Compressibility (1/GPa) = 0.03434498
#
# Stress axis : x y z
#
# Youngs Moduli (GPa) = 48.68802 44.67250 49.17255
#
# Poissons Ratio (x) = 0.48311 -0.24272
# Poissons Ratio (y) = 0.52654 0.42187
# Poissons Ratio (z) = -0.24033 0.38327
#
# Static dielectric constant tensor:
#      x y z
#    x 3.320560 0.000000 0.022400 
#    y 0.000000 3.356560 0.000000 
#    z 0.022400 0.000000 3.381340 
# 
# 
# High freq. dielectric constant tensor:
#      x y z
#    x 1.720330 0.000000 0.003110 
#    y 0.000000 1.722420 0.000000 
#    z 0.003110 0.000000 1.721740 
# 
# From -- ./inp_files/83731.got.cif
#   From: 2010.06.25/outbox.cif.g09.slc.cpg/sg10_42_cif.got.tgz:83731.got - 2010.06.27 22:07:45.
