data_PCOD8066066
_publ_section_title
;
Structure prediction by ZEFSAII (Michael W. Deem and Ramdas Pophale) SiO2 
 PCOD8066066
Probable space group: P 2/M
;
_chemical_formula_sum "Si O2"
_cell_formula_units_Z 28
_cell_length_a 29.645655
_cell_length_b 9.985946
_cell_length_c 5.172881
_cell_angle_alpha 90.000000
_cell_angle_beta 119.247956
_cell_angle_gamma 90.000000
_cell_volume 1336.148953
_symmetry_space_group_name_H-M "P 2/M"
_symmetry_group_IT_number 10
_symmetry_cell_setting 'monoclinic'
loop_
_space_group_symop_operation_xyz
x,y,z
-x,y,-z
-x,-y,-z
x,-y,z
loop_
_atom_site_type_symbol
_atom_site_label
_atom_site_fract_x
_atom_site_fract_y
_atom_site_fract_z
Si Si1 0.620247 0.157448 0.363049
Si Si2 0.873897 0.353167 0.291935
Si Si3 0.557083 0.155992 0.675776
Si Si4 0.056112 0.149773 0.253395
Si Si5 0.847642 0.856957 0.827753
Si Si6 0.220182 0.703001 0.676263
Si Si7 0.284289 0.348968 0.359195
O O1 0.594335 0.211514 0.554550
O O2 0.669885 0.247482 0.446463
O O3 0.635738 0.000000 0.418325
O O4 0.580284 0.185095 0.020675
O O5 0.892063 0.500000 0.243291
O O6 0.924333 0.263046 0.493060
O O7 0.833356 0.377828 0.412675
O O8 0.839887 0.270024 0.991239
O O9 0.500000 0.222603 0.500000
O O10 0.551303 0.000000 0.602065
O O11 0.094676 0.147517 0.121473
O O12 0.054002 0.000000 0.374937
O O13 0.000000 0.194368 0.000000
O O14 0.802673 0.847322 0.481506
O O15 0.840015 0.000000 0.949617
O O16 0.250022 0.636466 0.520961
O O17 0.255523 0.712826 0.029023
O O18 0.303105 0.500000 0.342764
#
# Coordination Sequence:
#
# PCOD8066066 Si02
#       7
#     4   4   4   4   4   4   4
#     4  10  21  36  56  87 121 152 198 252 300 352
#     4  11  22  38  62  89 121 155 202 256 303 365
#     4   9  17  33  59  87 117 156 200 247 299 355
#     4   9  20  39  60  84 118 160 202 247 305 370
#     4  10  22  40  63  89 118 154 201 251 303 364
#     4  11  24  41  62  87 116 161 208 249 296 361
#     4  12  24  40  62  86 121 164 204 246 305 366
#
# _framework density 20.955748
#
# number of rings (size 3 to 8) (size 9 to 14) (size 15 to 20)
#    0.000    1.714    1.429    3.000    0.000    7.143 
#    0.000    2.857    0.000    2.571    0.000    0.000 
#    0.000    0.000    0.000    0.000    0.000    0.000 
#
# Total GULP energy -346885.662737 kJ/mol
# GULP energy per Si atom -12388.773669 kJ/mol
# Density = 2.090805 g / cm^3
# Si number density = 20.955748 Si / 1000 Ang^3
#
#
#
# Elastic Constant Matrix: (Units=GPa)
#
#
# Indices 1 2 3 4 5 6 
#
# 1 79.9130 35.8241 34.9768 0.0000 8.3661 0.0000
# 2 35.8241 138.2169 53.9713 0.0000 13.0363 0.0000
# 3 34.9768 53.9713 109.2239 0.0000 7.1320 0.0000
# 4 0.0000 0.0000 0.0000 5.1054 0.0000 -26.5996
# 5 8.3661 13.0363 7.1320 0.0000 40.8100 0.0000
# 6 0.0000 0.0000 0.0000 -26.5996 0.0000 -34.3025
#
#
#
# Elastic Compliance Matrix: (Units=1/GPa)
#
#
# Indices 1 2 3 4 5 6 
#
# 1 0.015357 -0.002403 -0.003616 0.000000 -0.001748 0.000000
# 2 -0.002403 0.009525 -0.003814 0.000000 -0.001883 0.000000
# 3 -0.003616 -0.003814 0.012209 0.000000 -0.000174 0.000000
# 4 0.000000 0.000000 0.000000 0.038863 0.000000 -0.030136
# 5 -0.001748 -0.001883 -0.000174 0.000000 0.025494 0.000000
# 6 0.000000 0.000000 0.000000 -0.030136 0.000000 -0.005784
#
#
# Mechanical properties :
#
#
# Convention : Reuss Voigt Hill
#
# Bulk Modulus (GPa) = 57.39059 64.09980 60.74520
# Shear Modulus (GPa) = 41.27510 15.82800 28.55155
#
# Velocity S-wave (km/s) = 4.44287 2.75126 3.69517
# Velocity P-wave (km/s) = 7.33245 6.38335 6.87430
#
# Compressibility (1/GPa) = 0.01742446
#
# Stress axis : x y z
#
# Youngs Moduli (GPa) = 65.11809 104.98858 81.90404
#
# Poissons Ratio (x) = 0.25233 0.29616
# Poissons Ratio (y) = 0.15650 0.31238
# Poissons Ratio (z) = 0.23546 0.40042
#
# Static dielectric constant tensor:
#      x y z
#    x 3.817360 0.000000 -0.042010 
#    y 0.000000 3.628010 0.000000 
#    z -0.042010 0.000000 3.828450 
# 
# 
# High freq. dielectric constant tensor:
#      x y z
#    x 1.815840 0.000000 -0.001940 
#    y 0.000000 1.799200 0.000000 
#    z -0.001940 0.000000 1.826280 
# 
# From -- ./inp_files/13683.got.cif
#   From: 2010.06.25/outbox.cif.g09.slc.cpg/sg10_7_cif.got.tgz:13683.got - 2010.06.27 22:07:45.
