data_PCOD8066655
_publ_section_title
;
Structure prediction by ZEFSAII (Michael W. Deem and Ramdas Pophale) SiO2 
 PCOD8066655
Probable space group: P 2/M
;
_chemical_formula_sum "Si O2"
_cell_formula_units_Z 28
_cell_length_a 8.898231
_cell_length_b 22.291496
_cell_length_c 13.453601
_cell_angle_alpha 90.000000
_cell_angle_beta 32.864980
_cell_angle_gamma 90.000000
_cell_volume 1448.138748
_symmetry_space_group_name_H-M "P 2/M"
_symmetry_group_IT_number 10
_symmetry_cell_setting 'monoclinic'
loop_
_space_group_symop_operation_xyz
x,y,z
-x,y,-z
-x,-y,-z
x,-y,z
loop_
_atom_site_type_symbol
_atom_site_label
_atom_site_fract_x
_atom_site_fract_y
_atom_site_fract_z
Si Si1 0.829633 0.339763 0.992688
Si Si2 0.208148 0.754897 0.146315
Si Si3 0.853930 0.067994 0.975694
Si Si4 0.791468 0.855818 0.377346
Si Si5 0.785369 0.654204 0.695935
Si Si6 0.705399 0.069875 0.618547
Si Si7 0.170247 0.432669 0.172971
O O1 0.852825 0.273225 0.929365
O O2 0.941300 0.392243 0.856918
O O3 0.509229 0.354907 0.194776
O O4 0.000000 0.339830 0.000000
O O5 0.251182 0.698948 0.193573
O O6 0.960287 0.797781 0.318880
O O7 0.500000 0.790724 0.000000
O O8 0.537454 0.090868 0.170266
O O9 0.855188 0.000000 0.932624
O O10 0.000000 0.070673 0.000000
O O11 0.013673 0.109930 0.809812
O O12 0.500000 0.831467 0.500000
O O13 0.694474 0.898409 0.519399
O O14 0.922339 0.594017 0.668290
O O15 0.000000 0.682029 0.500000
O O16 0.000000 0.085683 0.500000
O O17 0.662637 0.000000 0.621039
O O18 0.056223 0.500000 0.222047
O O19 0.500000 0.430192 0.000000
#
# Coordination Sequence:
#
# PCOD8066655 Si02
#       7
#     4   4   4   4   4   4   4
#     4   9  18  35  56  78 106 146 184 225 276 324
#     4   9  22  40  53  74 109 145 185 229 275 331
#     4  10  21  39  61  85 116 148 181 229 285 343
#     4  12  24  38  60  87 112 146 189 234 286 337
#     4   9  18  35  56  77 106 146 186 222 273 329
#     4  10  23  41  60  87 117 146 186 230 280 345
#     4   8  15  30  53  80 112 146 182 221 265 327
#
# _framework density 19.335165
#
# number of rings (size 3 to 8) (size 9 to 14) (size 15 to 20)
#    0.000    2.429    1.429    2.143    2.000    3.429 
#    2.571    4.286    0.000    0.857    0.000    0.000 
#    0.000    0.000    0.000    0.000    0.000    0.000 
#
# Total GULP energy -346964.651804 kJ/mol
# GULP energy per Si atom -12391.594707 kJ/mol
# Density = 1.929116 g / cm^3
# Si number density = 19.335165 Si / 1000 Ang^3
#
#
#
# Elastic Constant Matrix: (Units=GPa)
#
#
# Indices 1 2 3 4 5 6 
#
# 1 109.4439 26.5636 36.5019 0.0000 -13.5773 0.0000
# 2 26.5636 46.5698 30.4893 0.0000 -9.5196 0.0000
# 3 36.5019 30.4893 114.5612 0.0000 -11.6021 0.0000
# 4 0.0000 0.0000 0.0000 7.1011 0.0000 -13.8065
# 5 -13.5773 -9.5196 -11.6021 0.0000 29.5388 0.0000
# 6 0.0000 0.0000 0.0000 -13.8065 0.0000 9.4624
#
#
#
# Elastic Compliance Matrix: (Units=1/GPa)
#
#
# Indices 1 2 3 4 5 6 
#
# 1 0.011286 -0.004456 -0.002114 0.000000 0.002921 0.000000
# 2 -0.004456 0.028789 -0.005738 0.000000 0.004976 0.000000
# 3 -0.002114 -0.005738 0.011085 0.000000 0.001533 0.000000
# 4 0.000000 0.000000 0.000000 -0.076666 0.000000 -0.111862
# 5 0.002921 0.004976 0.001533 0.000000 0.037402 0.000000
# 6 0.000000 0.000000 0.000000 -0.111862 0.000000 -0.057534
#
#
# Mechanical properties :
#
#
# Convention : Reuss Voigt Hill
#
# Bulk Modulus (GPa) = 37.67501 50.85382 44.26441
# Shear Modulus (GPa) = -410.74888 21.02181 -194.86354
#
# Velocity S-wave (km/s) = -14.59100 3.30090 -10.04991
# Velocity P-wave (km/s) = 16.25840 6.39423 10.56999
#
# Compressibility (1/GPa) = 0.02654279
#
# Stress axis : x y z
#
# Youngs Moduli (GPa) = 88.60337 34.73554 90.21236
#
# Poissons Ratio (x) = 0.15480 0.19073
# Poissons Ratio (y) = 0.39486 0.51764
# Poissons Ratio (z) = 0.18733 0.19931
#
# Static dielectric constant tensor:
#      x y z
#    x 3.684390 0.000000 -0.127220 
#    y 0.000000 3.547680 0.000000 
#    z -0.127220 0.000000 3.740360 
# 
# 
# High freq. dielectric constant tensor:
#      x y z
#    x 1.746170 0.000000 -0.001920 
#    y 0.000000 1.743760 0.000000 
#    z -0.001920 0.000000 1.750020 
# 
# From -- ./inp_files/62559.got.cif
#   From: 2010.06.25/outbox.cif.g09.slc.cpg/sg10_32_cif.got.tgz:62559.got - 2010.06.27 22:07:45.
