data_PCOD8066074
_publ_section_title
;
Structure prediction by ZEFSAII (Michael W. Deem and Ramdas Pophale) SiO2 
 PCOD8066074
Probable space group: P 2/M
;
_chemical_formula_sum "Si O2"
_cell_formula_units_Z 28
_cell_length_a 14.569547
_cell_length_b 8.972637
_cell_length_c 19.641388
_cell_angle_alpha 90.000000
_cell_angle_beta 147.658393
_cell_angle_gamma 90.000000
_cell_volume 1373.613401
_symmetry_space_group_name_H-M "P 2/M"
_symmetry_group_IT_number 10
_symmetry_cell_setting 'monoclinic'
loop_
_space_group_symop_operation_xyz
x,y,z
-x,y,-z
-x,-y,-z
x,-y,z
loop_
_atom_site_type_symbol
_atom_site_label
_atom_site_fract_x
_atom_site_fract_y
_atom_site_fract_z
Si Si1 0.178348 0.674148 0.645572
Si Si2 0.353697 0.665628 0.464014
Si Si3 0.805254 0.329798 0.075396
Si Si4 0.884070 0.824996 0.782564
Si Si5 0.599424 0.826154 0.711063
Si Si6 0.694959 0.176700 0.137193
Si Si7 0.524279 0.332442 0.794142
O O1 0.169450 0.500000 0.658895
O O2 0.224761 0.762959 0.742770
O O3 0.324996 0.705624 0.681227
O O4 0.000000 0.729213 0.500000
O O5 0.500000 0.655536 0.500000
O O6 0.282470 0.500000 0.435981
O O7 0.204639 0.771994 0.343047
O O8 0.431673 0.738408 0.580395
O O9 0.856105 0.500000 0.122166
O O10 0.812792 0.238166 0.150048
O O11 0.935583 0.260271 0.101343
O O12 0.616522 0.317278 0.924805
O O13 0.771050 0.779589 0.777609
O O14 0.915579 0.000000 0.799719
O O15 0.615822 0.782503 0.800089
O O16 0.566575 0.000000 0.680777
O O17 0.705198 0.000000 0.145355
O O18 0.500000 0.230687 0.000000
O O19 0.546656 0.500000 0.779307
#
# Coordination Sequence:
#
# PCOD8066074 Si02
#       7
#     4   4   4   4   4   4   4
#     4  10  22  42  67  94 125 161 205 258 311 368
#     4   9  17  32  55  80 109 149 197 245 294 353
#     4  11  23  39  62  88 117 158 205 253 304 362
#     4  10  21  37  56  84 120 155 200 251 301 362
#     4  10  21  36  57  83 118 163 199 244 308 363
#     4  11  23  40  65  93 123 162 203 251 312 373
#     4  10  22  39  59  85 117 157 205 254 305 365
#
# _framework density 20.384194000000001
#
# number of rings (size 3 to 8) (size 9 to 14) (size 15 to 20)
#    0.000    1.857    1.429    2.143    0.000    7.714 
#    0.000    7.143    0.000    0.000    0.000    0.000 
#    0.000    0.000    0.000    0.000    0.000    0.000 
#
# Total GULP energy -347224.734049 kJ/mol
# GULP energy per Si atom -12400.883359 kJ/mol
# Density = 2.033780 g / cm^3
# Si number density = 20.384194 Si / 1000 Ang^3
#
#
#
# Elastic Constant Matrix: (Units=GPa)
#
#
# Indices 1 2 3 4 5 6 
#
# 1 107.5753 49.2150 46.3113 0.0000 -2.2006 0.0000
# 2 49.2150 87.1920 42.8685 0.0000 -1.9785 0.0000
# 3 46.3113 42.8685 107.9058 0.0000 4.6526 0.0000
# 4 0.0000 0.0000 0.0000 33.1268 0.0000 -2.8488
# 5 -2.2006 -1.9785 4.6526 0.0000 31.5814 0.0000
# 6 0.0000 0.0000 0.0000 -2.8488 0.0000 33.6346
#
#
#
# Elastic Compliance Matrix: (Units=1/GPa)
#
#
# Indices 1 2 3 4 5 6 
#
# 1 0.013521 -0.005879 -0.003514 0.000000 0.001092 0.000000
# 2 -0.005879 0.016905 -0.004248 0.000000 0.001275 0.000000
# 3 -0.003514 -0.004248 0.012565 0.000000 -0.002362 0.000000
# 4 0.000000 0.000000 0.000000 0.030408 0.000000 0.002576
# 5 0.001092 0.001275 -0.002362 0.000000 0.032168 0.000000
# 6 0.000000 0.000000 0.000000 0.002576 0.000000 0.029949
#
#
# Mechanical properties :
#
#
# Convention : Reuss Voigt Hill
#
# Bulk Modulus (GPa) = 63.66051 64.38473 64.02262
# Shear Modulus (GPa) = 29.75582 30.62047 30.18814
#
# Velocity S-wave (km/s) = 3.82481 3.87998 3.85250
# Velocity P-wave (km/s) = 7.12767 7.19212 7.15997
#
# Compressibility (1/GPa) = 0.01570833
#
# Stress axis : x y z
#
# Youngs Moduli (GPa) = 73.96072 59.15532 79.58660
#
# Poissons Ratio (x) = 0.34778 0.27969
# Poissons Ratio (y) = 0.43482 0.33805
# Poissons Ratio (z) = 0.25992 0.25127
#
# Static dielectric constant tensor:
#      x y z
#    x 3.518630 0.000000 0.103790 
#    y 0.000000 3.679400 0.000000 
#    z 0.103790 0.000000 3.742070 
# 
# 
# High freq. dielectric constant tensor:
#      x y z
#    x 1.788630 0.000000 0.002380 
#    y 0.000000 1.799800 0.000000 
#    z 0.002380 0.000000 1.794380 
# 
# From -- ./inp_files/68590.got.cif
#   From: 2010.06.25/outbox.cif.g09.slc.cpg/sg10_35_cif.got.tgz:68590.got - 2010.06.27 22:07:45.
