data_PCOD8066598
_publ_section_title
;
Structure prediction by ZEFSAII (Michael W. Deem and Ramdas Pophale) SiO2 
 PCOD8066598
Probable space group: P 2/M
;
_chemical_formula_sum "Si O2"
_cell_formula_units_Z 28
_cell_length_a 14.997498
_cell_length_b 8.819777
_cell_length_c 13.776705
_cell_angle_alpha 90.000000
_cell_angle_beta 50.301383
_cell_angle_gamma 90.000000
_cell_volume 1402.111043
_symmetry_space_group_name_H-M "P 2/M"
_symmetry_group_IT_number 10
_symmetry_cell_setting 'monoclinic'
loop_
_space_group_symop_operation_xyz
x,y,z
-x,y,-z
-x,-y,-z
x,-y,z
loop_
_atom_site_type_symbol
_atom_site_label
_atom_site_fract_x
_atom_site_fract_y
_atom_site_fract_z
Si Si1 0.493251 0.671269 0.274184
Si Si2 0.299084 0.328029 0.995996
Si Si3 0.929850 0.824734 0.143886
Si Si4 0.748610 0.177652 0.582310
Si Si5 0.294316 0.175810 0.810201
Si Si6 0.048105 0.322031 0.670746
Si Si7 0.177779 0.821187 0.254108
O O1 0.456717 0.500000 0.326720
O O2 0.562034 0.674818 0.122633
O O3 0.383380 0.778772 0.345536
O O4 0.583602 0.736042 0.292867
O O5 0.251917 0.500000 0.033712
O O6 0.235558 0.240411 0.950859
O O7 0.272865 0.245867 0.114882
O O8 0.793001 0.798300 0.218328
O O9 0.969794 0.720562 0.204584
O O10 0.954555 0.000000 0.152666
O O11 0.000000 0.776017 0.000000
O O12 0.827405 0.264524 0.450436
O O13 0.783708 0.227851 0.665663
O O14 0.764899 0.000000 0.554696
O O15 0.321112 0.000000 0.807314
O O16 0.038612 0.500000 0.664094
O O17 0.949335 0.244681 0.674991
O O18 0.173567 0.000000 0.244705
#
# Coordination Sequence:
#
# PCOD8066598 Si02
#       7
#     4   4   4   4   4   4   4
#     4   9  20  37  59  88 125 160 197 247 300 352
#     4   9  19  34  57  89 124 156 192 244 300 349
#     4  10  21  38  63  92 121 155 195 242 295 352
#     4  11  24  42  63  85 116 160 207 250 295 353
#     4   9  17  33  58  87 120 156 193 239 293 349
#     4  12  26  41  61  89 122 158 197 246 301 359
#     4  11  23  39  61  87 118 158 203 252 299 352
#
# _framework density 19.969888000000001
#
# number of rings (size 3 to 8) (size 9 to 14) (size 15 to 20)
#    0.857    1.000    0.000    4.286    0.000    7.143 
#    0.000    3.571    0.000    4.286    0.000    0.000 
#    0.000    0.000    0.000    0.000    0.000    0.000 
#
# Total GULP energy -347135.671586 kJ/mol
# GULP energy per Si atom -12397.702557 kJ/mol
# Density = 1.992444 g / cm^3
# Si number density = 19.969888 Si / 1000 Ang^3
#
#
#
# Elastic Constant Matrix: (Units=GPa)
#
#
# Indices 1 2 3 4 5 6 
#
# 1 69.9614 15.7908 -2.1212 0.0000 -14.1738 0.0000
# 2 15.7908 82.9466 8.5494 0.0000 2.0197 0.0000
# 3 -2.1212 8.5494 41.3933 0.0000 -14.3670 0.0000
# 4 0.0000 0.0000 0.0000 31.2307 0.0000 -9.0764
# 5 -14.1738 2.0197 -14.3670 0.0000 26.4582 0.0000
# 6 0.0000 0.0000 0.0000 -9.0764 0.0000 14.5803
#
#
#
# Elastic Compliance Matrix: (Units=1/GPa)
#
#
# Indices 1 2 3 4 5 6 
#
# 1 0.018297 -0.004503 0.006641 0.000000 0.013751 0.000000
# 2 -0.004503 0.013604 -0.005223 0.000000 -0.006286 0.000000
# 3 0.006641 -0.005223 0.033210 0.000000 0.021989 0.000000
# 4 0.000000 0.000000 0.000000 0.039092 0.000000 0.024335
# 5 0.013751 -0.006286 0.021989 0.000000 0.057582 0.000000
# 6 0.000000 0.000000 0.000000 0.024335 0.000000 0.083734
#
#
# Mechanical properties :
#
#
# Convention : Reuss Voigt Hill
#
# Bulk Modulus (GPa) = 16.96580 26.52658 21.74619
# Shear Modulus (GPa) = 18.42729 25.92601 22.17665
#
# Velocity S-wave (km/s) = 3.04098 3.60704 3.33604
# Velocity P-wave (km/s) = 4.56555 5.53713 5.07464
#
# Compressibility (1/GPa) = 0.05894211
#
# Stress axis : x y z
#
# Youngs Moduli (GPa) = 54.65325 73.50519 30.11181
#
# Poissons Ratio (x) = 0.33096 -0.19996
# Poissons Ratio (y) = 0.24608 0.15726
# Poissons Ratio (z) = -0.36293 0.38388
#
# Static dielectric constant tensor:
#      x y z
#    x 3.515780 0.000000 -0.048370 
#    y 0.000000 3.639970 0.000000 
#    z -0.048370 0.000000 3.482670 
# 
# 
# High freq. dielectric constant tensor:
#      x y z
#    x 1.772170 0.000000 -0.010930 
#    y 0.000000 1.790260 0.000000 
#    z -0.010930 0.000000 1.768110 
# 
# From -- ./inp_files/68611.got.cif
#   From: 2010.06.25/outbox.cif.g09.slc.cpg/sg10_35_cif.got.tgz:68611.got - 2010.06.27 22:07:45.
