data_PCOD8066898
_publ_section_title
;
Structure prediction by ZEFSAII (Michael W. Deem and Ramdas Pophale) SiO2 
 PCOD8066898
Probable space group: P 2/M
;
_chemical_formula_sum "Si O2"
_cell_formula_units_Z 26
_cell_length_a 8.814490
_cell_length_b 8.472398
_cell_length_c 27.823226
_cell_angle_alpha 90.000000
_cell_angle_beta 144.455557
_cell_angle_gamma 90.000000
_cell_volume 1207.916597
_symmetry_space_group_name_H-M "P 2/M"
_symmetry_group_IT_number 10
_symmetry_cell_setting 'monoclinic'
loop_
_space_group_symop_operation_xyz
x,y,z
-x,y,-z
-x,-y,-z
x,-y,z
loop_
_atom_site_type_symbol
_atom_site_label
_atom_site_fract_x
_atom_site_fract_y
_atom_site_fract_z
Si Si1 0.452205 0.819083 0.716217
Si Si2 0.774803 0.319224 0.174887
Si Si3 0.266892 0.500000 0.507176
Si Si4 0.956893 0.177504 0.124108
Si Si5 0.021371 0.828146 0.682467
Si Si6 0.500000 0.748885 0.500000
Si Si7 0.682336 0.500000 0.367279
Si Si8 0.222948 0.185510 0.022940
O O1 0.739701 0.823301 0.812555
O O2 0.243396 0.773337 0.702766
O O3 0.453579 0.668696 0.680254
O O4 0.392467 0.000000 0.679659
O O5 0.698847 0.500000 0.155226
O O6 0.977111 0.285945 0.270748
O O7 0.509147 0.224188 0.116274
O O8 0.908795 0.279605 0.158987
O O9 0.400405 0.652016 0.519585
O O10 0.305284 0.500000 0.573005
O O11 0.964155 0.500000 0.414984
O O12 0.859315 0.000000 0.110243
O O13 0.804867 0.250598 0.039018
O O14 0.742967 0.845131 0.583899
O O15 0.092219 0.000000 0.720877
O O16 0.178280 0.000000 0.009193
O O17 0.000000 0.260429 0.000000
#
# Coordination Sequence:
#
# PCOD8066898 Si02
#       8
#     4   4   2   4   4   2   2   4
#     4  10  23  42  66  97 129 172 223 269 323 395
#     4  12  27  40  62  97 131 170 213 263 325 388
#     4  10  24  40  66  94 130 166 220 258 344 395
#     4  10  22  41  65  94 129 170 216 268 319 378
#     4  11  24  44  66  92 126 167 220 270 326 390
#     4  11  23  42  66  96 126 168 214 277 321 394
#     4  11  22  44  66  96 128 182 208 278 335 389
#     4  10  21  43  70  94 126 169 213 262 324 384
#
# _framework density 21.524666
#
# number of rings (size 3 to 8) (size 9 to 14) (size 15 to 20)
#    0.000    1.385    1.538    3.000    6.462    5.231 
#    0.000    2.308    0.000    0.000    0.000    0.000 
#    0.000    0.000    0.000    0.000    0.000    0.000 
#
# Total GULP energy -322239.751806 kJ/mol
# GULP energy per Si atom -12393.836608 kJ/mol
# Density = 2.147567 g / cm^3
# Si number density = 21.524666 Si / 1000 Ang^3
#
#
#
# Elastic Constant Matrix: (Units=GPa)
#
#
# Indices 1 2 3 4 5 6 
#
# 1 99.4588 17.3928 39.2109 0.0000 2.8754 0.0000
# 2 17.3928 92.6818 24.5981 0.0000 -14.2164 0.0000
# 3 39.2109 24.5981 113.6380 0.0000 -1.5922 0.0000
# 4 0.0000 0.0000 0.0000 25.2942 0.0000 -2.7711
# 5 2.8754 -14.2164 -1.5922 0.0000 32.2697 0.0000
# 6 0.0000 0.0000 0.0000 -2.7711 0.0000 25.3916
#
#
#
# Elastic Compliance Matrix: (Units=1/GPa)
#
#
# Indices 1 2 3 4 5 6 
#
# 1 0.011871 -0.001514 -0.003795 0.000000 -0.001912 0.000000
# 2 -0.001514 0.012480 -0.002102 0.000000 0.005529 0.000000
# 3 -0.003795 -0.002102 0.010563 0.000000 -0.000066 0.000000
# 4 0.000000 0.000000 0.000000 0.040013 0.000000 0.004367
# 5 -0.001912 0.005529 -0.000066 0.000000 0.033592 0.000000
# 6 0.000000 0.000000 0.000000 0.004367 0.000000 0.039860
#
#
# Mechanical properties :
#
#
# Convention : Reuss Voigt Hill
#
# Bulk Modulus (GPa) = 49.76908 52.02025 50.89466
# Shear Modulus (GPa) = 29.42973 31.56289 30.49631
#
# Velocity S-wave (km/s) = 3.70165 3.83346 3.76813
# Velocity P-wave (km/s) = 6.43753 6.61922 6.52901
#
# Compressibility (1/GPa) = 0.02009280
#
# Stress axis : x y z
#
# Youngs Moduli (GPa) = 84.24188 80.13135 94.66690
#
# Poissons Ratio (x) = 0.12129 0.35927
# Poissons Ratio (y) = 0.12751 0.19895
# Poissons Ratio (z) = 0.31971 0.16840
#
# Static dielectric constant tensor:
#      x y z
#    x 3.871280 0.000000 0.112310 
#    y 0.000000 3.862420 0.000000 
#    z 0.112310 0.000000 3.918300 
# 
# 
# High freq. dielectric constant tensor:
#      x y z
#    x 1.852080 0.000000 0.008230 
#    y 0.000000 1.837340 0.000000 
#    z 0.008230 0.000000 1.846740 
# 
# From -- ./inp_files/91896.got.cif
#   From: 2010.06.25/outbox.cif.g09.slc.cpg/sg10_46_cif.got.tgz:91896.got - 2010.06.27 22:07:45.
