data_PCOD8066394
_publ_section_title
;
Structure prediction by ZEFSAII (Michael W. Deem and Ramdas Pophale) SiO2 
 PCOD8066394
Probable space group: P 2/M
;
_chemical_formula_sum "Si O2"
_cell_formula_units_Z 26
_cell_length_a 21.152321
_cell_length_b 12.232031
_cell_length_c 9.903597
_cell_angle_alpha 90.000000
_cell_angle_beta 147.313991
_cell_angle_gamma 90.000000
_cell_volume 1383.793612
_symmetry_space_group_name_H-M "P 2/M"
_symmetry_group_IT_number 10
_symmetry_cell_setting 'monoclinic'
loop_
_space_group_symop_operation_xyz
x,y,z
-x,y,-z
-x,-y,-z
x,-y,z
loop_
_atom_site_type_symbol
_atom_site_label
_atom_site_fract_x
_atom_site_fract_y
_atom_site_fract_z
Si Si1 0.500062 0.121757 0.352942
Si Si2 0.882816 0.767879 0.722050
Si Si3 0.836767 0.373819 0.089132
Si Si4 0.912589 0.000000 0.651258
Si Si5 0.104581 0.373374 0.507928
Si Si6 0.834803 0.000000 0.003310
Si Si7 0.273945 0.215372 0.313753
Si Si8 0.718271 0.000000 0.083716
O O1 0.500000 0.177462 0.500000
O O2 0.586243 0.194548 0.415165
O O3 0.558326 0.000000 0.472502
O O4 0.366506 0.108007 0.059998
O O5 0.907993 0.894772 0.738524
O O6 0.846206 0.702886 0.521793
O O7 0.775322 0.748887 0.630480
O O8 0.000000 0.717236 0.000000
O O9 0.805529 0.500000 0.013581
O O10 0.828839 0.342106 0.233488
O O11 0.967385 0.348576 0.274371
O O12 0.745261 0.306245 0.835876
O O13 0.796731 0.000000 0.354498
O O14 0.024187 0.000000 0.752978
O O15 0.126029 0.500000 0.511120
O O16 0.790873 0.106649 0.849038
O O17 0.796561 0.000000 0.090410
#
# Coordination Sequence:
#
# PCOD8066394 Si02
#       8
#     4   4   4   2   4   2   4   2
#     4   9  17  36  57  78 104 146 199 238 270 310
#     4  12  23  35  49  84 122 163 177 223 288 345
#     4   9  19  34  56  83 112 149 191 240 281 330
#     4  12  25  34  51  83 133 146 182 219 287 363
#     4   9  19  37  54  77 118 157 191 227 280 342
#     4  12  19  34  56  88 112 153 174 233 285 329
#     4  12  20  34  60  81 118 150 195 226 280 338
#     4  10  21  38  55  81 107 153 202 231 276 328
#
# _framework density 18.788929
#
# number of rings (size 3 to 8) (size 9 to 14) (size 15 to 20)
#    0.462    1.077    5.385    1.846    2.154    0.923 
#    0.000    1.538    0.000    0.462    0.000    1.077 
#    0.000    4.923    0.000    0.000    0.000    0.000 
#
# Total GULP energy -322291.825931 kJ/mol
# GULP energy per Si atom -12395.839459 kJ/mol
# Density = 1.874616 g / cm^3
# Si number density = 18.788929 Si / 1000 Ang^3
#
#
#
# Elastic Constant Matrix: (Units=GPa)
#
#
# Indices 1 2 3 4 5 6 
#
# 1 127.4076 33.6545 45.0697 0.0000 -7.2263 0.0000
# 2 33.6545 71.0563 23.8991 0.0000 -14.8651 0.0000
# 3 45.0697 23.8991 81.1169 0.0000 0.0237 0.0000
# 4 0.0000 0.0000 0.0000 167.7223 0.0000 -10.5063
# 5 -7.2263 -14.8651 0.0237 0.0000 32.1855 0.0000
# 6 0.0000 0.0000 0.0000 -10.5063 0.0000 9.9578
#
#
#
# Elastic Compliance Matrix: (Units=1/GPa)
#
#
# Indices 1 2 3 4 5 6 
#
# 1 0.010453 -0.003116 -0.004890 0.000000 0.000912 0.000000
# 2 -0.003116 0.018428 -0.003701 0.000000 0.007815 0.000000
# 3 -0.004890 -0.003701 0.016136 0.000000 -0.002819 0.000000
# 4 0.000000 0.000000 0.000000 0.006384 0.000000 0.006736
# 5 0.000912 0.007815 -0.002819 0.000000 0.034886 0.000000
# 6 0.000000 0.000000 0.000000 0.006736 0.000000 0.107530
#
#
# Mechanical properties :
#
#
# Convention : Reuss Voigt Hill
#
# Bulk Modulus (GPa) = 46.28612 53.86973 50.07793
# Shear Modulus (GPa) = 22.27832 53.77029 38.02431
#
# Velocity S-wave (km/s) = 3.44716 5.35539 4.50350
# Velocity P-wave (km/s) = 6.36648 8.18373 7.33163
#
# Compressibility (1/GPa) = 0.02160475
#
# Stress axis : x y z
#
# Youngs Moduli (GPa) = 95.66212 54.26380 61.97224
#
# Poissons Ratio (x) = 0.16906 0.30307
# Poissons Ratio (y) = 0.29804 0.22935
# Poissons Ratio (z) = 0.46783 0.20082
#
# Static dielectric constant tensor:
#      x y z
#    x 3.538320 0.000000 -0.016280 
#    y 0.000000 3.328980 0.000000 
#    z -0.016280 0.000000 3.198990 
# 
# 
# High freq. dielectric constant tensor:
#      x y z
#    x 1.729030 0.000000 -0.008020 
#    y 0.000000 1.710820 0.000000 
#    z -0.008020 0.000000 1.707390 
# 
# From -- ./inp_files/34931.got.cif
#   From: 2010.06.25/outbox.cif.g09.slc.cpg/sg10_18_cif.got.tgz:34931.got - 2010.06.27 22:07:45.
