data_PCOD8066277
_publ_section_title
;
Structure prediction by ZEFSAII (Michael W. Deem and Ramdas Pophale) SiO2 
 PCOD8066277
Probable space group: P 2/M
;
_chemical_formula_sum "Si O2"
_cell_formula_units_Z 28
_cell_length_a 28.669866
_cell_length_b 7.826764
_cell_length_c 9.795097
_cell_angle_alpha 90.000000
_cell_angle_beta 140.017081
_cell_angle_gamma 90.000000
_cell_volume 1412.309221
_symmetry_space_group_name_H-M "P 2/M"
_symmetry_group_IT_number 10
_symmetry_cell_setting 'monoclinic'
loop_
_space_group_symop_operation_xyz
x,y,z
-x,y,-z
-x,-y,-z
x,-y,z
loop_
_atom_site_type_symbol
_atom_site_label
_atom_site_fract_x
_atom_site_fract_y
_atom_site_fract_z
Si Si1 0.190620 0.797894 0.215768
Si Si2 0.572541 0.000000 0.074906
Si Si3 0.329110 0.689288 0.022396
Si Si4 0.209859 0.807272 0.949055
Si Si5 0.321046 0.306937 0.693988
Si Si6 0.028403 0.199298 0.914842
Si Si7 0.569329 0.000000 0.748985
Si Si8 0.940898 0.305974 0.471195
O O1 0.248394 0.709562 0.443513
O O2 0.197083 0.000000 0.246631
O O3 0.206284 0.738910 0.096031
O O4 0.110591 0.733987 0.079210
O O5 0.618431 0.830421 0.216463
O O6 0.500000 0.000000 0.000000
O O7 0.549771 0.000000 0.865195
O O8 0.364498 0.500000 0.107964
O O9 0.387711 0.829567 0.195797
O O10 0.262868 0.690334 0.979463
O O11 0.299920 0.728184 0.804344
O O12 0.130958 0.806290 0.703148
O O13 0.239567 0.000000 0.012274
O O14 0.351895 0.500000 0.744328
O O15 0.973129 0.298987 0.694366
O O16 0.024588 0.000000 0.871425
O O17 0.000000 0.242306 0.000000
O O18 0.500000 0.000000 0.500000
O O19 0.921373 0.500000 0.388072
O O20 0.000000 0.228769 0.500000
#
# Coordination Sequence:
#
# PCOD8066277 Si02
#       8
#     4   2   4   4   4   4   2   4
#     4  10  21  37  58  85 120 156 204 257 303 355
#     4  10  22  42  66  94 128 160 194 245 286 356
#     4  10  22  41  63  93 126 161 204 245 296 359
#     4  11  22  37  61  86 116 160 206 254 307 364
#     4  10  22  40  64  91 124 164 201 244 299 354
#     4  10  22  39  57  81 110 152 204 255 305 359
#     4  10  22  42  66  96 128 160 198 238 296 356
#     4  11  23  38  55  80 118 157 199 256 313 360
#
# _framework density 19.825685
#
# number of rings (size 3 to 8) (size 9 to 14) (size 15 to 20)
#    0.000    1.714    2.857    0.857    2.000    4.286 
#    0.000    0.000    0.000    0.000    0.000    0.000 
#    0.000    0.000    0.000    0.000    0.000    0.000 
#
# Total GULP energy -347280.001465 kJ/mol
# GULP energy per Si atom -12402.857195 kJ/mol
# Density = 1.978056 g / cm^3
# Si number density = 19.825685 Si / 1000 Ang^3
#
#
#
# Elastic Constant Matrix: (Units=GPa)
#
#
# Indices 1 2 3 4 5 6 
#
# 1 135.5867 44.7591 53.3337 0.0000 3.8293 0.0000
# 2 44.7591 98.1001 46.1165 0.0000 4.0229 0.0000
# 3 53.3337 46.1165 145.4409 0.0000 2.5129 0.0000
# 4 0.0000 0.0000 0.0000 6.9432 0.0000 1.8253
# 5 3.8293 4.0229 2.5129 0.0000 23.2834 0.0000
# 6 0.0000 0.0000 0.0000 1.8253 0.0000 15.4351
#
#
#
# Elastic Compliance Matrix: (Units=1/GPa)
#
#
# Indices 1 2 3 4 5 6 
#
# 1 0.009381 -0.003101 -0.002444 0.000000 -0.000743 0.000000
# 2 -0.003101 0.013069 -0.002982 0.000000 -0.001426 0.000000
# 3 -0.002444 -0.002982 0.008718 0.000000 -0.000024 0.000000
# 4 0.000000 0.000000 0.000000 0.148648 0.000000 -0.017578
# 5 -0.000743 -0.001426 -0.000024 0.000000 0.043320 0.000000
# 6 0.000000 0.000000 0.000000 -0.017578 0.000000 0.066866
#
#
# Mechanical properties :
#
#
# Convention : Reuss Voigt Hill
#
# Bulk Modulus (GPa) = 70.85229 74.17179 72.51204
# Shear Modulus (GPa) = 16.03793 24.79357 20.41575
#
# Velocity S-wave (km/s) = 2.84728 3.54019 3.21247
# Velocity P-wave (km/s) = 6.82822 7.36232 7.10029
#
# Compressibility (1/GPa) = 0.01411387
#
# Stress axis : x y z
#
# Youngs Moduli (GPa) = 106.59382 76.51773 114.70664
#
# Poissons Ratio (x) = 0.23727 0.28036
# Poissons Ratio (y) = 0.33054 0.34207
# Poissons Ratio (z) = 0.26053 0.22819
#
# Static dielectric constant tensor:
#      x y z
#    x 3.560380 0.000000 -0.119840 
#    y 0.000000 3.776650 0.000000 
#    z -0.119840 0.000000 3.474740 
# 
# 
# High freq. dielectric constant tensor:
#      x y z
#    x 1.768630 0.000000 -0.011020 
#    y 0.000000 1.780550 0.000000 
#    z -0.011020 0.000000 1.766950 
# 
# From -- ./inp_files/37190.got.cif
#   From: 2010.06.25/outbox.cif.g09.slc.cpg/sg10_19_cif.got.tgz:37190.got - 2010.06.27 22:07:45.
