data_PCOD8066425
_publ_section_title
;
Structure prediction by ZEFSAII (Michael W. Deem and Ramdas Pophale) SiO2 
 PCOD8066425
Probable space group: P 2/M
;
_chemical_formula_sum "Si O2"
_cell_formula_units_Z 30
_cell_length_a 14.072097
_cell_length_b 9.851090
_cell_length_c 11.956965
_cell_angle_alpha 90.000000
_cell_angle_beta 114.259645
_cell_angle_gamma 90.000000
_cell_volume 1511.167600
_symmetry_space_group_name_H-M "P 2/M"
_symmetry_group_IT_number 10
_symmetry_cell_setting 'monoclinic'
loop_
_space_group_symop_operation_xyz
x,y,z
-x,y,-z
-x,-y,-z
x,-y,z
loop_
_atom_site_type_symbol
_atom_site_label
_atom_site_fract_x
_atom_site_fract_y
_atom_site_fract_z
Si Si1 0.706823 0.658885 0.561308
Si Si2 0.599857 0.659715 0.286075
Si Si3 0.000000 0.251249 0.000000
Si Si4 0.947452 0.845840 0.361312
Si Si5 0.721552 0.847138 0.190088
Si Si6 0.633305 0.657114 0.761255
Si Si7 0.216374 0.153261 0.030889
Si Si8 0.934272 0.654235 0.737363
O O1 0.713900 0.500000 0.546519
O O2 0.659967 0.719726 0.424010
O O3 0.629792 0.692032 0.627344
O O4 0.821899 0.714528 0.646259
O O5 0.620741 0.500000 0.278449
O O6 0.636613 0.741013 0.194295
O O7 0.478009 0.690172 0.239871
O O8 0.092273 0.160705 0.991718
O O9 0.050874 0.343278 0.121750
O O10 0.823457 0.837906 0.317641
O O11 0.000000 0.793050 0.500000
O O12 0.978877 0.747896 0.276104
O O13 0.982265 0.000000 0.349691
O O14 0.675221 0.000000 0.171311
O O15 0.755729 0.806334 0.082151
O O16 0.663996 0.500000 0.793387
O O17 0.722623 0.745492 0.859973
O O18 0.252440 0.000000 0.073515
O O19 0.947786 0.500000 0.702425
#
# Coordination Sequence:
#
# PCOD8066425 Si02
#       8
#     4   4   2   4   4   4   4   4
#     4   9  18  36  59  88 121 153 189 235 293 350
#     4  10  21  38  63  88 114 154 199 240 289 347
#     4  12  22  40  62  88 120 154 194 238 288 352
#     4  10  21  38  58  82 117 160 200 238 286 345
#     4  10  22  40  57  81 117 155 195 241 295 341
#     4  10  21  39  62  89 119 151 192 245 295 343
#     4  11  24  41  63  87 115 155 197 239 288 349
#     4  11  22  35  59  91 121 153 191 240 295 347
#
# _framework density 19.852198999999999
#
# number of rings (size 3 to 8) (size 9 to 14) (size 15 to 20)
#    0.000    1.733    2.667    1.600    0.000    5.067 
#    0.000    3.333    0.000    1.600    0.000    0.000 
#    0.000    0.000    0.000    0.000    0.000    0.000 
#
# Total GULP energy -371996.732158 kJ/mol
# GULP energy per Si atom -12399.891072 kJ/mol
# Density = 1.980701 g / cm^3
# Si number density = 19.852199 Si / 1000 Ang^3
#
#
#
# Elastic Constant Matrix: (Units=GPa)
#
#
# Indices 1 2 3 4 5 6 
#
# 1 119.5731 52.2900 35.0736 0.0000 -15.6571 0.0000
# 2 52.2900 74.8111 32.3056 0.0000 -10.2078 0.0000
# 3 35.0736 32.3056 83.4788 0.0000 -3.6734 0.0000
# 4 0.0000 0.0000 0.0000 21.7091 0.0000 2.2869
# 5 -15.6571 -10.2078 -3.6734 0.0000 33.1661 0.0000
# 6 0.0000 0.0000 0.0000 2.2869 0.0000 21.9517
#
#
#
# Elastic Compliance Matrix: (Units=1/GPa)
#
#
# Indices 1 2 3 4 5 6 
#
# 1 0.012752 -0.007434 -0.002328 0.000000 0.003474 0.000000
# 2 -0.007434 0.021008 -0.004901 0.000000 0.002414 0.000000
# 3 -0.002328 -0.004901 0.014811 0.000000 -0.000967 0.000000
# 4 0.000000 0.000000 0.000000 0.046575 0.000000 -0.004852
# 5 0.003474 0.002414 -0.000967 0.000000 0.032427 0.000000
# 6 0.000000 0.000000 0.000000 -0.004852 0.000000 0.046060
#
#
# Mechanical properties :
#
#
# Convention : Reuss Voigt Hill
#
# Bulk Modulus (GPa) = 51.95675 57.46680 54.71178
# Shear Modulus (GPa) = 23.88083 25.91162 24.89623
#
# Velocity S-wave (km/s) = 3.47209 3.61671 3.54514
# Velocity P-wave (km/s) = 6.50404 6.81549 6.66159
#
# Compressibility (1/GPa) = 0.01924678
#
# Stress axis : x y z
#
# Youngs Moduli (GPa) = 78.42183 47.60014 67.51671
#
# Poissons Ratio (x) = 0.35384 0.15718
# Poissons Ratio (y) = 0.58295 0.33088
# Poissons Ratio (z) = 0.18256 0.23327
#
# Static dielectric constant tensor:
#      x y z
#    x 3.571680 0.000000 0.050670 
#    y 0.000000 3.347090 0.000000 
#    z 0.050670 0.000000 3.701740 
# 
# 
# High freq. dielectric constant tensor:
#      x y z
#    x 1.776480 0.000000 -0.000830 
#    y 0.000000 1.753160 0.000000 
#    z -0.000830 0.000000 1.780480 
# 
# From -- ./inp_files/49998.got.cif
#   From: 2010.06.25/outbox.cif.g09.slc.cpg/sg10_25_cif.got.tgz:49998.got - 2010.06.27 22:07:45.
