data_PCOD8066927
_publ_section_title
;
Structure prediction by ZEFSAII (Michael W. Deem and Ramdas Pophale) SiO2 
 PCOD8066927
Probable space group: P 2/M
;
_chemical_formula_sum "Si O2"
_cell_formula_units_Z 28
_cell_length_a 27.029906
_cell_length_b 8.388221
_cell_length_c 9.411585
_cell_angle_alpha 90.000000
_cell_angle_beta 38.752533
_cell_angle_gamma 90.000000
_cell_volume 1335.741218
_symmetry_space_group_name_H-M "P 2/M"
_symmetry_group_IT_number 10
_symmetry_cell_setting 'monoclinic'
loop_
_space_group_symop_operation_xyz
x,y,z
-x,y,-z
-x,-y,-z
x,-y,z
loop_
_atom_site_type_symbol
_atom_site_label
_atom_site_fract_x
_atom_site_fract_y
_atom_site_fract_z
Si Si1 0.594165 0.674173 0.791116
Si Si2 0.276219 0.677090 0.709730
Si Si3 0.860800 0.184898 0.150093
Si Si4 0.723656 0.176694 0.987689
Si Si5 0.574652 0.000000 0.934018
Si Si6 0.996770 0.314594 0.343421
Si Si7 0.578168 0.000000 0.237938
Si Si8 0.853501 0.186009 0.486404
O O1 0.619256 0.500000 0.802177
O O2 0.632549 0.685656 0.547722
O O3 0.625128 0.835052 0.801683
O O4 0.500000 0.681121 0.000000
O O5 0.241637 0.500000 0.767237
O O6 0.225344 0.796294 0.726650
O O7 0.271876 0.714600 0.884902
O O8 0.860679 0.258136 0.310899
O O9 0.885806 0.000000 0.094853
O O10 0.920384 0.283714 0.918443
O O11 0.632120 0.157712 0.143773
O O12 0.758003 0.000000 0.948506
O O13 0.776763 0.254279 0.742852
O O14 0.500000 0.000000 0.000000
O O15 0.541932 0.000000 0.164102
O O16 0.975125 0.500000 0.386688
O O17 0.000000 0.255383 0.500000
O O18 0.930721 0.218602 0.405958
O O19 0.500000 0.000000 0.500000
O O20 0.840953 0.000000 0.492696
#
# Coordination Sequence:
#
# PCOD8066927 Si02
#       8
#     4   4   4   4   2   4   2   4
#     4   9  21  37  59  92 126 160 215 272 319 383
#     4  11  23  39  61  90 126 165 212 262 319 387
#     4  11  24  39  64  93 124 162 208 264 314 377
#     4   9  22  39  62  86 126 165 201 261 308 382
#     4  10  22  36  70  94 121 172 213 266 324 390
#     4  11  24  41  63  90 124 164 209 256 311 381
#     4  10  24  40  64 102 129 163 219 272 313 389
#     4  10  22  41  60  89 124 161 205 259 318 369
#
# _framework density 20.962143999999999
#
# number of rings (size 3 to 8) (size 9 to 14) (size 15 to 20)
#    0.429    1.429    0.000    2.571    8.000    6.857 
#    0.000    0.714    0.000    0.857    0.000    0.000 
#    0.000    0.000    0.000    0.000    0.000    0.000 
#
# Total GULP energy -346928.813710 kJ/mol
# GULP energy per Si atom -12390.314775 kJ/mol
# Density = 2.091443 g / cm^3
# Si number density = 20.962144 Si / 1000 Ang^3
#
#
#
# Elastic Constant Matrix: (Units=GPa)
#
#
# Indices 1 2 3 4 5 6 
#
# 1 119.4986 8.3844 65.3028 0.0000 20.9095 0.0000
# 2 8.3844 93.9059 27.2905 0.0000 14.9732 0.0000
# 3 65.3028 27.2905 185.5612 0.0000 20.1951 0.0000
# 4 0.0000 0.0000 0.0000 25.3031 0.0000 3.7141
# 5 20.9095 14.9732 20.1951 0.0000 42.7584 0.0000
# 6 0.0000 0.0000 0.0000 3.7141 0.0000 9.1109
#
#
#
# Elastic Compliance Matrix: (Units=1/GPa)
#
#
# Indices 1 2 3 4 5 6 
#
# 1 0.010930 0.000671 -0.003519 0.000000 -0.003918 0.000000
# 2 0.000671 0.011623 -0.001547 0.000000 -0.003668 0.000000
# 3 -0.003519 -0.001547 0.006967 0.000000 -0.001028 0.000000
# 4 0.000000 0.000000 0.000000 0.042036 0.000000 -0.017136
# 5 -0.003918 -0.003668 -0.001028 0.000000 0.027073 0.000000
# 6 0.000000 0.000000 0.000000 -0.017136 0.000000 0.116744
#
#
# Mechanical properties :
#
#
# Convention : Reuss Voigt Hill
#
# Bulk Modulus (GPa) = 48.23432 66.76901 57.50167
# Shear Modulus (GPa) = 21.63829 35.30034 28.46931
#
# Velocity S-wave (km/s) = 3.21636 4.10811 3.68928
# Velocity P-wave (km/s) = 6.07070 7.37723 6.75562
#
# Compressibility (1/GPa) = 0.02073213
#
# Stress axis : x y z
#
# Youngs Moduli (GPa) = 91.49448 86.03373 143.53984
#
# Poissons Ratio (x) = -0.05777 0.50507
# Poissons Ratio (y) = -0.06143 0.22199
# Poissons Ratio (z) = 0.32194 0.13305
#
# Static dielectric constant tensor:
#      x y z
#    x 3.560700 0.000000 0.152670 
#    y 0.000000 4.579660 0.000000 
#    z 0.152670 0.000000 4.001410 
# 
# 
# High freq. dielectric constant tensor:
#      x y z
#    x 1.797360 0.000000 0.006190 
#    y 0.000000 1.814550 0.000000 
#    z 0.006190 0.000000 1.841960 
# 
# From -- ./inp_files/37211.got.cif
#   From: 2010.06.25/outbox.cif.g09.slc.cpg/sg10_19_cif.got.tgz:37211.got - 2010.06.27 22:07:45.
