data_PCOD8066872
_publ_section_title
;
Structure prediction by ZEFSAII (Michael W. Deem and Ramdas Pophale) SiO2 
 PCOD8066872
Probable space group: P 2/M
;
_chemical_formula_sum "Si O2"
_cell_formula_units_Z 28
_cell_length_a 15.433253
_cell_length_b 17.903446
_cell_length_c 8.514792
_cell_angle_alpha 90.000000
_cell_angle_beta 38.303918
_cell_angle_gamma 90.000000
_cell_volume 1458.285745
_symmetry_space_group_name_H-M "P 2/M"
_symmetry_group_IT_number 10
_symmetry_cell_setting 'monoclinic'
loop_
_space_group_symop_operation_xyz
x,y,z
-x,y,-z
-x,-y,-z
x,-y,z
loop_
_atom_site_type_symbol
_atom_site_label
_atom_site_fract_x
_atom_site_fract_y
_atom_site_fract_z
Si Si1 0.654604 0.085853 0.211945
Si Si2 0.711158 0.583715 0.109944
Si Si3 0.426208 0.585482 0.359749
Si Si4 0.341636 0.738928 0.377946
Si Si5 0.867919 0.183839 0.099465
Si Si6 0.361945 0.791969 0.000906
Si Si7 0.112368 0.286318 0.204964
O O1 0.500000 0.096025 0.500000
O O2 0.766621 0.120755 0.173850
O O3 0.663348 0.123547 0.026290
O O4 0.694700 0.000000 0.131947
O O5 0.763302 0.500000 0.023116
O O6 0.592501 0.598464 0.145536
O O7 0.646923 0.599934 0.370804
O O8 0.856682 0.628325 0.883083
O O9 0.398180 0.500000 0.338927
O O10 0.362012 0.648244 0.331776
O O11 0.212131 0.760058 0.670088
O O12 0.479837 0.770557 0.264154
O O13 0.323495 0.780561 0.237438
O O14 0.938835 0.235902 0.865994
O O15 0.000000 0.145543 0.000000
O O16 0.266301 0.739580 0.033108
O O17 0.000000 0.278500 0.500000
#
# Coordination Sequence:
#
# PCOD8066872 Si02
#       7
#     4   4   4   4   4   4   4
#     4  10  21  41  66  93 123 158 196 233 295 372
#     4   9  17  30  52  83 114 154 205 256 309 359
#     4   9  17  31  56  86 117 156 207 259 308 353
#     4  11  19  36  59  88 120 156 203 253 299 342
#     4  11  23  38  63  90 122 156 199 250 303 356
#     4  10  22  35  58  90 117 153 198 249 289 354
#     4  11  21  35  55  81 118 159 206 250 299 360
#
# _framework density 19.200627000000001
#
# number of rings (size 3 to 8) (size 9 to 14) (size 15 to 20)
#    0.000    1.857    4.286    1.714    0.000    0.571 
#    0.000    4.286    0.000   18.000    0.000    0.000 
#    0.000    0.000    0.000    0.000    0.000    0.000 
#
# Total GULP energy -347011.020694 kJ/mol
# GULP energy per Si atom -12393.250739 kJ/mol
# Density = 1.915693 g / cm^3
# Si number density = 19.200627 Si / 1000 Ang^3
#
#
#
# Elastic Constant Matrix: (Units=GPa)
#
#
# Indices 1 2 3 4 5 6 
#
# 1 100.6870 56.7597 33.8222 0.0000 -3.4021 0.0000
# 2 56.7597 145.3632 39.6688 0.0000 3.8159 0.0000
# 3 33.8222 39.6688 86.8998 0.0000 7.3987 0.0000
# 4 0.0000 0.0000 0.0000 24.2796 0.0000 5.7904
# 5 -3.4021 3.8159 7.3987 0.0000 24.2044 0.0000
# 6 0.0000 0.0000 0.0000 5.7904 0.0000 15.4074
#
#
#
# Elastic Compliance Matrix: (Units=1/GPa)
#
#
# Indices 1 2 3 4 5 6 
#
# 1 0.013821 -0.004501 -0.003645 0.000000 0.003766 0.000000
# 2 -0.004501 0.009324 -0.002388 0.000000 -0.001373 0.000000
# 3 -0.003645 -0.002388 0.014403 0.000000 -0.004538 0.000000
# 4 0.000000 0.000000 0.000000 0.045242 0.000000 -0.017003
# 5 0.003766 -0.001373 -0.004538 0.000000 0.043448 0.000000
# 6 0.000000 0.000000 0.000000 -0.017003 0.000000 0.071294
#
#
# Mechanical properties :
#
#
# Convention : Reuss Voigt Hill
#
# Bulk Modulus (GPa) = 60.67933 65.93905 63.30919
# Shear Modulus (GPa) = 22.31224 26.29157 24.30190
#
# Velocity S-wave (km/s) = 3.41260 3.70443 3.56150
# Velocity P-wave (km/s) = 6.87016 7.26042 7.06799
#
# Compressibility (1/GPa) = 0.01648008
#
# Stress axis : x y z
#
# Youngs Moduli (GPa) = 72.35555 107.24613 69.43108
#
# Poissons Ratio (x) = 0.48267 0.25310
# Poissons Ratio (y) = 0.32564 0.16580
# Poissons Ratio (z) = 0.26376 0.25610
#
# Static dielectric constant tensor:
#      x y z
#    x 3.632930 0.000000 0.002370 
#    y 0.000000 3.565390 0.000000 
#    z 0.002370 0.000000 3.305930 
# 
# 
# High freq. dielectric constant tensor:
#      x y z
#    x 1.737660 0.000000 0.000190 
#    y 0.000000 1.740930 0.000000 
#    z 0.000190 0.000000 1.739090 
# 
# From -- ./inp_files/30103.got.cif
#   From: 2010.06.25/outbox.cif.g09.slc.cpg/sg10_16_cif.got.tgz:30103.got - 2010.06.27 22:07:45.
