data_PCOD8066383
_publ_section_title
;
Structure prediction by ZEFSAII (Michael W. Deem and Ramdas Pophale) SiO2 
 PCOD8066383
Probable space group: P 2/M
;
_chemical_formula_sum "Si O2"
_cell_formula_units_Z 28
_cell_length_a 11.673838
_cell_length_b 15.880597
_cell_length_c 8.687320
_cell_angle_alpha 90.000000
_cell_angle_beta 61.218540
_cell_angle_gamma 90.000000
_cell_volume 1411.561018
_symmetry_space_group_name_H-M "P 2/M"
_symmetry_group_IT_number 10
_symmetry_cell_setting 'monoclinic'
loop_
_space_group_symop_operation_xyz
x,y,z
-x,y,-z
-x,-y,-z
x,-y,z
loop_
_atom_site_type_symbol
_atom_site_label
_atom_site_fract_x
_atom_site_fract_y
_atom_site_fract_z
Si Si1 0.810852 0.768020 0.897247
Si Si2 0.614355 0.317809 0.217976
Si Si3 0.622687 0.500000 0.311583
Si Si4 0.920151 0.500000 0.209967
Si Si5 0.590203 0.789416 0.811657
Si Si6 0.948281 0.673797 0.363082
Si Si7 0.710263 0.216111 0.428621
Si Si8 0.155038 0.904835 0.896156
O O1 0.728134 0.762950 0.794589
O O2 0.960043 0.743373 0.776631
O O3 0.756332 0.703040 0.057793
O O4 0.797158 0.861990 0.976377
O O5 0.606171 0.417397 0.221331
O O6 0.499152 0.289969 0.177585
O O7 0.610575 0.270083 0.386065
O O8 0.500000 0.500000 0.500000
O O9 0.763543 0.500000 0.300113
O O10 0.960023 0.583730 0.274834
O O11 0.000000 0.500000 0.000000
O O12 0.628461 0.830947 0.620842
O O13 0.500000 0.839757 0.000000
O O14 0.804476 0.713702 0.444842
O O15 0.000000 0.659586 0.500000
O O16 0.787396 0.143550 0.288788
O O17 0.208213 0.000000 0.857342
O O18 0.000000 0.902296 0.000000
#
# Coordination Sequence:
#
# PCOD8066383 Si02
#       8
#     4   4   2   2   4   4   4   4
#     4  10  21  39  62  88 125 160 201 251 316 381
#     4  10  22  37  61  86 116 163 213 256 300 368
#     4  12  22  35  57  89 119 152 211 268 305 345
#     4  12  27  41  60  89 132 171 219 271 312 378
#     4  10  21  39  60  87 116 162 209 251 302 372
#     4  12  23  38  60  91 127 167 206 255 323 369
#     4  11  20  37  65  85 122 159 206 255 310 375
#     4  10  21  37  63  98 127 154 200 258 317 378
#
# _framework density 19.836196000000001
#
# number of rings (size 3 to 8) (size 9 to 14) (size 15 to 20)
#    0.000    1.286    4.286    2.357    2.000    0.000 
#    0.000    4.643    0.000   29.143    0.000    0.000 
#    0.000    0.000    0.000    0.000    0.000    0.000 
#
# Total GULP energy -346873.946729 kJ/mol
# GULP energy per Si atom -12388.355240 kJ/mol
# Density = 1.979105 g / cm^3
# Si number density = 19.836196 Si / 1000 Ang^3
#
#
#
# Elastic Constant Matrix: (Units=GPa)
#
#
# Indices 1 2 3 4 5 6 
#
# 1 89.9321 26.2213 28.5247 0.0000 7.8142 0.0000
# 2 26.2213 127.6667 49.7715 0.0000 6.8157 0.0000
# 3 28.5247 49.7715 135.4484 0.0000 7.3430 0.0000
# 4 0.0000 0.0000 0.0000 18.0124 0.0000 -1.0923
# 5 7.8142 6.8157 7.3430 0.0000 31.9565 0.0000
# 6 0.0000 0.0000 0.0000 -1.0923 0.0000 15.1952
#
#
#
# Elastic Compliance Matrix: (Units=1/GPa)
#
#
# Indices 1 2 3 4 5 6 
#
# 1 0.012402 -0.001700 -0.001865 0.000000 -0.002241 0.000000
# 2 -0.001700 0.009421 -0.003055 0.000000 -0.000891 0.000000
# 3 -0.001865 -0.003055 0.008950 0.000000 -0.000949 0.000000
# 4 0.000000 0.000000 0.000000 0.055760 0.000000 0.004008
# 5 -0.002241 -0.000891 -0.000949 0.000000 0.032249 0.000000
# 6 0.000000 0.000000 0.000000 0.004008 0.000000 0.066098
#
#
# Mechanical properties :
#
#
# Convention : Reuss Voigt Hill
#
# Bulk Modulus (GPa) = 57.04421 62.45356 59.74888
# Shear Modulus (GPa) = 24.51395 29.60148 27.05771
#
# Velocity S-wave (km/s) = 3.51924 3.86722 3.69732
# Velocity P-wave (km/s) = 6.73301 7.17590 6.95798
#
# Compressibility (1/GPa) = 0.01753026
#
# Stress axis : x y z
#
# Youngs Moduli (GPa) = 80.63438 106.14749 111.73331
#
# Poissons Ratio (x) = 0.18048 0.20843
# Poissons Ratio (y) = 0.13710 0.34139
# Poissons Ratio (z) = 0.15042 0.32432
#
# Static dielectric constant tensor:
#      x y z
#    x 3.709360 0.000000 0.047010 
#    y 0.000000 3.384830 0.000000 
#    z 0.047010 0.000000 4.015900 
# 
# 
# High freq. dielectric constant tensor:
#      x y z
#    x 1.787420 0.000000 -0.006690 
#    y 0.000000 1.736360 0.000000 
#    z -0.006690 0.000000 1.794010 
# 
# From -- ./inp_files/25240.got.cif
#   From: 2010.06.25/outbox.cif.g09.slc.cpg/sg10_13_cif.got.tgz:25240.got - 2010.06.27 22:07:45.
