data_PCOD8066490
_publ_section_title
;
Structure prediction by ZEFSAII (Michael W. Deem and Ramdas Pophale) SiO2 
 PCOD8066490
Probable space group: P 2/M
;
_chemical_formula_sum "Si O2"
_cell_formula_units_Z 20
_cell_length_a 4.968514
_cell_length_b 13.574851
_cell_length_c 12.411187
_cell_angle_alpha 90.000000
_cell_angle_beta 90.000033
_cell_angle_gamma 90.000000
_cell_volume 837.095310
_symmetry_space_group_name_H-M "P 2/M"
_symmetry_group_IT_number 10
_symmetry_cell_setting 'monoclinic'
loop_
_space_group_symop_operation_xyz
x,y,z
-x,y,-z
-x,-y,-z
x,-y,z
loop_
_atom_site_type_symbol
_atom_site_label
_atom_site_fract_x
_atom_site_fract_y
_atom_site_fract_z
Si Si1 0.106823 0.113019 0.889740
Si Si2 0.250000 0.250000 0.432047
Si Si3 0.589592 0.887738 0.751638
Si Si4 0.910406 0.612263 0.751639
Si Si5 0.606824 0.613019 0.110260
O O1 0.378791 0.160598 0.838112
O O2 0.885210 0.121771 0.798440
O O3 0.176993 0.000000 0.919097
O O4 0.000000 0.164915 0.000000
O O5 0.500000 0.295657 0.500000
O O6 0.401586 0.167316 0.361650
O O7 0.098413 0.332683 0.361650
O O8 0.000000 0.204343 0.500000
O O9 0.502043 0.000000 0.729297
O O10 0.997951 0.500000 0.729296
O O11 0.614786 0.621773 0.798440
O O12 0.121206 0.660598 0.838113
O O13 0.676988 0.500000 0.080904
O O14 0.500000 0.664916 0.000000
#
# Coordination Sequence:
#
# PCOD8066490 Si02
#       5
#     4   4   4   4   4
#     4   9  17  33  60  91 121 152 184 228 293 364
#     4  12  26  42  60  82 114 158 210 262 302 340
#     4  10  21  38  60  87 119 153 194 243 296 356
#     4  10  21  38  60  87 119 153 194 243 296 356
#     4   9  17  33  60  91 121 152 184 228 293 364
#
# _framework density 23.892142
#
# number of rings (size 3 to 8) (size 9 to 14) (size 15 to 20)
#    0.000    2.000    0.000    3.600    0.000    6.400 
#    0.000    4.000    0.000    0.000    0.000    0.000 
#    0.000    0.000    0.000    0.000    0.000    0.000 
#
# Total GULP energy -247946.860101 kJ/mol
# GULP energy per Si atom -12397.343005 kJ/mol
# Density = 2.383776 g / cm^3
# Si number density = 23.892142 Si / 1000 Ang^3
#
#
#
# Elastic Constant Matrix: (Units=GPa)
#
#
# Indices 1 2 3 4 5 6 
#
# 1 143.1483 28.0880 56.8990 0.0000 -0.0003 0.0000
# 2 28.0880 32.7019 41.3491 0.0000 -0.0008 0.0000
# 3 56.8990 41.3491 150.4189 0.0000 -0.0007 0.0000
# 4 0.0000 0.0000 0.0000 23.6812 0.0000 0.0000
# 5 -0.0003 -0.0008 -0.0007 0.0000 60.9414 0.0000
# 6 0.0000 0.0000 0.0000 0.0000 0.0000 29.7635
#
#
#
# Elastic Compliance Matrix: (Units=1/GPa)
#
#
# Indices 1 2 3 4 5 6 
#
# 1 0.008744 -0.005101 -0.001905 0.000000 0.000000 0.000000
# 2 -0.005101 0.049847 -0.011773 0.000000 0.000000 0.000000
# 3 -0.001905 -0.011773 0.010605 0.000000 0.000000 0.000000
# 4 0.000000 0.000000 0.000000 0.042228 0.000000 0.000000
# 5 0.000000 0.000000 0.000000 0.000000 0.016409 0.000000
# 6 0.000000 0.000000 0.000000 0.000000 0.000000 0.033598
#
#
# Mechanical properties :
#
#
# Convention : Reuss Voigt Hill
#
# Bulk Modulus (GPa) = 31.60857 64.32681 47.96769
# Shear Modulus (GPa) = 23.86235 36.20609 30.03422
#
# Velocity S-wave (km/s) = 3.16373 3.89703 3.54937
# Velocity P-wave (km/s) = 5.15791 6.87251 6.07600
#
# Compressibility (1/GPa) = 0.03163699
#
# Stress axis : x y z
#
# Youngs Moduli (GPa) = 114.36367 20.06157 94.29431
#
# Poissons Ratio (x) = 0.10234 0.17966
# Poissons Ratio (y) = 0.58339 1.11011
# Poissons Ratio (z) = 0.21790 0.23618
#
# Static dielectric constant tensor:
#      x y z
#    x 4.369950 0.000000 0.000000 
#    y 0.000000 4.147910 0.000000 
#    z 0.000000 0.000000 4.311250 
# 
# 
# High freq. dielectric constant tensor:
#      x y z
#    x 1.966780 0.000000 0.000000 
#    y 0.000000 1.923800 0.000000 
#    z 0.000000 0.000000 1.947540 
# 
# From -- ./inp_files/39065.got.cif
#   From: 2010.06.25/outbox.cif.g09.slc.cpg/sg10_20_cif.got.tgz:39065.got - 2010.06.27 22:07:45.
