data_PCOD8066148
_publ_section_title
;
Structure prediction by ZEFSAII (Michael W. Deem and Ramdas Pophale) SiO2 
 PCOD8066148
Probable space group: P 2/M
;
_chemical_formula_sum "Si O2"
_cell_formula_units_Z 32
_cell_length_a 14.288020
_cell_length_b 9.000492
_cell_length_c 14.359599
_cell_angle_alpha 90.000000
_cell_angle_beta 117.535436
_cell_angle_gamma 90.000000
_cell_volume 1637.455875
_symmetry_space_group_name_H-M "P 2/M"
_symmetry_group_IT_number 10
_symmetry_cell_setting 'monoclinic'
loop_
_space_group_symop_operation_xyz
x,y,z
-x,y,-z
-x,-y,-z
x,-y,z
loop_
_atom_site_type_symbol
_atom_site_label
_atom_site_fract_x
_atom_site_fract_y
_atom_site_fract_z
Si Si1 0.768795 0.325594 0.522292
Si Si2 0.979295 0.331461 0.729777
Si Si3 0.311818 0.823279 0.690370
Si Si4 0.458404 0.173782 0.250496
Si Si5 0.804780 0.174504 0.180240
Si Si6 0.159345 0.327712 0.168748
Si Si7 0.665011 0.827043 0.633278
Si Si8 0.250584 0.176719 0.050240
O O1 0.755343 0.500000 0.504904
O O2 0.879058 0.282509 0.621643
O O3 0.766443 0.248047 0.421145
O O4 0.670917 0.265654 0.540316
O O5 0.009390 0.500000 0.720540
O O6 0.951661 0.313942 0.827366
O O7 0.077964 0.232514 0.748026
O O8 0.429790 0.757521 0.729418
O O9 0.272944 0.770623 0.773928
O O10 0.308469 0.000000 0.677501
O O11 0.439658 0.206185 0.352560
O O12 0.363141 0.234951 0.141966
O O13 0.462473 0.000000 0.234269
O O14 0.813500 0.000000 0.185814
O O15 0.756931 0.228491 0.060164
O O16 0.196891 0.500000 0.188611
O O17 0.239362 0.218628 0.256952
O O18 0.156277 0.263781 0.062051
O O19 0.672358 0.000000 0.610850
O O20 0.235826 0.000000 0.055158
#
# Coordination Sequence:
#
# PCOD8066148 Si02
#       8
#     4   4   4   4   4   4   4   4
#     4  10  21  37  55  78 106 139 174 213 261 315
#     4   9  20  37  55  74 103 139 172 208 262 320
#     4  10  21  37  54  76 104 138 179 221 258 303
#     4   8  16  32  55  79 106 138 171 206 256 314
#     4  10  22  36  53  78 105 134 179 226 260 298
#     4   9  17  31  52  80 108 137 172 210 255 314
#     4   9  16  30  54  82 108 136 168 209 259 313
#     4   9  18  34  54  79 108 139 171 211 261 311
#
# _framework density 19.542511999999999
#
# number of rings (size 3 to 8) (size 9 to 14) (size 15 to 20)
#    0.000    2.750    0.000    2.625    0.000    6.000 
#    0.000   13.125    0.000    0.000    0.000    5.250 
#    0.000    0.000    0.000    0.000    0.000    0.000 
#
# Total GULP energy -396603.191262 kJ/mol
# GULP energy per Si atom -12393.849727 kJ/mol
# Density = 1.949803 g / cm^3
# Si number density = 19.542512 Si / 1000 Ang^3
#
#
#
# Elastic Constant Matrix: (Units=GPa)
#
#
# Indices 1 2 3 4 5 6 
#
# 1 92.8641 31.1940 28.7021 0.0000 -7.4634 0.0000
# 2 31.1940 27.4807 26.8550 0.0000 -11.4089 0.0000
# 3 28.7021 26.8550 83.9021 0.0000 -16.1460 0.0000
# 4 0.0000 0.0000 0.0000 19.8894 0.0000 -3.6057
# 5 -7.4634 -11.4089 -16.1460 0.0000 27.7665 0.0000
# 6 0.0000 0.0000 0.0000 -3.6057 0.0000 6.1839
#
#
#
# Elastic Compliance Matrix: (Units=1/GPa)
#
#
# Indices 1 2 3 4 5 6 
#
# 1 0.017812 -0.022146 0.000186 0.000000 -0.004203 0.000000
# 2 -0.022146 0.085319 -0.015913 0.000000 0.019851 0.000000
# 3 0.000186 -0.015913 0.017678 0.000000 0.003791 0.000000
# 4 0.000000 0.000000 0.000000 0.056221 0.000000 0.032781
# 5 -0.004203 0.019851 0.003791 0.000000 0.045246 0.000000
# 6 0.000000 0.000000 0.000000 0.032781 0.000000 0.180823
#
#
# Mechanical properties :
#
#
# Convention : Reuss Voigt Hill
#
# Bulk Modulus (GPa) = 22.19063 41.97214 32.08138
# Shear Modulus (GPa) = 10.12425 18.60103 14.36264
#
# Velocity S-wave (km/s) = 2.27857 3.08851 2.71392
# Velocity P-wave (km/s) = 4.27811 5.85171 5.12566
#
# Compressibility (1/GPa) = 0.04506407
#
# Stress axis : x y z
#
# Youngs Moduli (GPa) = 56.14163 11.72073 56.56815
#
# Poissons Ratio (x) = 0.25957 -0.01053
# Poissons Ratio (y) = 1.24331 0.90015
# Poissons Ratio (z) = -0.01045 0.18651
#
# Static dielectric constant tensor:
#      x y z
#    x 3.841620 0.000000 -0.282850 
#    y 0.000000 3.368020 0.000000 
#    z -0.282850 0.000000 3.625260 
# 
# 
# High freq. dielectric constant tensor:
#      x y z
#    x 1.758800 0.000000 -0.013550 
#    y 0.000000 1.743270 0.000000 
#    z -0.013550 0.000000 1.754020 
# 
# From -- ./inp_files/66615.got.cif
#   From: 2010.06.25/outbox.cif.g09.slc.cpg/sg10_34_cif.got.tgz:66615.got - 2010.06.27 22:07:45.
