data_PCOD8066645
_publ_section_title
;
Structure prediction by ZEFSAII (Michael W. Deem and Ramdas Pophale) SiO2 
 PCOD8066645
Probable space group: P 2/M
;
_chemical_formula_sum "Si O2"
_cell_formula_units_Z 24
_cell_length_a 13.334108
_cell_length_b 8.831080
_cell_length_c 13.339623
_cell_angle_alpha 90.000000
_cell_angle_beta 134.621975
_cell_angle_gamma 90.000000
_cell_volume 1118.028573
_symmetry_space_group_name_H-M "P 2/M"
_symmetry_group_IT_number 10
_symmetry_cell_setting 'monoclinic'
loop_
_space_group_symop_operation_xyz
x,y,z
-x,y,-z
-x,-y,-z
x,-y,z
loop_
_atom_site_type_symbol
_atom_site_label
_atom_site_fract_x
_atom_site_fract_y
_atom_site_fract_z
Si Si1 0.792228 0.322355 0.562456
Si Si2 0.871133 0.664881 0.976369
Si Si3 0.311462 0.826254 0.308730
Si Si4 0.076181 0.821276 0.786826
Si Si5 0.389750 0.179602 0.002403
Si Si6 0.530909 0.174748 0.304557
O O1 0.809772 0.500000 0.571362
O O2 0.735822 0.277455 0.633012
O O3 0.676408 0.267743 0.400616
O O4 0.942893 0.251118 0.635210
O O5 0.803277 0.500000 0.960807
O O6 0.765484 0.776132 0.846477
O O7 0.939197 0.762539 0.112063
O O8 0.000000 0.618875 0.000000
O O9 0.472271 0.809178 0.378935
O O10 0.277091 0.000000 0.312207
O O11 0.060680 0.000000 0.769950
O O12 0.232008 0.766955 0.859800
O O13 0.428180 0.235039 0.142736
O O14 0.394371 0.000000 0.002786
O O15 0.500000 0.248768 0.000000
O O16 0.566044 0.000000 0.308239
#
# Coordination Sequence:
#
# PCOD8066645 Si02
#       6
#     4   4   4   4   4   4
#     4  12  25  38  54  85 124 164 196 233 286 348
#     4  11  21  32  51  83 121 158 193 236 283 340
#     4  11  21  35  57  85 117 158 201 240 280 339
#     4  11  21  37  61  87 114 153 195 242 293 341
#     4   9  19  39  67  94 114 138 189 253 302 345
#     4  10  21  39  60  87 118 154 196 241 290 344
#
# _framework density 21.466356999999999
#
# number of rings (size 3 to 8) (size 9 to 14) (size 15 to 20)
#    0.000    1.333    3.333    3.500    0.000    4.000 
#    0.000    0.833    0.000    9.500    0.000    0.000 
#    0.000    0.000    0.000    0.000    0.000    0.000 
#
# Total GULP energy -297364.363437 kJ/mol
# GULP energy per Si atom -12390.181810 kJ/mol
# Density = 2.141750 g / cm^3
# Si number density = 21.466357 Si / 1000 Ang^3
#
#
#
# Elastic Constant Matrix: (Units=GPa)
#
#
# Indices 1 2 3 4 5 6 
#
# 1 108.9574 29.3318 32.7210 0.0000 21.0192 0.0000
# 2 29.3318 100.5294 27.8736 0.0000 23.2413 0.0000
# 3 32.7210 27.8736 77.2663 0.0000 35.4404 0.0000
# 4 0.0000 0.0000 0.0000 39.6228 0.0000 -3.1146
# 5 21.0192 23.2413 35.4404 0.0000 37.8563 0.0000
# 6 0.0000 0.0000 0.0000 -3.1146 0.0000 6.7689
#
#
#
# Elastic Compliance Matrix: (Units=1/GPa)
#
#
# Indices 1 2 3 4 5 6 
#
# 1 0.010998 -0.001882 -0.002993 0.000000 -0.002149 0.000000
# 2 -0.001882 0.012030 -0.001112 0.000000 -0.005300 0.000000
# 3 -0.002993 -0.001112 0.023722 0.000000 -0.019864 0.000000
# 4 0.000000 0.000000 0.000000 0.026185 0.000000 0.012049
# 5 -0.002149 -0.005300 -0.019864 0.000000 0.049459 0.000000
# 6 0.000000 0.000000 0.000000 0.012049 0.000000 0.153278
#
#
# Mechanical properties :
#
#
# Convention : Reuss Voigt Hill
#
# Bulk Modulus (GPa) = 28.75523 51.84510 40.30017
# Shear Modulus (GPa) = 16.70918 29.97139 23.34029
#
# Velocity S-wave (km/s) = 2.79299 3.74063 3.30099
# Velocity P-wave (km/s) = 4.88115 6.54681 5.77435
#
# Compressibility (1/GPa) = 0.03477628
#
# Stress axis : x y z
#
# Youngs Moduli (GPa) = 90.92616 83.12528 42.15543
#
# Poissons Ratio (x) = 0.15646 0.12616
# Poissons Ratio (y) = 0.17115 0.04687
# Poissons Ratio (z) = 0.27211 0.09242
#
# Static dielectric constant tensor:
#      x y z
#    x 3.959400 0.000000 0.392560 
#    y 0.000000 3.647670 0.000000 
#    z 0.392560 0.000000 4.131740 
# 
# 
# High freq. dielectric constant tensor:
#      x y z
#    x 1.819740 0.000000 0.028300 
#    y 0.000000 1.828450 0.000000 
#    z 0.028300 0.000000 1.846820 
# 
# From -- ./inp_files/66693.got.cif
#   From: 2010.06.25/outbox.cif.g09.slc.cpg/sg10_34_cif.got.tgz:66693.got - 2010.06.27 22:07:45.
