data_PCOD8066365
_publ_section_title
;
Structure prediction by ZEFSAII (Michael W. Deem and Ramdas Pophale) SiO2 
 PCOD8066365
Probable space group: P 2/M
;
_chemical_formula_sum "Si O2"
_cell_formula_units_Z 30
_cell_length_a 5.439341
_cell_length_b 28.740813
_cell_length_c 9.694373
_cell_angle_alpha 90.000000
_cell_angle_beta 75.596531
_cell_angle_gamma 90.000000
_cell_volume 1467.895784
_symmetry_space_group_name_H-M "P 2/M"
_symmetry_group_IT_number 10
_symmetry_cell_setting 'monoclinic'
loop_
_space_group_symop_operation_xyz
x,y,z
-x,y,-z
-x,-y,-z
x,-y,z
loop_
_atom_site_type_symbol
_atom_site_label
_atom_site_fract_x
_atom_site_fract_y
_atom_site_fract_z
Si Si1 0.800693 0.652139 0.139434
Si Si2 0.519900 0.257333 0.145558
Si Si3 0.582213 0.820876 0.336648
Si Si4 0.713839 0.500000 0.588052
Si Si5 0.080784 0.123079 0.336174
Si Si6 0.099031 0.688627 0.343571
Si Si7 0.213619 0.945336 0.082345
Si Si8 0.573283 0.598113 0.650015
O O1 0.652502 0.693852 0.086765
O O2 0.649308 0.606488 0.207925
O O3 0.878188 0.676236 0.270743
O O4 0.000000 0.633560 0.000000
O O5 0.661846 0.223321 0.231944
O O6 0.255356 0.269902 0.253704
O O7 0.500000 0.231422 0.000000
O O8 0.500000 0.804053 0.500000
O O9 0.338543 0.846333 0.302611
O O10 0.838596 0.850977 0.303769
O O11 0.500000 0.500000 0.500000
O O12 0.684174 0.547780 0.679004
O O13 0.000000 0.500000 0.500000
O O14 0.140528 0.078116 0.236913
O O15 0.000000 0.106369 0.500000
O O16 0.235430 0.640161 0.356238
O O17 0.000000 0.710158 0.500000
O O18 0.205280 0.000000 0.109713
O O19 0.500000 0.929912 0.000000
O O20 0.000000 0.930637 0.000000
O O21 0.500000 0.597203 0.500000
#
# Coordination Sequence:
#
# PCOD8066365 Si02
#       8
#     4   4   4   2   4   4   4   4
#     4  11  23  40  59  87 125 158 200 255 309 365
#     4  11  25  39  57  88 116 158 209 254 311 366
#     4  10  24  40  62  89 124 164 209 263 311 369
#     4  10  22  38  65  97 129 155 200 257 298 359
#     4  10  22  42  62  90 125 165 211 258 315 371
#     4  11  22  37  63  85 118 155 204 253 303 367
#     4  10  21  38  63  95 128 164 210 261 315 376
#     4  10  21  37  61  94 118 158 202 248 303 364
#
# _framework density 20.437417
#
# number of rings (size 3 to 8) (size 9 to 14) (size 15 to 20)
#    0.000    1.600    2.667    1.200    5.600    2.400 
#    0.000    0.333    0.000    5.600    0.000    0.000 
#    0.000    0.000    0.000    0.000    0.000    0.000 
#
# Total GULP energy -371755.667068 kJ/mol
# GULP energy per Si atom -12391.855569 kJ/mol
# Density = 2.039090 g / cm^3
# Si number density = 20.437417 Si / 1000 Ang^3
#
#
#
# Elastic Constant Matrix: (Units=GPa)
#
#
# Indices 1 2 3 4 5 6 
#
# 1 123.3243 32.7255 44.3580 0.0000 -10.7634 0.0000
# 2 32.7255 89.5000 61.9326 0.0000 -6.5488 0.0000
# 3 44.3580 61.9326 151.6010 0.0000 -15.7674 0.0000
# 4 0.0000 0.0000 0.0000 39.7156 0.0000 48.5331
# 5 -10.7634 -6.5488 -15.7674 0.0000 36.2591 0.0000
# 6 0.0000 0.0000 0.0000 48.5331 0.0000 366.7018
#
#
#
# Elastic Compliance Matrix: (Units=1/GPa)
#
#
# Indices 1 2 3 4 5 6 
#
# 1 0.009439 -0.002145 -0.001712 0.000000 0.001670 0.000000
# 2 -0.002145 0.016064 -0.005969 0.000000 -0.000331 0.000000
# 3 -0.001712 -0.005969 0.009815 0.000000 0.002682 0.000000
# 4 0.000000 0.000000 0.000000 0.030037 0.000000 -0.003975
# 5 0.001670 -0.000331 0.002682 0.000000 0.029181 0.000000
# 6 0.000000 0.000000 0.000000 -0.003975 0.000000 0.003253
#
#
# Mechanical properties :
#
#
# Convention : Reuss Voigt Hill
#
# Bulk Modulus (GPa) = 63.83306 71.38416 67.60861
# Shear Modulus (GPa) = 40.76184 103.56256 72.16220
#
# Velocity S-wave (km/s) = 4.47080 7.12622 5.94857
# Velocity P-wave (km/s) = 7.61262 10.13483 8.96288
#
# Compressibility (1/GPa) = 0.01566586
#
# Stress axis : x y z
#
# Youngs Moduli (GPa) = 105.93924 62.25161 101.88719
#
# Poissons Ratio (x) = 0.13350 0.17444
# Poissons Ratio (y) = 0.22719 0.60821
# Poissons Ratio (z) = 0.18138 0.37161
#
# Static dielectric constant tensor:
#      x y z
#    x 4.013680 0.000000 -0.058510 
#    y 0.000000 3.858620 0.000000 
#    z -0.058510 0.000000 3.766820 
# 
# 
# High freq. dielectric constant tensor:
#      x y z
#    x 1.810410 0.000000 -0.002480 
#    y 0.000000 1.785870 0.000000 
#    z -0.002480 0.000000 1.803140 
# 
# From -- ./inp_files/15894.got.cif
#   From: 2010.06.25/outbox.cif.g09.slc.cpg/sg10_8_cif.got.tgz:15894.got - 2010.06.27 22:07:45.
