data_PCOD8066708
_publ_section_title
;
Structure prediction by ZEFSAII (Michael W. Deem and Ramdas Pophale) SiO2 
 PCOD8066708
Probable space group: P 2/M
;
_chemical_formula_sum "Si O2"
_cell_formula_units_Z 28
_cell_length_a 17.494850
_cell_length_b 8.620266
_cell_length_c 14.307510
_cell_angle_alpha 90.000000
_cell_angle_beta 42.453564
_cell_angle_gamma 90.000000
_cell_volume 1456.444247
_symmetry_space_group_name_H-M "P 2/M"
_symmetry_group_IT_number 10
_symmetry_cell_setting 'monoclinic'
loop_
_space_group_symop_operation_xyz
x,y,z
-x,y,-z
-x,-y,-z
x,-y,z
loop_
_atom_site_type_symbol
_atom_site_label
_atom_site_fract_x
_atom_site_fract_y
_atom_site_fract_z
Si Si1 0.850519 0.682583 0.378454
Si Si2 0.256694 0.320432 0.204865
Si Si3 0.921389 0.181047 0.766215
Si Si4 0.881448 0.682123 0.143064
Si Si5 0.567365 0.677802 0.116215
Si Si6 0.228336 0.680009 0.943922
Si Si7 0.672780 0.821139 0.667467
O O1 0.872635 0.500000 0.360523
O O2 0.847703 0.749247 0.274738
O O3 0.730957 0.721238 0.533524
O O4 0.948461 0.767276 0.348664
O O5 0.251527 0.500000 0.237718
O O6 0.139209 0.272616 0.262955
O O7 0.274437 0.219666 0.280482
O O8 0.360238 0.287299 0.041499
O O9 0.912655 0.000000 0.753296
O O10 0.862942 0.219449 0.917657
O O11 0.897276 0.500000 0.140085
O O12 0.783545 0.720169 0.155254
O O13 0.000000 0.754740 0.000000
O O14 0.525911 0.500000 0.154120
O O15 0.644043 0.715698 0.138056
O O16 0.460657 0.789284 0.213696
O O17 0.199072 0.500000 0.990982
O O18 0.694512 0.000000 0.627028
#
# Coordination Sequence:
#
# PCOD8066708 Si02
#       7
#     4   4   4   4   4   4   4
#     4  11  22  38  59  81 113 153 192 232 279 333
#     4  10  21  39  63  86 109 144 193 236 275 328
#     4  11  21  34  54  86 121 148 181 227 284 339
#     4   9  16  31  60  90 111 139 189 239 276 320
#     4   9  19  36  60  85 111 145 190 233 274 329
#     4   9  17  34  59  87 114 145 188 237 278 323
#     4  12  25  39  55  80 116 151 187 232 285 339
#
# _framework density 19.224903999999999
#
# number of rings (size 3 to 8) (size 9 to 14) (size 15 to 20)
#    0.000    1.857    1.429    4.714    0.000    5.143 
#    0.000    5.714    0.000    4.286    0.000    0.000 
#    0.000    0.000    0.000    0.000    0.000    0.000 
#
# Total GULP energy -347268.382459 kJ/mol
# GULP energy per Si atom -12402.442231 kJ/mol
# Density = 1.918115 g / cm^3
# Si number density = 19.224904 Si / 1000 Ang^3
#
#
#
# Elastic Constant Matrix: (Units=GPa)
#
#
# Indices 1 2 3 4 5 6 
#
# 1 102.4943 20.8721 38.8464 0.0000 21.0083 0.0000
# 2 20.8721 53.2679 18.8907 0.0000 -4.1569 0.0000
# 3 38.8464 18.8907 72.4324 0.0000 14.9196 0.0000
# 4 0.0000 0.0000 0.0000 21.0530 0.0000 -3.4678
# 5 21.0083 -4.1569 14.9196 0.0000 16.6219 0.0000
# 6 0.0000 0.0000 0.0000 -3.4678 0.0000 14.9620
#
#
#
# Elastic Compliance Matrix: (Units=1/GPa)
#
#
# Indices 1 2 3 4 5 6 
#
# 1 0.016301 -0.006911 -0.002871 0.000000 -0.019754 0.000000
# 2 -0.006911 0.025886 -0.007579 0.000000 0.022011 0.000000
# 3 -0.002871 -0.007579 0.020813 0.000000 -0.016948 0.000000
# 4 0.000000 0.000000 0.000000 0.049385 0.000000 0.011446
# 5 -0.019754 0.022011 -0.016948 0.000000 0.105846 0.000000
# 6 0.000000 0.000000 0.000000 0.011446 0.000000 0.069489
#
#
# Mechanical properties :
#
#
# Convention : Reuss Voigt Hill
#
# Bulk Modulus (GPa) = 35.36127 42.82367 39.09247
# Shear Modulus (GPa) = 15.06623 20.49974 17.78299
#
# Velocity S-wave (km/s) = 2.80247 3.26899 3.04468
# Velocity P-wave (km/s) = 5.37635 6.04746 5.72176
#
# Compressibility (1/GPa) = 0.02827953
#
# Stress axis : x y z
#
# Youngs Moduli (GPa) = 61.34531 38.63059 48.04579
#
# Poissons Ratio (x) = 0.26696 0.13795
# Poissons Ratio (y) = 0.42394 0.36413
# Poissons Ratio (z) = 0.17614 0.29277
#
# Static dielectric constant tensor:
#      x y z
#    x 3.718300 0.000000 0.088610 
#    y 0.000000 3.315300 0.000000 
#    z 0.088610 0.000000 3.379530 
# 
# 
# High freq. dielectric constant tensor:
#      x y z
#    x 1.760630 0.000000 0.001640 
#    y 0.000000 1.733580 0.000000 
#    z 0.001640 0.000000 1.729590 
# 
# From -- ./inp_files/68619.got.cif
#   From: 2010.06.25/outbox.cif.g09.slc.cpg/sg10_35_cif.got.tgz:68619.got - 2010.06.27 22:07:45.
