data_PCOD8066307
_publ_section_title
;
Structure prediction by ZEFSAII (Michael W. Deem and Ramdas Pophale) SiO2 
 PCOD8066307
Probable space group: P 2/M
;
_chemical_formula_sum "Si O2"
_cell_formula_units_Z 24
_cell_length_a 21.141072
_cell_length_b 14.709755
_cell_length_c 13.456091
_cell_angle_alpha 90.000000
_cell_angle_beta 162.298156
_cell_angle_gamma 90.000000
_cell_volume 1272.377457
_symmetry_space_group_name_H-M "P 2/M"
_symmetry_group_IT_number 10
_symmetry_cell_setting 'monoclinic'
loop_
_space_group_symop_operation_xyz
x,y,z
-x,y,-z
-x,-y,-z
x,-y,z
loop_
_atom_site_type_symbol
_atom_site_label
_atom_site_fract_x
_atom_site_fract_y
_atom_site_fract_z
Si Si1 0.829936 0.860249 0.808594
Si Si2 0.353655 0.605450 0.372208
Si Si3 0.697892 0.186039 0.224234
Si Si4 0.914752 0.000000 0.484171
Si Si5 0.056341 0.294919 0.253243
Si Si6 0.736302 0.000000 0.830301
Si Si7 0.576818 0.721991 0.332373
O O1 0.639067 0.826763 0.454819
O O2 0.766481 0.910465 0.811832
O O3 0.000000 0.918786 0.000000
O O4 0.940035 0.767136 0.001001
O O5 0.500000 0.633835 0.500000
O O6 0.372297 0.500000 0.425773
O O7 0.446322 0.659240 0.605753
O O8 0.112557 0.625434 0.980133
O O9 0.778303 0.089676 0.302160
O O10 0.884320 0.237717 0.560012
O O11 0.500000 0.167238 0.000000
O O12 0.638336 0.257124 0.047155
O O13 0.000000 0.000000 0.500000
O O14 0.118776 0.000000 0.857799
O O15 0.264773 0.327993 0.507960
O O16 0.500000 0.000000 0.500000
#
# Coordination Sequence:
#
# PCOD8066307 Si02
#       7
#     4   4   4   2   4   2   4
#     4   9  18  35  56  77 101 141 191 236 280 322
#     4  10  21  37  59  87 118 150 183 223 280 345
#     4  10  21  41  62  81 111 152 194 236 285 335
#     4  12  27  40  52  82 120 156 197 236 282 332
#     4   9  18  37  59  84 108 141 190 234 282 329
#     4  12  25  36  50  76 114 150 187 242 272 332
#     4   9  20  35  61  85 107 142 188 236 280 336
#
# _framework density 18.862328000000002
#
# number of rings (size 3 to 8) (size 9 to 14) (size 15 to 20)
#    0.000    2.167    1.667    2.000    2.333    5.333 
#    0.000    0.833    0.000    5.000    0.000    0.000 
#    0.000    0.000    0.000    0.000    0.000    0.000 
#
# Total GULP energy -297323.174925 kJ/mol
# GULP energy per Si atom -12388.465622 kJ/mol
# Density = 1.881940 g / cm^3
# Si number density = 18.862328 Si / 1000 Ang^3
#
#
#
# Elastic Constant Matrix: (Units=GPa)
#
#
# Indices 1 2 3 4 5 6 
#
# 1 131.2849 56.4041 49.3070 0.0000 4.4837 0.0000
# 2 56.4041 81.1242 33.6227 0.0000 3.8394 0.0000
# 3 49.3070 33.6227 91.1168 0.0000 -2.8817 0.0000
# 4 0.0000 0.0000 0.0000 -43.3306 0.0000 -2.0730
# 5 4.4837 3.8394 -2.8817 0.0000 26.8680 0.0000
# 6 0.0000 0.0000 0.0000 -2.0730 0.0000 32.8035
#
#
#
# Elastic Compliance Matrix: (Units=1/GPa)
#
#
# Indices 1 2 3 4 5 6 
#
# 1 0.012057 -0.006596 -0.004138 0.000000 -0.001513 0.000000
# 2 -0.006596 0.018354 -0.003262 0.000000 -0.001872 0.000000
# 3 -0.004138 -0.003262 0.014504 0.000000 0.002712 0.000000
# 4 0.000000 0.000000 0.000000 -0.023009 0.000000 -0.001454
# 5 -0.001513 -0.001872 0.002712 0.000000 0.038030 0.000000
# 6 0.000000 0.000000 0.000000 -0.001454 0.000000 0.030393
#
#
# Mechanical properties :
#
#
# Convention : Reuss Voigt Hill
#
# Bulk Modulus (GPa) = 59.09875 64.68818 61.89346
# Shear Modulus (GPa) = 40.33491 14.21432 27.27461
#
# Velocity S-wave (km/s) = 4.62928 2.74812 3.80673
# Velocity P-wave (km/s) = 7.74425 6.66625 7.22538
#
# Compressibility (1/GPa) = 0.01692083
#
# Stress axis : x y z
#
# Youngs Moduli (GPa) = 82.94051 54.48507 68.94673
#
# Poissons Ratio (x) = 0.35939 0.28532
# Poissons Ratio (y) = 0.54708 0.22493
# Poissons Ratio (z) = 0.34323 0.17775
#
# Static dielectric constant tensor:
#      x y z
#    x 3.575070 0.000000 0.042210 
#    y 0.000000 3.214750 0.000000 
#    z 0.042210 0.000000 3.686330 
# 
# 
# High freq. dielectric constant tensor:
#      x y z
#    x 1.742250 0.000000 -0.007840 
#    y 0.000000 1.709880 0.000000 
#    z -0.007840 0.000000 1.732700 
# 
# From -- ./inp_files/54213.got.cif
#   From: 2010.06.25/outbox.cif.g09.slc.cpg/sg10_28_cif.got.tgz:54213.got - 2010.06.27 22:07:45.
