data_PCOD8066995
_publ_section_title
;
Structure prediction by ZEFSAII (Michael W. Deem and Ramdas Pophale) SiO2 
 PCOD8066995
Probable space group: P 2/M
;
_chemical_formula_sum "Si O2"
_cell_formula_units_Z 20
_cell_length_a 13.520535
_cell_length_b 9.048932
_cell_length_c 21.676828
_cell_angle_alpha 90.000000
_cell_angle_beta 158.432410
_cell_angle_gamma 90.000000
_cell_volume 974.901478
_symmetry_space_group_name_H-M "P 2/M"
_symmetry_group_IT_number 10
_symmetry_cell_setting 'monoclinic'
loop_
_space_group_symop_operation_xyz
x,y,z
-x,y,-z
-x,-y,-z
x,-y,z
loop_
_atom_site_type_symbol
_atom_site_label
_atom_site_fract_x
_atom_site_fract_y
_atom_site_fract_z
Si Si1 0.825186 0.329426 0.254628
Si Si2 0.194818 0.825917 0.558243
Si Si3 0.238675 0.330695 0.925361
Si Si4 0.699763 0.674159 0.807929
Si Si5 0.295830 0.323893 0.329576
O O1 0.864046 0.500000 0.297868
O O2 0.853623 0.317044 0.198335
O O3 0.058556 0.227253 0.416228
O O4 0.535276 0.261640 0.108016
O O5 0.490704 0.752727 0.733231
O O6 0.000000 0.770071 0.500000
O O7 0.231068 0.000000 0.580384
O O8 0.273945 0.500000 0.964127
O O9 0.004099 0.258671 0.830980
O O10 0.669107 0.500000 0.798983
O O11 0.628410 0.722150 0.696095
O O12 0.000000 0.725365 0.000000
O O13 0.500000 0.259986 0.500000
O O14 0.286932 0.500000 0.330670
#
# Coordination Sequence:
#
# PCOD8066995 Si02
#       5
#     4   4   4   4   4
#     4   9  17  32  57  85 111 142 188 237 283 332
#     4  11  25  41  56  77 112 158 199 232 281 341
#     4   8  15  28  52  87 117 142 175 229 293 343
#     4  10  22  38  60  90 115 143 191 243 288 340
#     4   9  16  28  51  82 117 146 173 221 289 346
#
# _framework density 20.514894999999999
#
# number of rings (size 3 to 8) (size 9 to 14) (size 15 to 20)
#    0.000    2.600    0.000    3.000    2.800    5.200 
#    0.000    2.000    0.000    5.400    0.000    0.000 
#    0.000    0.000    0.000    0.000    0.000    0.000 
#
# Total GULP energy -247871.480910 kJ/mol
# GULP energy per Si atom -12393.574046 kJ/mol
# Density = 2.046820 g / cm^3
# Si number density = 20.514895 Si / 1000 Ang^3
#
#
#
# Elastic Constant Matrix: (Units=GPa)
#
#
# Indices 1 2 3 4 5 6 
#
# 1 94.2442 30.8750 46.7991 0.0000 28.6448 0.0000
# 2 30.8750 35.0516 32.0643 0.0000 8.6482 0.0000
# 3 46.7991 32.0643 122.5158 0.0000 18.8906 0.0000
# 4 0.0000 0.0000 0.0000 11.9898 0.0000 6.5865
# 5 28.6448 8.6482 18.8906 0.0000 41.5436 0.0000
# 6 0.0000 0.0000 0.0000 6.5865 0.0000 16.4494
#
#
#
# Elastic Compliance Matrix: (Units=1/GPa)
#
#
# Indices 1 2 3 4 5 6 
#
# 1 0.018505 -0.011658 -0.002607 0.000000 -0.009147 0.000000
# 2 -0.011658 0.045361 -0.007745 0.000000 0.002117 0.000000
# 3 -0.002607 -0.007745 0.011463 0.000000 -0.001803 0.000000
# 4 0.000000 0.000000 0.000000 0.106923 0.000000 -0.042813
# 5 -0.009147 0.002117 -0.001803 0.000000 0.030757 0.000000
# 6 0.000000 0.000000 0.000000 -0.042813 0.000000 0.077935
#
#
# Mechanical properties :
#
#
# Convention : Reuss Voigt Hill
#
# Bulk Modulus (GPa) = 31.94036 52.36537 42.15286
# Shear Modulus (GPa) = 14.47601 23.46812 18.97207
#
# Velocity S-wave (km/s) = 2.65926 3.38591 3.04434
# Velocity P-wave (km/s) = 5.00320 6.39271 5.74016
#
# Compressibility (1/GPa) = 0.03130835
#
# Stress axis : x y z
#
# Youngs Moduli (GPa) = 54.04025 22.04543 87.23757
#
# Poissons Ratio (x) = 0.25701 0.22743
# Poissons Ratio (y) = 0.63001 0.67565
# Poissons Ratio (z) = 0.14088 0.17074
#
# Static dielectric constant tensor:
#      x y z
#    x 3.876160 0.000000 0.281510 
#    y 0.000000 3.060420 0.000000 
#    z 0.281510 0.000000 4.013360 
# 
# 
# High freq. dielectric constant tensor:
#      x y z
#    x 1.809340 0.000000 0.014680 
#    y 0.000000 1.729460 0.000000 
#    z 0.014680 0.000000 1.819580 
# 
# From -- ./inp_files/71066.got.cif
#   From: 2010.06.25/outbox.cif.g09.slc.cpg/sg10_36_cif.got.tgz:71066.got - 2010.06.27 22:07:45.
