data_PCOD8066281
_publ_section_title
;
Structure prediction by ZEFSAII (Michael W. Deem and Ramdas Pophale) SiO2 
 PCOD8066281
Probable space group: P 2/M
;
_chemical_formula_sum "Si O2"
_cell_formula_units_Z 28
_cell_length_a 28.106854
_cell_length_b 7.583456
_cell_length_c 9.262809
_cell_angle_alpha 90.000000
_cell_angle_beta 137.587978
_cell_angle_gamma 90.000000
_cell_volume 1331.608594
_symmetry_space_group_name_H-M "P 2/M"
_symmetry_group_IT_number 10
_symmetry_cell_setting 'monoclinic'
loop_
_space_group_symop_operation_xyz
x,y,z
-x,y,-z
-x,-y,-z
x,-y,z
loop_
_atom_site_type_symbol
_atom_site_label
_atom_site_fract_x
_atom_site_fract_y
_atom_site_fract_z
Si Si1 0.439439 0.500000 0.476629
Si Si2 0.070788 0.293273 0.575129
Si Si3 0.198913 0.792310 0.364155
Si Si4 0.341528 0.795494 0.846115
Si Si5 0.454710 0.500000 0.038539
Si Si6 0.667417 0.793982 0.839364
Si Si7 0.062980 0.700709 0.235217
Si Si8 0.797457 0.801311 0.948648
O O1 0.500000 0.500000 0.500000
O O2 0.396664 0.680292 0.362910
O O3 0.477325 0.500000 0.710972
O O4 0.086528 0.500000 0.608063
O O5 0.068450 0.212620 0.407281
O O6 0.131413 0.200876 0.801680
O O7 0.000000 0.245692 0.500000
O O8 0.274380 0.740992 0.599651
O O9 0.137194 0.706896 0.319987
O O10 0.186079 0.000000 0.339149
O O11 0.195113 0.711410 0.192907
O O12 0.407423 0.675059 0.949377
O O13 0.362290 0.000000 0.867566
O O14 0.320437 0.759996 0.964201
O O15 0.500000 0.500000 0.000000
O O16 0.652052 0.000000 0.775122
O O17 0.735617 0.718747 0.907575
O O18 0.040303 0.500000 0.211111
O O19 0.000000 0.791916 0.000000
O O20 0.775096 0.000000 0.865862
#
# Coordination Sequence:
#
# PCOD8066281 Si02
#       8
#     2   4   4   4   2   4   4   4
#     4  12  24  44  66  98 127 158 209 254 300 382
#     4  10  21  37  58  86 120 158 204 254 303 355
#     4  10  22  39  60  87 120 159 203 247 302 364
#     4  10  22  43  66  91 126 166 205 255 310 367
#     4  12  28  44  64  98 129 160 211 248 308 378
#     4  10  22  41  67  93 125 164 205 256 312 364
#     4  10  21  37  58  86 120 160 203 250 305 359
#     4  10  22  39  60  89 119 157 204 249 302 361
#
# _framework density 21.027201000000002
#
# number of rings (size 3 to 8) (size 9 to 14) (size 15 to 20)
#    0.000    1.714    1.429    1.714    4.000    5.143 
#    0.000    0.000    0.000    0.000    0.000    0.000 
#    0.000    0.000    0.000    0.000    0.000    0.000 
#
# Total GULP energy -347129.614813 kJ/mol
# GULP energy per Si atom -12397.486243 kJ/mol
# Density = 2.097934 g / cm^3
# Si number density = 21.027201 Si / 1000 Ang^3
#
#
#
# Elastic Constant Matrix: (Units=GPa)
#
#
# Indices 1 2 3 4 5 6 
#
# 1 189.0074 34.0950 79.5669 0.0000 -15.9498 0.0000
# 2 34.0950 61.6451 34.8410 0.0000 3.9006 0.0000
# 3 79.5669 34.8410 185.3046 0.0000 -17.3704 0.0000
# 4 0.0000 0.0000 0.0000 29.2294 0.0000 9.3236
# 5 -15.9498 3.9006 -17.3704 0.0000 42.1772 0.0000
# 6 0.0000 0.0000 0.0000 9.3236 0.0000 25.3992
#
#
#
# Elastic Compliance Matrix: (Units=1/GPa)
#
#
# Indices 1 2 3 4 5 6 
#
# 1 0.006889 -0.002641 -0.002283 0.000000 0.001909 0.000000
# 2 -0.002641 0.019590 -0.002926 0.000000 -0.004015 0.000000
# 3 -0.002283 -0.002926 0.007147 0.000000 0.002351 0.000000
# 4 0.000000 0.000000 0.000000 0.038749 0.000000 -0.014224
# 5 0.001909 -0.004015 0.002351 0.000000 0.025771 0.000000
# 6 0.000000 0.000000 0.000000 -0.014224 0.000000 0.044593
#
#
# Mechanical properties :
#
#
# Convention : Reuss Voigt Hill
#
# Bulk Modulus (GPa) = 55.77914 81.44034 68.60974
# Shear Modulus (GPa) = 30.41093 38.52479 34.46786
#
# Velocity S-wave (km/s) = 3.80711 4.28499 4.05310
# Velocity P-wave (km/s) = 6.77570 7.95592 7.38941
#
# Compressibility (1/GPa) = 0.01792785
#
# Stress axis : x y z
#
# Youngs Moduli (GPa) = 145.15360 51.04569 139.91711
#
# Poissons Ratio (x) = 0.13482 0.31937
# Poissons Ratio (y) = 0.38336 0.40936
# Poissons Ratio (z) = 0.33132 0.14935
#
# Static dielectric constant tensor:
#      x y z
#    x 3.940770 0.000000 -0.195850 
#    y 0.000000 3.760630 0.000000 
#    z -0.195850 0.000000 3.892090 
# 
# 
# High freq. dielectric constant tensor:
#      x y z
#    x 1.836560 0.000000 -0.008010 
#    y 0.000000 1.814880 0.000000 
#    z -0.008010 0.000000 1.834900 
# 
# From -- ./inp_files/37366.got.cif
#   From: 2010.06.25/outbox.cif.g09.slc.cpg/sg10_19_cif.got.tgz:37366.got - 2010.06.27 22:07:45.
