data_PCOD8066634
_publ_section_title
;
Structure prediction by ZEFSAII (Michael W. Deem and Ramdas Pophale) SiO2 
 PCOD8066634
Probable space group: P 2/M
;
_chemical_formula_sum "Si O2"
_cell_formula_units_Z 26
_cell_length_a 15.399874
_cell_length_b 15.077983
_cell_length_c 10.015559
_cell_angle_alpha 90.000000
_cell_angle_beta 144.793882
_cell_angle_gamma 90.000000
_cell_volume 1340.755732
_symmetry_space_group_name_H-M "P 2/M"
_symmetry_group_IT_number 10
_symmetry_cell_setting 'monoclinic'
loop_
_space_group_symop_operation_xyz
x,y,z
-x,y,-z
-x,-y,-z
x,-y,z
loop_
_atom_site_type_symbol
_atom_site_label
_atom_site_fract_x
_atom_site_fract_y
_atom_site_fract_z
Si Si1 0.558372 0.787842 0.712099
Si Si2 0.817938 0.500000 0.065253
Si Si3 0.822738 0.500000 0.777846
Si Si4 0.143590 0.692656 0.841358
Si Si5 0.823635 0.252950 0.406456
Si Si6 0.546902 0.500000 0.907485
Si Si7 0.633649 0.899563 0.063308
Si Si8 0.653953 0.346875 0.429389
O O1 0.500000 0.832354 0.500000
O O2 0.413401 0.726807 0.558572
O O3 0.715242 0.731539 0.896629
O O4 0.580325 0.861467 0.853640
O O5 0.908658 0.592857 0.182450
O O6 0.742155 0.500000 0.822333
O O7 0.717581 0.500000 0.072722
O O8 0.782089 0.408497 0.653175
O O9 0.000000 0.500000 0.000000
O O10 0.187038 0.687898 0.740076
O O11 0.994923 0.753372 0.677122
O O12 0.772217 0.154060 0.301913
O O13 0.712563 0.298890 0.370631
O O14 0.486523 0.409483 0.772775
O O15 0.500000 0.500000 0.000000
O O16 0.687662 0.000000 0.108498
O O17 0.500000 0.893884 0.000000
#
# Coordination Sequence:
#
# PCOD8066634 Si02
#       8
#     4   2   2   4   4   2   4   4
#     4  11  22  38  60  91 121 159 200 244 301 362
#     4  12  20  36  56  75 124 165 201 249 284 344
#     4  11  25  38  52  80 121 171 214 243 291 350
#     4  10  22  36  59  86 125 160 202 248 303 344
#     4  10  21  39  59  89 118 152 198 255 306 359
#     4  11  23  32  52  83 110 154 201 251 288 323
#     4  10  21  40  68  93 115 149 195 249 308 373
#     4  11  22  35  57  80 116 158 208 243 283 345
#
# _framework density 19.392049
#
# number of rings (size 3 to 8) (size 9 to 14) (size 15 to 20)
#    0.000    1.385    3.077    2.769    2.154    3.385 
#    0.000    6.154    0.000    0.000    0.000    2.154 
#    0.000    0.000    0.000    0.000    0.000    0.000 
#
# Total GULP energy -322135.215024 kJ/mol
# GULP energy per Si atom -12389.815962 kJ/mol
# Density = 1.934791 g / cm^3
# Si number density = 19.392049 Si / 1000 Ang^3
#
#
#
# Elastic Constant Matrix: (Units=GPa)
#
#
# Indices 1 2 3 4 5 6 
#
# 1 63.3751 35.8157 30.5383 0.0000 -4.4231 0.0000
# 2 35.8157 150.2309 58.2864 0.0000 -1.5829 0.0000
# 3 30.5383 58.2864 108.0778 0.0000 4.5270 0.0000
# 4 0.0000 0.0000 0.0000 26.8602 0.0000 3.0729
# 5 -4.4231 -1.5829 4.5270 0.0000 32.8258 0.0000
# 6 0.0000 0.0000 0.0000 3.0729 0.0000 23.5717
#
#
#
# Elastic Compliance Matrix: (Units=1/GPa)
#
#
# Indices 1 2 3 4 5 6 
#
# 1 0.019680 -0.003101 -0.004016 0.000000 0.003056 0.000000
# 2 -0.003101 0.008942 -0.003969 0.000000 0.000561 0.000000
# 3 -0.004016 -0.003969 0.012632 0.000000 -0.002475 0.000000
# 4 0.000000 0.000000 0.000000 0.037793 0.000000 -0.004927
# 5 0.003056 0.000561 -0.002475 0.000000 0.031244 0.000000
# 6 0.000000 0.000000 0.000000 -0.004927 0.000000 0.043066
#
#
# Mechanical properties :
#
#
# Convention : Reuss Voigt Hill
#
# Bulk Modulus (GPa) = 52.41183 63.44049 57.92616
# Shear Modulus (GPa) = 27.48888 29.78776 28.63832
#
# Velocity S-wave (km/s) = 3.76910 3.92354 3.84709
# Velocity P-wave (km/s) = 6.78437 7.30146 7.04766
#
# Compressibility (1/GPa) = 0.01907966
#
# Stress axis : x y z
#
# Youngs Moduli (GPa) = 50.81191 111.83432 79.16526
#
# Poissons Ratio (x) = 0.34685 0.31795
# Poissons Ratio (y) = 0.15759 0.31424
# Poissons Ratio (z) = 0.20407 0.44392
#
# Static dielectric constant tensor:
#      x y z
#    x 1.908410 0.000000 0.795060 
#    y 0.000000 3.560450 0.000000 
#    z 0.795060 0.000000 3.121090 
# 
# 
# High freq. dielectric constant tensor:
#      x y z
#    x 1.761630 0.000000 -0.002440 
#    y 0.000000 1.740330 0.000000 
#    z -0.002440 0.000000 1.749240 
# 
# From -- ./inp_files/29863.got.cif
#   From: 2010.06.25/outbox.cif.g09.slc.cpg/sg10_15_cif.got.tgz:29863.got - 2010.06.27 22:07:45.
