data_PCOD8066272
_publ_section_title
;
Structure prediction by ZEFSAII (Michael W. Deem and Ramdas Pophale) SiO2 
 PCOD8066272
Probable space group: P 2/M
;
_chemical_formula_sum "Si O2"
_cell_formula_units_Z 32
_cell_length_a 26.135838
_cell_length_b 8.680408
_cell_length_c 15.526603
_cell_angle_alpha 90.000000
_cell_angle_beta 27.414457
_cell_angle_gamma 90.000000
_cell_volume 1621.850310
_symmetry_space_group_name_H-M "P 2/M"
_symmetry_group_IT_number 10
_symmetry_cell_setting 'monoclinic'
loop_
_space_group_symop_operation_xyz
x,y,z
-x,y,-z
-x,-y,-z
x,-y,z
loop_
_atom_site_type_symbol
_atom_site_label
_atom_site_fract_x
_atom_site_fract_y
_atom_site_fract_z
Si Si1 0.265379 0.316514 0.945164
Si Si2 0.124988 0.682845 0.314180
Si Si3 0.732656 0.316717 0.246933
Si Si4 0.273386 0.177447 0.435328
Si Si5 0.872343 0.682062 0.199199
Si Si6 0.270314 0.823370 0.245709
Si Si7 0.500703 0.682938 0.341506
Si Si8 0.502218 0.318320 0.143396
O O1 0.266071 0.500000 0.949376
O O2 0.225987 0.260627 0.909199
O O3 0.389821 0.253046 0.774959
O O4 0.184695 0.249816 0.139486
O O5 0.124110 0.500000 0.312852
O O6 0.189539 0.730598 0.303456
O O7 0.000000 0.749106 0.500000
O O8 0.731017 0.500000 0.252460
O O9 0.813419 0.254551 0.200758
O O10 0.608652 0.251524 0.448118
O O11 0.179415 0.238412 0.640048
O O12 0.226163 0.197291 0.409174
O O13 0.386245 0.274092 0.273562
O O14 0.299895 0.000000 0.416224
O O15 0.856067 0.500000 0.233920
O O16 0.000000 0.729260 0.000000
O O17 0.268846 0.000000 0.218971
O O18 0.396216 0.762941 0.056182
O O19 0.498992 0.500000 0.347011
O O20 0.500941 0.740021 0.243248
O O21 0.519602 0.500000 0.110538
#
# Coordination Sequence:
#
# PCOD8066272 Si02
#       8
#     4   4   4   4   4   4   4   4
#     4   9  16  28  49  79 111 140 175 225 283 337
#     4  10  21  37  58  85 114 147 193 243 285 332
#     4   9  16  28  49  79 111 140 175 225 283 337
#     4  11  24  40  58  83 117 157 196 234 287 354
#     4  10  21  37  58  85 114 147 193 243 285 332
#     4  11  24  40  58  83 117 157 196 234 287 354
#     4   9  15  26  49  79 107 136 171 219 280 338
#     4  11  20  35  61  89 115 146 189 242 297 348
#
# _framework density 19.730550999999998
#
# number of rings (size 3 to 8) (size 9 to 14) (size 15 to 20)
#    0.000    2.000    2.500    1.875    0.000    6.500 
#    0.000    2.500    0.000    0.750    0.000    1.750 
#    0.000    0.000    0.000    0.000    0.000    0.000 
#
# Total GULP energy -396774.730202 kJ/mol
# GULP energy per Si atom -12399.210319 kJ/mol
# Density = 1.968564 g / cm^3
# Si number density = 19.730551 Si / 1000 Ang^3
#
#
#
# Elastic Constant Matrix: (Units=GPa)
#
#
# Indices 1 2 3 4 5 6 
#
# 1 127.2145 13.2521 85.5943 0.0000 20.8853 0.0000
# 2 13.2521 16.3258 13.6523 0.0000 6.4551 0.0000
# 3 85.5943 13.6523 143.0386 0.0000 -2.0373 0.0000
# 4 0.0000 0.0000 0.0000 16.4372 0.0000 2.6350
# 5 20.8853 6.4551 -2.0373 0.0000 30.9674 0.0000
# 6 0.0000 0.0000 0.0000 2.6350 0.0000 15.9968
#
#
#
# Elastic Compliance Matrix: (Units=1/GPa)
#
#
# Indices 1 2 3 4 5 6 
#
# 1 0.016613 -0.000405 -0.010070 0.000000 -0.011782 0.000000
# 2 -0.000405 0.073574 -0.007001 0.000000 -0.015523 0.000000
# 3 -0.010070 -0.007001 0.013816 0.000000 0.009160 0.000000
# 4 0.000000 0.000000 0.000000 0.062488 0.000000 -0.010293
# 5 -0.011782 -0.015523 0.009160 0.000000 0.044077 0.000000
# 6 0.000000 0.000000 0.000000 -0.010293 0.000000 0.064208
#
#
# Mechanical properties :
#
#
# Convention : Reuss Voigt Hill
#
# Bulk Modulus (GPa) = 14.48231 56.84182 35.66206
# Shear Modulus (GPa) = 15.02654 24.28563 19.65608
#
# Velocity S-wave (km/s) = 2.76268 3.51217 3.15973
# Velocity P-wave (km/s) = 4.18719 6.73192 5.60586
#
# Compressibility (1/GPa) = 0.06904978
#
# Stress axis : x y z
#
# Youngs Moduli (GPa) = 60.19398 13.59176 72.38075
#
# Poissons Ratio (x) = 0.00551 0.72890
# Poissons Ratio (y) = 0.02441 0.50672
# Poissons Ratio (z) = 0.60617 0.09515
#
# Static dielectric constant tensor:
#      x y z
#    x 3.780210 0.000000 0.114440 
#    y 0.000000 3.167540 0.000000 
#    z 0.114440 0.000000 3.781340 
# 
# 
# High freq. dielectric constant tensor:
#      x y z
#    x 1.782180 0.000000 0.008830 
#    y 0.000000 1.724540 0.000000 
#    z 0.008830 0.000000 1.773300 
# 
# From -- ./inp_files/71437.got.cif
#   From: 2010.06.25/outbox.cif.g09.slc.cpg/sg10_36_cif.got.tgz:71437.got - 2010.06.27 22:07:45.
