data_PCOD8066778
_publ_section_title
;
Structure prediction by ZEFSAII (Michael W. Deem and Ramdas Pophale) SiO2 
 PCOD8066778
Probable space group: P 2/M
;
_chemical_formula_sum "Si O2"
_cell_formula_units_Z 32
_cell_length_a 14.678288
_cell_length_b 23.218386
_cell_length_c 9.285172
_cell_angle_alpha 90.000000
_cell_angle_beta 29.212902
_cell_angle_gamma 90.000000
_cell_volume 1544.426450
_symmetry_space_group_name_H-M "P 2/M"
_symmetry_group_IT_number 10
_symmetry_cell_setting 'monoclinic'
loop_
_space_group_symop_operation_xyz
x,y,z
-x,y,-z
-x,-y,-z
x,-y,z
loop_
_atom_site_type_symbol
_atom_site_label
_atom_site_fract_x
_atom_site_fract_y
_atom_site_fract_z
Si Si1 0.017840 0.374202 0.813177
Si Si2 0.468693 0.175997 0.207179
Si Si3 0.094923 0.937095 0.093007
Si Si4 0.683311 0.566047 0.149548
Si Si5 0.916861 0.240181 0.261237
Si Si6 0.151183 0.825539 0.172321
Si Si7 0.303634 0.434335 0.203006
Si Si8 0.280724 0.063054 0.529812
O O1 0.078220 0.308547 0.740777
O O2 0.156011 0.401799 0.505835
O O3 0.000000 0.401021 0.000000
O O4 0.814878 0.384773 0.030184
O O5 0.299106 0.221349 0.443371
O O6 0.429253 0.114139 0.332402
O O7 0.500000 0.161946 0.000000
O O8 0.654792 0.200759 0.030797
O O9 0.197754 0.887540 0.040238
O O10 0.875934 0.921316 0.374211
O O11 0.114624 0.000000 0.142069
O O12 0.187634 0.941432 0.811593
O O13 0.500000 0.571415 0.500000
O O14 0.758178 0.500000 0.058529
O O15 0.669499 0.583914 0.000631
O O16 0.053364 0.218258 0.197749
O O17 0.000000 0.214771 0.000000
O O18 0.000000 0.838085 0.500000
O O19 0.240826 0.500000 0.298092
O O20 0.500000 0.421698 0.000000
O O21 0.370499 0.000000 0.370073
#
# Coordination Sequence:
#
# PCOD8066778 Si02
#       8
#     4   4   4   4   4   4   4   4
#     4  11  24  42  63  93 131 173 217 274 329 380
#     4  12  24  43  67  91 128 169 214 272 329 393
#     4   9  18  35  61  93 128 162 204 259 321 395
#     4  10  21  40  67 101 139 175 217 266 318 388
#     4  11  26  48  65  93 130 167 222 276 318 386
#     4  12  24  42  67  93 124 172 215 264 335 389
#     4  10  21  39  65  98 133 173 216 262 323 385
#     4   9  18  35  62  92 126 165 203 258 327 392
#
# _framework density 20.719664999999999
#
# number of rings (size 3 to 8) (size 9 to 14) (size 15 to 20)
#    0.000    1.500    2.500    3.000    0.000    7.500 
#    6.750    1.250    0.000    0.000    0.000    0.000 
#    0.000    0.000    0.000    0.000    0.000    0.000 
#
# Total GULP energy -396446.687473 kJ/mol
# GULP energy per Si atom -12388.958984 kJ/mol
# Density = 2.067251 g / cm^3
# Si number density = 20.719665 Si / 1000 Ang^3
#
#
#
# Elastic Constant Matrix: (Units=GPa)
#
#
# Indices 1 2 3 4 5 6 
#
# 1 136.4961 37.6012 50.7901 0.0000 -6.8731 0.0000
# 2 37.6012 76.1888 43.0319 0.0000 -3.0180 0.0000
# 3 50.7901 43.0319 113.2674 0.0000 1.2269 0.0000
# 4 0.0000 0.0000 0.0000 59.4534 0.0000 9.0679
# 5 -6.8731 -3.0180 1.2269 0.0000 47.6843 0.0000
# 6 0.0000 0.0000 0.0000 9.0679 0.0000 35.7093
#
#
#
# Elastic Compliance Matrix: (Units=1/GPa)
#
#
# Indices 1 2 3 4 5 6 
#
# 1 0.009322 -0.002779 -0.003138 0.000000 0.001249 0.000000
# 2 -0.002779 0.017611 -0.005454 0.000000 0.000854 0.000000
# 3 -0.003138 -0.005454 0.012320 0.000000 -0.001114 0.000000
# 4 0.000000 0.000000 0.000000 0.017498 0.000000 -0.004443
# 5 0.001249 0.000854 -0.001114 0.000000 0.021234 0.000000
# 6 0.000000 0.000000 0.000000 -0.004443 0.000000 0.029132
#
#
# Mechanical properties :
#
#
# Convention : Reuss Voigt Hill
#
# Bulk Modulus (GPa) = 60.56353 65.42207 62.99280
# Shear Modulus (GPa) = 36.93796 41.53802 39.23799
#
# Velocity S-wave (km/s) = 4.22684 4.48232 4.35645
# Velocity P-wave (km/s) = 7.28801 7.64406 7.46815
#
# Compressibility (1/GPa) = 0.01651159
#
# Stress axis : x y z
#
# Youngs Moduli (GPa) = 107.27030 56.78275 81.17024
#
# Poissons Ratio (x) = 0.15780 0.25471
# Poissons Ratio (y) = 0.29810 0.44269
# Poissons Ratio (z) = 0.33661 0.30968
#
# Static dielectric constant tensor:
#      x y z
#    x 2.367370 0.000000 1.154860 
#    y 0.000000 3.717210 0.000000 
#    z 1.154860 0.000000 3.006890 
# 
# 
# High freq. dielectric constant tensor:
#      x y z
#    x 1.816640 0.000000 0.007990 
#    y 0.000000 1.803330 0.000000 
#    z 0.007990 0.000000 1.819200 
# 
# From -- ./inp_files/30581.got.cif
#   From: 2010.06.25/outbox.cif.g09.slc.cpg/sg10_16_cif.got.tgz:30581.got - 2010.06.27 22:07:45.
