data_PCOD8066701
_publ_section_title
;
Structure prediction by ZEFSAII (Michael W. Deem and Ramdas Pophale) SiO2 
 PCOD8066701
Probable space group: P 2/M
;
_chemical_formula_sum "Si O2"
_cell_formula_units_Z 16
_cell_length_a 12.834804
_cell_length_b 7.932728
_cell_length_c 9.478098
_cell_angle_alpha 90.000000
_cell_angle_beta 121.859354
_cell_angle_gamma 90.000000
_cell_volume 819.629960
_symmetry_space_group_name_H-M "P 2/M"
_symmetry_group_IT_number 10
_symmetry_cell_setting 'monoclinic'
loop_
_space_group_symop_operation_xyz
x,y,z
-x,y,-z
-x,-y,-z
x,-y,z
loop_
_atom_site_type_symbol
_atom_site_label
_atom_site_fract_x
_atom_site_fract_y
_atom_site_fract_z
Si Si1 0.289157 0.691263 0.687187
Si Si2 0.718913 0.183858 0.018775
Si Si3 0.949330 0.000000 0.118061
Si Si4 0.882204 0.000000 0.511704
Si Si5 0.476867 0.303299 0.328291
O O1 0.250737 0.500000 0.615581
O O2 0.305849 0.690699 0.868811
O O3 0.414756 0.744660 0.701293
O O4 0.189735 0.828112 0.570501
O O5 0.668508 0.000000 0.029562
O O6 0.864832 0.166287 0.087542
O O7 0.650776 0.239934 0.827788
O O8 0.073532 0.000000 0.296778
O O9 0.000000 0.000000 0.000000
O O10 0.000000 0.000000 0.500000
O O11 0.500000 0.220997 0.500000
O O12 0.464585 0.500000 0.339450
#
# Coordination Sequence:
#
# PCOD8066701 Si02
#       5
#     4   4   2   2   4
#     4  11  23  40  67  92 122 164 201 254 310 357
#     4  10  21  39  62  90 120 161 203 251 304 361
#     4  10  24  41  60  91 125 162 205 258 300 356
#     4  12  22  45  62  91 125 158 211 258 286 372
#     4  10  23  40  59  92 126 155 203 257 307 370
#
# _framework density 19.521004000000001
#
# number of rings (size 3 to 8) (size 9 to 14) (size 15 to 20)
#    0.750    0.750    3.750    1.500    5.250    4.000 
#    0.000    0.000    0.000    3.750    0.000    0.000 
#    0.000    0.000    0.000    0.000    0.000    0.000 
#
# Total GULP energy -198307.928038 kJ/mol
# GULP energy per Si atom -12394.245502 kJ/mol
# Density = 1.947657 g / cm^3
# Si number density = 19.521004 Si / 1000 Ang^3
#
#
#
# Elastic Constant Matrix: (Units=GPa)
#
#
# Indices 1 2 3 4 5 6 
#
# 1 86.9199 34.2458 47.1053 0.0000 -12.8332 0.0000
# 2 34.2458 68.0820 33.4078 0.0000 6.7795 0.0000
# 3 47.1053 33.4078 169.0801 0.0000 -3.4402 0.0000
# 4 0.0000 0.0000 0.0000 9.1645 0.0000 -4.2552
# 5 -12.8332 6.7795 -3.4402 0.0000 38.5647 0.0000
# 6 0.0000 0.0000 0.0000 -4.2552 0.0000 21.7249
#
#
#
# Elastic Compliance Matrix: (Units=1/GPa)
#
#
# Indices 1 2 3 4 5 6 
#
# 1 0.017309 -0.007853 -0.003131 0.000000 0.006861 0.000000
# 2 -0.007853 0.020220 -0.001936 0.000000 -0.006341 0.000000
# 3 -0.003131 -0.001936 0.007168 0.000000 -0.000062 0.000000
# 4 0.000000 0.000000 0.000000 0.120034 0.000000 0.023511
# 5 0.006861 -0.006341 -0.000062 0.000000 0.029323 0.000000
# 6 0.000000 0.000000 0.000000 0.023511 0.000000 0.050635
#
#
# Mechanical properties :
#
#
# Convention : Reuss Voigt Hill
#
# Bulk Modulus (GPa) = 53.03437 61.51110 57.27274
# Shear Modulus (GPa) = 18.06264 27.84568 22.95416
#
# Velocity S-wave (km/s) = 3.04516 3.78093 3.43282
# Velocity P-wave (km/s) = 6.29213 7.11612 6.71677
#
# Compressibility (1/GPa) = 0.01885570
#
# Stress axis : x y z
#
# Youngs Moduli (GPa) = 57.77416 49.45596 139.51039
#
# Poissons Ratio (x) = 0.38840 0.43679
# Poissons Ratio (y) = 0.45372 0.27013
# Poissons Ratio (z) = 0.18088 0.09576
#
# Static dielectric constant tensor:
#      x y z
#    x 1.401880 0.000000 -2.269240 
#    y 0.000000 3.615750 0.000000 
#    z -2.269240 0.000000 1.565460 
# 
# 
# High freq. dielectric constant tensor:
#      x y z
#    x 1.754690 0.000000 -0.006000 
#    y 0.000000 1.750020 0.000000 
#    z -0.006000 0.000000 1.771880 
# 
# From -- ./inp_files/22498.got.cif
#   From: 2010.06.25/outbox.cif.g09.slc.cpg/sg10_12_cif.got.tgz:22498.got - 2010.06.27 22:07:45.
