data_PCOD8066945
_publ_section_title
;
Structure prediction by ZEFSAII (Michael W. Deem and Ramdas Pophale) SiO2 
 PCOD8066945
Probable space group: P 2/M
;
_chemical_formula_sum "Si O2"
_cell_formula_units_Z 32
_cell_length_a 8.748641
_cell_length_b 22.437158
_cell_length_c 15.447097
_cell_angle_alpha 90.000000
_cell_angle_beta 150.385188
_cell_angle_gamma 90.000000
_cell_volume 1498.403335
_symmetry_space_group_name_H-M "P 2/M"
_symmetry_group_IT_number 10
_symmetry_cell_setting 'monoclinic'
loop_
_space_group_symop_operation_xyz
x,y,z
-x,y,-z
-x,-y,-z
x,-y,z
loop_
_atom_site_type_symbol
_atom_site_label
_atom_site_fract_x
_atom_site_fract_y
_atom_site_fract_z
Si Si1 0.206493 0.122843 0.687209
Si Si2 0.757029 0.386806 0.058351
Si Si3 0.869927 0.720628 0.677212
Si Si4 0.859177 0.141254 0.686414
Si Si5 0.150877 0.068426 0.985039
Si Si6 0.225072 0.748225 0.683323
Si Si7 0.616451 0.433421 0.649449
Si Si8 0.637768 0.352674 0.821851
O O1 0.367155 0.188509 0.782167
O O2 0.000000 0.113222 0.500000
O O3 0.993432 0.113144 0.665411
O O4 0.480652 0.075297 0.824602
O O5 0.938177 0.323734 0.164788
O O6 0.013501 0.438116 0.177513
O O7 0.500000 0.403935 0.000000
O O8 0.567751 0.388150 0.875475
O O9 0.500000 0.705437 0.500000
O O10 0.924210 0.788318 0.732826
O O11 0.033782 0.712531 0.663566
O O12 0.500000 0.129129 0.500000
O O13 0.006783 0.108533 0.839761
O O14 0.073822 0.000000 0.926452
O O15 0.000000 0.089583 0.000000
O O16 0.466840 0.709504 0.747974
O O17 0.000000 0.772373 0.500000
O O18 0.500000 0.407672 0.500000
O O19 0.486093 0.500000 0.602947
O O20 0.516907 0.389371 0.678626
O O21 0.000000 0.339968 0.000000
#
# Coordination Sequence:
#
# PCOD8066945 Si02
#       8
#     4   4   4   4   4   4   4   4
#     4  10  22  41  63  93 132 170 218 266 329 388
#     4  11  22  37  62  97 130 162 205 261 322 381
#     4  10  22  38  62  93 131 171 207 256 319 389
#     4  10  22  41  65  95 129 171 215 271 330 393
#     4  11  25  43  65  93 127 174 224 276 322 381
#     4  10  22  37  59  94 130 167 207 259 315 386
#     4  10  24  46  68  88 122 172 220 264 312 378
#     4  10  23  38  61  95 126 164 206 257 319 373
#
# _framework density 21.356064
#
# number of rings (size 3 to 8) (size 9 to 14) (size 15 to 20)
#    0.000    1.750    1.250    1.500    7.000    5.500 
#    0.000    0.000    0.000    1.875    0.000    0.000 
#    0.000    0.000    0.000    0.000    0.000    0.000 
#
# Total GULP energy -396498.880579 kJ/mol
# GULP energy per Si atom -12390.590018 kJ/mol
# Density = 2.130746 g / cm^3
# Si number density = 21.356064 Si / 1000 Ang^3
#
#
#
# Elastic Constant Matrix: (Units=GPa)
#
#
# Indices 1 2 3 4 5 6 
#
# 1 144.3655 43.8867 35.1136 0.0000 -16.5122 0.0000
# 2 43.8867 72.9109 32.1106 0.0000 -10.7853 0.0000
# 3 35.1136 32.1106 84.0342 0.0000 -23.6835 0.0000
# 4 0.0000 0.0000 0.0000 24.8363 0.0000 4.5193
# 5 -16.5122 -10.7853 -23.6835 0.0000 42.1544 0.0000
# 6 0.0000 0.0000 0.0000 4.5193 0.0000 15.8383
#
#
#
# Elastic Compliance Matrix: (Units=1/GPa)
#
#
# Indices 1 2 3 4 5 6 
#
# 1 0.008814 -0.004388 -0.001604 0.000000 0.001429 0.000000
# 2 -0.004388 0.018698 -0.005284 0.000000 0.000096 0.000000
# 3 -0.001604 -0.005284 0.016671 0.000000 0.007386 0.000000
# 4 0.000000 0.000000 0.000000 0.042469 0.000000 -0.012118
# 5 0.001429 0.000096 0.007386 0.000000 0.028456 0.000000
# 6 0.000000 0.000000 0.000000 -0.012118 0.000000 0.066596
#
#
# Mechanical properties :
#
#
# Convention : Reuss Voigt Hill
#
# Bulk Modulus (GPa) = 46.22841 58.17029 52.19935
# Shear Modulus (GPa) = 23.64451 29.24579 26.44515
#
# Velocity S-wave (km/s) = 3.33101 3.70461 3.52276
# Velocity P-wave (km/s) = 6.04050 6.75250 6.40640
#
# Compressibility (1/GPa) = 0.02163172
#
# Stress axis : x y z
#
# Youngs Moduli (GPa) = 113.45266 53.48184 59.98549
#
# Poissons Ratio (x) = 0.23467 0.09619
# Poissons Ratio (y) = 0.49781 0.31697
# Poissons Ratio (z) = 0.18194 0.28260
#
# Static dielectric constant tensor:
#      x y z
#    x 0.208660 0.000000 -1.053190 
#    y 0.000000 3.674570 0.000000 
#    z -1.053190 0.000000 3.631300 
# 
# 
# High freq. dielectric constant tensor:
#      x y z
#    x 1.853420 0.000000 -0.008010 
#    y 0.000000 1.827670 0.000000 
#    z -0.008010 0.000000 1.836390 
# 
# From -- ./inp_files/62714.got.cif
#   From: 2010.06.25/outbox.cif.g09.slc.cpg/sg10_32_cif.got.tgz:62714.got - 2010.06.27 22:07:45.
