data_PCOD8066408
_publ_section_title
;
Structure prediction by ZEFSAII (Michael W. Deem and Ramdas Pophale) SiO2 
 PCOD8066408
Probable space group: P 2/M
;
_chemical_formula_sum "Si O2"
_cell_formula_units_Z 32
_cell_length_a 20.269152
_cell_length_b 9.313872
_cell_length_c 24.852520
_cell_angle_alpha 90.000000
_cell_angle_beta 157.311487
_cell_angle_gamma 90.000000
_cell_volume 1809.712763
_symmetry_space_group_name_H-M "P 2/M"
_symmetry_group_IT_number 10
_symmetry_cell_setting 'monoclinic'
loop_
_space_group_symop_operation_xyz
x,y,z
-x,y,-z
-x,-y,-z
x,-y,z
loop_
_atom_site_type_symbol
_atom_site_label
_atom_site_fract_x
_atom_site_fract_y
_atom_site_fract_z
Si Si1 0.479606 0.666038 0.638004
Si Si2 0.106606 0.831112 0.925780
Si Si3 0.606607 0.668887 0.925781
Si Si4 0.685438 0.665004 0.374619
Si Si5 0.020395 0.833962 0.361997
Si Si6 0.637488 0.834112 0.057735
Si Si7 0.862513 0.665888 0.942266
Si Si8 0.814561 0.834996 0.625380
O O1 0.445564 0.500000 0.602481
O O2 0.428395 0.712998 0.659874
O O3 0.677686 0.705801 0.778694
O O4 0.363667 0.748742 0.507168
O O5 0.922735 0.803114 0.760179
O O6 0.150546 0.000000 0.959980
O O7 0.250000 0.750000 0.000000
O O8 0.093631 0.768984 0.975545
O O9 0.650548 0.500000 0.959983
O O10 0.422735 0.696884 0.760179
O O11 0.593632 0.731016 0.975545
O O12 0.735560 0.500000 0.416967
O O13 0.863667 0.751258 0.507167
O O14 0.071606 0.787004 0.340127
O O15 0.822314 0.794198 0.221307
O O16 0.054435 0.000000 0.397520
O O17 0.636459 0.000000 0.037426
O O18 0.500000 0.804821 0.000000
O O19 0.863544 0.500000 0.962576
O O20 0.000000 0.695179 0.000000
O O21 0.764438 0.000000 0.583033
#
# Coordination Sequence:
#
# PCOD8066408 Si02
#       8
#     4   4   4   4   4   4   4   4
#     4   9  17  32  52  77 106 138 177 217 264 319
#     4  11  21  35  56  82 111 140 181 227 269 318
#     4  11  21  35  56  82 111 140 181 227 269 318
#     4   9  18  32  51  78 107 135 174 223 267 313
#     4   9  17  32  52  77 106 138 177 217 264 319
#     4  10  21  38  57  79 111 146 180 222 270 321
#     4  10  21  38  57  79 111 146 180 222 270 321
#     4   9  18  32  51  78 107 135 174 223 267 313
#
# _framework density 17.682362999999999
#
# number of rings (size 3 to 8) (size 9 to 14) (size 15 to 20)
#    0.000    2.250    2.500    0.750    0.000    3.500 
#    0.000    1.250    0.000    7.500    0.000    0.000 
#    0.000    0.000    0.000    0.000    0.000    0.000 
#
# Total GULP energy -396841.774195 kJ/mol
# GULP energy per Si atom -12401.305444 kJ/mol
# Density = 1.764212 g / cm^3
# Si number density = 17.682363 Si / 1000 Ang^3
#
#
#
# Elastic Constant Matrix: (Units=GPa)
#
#
# Indices 1 2 3 4 5 6 
#
# 1 78.9037 55.6832 65.4921 0.0000 0.3764 0.0000
# 2 55.6832 93.6388 80.3279 0.0000 -9.7625 0.0000
# 3 65.4921 80.3279 162.5419 0.0000 1.1624 0.0000
# 4 0.0000 0.0000 0.0000 35.2958 0.0000 -5.8222
# 5 0.3764 -9.7625 1.1624 0.0000 25.8833 0.0000
# 6 0.0000 0.0000 0.0000 -5.8222 0.0000 25.7807
#
#
#
# Elastic Compliance Matrix: (Units=1/GPa)
#
#
# Indices 1 2 3 4 5 6 
#
# 1 0.024019 -0.011226 -0.004099 0.000000 -0.004399 0.000000
# 2 -0.011226 0.025322 -0.008063 0.000000 0.010076 0.000000
# 3 -0.004099 -0.008063 0.011814 0.000000 -0.003512 0.000000
# 4 0.000000 0.000000 0.000000 0.029428 0.000000 0.006646
# 5 -0.004399 0.010076 -0.003512 0.000000 0.042657 0.000000
# 6 0.000000 0.000000 0.000000 0.006646 0.000000 0.040290
#
#
# Mechanical properties :
#
#
# Convention : Reuss Voigt Hill
#
# Bulk Modulus (GPa) = 69.54222 82.01007 75.77615
# Shear Modulus (GPa) = 22.21260 26.29737 24.25498
#
# Velocity S-wave (km/s) = 3.54814 3.86062 3.70767
# Velocity P-wave (km/s) = 7.49664 8.14572 7.82791
#
# Compressibility (1/GPa) = 0.01437975
#
# Stress axis : x y z
#
# Youngs Moduli (GPa) = 41.63438 39.49091 84.64825
#
# Poissons Ratio (x) = 0.44331 0.34693
# Poissons Ratio (y) = 0.46737 0.68254
# Poissons Ratio (z) = 0.17064 0.31842
#
# Static dielectric constant tensor:
#      x y z
#    x 3.120270 0.000000 -0.099740 
#    y 0.000000 3.334210 0.000000 
#    z -0.099740 0.000000 3.478510 
# 
# 
# High freq. dielectric constant tensor:
#      x y z
#    x 1.652060 0.000000 -0.005730 
#    y 0.000000 1.686260 0.000000 
#    z -0.005730 0.000000 1.697540 
# 
# From -- ./inp_files/93713.got.cif
#   From: 2010.06.25/outbox.cif.g09.slc.cpg/sg10_47_cif.got.tgz:93713.got - 2010.06.27 22:07:45.
