data_PCOD8066832
_publ_section_title
;
Structure prediction by ZEFSAII (Michael W. Deem and Ramdas Pophale) SiO2 
 PCOD8066832
Probable space group: P 2/M
;
_chemical_formula_sum "Si O2"
_cell_formula_units_Z 32
_cell_length_a 12.127642
_cell_length_b 8.742459
_cell_length_c 31.624643
_cell_angle_alpha 90.000000
_cell_angle_beta 28.206921
_cell_angle_gamma 90.000000
_cell_volume 1584.827135
_symmetry_space_group_name_H-M "P 2/M"
_symmetry_group_IT_number 10
_symmetry_cell_setting 'monoclinic'
loop_
_space_group_symop_operation_xyz
x,y,z
-x,y,-z
-x,-y,-z
x,-y,z
loop_
_atom_site_type_symbol
_atom_site_label
_atom_site_fract_x
_atom_site_fract_y
_atom_site_fract_z
Si Si1 0.935692 0.322179 0.569684
Si Si2 0.452104 0.820649 0.755326
Si Si3 0.960387 0.321137 0.153521
Si Si4 0.205405 0.180431 0.637421
Si Si5 0.264630 0.820088 0.909645
Si Si6 0.148065 0.819367 0.174004
Si Si7 0.277288 0.818834 0.519314
Si Si8 0.605584 0.321270 0.049489
O O1 0.874986 0.500000 0.596212
O O2 0.719063 0.219395 0.657010
O O3 0.000000 0.283694 0.500000
O O4 0.155295 0.276534 0.523875
O O5 0.294771 0.726617 0.775793
O O6 0.386490 0.771409 0.825000
O O7 0.408770 0.000000 0.763098
O O8 0.966781 0.500000 0.161866
O O9 0.015198 0.226961 0.176742
O O10 0.146406 0.276672 0.054568
O O11 0.455382 0.238726 0.569809
O O12 0.160165 0.225643 0.603959
O O13 0.998841 0.246021 0.736426
O O14 0.214570 0.000000 0.637808
O O15 0.411229 0.744712 0.897722
O O16 0.269726 0.000000 0.915148
O O17 0.000000 0.757718 0.000000
O O18 0.404736 0.748163 0.087900
O O19 0.171834 0.000000 0.167966
O O20 0.255558 0.000000 0.517884
O O21 0.567510 0.500000 0.064078
#
# Coordination Sequence:
#
# PCOD8066832 Si02
#       8
#     4   4   4   4   4   4   4   4
#     4  11  26  44  61  90 131 166 201 252 311 367
#     4  11  24  42  67  94 120 161 212 257 308 369
#     4  11  24  42  61  86 125 165 205 252 307 369
#     4   8  18  37  62  91 117 149 195 253 304 349
#     4  10  21  40  65  93 124 158 205 261 309 365
#     4  11  23  38  61  91 122 159 209 257 302 358
#     4   9  18  39  66  88 117 154 199 249 301 360
#     4  11  24  40  60  88 125 167 206 248 306 368
#
# _framework density 20.191476000000002
#
# number of rings (size 3 to 8) (size 9 to 14) (size 15 to 20)
#    0.000    1.750    1.250    3.000    3.500    5.250 
#    0.000    2.500    0.000    0.000    0.000    0.000 
#    0.000    0.000    0.000    0.000    0.000    0.000 
#
# Total GULP energy -396947.657954 kJ/mol
# GULP energy per Si atom -12404.614311 kJ/mol
# Density = 2.014552 g / cm^3
# Si number density = 20.191476 Si / 1000 Ang^3
#
#
#
# Elastic Constant Matrix: (Units=GPa)
#
#
# Indices 1 2 3 4 5 6 
#
# 1 119.2906 20.9895 28.1246 0.0000 7.3903 0.0000
# 2 20.9895 38.4752 28.5077 0.0000 9.2725 0.0000
# 3 28.1246 28.5077 84.5968 0.0000 5.3705 0.0000
# 4 0.0000 0.0000 0.0000 24.6350 0.0000 -3.8845
# 5 7.3903 9.2725 5.3705 0.0000 30.2204 0.0000
# 6 0.0000 0.0000 0.0000 -3.8845 0.0000 11.6778
#
#
#
# Elastic Compliance Matrix: (Units=1/GPa)
#
#
# Indices 1 2 3 4 5 6 
#
# 1 0.009515 -0.003563 -0.001906 0.000000 -0.000895 0.000000
# 2 -0.003563 0.038365 -0.011178 0.000000 -0.008914 0.000000
# 3 -0.001906 -0.011178 0.016156 0.000000 0.001025 0.000000
# 4 0.000000 0.000000 0.000000 0.042840 0.000000 0.014250
# 5 -0.000895 -0.008914 0.001025 0.000000 0.035862 0.000000
# 6 0.000000 0.000000 0.000000 0.014250 0.000000 0.090373
#
#
# Mechanical properties :
#
#
# Convention : Reuss Voigt Hill
#
# Bulk Modulus (GPa) = 32.52834 44.17846 38.35340
# Shear Modulus (GPa) = 18.07336 24.28936 21.18136
#
# Velocity S-wave (km/s) = 2.99507 3.47212 3.24238
# Velocity P-wave (km/s) = 5.30146 6.16453 5.74921
#
# Compressibility (1/GPa) = 0.03074243
#
# Stress axis : x y z
#
# Youngs Moduli (GPa) = 105.10246 26.06564 61.89624
#
# Poissons Ratio (x) = 0.09287 0.11796
# Poissons Ratio (y) = 0.37446 0.69187
# Poissons Ratio (z) = 0.20030 0.29136
#
# Static dielectric constant tensor:
#      x y z
#    x 3.671120 0.000000 0.108360 
#    y 0.000000 3.450350 0.000000 
#    z 0.108360 0.000000 4.049590 
# 
# 
# High freq. dielectric constant tensor:
#      x y z
#    x 1.800520 0.000000 0.001500 
#    y 0.000000 1.776280 0.000000 
#    z 0.001500 0.000000 1.794640 
# 
# From -- ./inp_files/94934.got.cif
#   From: 2010.06.25/outbox.cif.g09.slc.cpg/sg10_48_cif.got.tgz:94934.got - 2010.06.27 22:07:45.
