data_PCOD8066378
_publ_section_title
;
Structure prediction by ZEFSAII (Michael W. Deem and Ramdas Pophale) SiO2 
 PCOD8066378
Probable space group: P 2/M
;
_chemical_formula_sum "Si O2"
_cell_formula_units_Z 24
_cell_length_a 16.960155
_cell_length_b 8.884366
_cell_length_c 13.727586
_cell_angle_alpha 90.000000
_cell_angle_beta 143.982690
_cell_angle_gamma 90.000000
_cell_volume 1216.325050
_symmetry_space_group_name_H-M "P 2/M"
_symmetry_group_IT_number 10
_symmetry_cell_setting 'monoclinic'
loop_
_space_group_symop_operation_xyz
x,y,z
-x,y,-z
-x,-y,-z
x,-y,z
loop_
_atom_site_type_symbol
_atom_site_label
_atom_site_fract_x
_atom_site_fract_y
_atom_site_fract_z
Si Si1 0.263698 0.674744 0.393080
Si Si2 0.096188 0.675335 0.678349
Si Si3 0.971295 0.675221 0.176675
Si Si4 0.247809 0.823131 0.170074
Si Si5 0.400979 0.673311 0.988257
Si Si6 0.513205 0.176186 0.732331
O O1 0.280731 0.500000 0.385191
O O2 0.126450 0.706623 0.312368
O O3 0.271745 0.767420 0.302414
O O4 0.379878 0.728740 0.581032
O O5 0.061167 0.500000 0.650258
O O6 0.249606 0.703889 0.801032
O O7 0.000000 0.749850 0.500000
O O8 0.066199 0.745090 0.755148
O O9 0.935107 0.500000 0.136145
O O10 0.887156 0.753897 0.008061
O O11 0.375628 0.774005 0.234614
O O12 0.229825 0.000000 0.153221
O O13 0.417836 0.500000 0.038839
O O14 0.500000 0.713475 0.000000
O O15 0.432244 0.784817 0.107027
O O16 0.481094 0.000000 0.693201
#
# Coordination Sequence:
#
# PCOD8066378 Si02
#       6
#     4   4   4   4   4   4
#     4  11  24  38  60  91 120 153 202 251 294 350
#     4   9  18  34  59  88 118 149 185 239 296 344
#     4  10  21  38  61  89 120 154 196 245 298 353
#     4  11  23  40  61  85 119 160 202 242 295 360
#     4  10  21  37  63  92 117 151 198 245 294 350
#     4  11  24  41  60  85 122 162 199 241 297 356
#
# _framework density 19.731566999999998
#
# number of rings (size 3 to 8) (size 9 to 14) (size 15 to 20)
#    0.000    1.667    1.667    2.500    2.333    7.667 
#    0.000    0.000    0.000    1.000    0.000    0.000 
#    0.000    0.000    0.000    0.000    0.000    0.000 
#
# Total GULP energy -297723.607945 kJ/mol
# GULP energy per Si atom -12405.150331 kJ/mol
# Density = 1.968666 g / cm^3
# Si number density = 19.731567 Si / 1000 Ang^3
#
#
#
# Elastic Constant Matrix: (Units=GPa)
#
#
# Indices 1 2 3 4 5 6 
#
# 1 116.6522 29.2023 34.4081 0.0000 8.5581 0.0000
# 2 29.2023 39.0609 26.5329 0.0000 15.5073 0.0000
# 3 34.4081 26.5329 120.9541 0.0000 7.6781 0.0000
# 4 0.0000 0.0000 0.0000 -12.6491 0.0000 19.8975
# 5 8.5581 15.5073 7.6781 0.0000 34.2783 0.0000
# 6 0.0000 0.0000 0.0000 19.8975 0.0000 7.7962
#
#
#
# Elastic Compliance Matrix: (Units=1/GPa)
#
#
# Indices 1 2 3 4 5 6 
#
# 1 0.010810 -0.007464 -0.001502 0.000000 0.001014 0.000000
# 2 -0.007464 0.041404 -0.005973 0.000000 -0.015529 0.000000
# 3 -0.001502 -0.005973 0.009951 0.000000 0.000848 0.000000
# 4 0.000000 0.000000 0.000000 -0.015765 0.000000 0.040236
# 5 0.001014 -0.015529 0.000848 0.000000 0.035755 0.000000
# 6 0.000000 0.000000 0.000000 0.040236 0.000000 0.025578
#
#
# Mechanical properties :
#
#
# Convention : Reuss Voigt Hill
#
# Bulk Modulus (GPa) = 30.97295 50.77263 40.87279
# Shear Modulus (GPa) = 33.69872 18.32001 26.00937
#
# Velocity S-wave (km/s) = 4.13711 3.05037 3.63459
# Velocity P-wave (km/s) = 6.20903 6.18012 6.19460
#
# Compressibility (1/GPa) = 0.03228624
#
# Stress axis : x y z
#
# Youngs Moduli (GPa) = 92.51051 24.15245 100.48812
#
# Poissons Ratio (x) = 0.18026 0.15095
# Poissons Ratio (y) = 0.69046 0.60026
# Poissons Ratio (z) = 0.13897 0.14427
#
# Static dielectric constant tensor:
#      x y z
#    x 3.796000 0.000000 0.031990 
#    y 0.000000 3.406360 0.000000 
#    z 0.031990 0.000000 3.690910 
# 
# 
# High freq. dielectric constant tensor:
#      x y z
#    x 1.780500 0.000000 0.003920 
#    y 0.000000 1.748660 0.000000 
#    z 0.003920 0.000000 1.783420 
# 
# From -- ./inp_files/68775.got.cif
#   From: 2010.06.25/outbox.cif.g09.slc.cpg/sg10_35_cif.got.tgz:68775.got - 2010.06.27 22:07:45.
