data_PCOD8066345
_publ_section_title
;
Structure prediction by ZEFSAII (Michael W. Deem and Ramdas Pophale) SiO2 
 PCOD8066345
Probable space group: P 2/M
;
_chemical_formula_sum "Si O2"
_cell_formula_units_Z 28
_cell_length_a 14.077610
_cell_length_b 13.212600
_cell_length_c 9.911566
_cell_angle_alpha 90.000000
_cell_angle_beta 130.713871
_cell_angle_gamma 90.000000
_cell_volume 1397.382189
_symmetry_space_group_name_H-M "P 2/M"
_symmetry_group_IT_number 10
_symmetry_cell_setting 'monoclinic'
loop_
_space_group_symop_operation_xyz
x,y,z
-x,y,-z
-x,-y,-z
x,-y,z
loop_
_atom_site_type_symbol
_atom_site_label
_atom_site_fract_x
_atom_site_fract_y
_atom_site_fract_z
Si Si1 0.993522 0.620051 0.653601
Si Si2 0.618990 0.615759 0.185192
Si Si3 0.416409 0.885930 0.546153
Si Si4 0.409520 0.113882 0.035583
Si Si5 0.743649 0.702689 0.548538
Si Si6 0.253393 0.301900 0.937249
Si Si7 0.627661 0.383072 0.686913
O O1 0.984500 0.500000 0.680140
O O2 0.876467 0.682596 0.603152
O O3 0.000000 0.637284 0.500000
O O4 0.108781 0.675249 0.837871
O O5 0.596836 0.500000 0.201586
O O6 0.636771 0.669990 0.343681
O O7 0.730803 0.627573 0.181316
O O8 0.500000 0.665116 0.000000
O O9 0.500000 0.845150 0.500000
O O10 0.289625 0.819326 0.447127
O O11 0.368492 0.000000 0.474775
O O12 0.507957 0.881284 0.755984
O O13 0.286546 0.185915 0.929634
O O14 0.358838 0.000000 0.962892
O O15 0.500000 0.150068 0.000000
O O16 0.737647 0.637496 0.680471
O O17 0.344019 0.329924 0.144960
O O18 0.500000 0.341000 0.500000
O O19 0.616103 0.500000 0.709996
#
# Coordination Sequence:
#
# PCOD8066345 Si02
#       7
#     4   4   4   4   4   4   4
#     4  11  24  41  60  84 120 169 217 251 283 346
#     4  11  21  33  55  84 113 152 199 248 303 364
#     4  10  21  39  64  92 121 155 197 248 311 374
#     4  10  21  37  60  90 119 149 195 257 315 362
#     4  12  22  38  60  85 121 160 203 249 299 351
#     4  12  22  38  60  83 119 163 204 245 300 363
#     4  11  23  37  57  90 125 152 190 253 318 369
#
# _framework density 20.037469000000002
#
# number of rings (size 3 to 8) (size 9 to 14) (size 15 to 20)
#    0.000    1.000    1.429    7.714    0.000    2.857 
#    0.000    2.143    0.000    0.857    0.000    5.000 
#    0.000    0.000    0.000    0.000    0.000    0.000 
#
# Total GULP energy -347139.475907 kJ/mol
# GULP energy per Si atom -12397.838425 kJ/mol
# Density = 1.999186 g / cm^3
# Si number density = 20.037469 Si / 1000 Ang^3
#
#
#
# Elastic Constant Matrix: (Units=GPa)
#
#
# Indices 1 2 3 4 5 6 
#
# 1 100.9401 64.0251 17.5969 0.0000 2.0356 0.0000
# 2 64.0251 136.6757 38.4848 0.0000 12.9661 0.0000
# 3 17.5969 38.4848 69.5165 0.0000 -7.5150 0.0000
# 4 0.0000 0.0000 0.0000 19.0440 0.0000 -3.2163
# 5 2.0356 12.9661 -7.5150 0.0000 44.1521 0.0000
# 6 0.0000 0.0000 0.0000 -3.2163 0.0000 32.8951
#
#
#
# Elastic Compliance Matrix: (Units=1/GPa)
#
#
# Indices 1 2 3 4 5 6 
#
# 1 0.014179 -0.006884 0.000377 0.000000 0.001432 0.000000
# 2 -0.006884 0.012550 -0.005674 0.000000 -0.004334 0.000000
# 3 0.000377 -0.005674 0.017939 0.000000 0.004702 0.000000
# 4 0.000000 0.000000 0.000000 0.053392 0.000000 0.005220
# 5 0.001432 -0.004334 0.004702 0.000000 0.024656 0.000000
# 6 0.000000 0.000000 0.000000 0.005220 0.000000 0.030910
#
#
# Mechanical properties :
#
#
# Convention : Reuss Voigt Hill
#
# Bulk Modulus (GPa) = 49.24680 60.81623 55.03151
# Shear Modulus (GPa) = 27.06271 31.68661 29.37466
#
# Velocity S-wave (km/s) = 3.67905 3.98096 3.83297
# Velocity P-wave (km/s) = 6.53283 7.17968 6.86388
#
# Compressibility (1/GPa) = 0.02030589
#
# Stress axis : x y z
#
# Youngs Moduli (GPa) = 70.52849 79.68098 55.74417
#
# Poissons Ratio (x) = 0.54851 -0.02100
# Poissons Ratio (y) = 0.48551 0.31628
# Poissons Ratio (z) = -0.02656 0.45209
#
# Static dielectric constant tensor:
#      x y z
#    x 3.678350 0.000000 -0.136860 
#    y 0.000000 3.800190 0.000000 
#    z -0.136860 0.000000 3.655920 
# 
# 
# High freq. dielectric constant tensor:
#      x y z
#    x 1.775990 0.000000 -0.025430 
#    y 0.000000 1.785980 0.000000 
#    z -0.025430 0.000000 1.776480 
# 
# From -- ./inp_files/25419.got.cif
#   From: 2010.06.25/outbox.cif.g09.slc.cpg/sg10_13_cif.got.tgz:25419.got - 2010.06.27 22:07:45.
