data_PCOD8066621
_publ_section_title
;
Structure prediction by ZEFSAII (Michael W. Deem and Ramdas Pophale) SiO2 
 PCOD8066621
Probable space group: P 2/M
;
_chemical_formula_sum "Si O2"
_cell_formula_units_Z 32
_cell_length_a 15.314180
_cell_length_b 8.750459
_cell_length_c 23.493669
_cell_angle_alpha 90.000000
_cell_angle_beta 30.192759
_cell_angle_gamma 90.000000
_cell_volume 1583.311321
_symmetry_space_group_name_H-M "P 2/M"
_symmetry_group_IT_number 10
_symmetry_cell_setting 'monoclinic'
loop_
_space_group_symop_operation_xyz
x,y,z
-x,y,-z
-x,-y,-z
x,-y,z
loop_
_atom_site_type_symbol
_atom_site_label
_atom_site_fract_x
_atom_site_fract_y
_atom_site_fract_z
Si Si1 0.816649 0.318766 0.953501
Si Si2 0.991255 0.177448 0.250187
Si Si3 0.888996 0.820570 0.509583
Si Si4 0.113614 0.324870 0.289499
Si Si5 0.402849 0.178093 0.500179
Si Si6 0.503411 0.676967 0.935940
Si Si7 0.810758 0.319810 0.085671
Si Si8 0.525638 0.817906 0.666569
O O1 0.839532 0.500000 0.937466
O O2 0.979301 0.238985 0.830444
O O3 0.642781 0.252169 0.022135
O O4 0.803993 0.263370 0.024939
O O5 0.797594 0.211454 0.378237
O O6 0.112561 0.275217 0.224070
O O7 0.038045 0.000000 0.227769
O O8 0.690011 0.759845 0.613144
O O9 0.000000 0.746827 0.500000
O O10 0.989515 0.784449 0.395026
O O11 0.882371 0.000000 0.522267
O O12 0.053620 0.500000 0.329918
O O13 0.311054 0.302385 0.199397
O O14 0.500000 0.254192 0.500000
O O15 0.458034 0.246732 0.407519
O O16 0.447435 0.000000 0.474312
O O17 0.457627 0.500000 0.969918
O O18 0.500000 0.756818 0.000000
O O19 0.784281 0.500000 0.107407
O O20 0.656606 0.239114 0.206608
O O21 0.000000 0.267735 0.000000
O O22 0.529335 0.000000 0.663464
#
# Coordination Sequence:
#
# PCOD8066621 Si02
#       8
#     4   4   4   4   4   4   4   4
#     4  10  21  39  59  79 114 157 196 239 289 343
#     4  11  21  36  59  87 119 148 188 241 297 349
#     4  10  22  40  59  83 120 158 191 243 303 345
#     4  11  21  35  58  84 115 153 196 235 284 352
#     4   9  19  36  59  85 113 146 184 236 295 345
#     4   9  17  32  53  78 109 146 185 227 275 333
#     4  10  24  43  61  84 119 159 199 250 301 342
#     4  10  21  40  63  87 118 155 197 241 293 359
#
# _framework density 20.210806000000002
#
# number of rings (size 3 to 8) (size 9 to 14) (size 15 to 20)
#    0.000    2.000    2.500    0.750    3.500    1.500 
#    0.000    1.875    0.000    1.875    0.000    0.000 
#    0.000    0.000    0.000    0.000    0.000    0.000 
#
# Total GULP energy -396672.485008 kJ/mol
# GULP energy per Si atom -12396.015156 kJ/mol
# Density = 2.016481 g / cm^3
# Si number density = 20.210806 Si / 1000 Ang^3
#
#
#
# Elastic Constant Matrix: (Units=GPa)
#
#
# Indices 1 2 3 4 5 6 
#
# 1 163.3298 21.5945 71.1639 0.0000 1.3545 0.0000
# 2 21.5945 16.6155 20.7324 0.0000 -1.5987 0.0000
# 3 71.1639 20.7324 123.2956 0.0000 14.5399 0.0000
# 4 0.0000 0.0000 0.0000 31.9216 0.0000 3.7225
# 5 1.3545 -1.5987 14.5399 0.0000 28.0856 0.0000
# 6 0.0000 0.0000 0.0000 3.7225 0.0000 15.5017
#
#
#
# Elastic Compliance Matrix: (Units=1/GPa)
#
#
# Indices 1 2 3 4 5 6 
#
# 1 0.008731 -0.005967 -0.004203 0.000000 0.001415 0.000000
# 2 -0.005967 0.084018 -0.012015 0.000000 0.011290 0.000000
# 3 -0.004203 -0.012015 0.013434 0.000000 -0.007436 0.000000
# 4 0.000000 0.000000 0.000000 0.032229 0.000000 -0.007739
# 5 0.001415 0.011290 -0.007436 0.000000 0.040029 0.000000
# 6 0.000000 0.000000 0.000000 -0.007739 0.000000 0.066368
#
#
# Mechanical properties :
#
#
# Convention : Reuss Voigt Hill
#
# Bulk Modulus (GPa) = 16.17789 58.91359 37.54574
# Shear Modulus (GPa) = 16.14030 27.75179 21.94604
#
# Velocity S-wave (km/s) = 2.82901 3.70958 3.29881
# Velocity P-wave (km/s) = 4.32354 6.89643 5.75560
#
# Compressibility (1/GPa) = 0.06181277
#
# Stress axis : x y z
#
# Youngs Moduli (GPa) = 114.53471 11.90218 74.43965
#
# Poissons Ratio (x) = 0.07102 0.31286
# Poissons Ratio (y) = 0.68341 0.89441
# Poissons Ratio (z) = 0.48138 0.14301
#
# Static dielectric constant tensor:
#      x y z
#    x 4.109710 0.000000 -0.082300 
#    y 0.000000 3.234480 0.000000 
#    z -0.082300 0.000000 3.613770 
# 
# 
# High freq. dielectric constant tensor:
#      x y z
#    x 1.799830 0.000000 -0.002600 
#    y 0.000000 1.749940 0.000000 
#    z -0.002600 0.000000 1.798870 
# 
# From -- ./inp_files/89573.got.cif
#   From: 2010.06.25/outbox.cif.g09.slc.cpg/sg10_45_cif.got.tgz:89573.got - 2010.06.27 22:07:45.
