data_PCOD8066542
_publ_section_title
;
Structure prediction by ZEFSAII (Michael W. Deem and Ramdas Pophale) SiO2 
 PCOD8066542
Probable space group: P 2/M
;
_chemical_formula_sum "Si O2"
_cell_formula_units_Z 18
_cell_length_a 9.020328
_cell_length_b 9.503841
_cell_length_c 10.534293
_cell_angle_alpha 90.000000
_cell_angle_beta 66.713419
_cell_angle_gamma 90.000000
_cell_volume 829.515458
_symmetry_space_group_name_H-M "P 2/M"
_symmetry_group_IT_number 10
_symmetry_cell_setting 'monoclinic'
loop_
_space_group_symop_operation_xyz
x,y,z
-x,y,-z
-x,-y,-z
x,-y,z
loop_
_atom_site_type_symbol
_atom_site_label
_atom_site_fract_x
_atom_site_fract_y
_atom_site_fract_z
Si Si1 0.225255 0.162633 0.061186
Si Si2 0.666336 0.154755 0.693568
Si Si3 0.000000 0.255920 0.500000
Si Si4 0.944188 0.345420 0.244092
Si Si5 0.375794 0.336743 0.785282
O O1 0.319678 0.177948 0.160686
O O2 0.046266 0.227832 0.135689
O O3 0.208048 0.000000 0.025701
O O4 0.325062 0.250087 0.925940
O O5 0.545118 0.272103 0.678383
O O6 0.841430 0.160551 0.568898
O O7 0.594900 0.000000 0.690104
O O8 0.023401 0.350192 0.616684
O O9 0.992055 0.500000 0.174649
O O10 0.755850 0.316274 0.280925
O O11 0.401142 0.500000 0.811576
#
# Coordination Sequence:
#
# PCOD8066542 Si02
#       5
#     4   4   2   4   4
#     4  10  21  38  61  88 118 153 192 233 283 343
#     4  10  22  40  61  85 116 152 192 238 285 339
#     4  10  22  42  64  82 108 152 200 240 286 340
#     4  10  22  39  60  86 117 153 192 237 285 339
#     4  11  23  37  57  89 122 150 188 237 288 341
#
# _framework density 21.699414999999998
#
# number of rings (size 3 to 8) (size 9 to 14) (size 15 to 20)
#    0.000    1.778    0.000    3.333    0.000   14.222 
#    0.000    3.333    0.000    0.000    0.000    0.000 
#    0.000    0.000    0.000    0.000    0.000    0.000 
#
# Total GULP energy -223208.988105 kJ/mol
# GULP energy per Si atom -12400.499339 kJ/mol
# Density = 2.165003 g / cm^3
# Si number density = 21.699415 Si / 1000 Ang^3
#
#
#
# Elastic Constant Matrix: (Units=GPa)
#
#
# Indices 1 2 3 4 5 6 
#
# 1 117.1970 75.1838 30.2981 0.0000 -29.1851 0.0000
# 2 75.1838 172.6082 35.0046 0.0000 -20.1755 0.0000
# 3 30.2981 35.0046 76.2830 0.0000 -20.3537 0.0000
# 4 0.0000 0.0000 0.0000 10.5316 0.0000 -6.4970
# 5 -29.1851 -20.1755 -20.3537 0.0000 24.8360 0.0000
# 6 0.0000 0.0000 0.0000 -6.4970 0.0000 33.8870
#
#
#
# Elastic Compliance Matrix: (Units=1/GPa)
#
#
# Indices 1 2 3 4 5 6 
#
# 1 0.015166 -0.004988 -0.000078 0.000000 0.013706 0.000000
# 2 -0.004988 0.008285 -0.002034 0.000000 -0.000798 0.000000
# 3 -0.000078 -0.002034 0.017416 0.000000 0.012530 0.000000
# 4 0.000000 0.000000 0.000000 0.107689 0.000000 0.020647
# 5 0.013706 -0.000798 0.012530 0.000000 0.065991 0.000000
# 6 0.000000 0.000000 0.000000 0.020647 0.000000 0.033468
#
#
# Mechanical properties :
#
#
# Convention : Reuss Voigt Hill
#
# Bulk Modulus (GPa) = 37.49709 71.89566 54.69638
# Shear Modulus (GPa) = 18.44313 28.89104 23.66709
#
# Velocity S-wave (km/s) = 2.91853 3.65282 3.30613
# Velocity P-wave (km/s) = 5.35489 7.14110 6.31150
#
# Compressibility (1/GPa) = 0.02666873
#
# Stress axis : x y z
#
# Youngs Moduli (GPa) = 65.93815 120.69530 57.41746
#
# Poissons Ratio (x) = 0.60203 0.00446
# Poissons Ratio (y) = 0.32890 0.11676
# Poissons Ratio (z) = 0.00512 0.24545
#
# Static dielectric constant tensor:
#      x y z
#    x 4.011680 0.000000 -0.086380 
#    y 0.000000 3.976970 0.000000 
#    z -0.086380 0.000000 3.805800 
# 
# 
# High freq. dielectric constant tensor:
#      x y z
#    x 1.858680 0.000000 -0.006920 
#    y 0.000000 1.859090 0.000000 
#    z -0.006920 0.000000 1.838780 
# 
# From -- ./inp_files/22355.got.cif
#   From: 2010.06.25/outbox.cif.g09.slc.cpg/sg10_12_cif.got.tgz:22355.got - 2010.06.27 22:07:45.
