data_PCOD8066314
_publ_section_title
;
Structure prediction by ZEFSAII (Michael W. Deem and Ramdas Pophale) SiO2 
 PCOD8066314
Probable space group: P 2/M
;
_chemical_formula_sum "Si O2"
_cell_formula_units_Z 28
_cell_length_a 22.516154
_cell_length_b 13.405942
_cell_length_c 9.411093
_cell_angle_alpha 90.000000
_cell_angle_beta 150.938199
_cell_angle_gamma 90.000000
_cell_volume 1379.897607
_symmetry_space_group_name_H-M "P 2/M"
_symmetry_group_IT_number 10
_symmetry_cell_setting 'monoclinic'
loop_
_space_group_symop_operation_xyz
x,y,z
-x,y,-z
-x,-y,-z
x,-y,z
loop_
_atom_site_type_symbol
_atom_site_label
_atom_site_fract_x
_atom_site_fract_y
_atom_site_fract_z
Si Si1 0.924598 0.223729 0.705035
Si Si2 0.749784 0.384919 0.225291
Si Si3 0.466166 0.269059 0.085495
Si Si4 0.134072 0.614359 0.828262
Si Si5 0.924790 0.108383 0.201578
Si Si6 0.271298 0.767767 0.287121
Si Si7 0.284012 0.116426 0.604667
O O1 0.857203 0.325991 0.527284
O O2 0.830229 0.131443 0.528714
O O3 0.015711 0.191111 0.772969
O O4 0.000000 0.249926 0.000000
O O5 0.759482 0.500000 0.289969
O O6 0.767499 0.372086 0.093081
O O7 0.619304 0.343468 0.004827
O O8 0.585337 0.253102 0.433614
O O9 0.500000 0.314851 0.000000
O O10 0.405523 0.159996 0.933942
O O11 0.116570 0.500000 0.835801
O O12 0.000000 0.657142 0.500000
O O13 0.191500 0.668303 0.087027
O O14 0.000000 0.099083 0.500000
O O15 0.918105 0.000000 0.113046
O O16 0.785734 0.148255 0.939663
O O17 0.251731 0.812960 0.403543
O O18 0.302991 0.000000 0.606988
#
# Coordination Sequence:
#
# PCOD8066314 Si02
#       7
#     4   4   4   4   4   4   4
#     4  11  21  36  61  90 121 157 200 261 307 369
#     4  10  22  41  62  86 121 163 202 252 313 365
#     4   9  22  39  58  87 119 159 205 259 305 351
#     4  10  22  40  63  89 120 159 202 251 312 380
#     4  11  23  37  58  90 126 162 201 251 311 372
#     4  11  20  35  58  85 116 154 204 248 294 354
#     4  10  21  37  59  88 121 160 205 253 311 368
#
# _framework density 20.291360999999998
#
# number of rings (size 3 to 8) (size 9 to 14) (size 15 to 20)
#    0.000    1.714    1.429    3.000    0.000    5.429 
#    0.000    7.143    0.000    0.857    0.000   16.000 
#    0.000    0.000    0.000    0.000    0.000    0.000 
#
# Total GULP energy -346974.344992 kJ/mol
# GULP energy per Si atom -12391.940893 kJ/mol
# Density = 2.024518 g / cm^3
# Si number density = 20.291361 Si / 1000 Ang^3
#
#
#
# Elastic Constant Matrix: (Units=GPa)
#
#
# Indices 1 2 3 4 5 6 
#
# 1 77.5476 49.7322 30.6655 0.0000 11.6498 0.0000
# 2 49.7322 150.1501 75.3813 0.0000 6.4425 0.0000
# 3 30.6655 75.3813 166.7125 0.0000 8.9244 0.0000
# 4 0.0000 0.0000 0.0000 24.8735 0.0000 -2.6453
# 5 11.6498 6.4425 8.9244 0.0000 26.0471 0.0000
# 6 0.0000 0.0000 0.0000 -2.6453 0.0000 26.5866
#
#
#
# Elastic Compliance Matrix: (Units=1/GPa)
#
#
# Indices 1 2 3 4 5 6 
#
# 1 0.017403 -0.005247 -0.000491 0.000000 -0.006318 0.000000
# 2 -0.005247 0.010215 -0.003712 0.000000 0.001092 0.000000
# 3 -0.000491 -0.003712 0.007850 0.000000 -0.001552 0.000000
# 4 0.000000 0.000000 0.000000 0.040633 0.000000 0.004043
# 5 -0.006318 0.001092 -0.001552 0.000000 0.041479 0.000000
# 6 0.000000 0.000000 0.000000 0.004043 0.000000 0.038015
#
#
# Mechanical properties :
#
#
# Convention : Reuss Voigt Hill
#
# Bulk Modulus (GPa) = 60.35322 78.44089 69.39706
# Shear Modulus (GPa) = 27.77503 31.41021 29.59262
#
# Velocity S-wave (km/s) = 3.70376 3.93868 3.82302
# Velocity P-wave (km/s) = 6.93529 7.70879 7.33225
#
# Compressibility (1/GPa) = 0.01656912
#
# Stress axis : x y z
#
# Youngs Moduli (GPa) = 57.46027 97.89932 127.38708
#
# Poissons Ratio (x) = 0.51367 0.06249
# Poissons Ratio (y) = 0.30149 0.47286
# Poissons Ratio (z) = 0.02819 0.36340
#
# Static dielectric constant tensor:
#      x y z
#    x 3.567190 0.000000 0.236060 
#    y 0.000000 3.840010 0.000000 
#    z 0.236060 0.000000 3.899480 
# 
# 
# High freq. dielectric constant tensor:
#      x y z
#    x 1.776860 0.000000 0.010070 
#    y 0.000000 1.792680 0.000000 
#    z 0.010070 0.000000 1.804150 
# 
# From -- ./inp_files/35306.got.cif
#   From: 2010.06.25/outbox.cif.g09.slc.cpg/sg10_18_cif.got.tgz:35306.got - 2010.06.27 22:07:45.
