data_PCOD8066888
_publ_section_title
;
Structure prediction by ZEFSAII (Michael W. Deem and Ramdas Pophale) SiO2 
 PCOD8066888
Probable space group: P 2/M
;
_chemical_formula_sum "Si O2"
_cell_formula_units_Z 16
_cell_length_a 12.258105
_cell_length_b 11.174012
_cell_length_c 8.621192
_cell_angle_alpha 90.000000
_cell_angle_beta 142.098979
_cell_angle_gamma 90.000000
_cell_volume 725.403724
_symmetry_space_group_name_H-M "P 2/M"
_symmetry_group_IT_number 10
_symmetry_cell_setting 'monoclinic'
loop_
_space_group_symop_operation_xyz
x,y,z
-x,y,-z
-x,-y,-z
x,-y,z
loop_
_atom_site_type_symbol
_atom_site_label
_atom_site_fract_x
_atom_site_fract_y
_atom_site_fract_z
Si Si1 0.065698 0.500000 0.749143
Si Si2 0.386486 0.755088 0.588307
Si Si3 0.720464 0.136201 0.847468
Si Si4 0.477452 0.500000 0.291610
Si Si5 0.041831 0.755548 0.366436
O O1 0.990180 0.622081 0.740498
O O2 0.000000 0.500000 0.500000
O O3 0.276791 0.500000 0.005302
O O4 0.302735 0.774592 0.323536
O O5 0.568834 0.831118 0.804882
O O6 0.425858 0.616472 0.666841
O O7 0.243769 0.796085 0.557699
O O8 0.697313 0.000000 0.765743
O O9 0.913468 0.151497 0.136887
O O10 0.500000 0.500000 0.500000
O O11 0.000000 0.760449 0.500000
#
# Coordination Sequence:
#
# PCOD8066888 Si02
#       5
#     2   4   4   2   4
#     4  10  21  42  61  93 138 166 203 260 326 394
#     4  11  22  40  67  95 125 164 209 268 320 377
#     4  11  24  43  65  91 125 168 217 267 321 374
#     4  12  19  38  70 100 128 163 217 271 320 382
#     4  11  24  42  63  94 130 168 208 258 320 391
#
# _framework density 22.056683
#
# number of rings (size 3 to 8) (size 9 to 14) (size 15 to 20)
#    0.000    1.000    5.000    3.000    0.000    4.500 
#    0.000    7.500    0.000    0.000    0.000    0.000 
#    0.000    0.000    0.000    0.000    0.000    0.000 
#
# Total GULP energy -198374.437067 kJ/mol
# GULP energy per Si atom -12398.402317 kJ/mol
# Density = 2.200648 g / cm^3
# Si number density = 22.056683 Si / 1000 Ang^3
#
#
#
# Elastic Constant Matrix: (Units=GPa)
#
#
# Indices 1 2 3 4 5 6 
#
# 1 128.1731 10.3664 25.3097 0.0000 32.0968 0.0000
# 2 10.3664 107.7033 18.1082 0.0000 4.8479 0.0000
# 3 25.3097 18.1082 95.7081 0.0000 14.8356 0.0000
# 4 0.0000 0.0000 0.0000 24.5939 0.0000 3.7215
# 5 32.0968 4.8479 14.8356 0.0000 32.5464 0.0000
# 6 0.0000 0.0000 0.0000 3.7215 0.0000 9.1074
#
#
#
# Elastic Compliance Matrix: (Units=1/GPa)
#
#
# Indices 1 2 3 4 5 6 
#
# 1 0.010514 -0.000371 -0.001196 0.000000 -0.009769 0.000000
# 2 -0.000371 0.009616 -0.001674 0.000000 -0.000303 0.000000
# 3 -0.001196 -0.001674 0.011686 0.000000 -0.003898 0.000000
# 4 0.000000 0.000000 0.000000 0.043340 0.000000 -0.017710
# 5 -0.009769 -0.000303 -0.003898 0.000000 0.042181 0.000000
# 6 0.000000 0.000000 0.000000 -0.017710 0.000000 0.117038
#
#
# Mechanical properties :
#
#
# Convention : Reuss Voigt Hill
#
# Bulk Modulus (GPa) = 39.47441 48.79479 44.13460
# Shear Modulus (GPa) = 20.05600 31.76955 25.91278
#
# Velocity S-wave (km/s) = 3.01872 3.79932 3.43129
# Velocity P-wave (km/s) = 5.48506 6.43560 5.97925
#
# Compressibility (1/GPa) = 0.02533286
#
# Stress axis : x y z
#
# Youngs Moduli (GPa) = 95.10783 103.99749 85.57485
#
# Poissons Ratio (x) = 0.03861 0.10235
# Poissons Ratio (y) = 0.03531 0.14327
# Poissons Ratio (z) = 0.11375 0.17411
#
# Static dielectric constant tensor:
#      x y z
#    x 3.799680 0.000000 0.337000 
#    y 0.000000 4.271930 0.000000 
#    z 0.337000 0.000000 3.962690 
# 
# 
# High freq. dielectric constant tensor:
#      x y z
#    x 1.848140 0.000000 0.025440 
#    y 0.000000 1.870470 0.000000 
#    z 0.025440 0.000000 1.869670 
# 
# From -- ./inp_files/23786.got.cif
#   From: 2010.06.25/outbox.cif.g09.slc.cpg/sg10_12_cif.got.tgz:23786.got - 2010.06.27 22:07:45.
