data_PCOD8066205
_publ_section_title
;
Structure prediction by ZEFSAII (Michael W. Deem and Ramdas Pophale) SiO2 
 PCOD8066205
Probable space group: P 2/M
;
_chemical_formula_sum "Si O2"
_cell_formula_units_Z 32
_cell_length_a 24.710913
_cell_length_b 13.501546
_cell_length_c 9.125545
_cell_angle_alpha 90.000000
_cell_angle_beta 148.134958
_cell_angle_gamma 90.000000
_cell_volume 1607.309181
_symmetry_space_group_name_H-M "P 2/M"
_symmetry_group_IT_number 10
_symmetry_cell_setting 'monoclinic'
loop_
_space_group_symop_operation_xyz
x,y,z
-x,y,-z
-x,-y,-z
x,-y,z
loop_
_atom_site_type_symbol
_atom_site_label
_atom_site_fract_x
_atom_site_fract_y
_atom_site_fract_z
Si Si1 0.220922 0.754119 0.887814
Si Si2 0.200104 0.617429 0.112183
Si Si3 0.613296 0.615037 0.265054
Si Si4 0.454739 0.109873 0.040893
Si Si5 0.086092 0.745743 0.080020
Si Si6 0.030436 0.886129 0.401342
Si Si7 0.593556 0.110242 0.621853
Si Si8 0.280821 0.257576 0.712975
O O1 0.134915 0.826904 0.628147
O O2 0.259854 0.702615 0.828573
O O3 0.181755 0.672869 0.914714
O O4 0.308731 0.820209 0.160745
O O5 0.182783 0.500000 0.050970
O O6 0.317154 0.641828 0.432572
O O7 0.118256 0.655499 0.045405
O O8 0.599278 0.500000 0.222806
O O9 0.673326 0.646750 0.258941
O O10 0.500000 0.664892 0.000000
O O11 0.362800 0.168998 0.905416
O O12 0.411994 0.000000 0.907497
O O13 0.500000 0.162379 0.000000
O O14 0.555400 0.102381 0.369978
O O15 0.182054 0.781989 0.397368
O O16 0.000000 0.710978 0.000000
O O17 0.051808 0.837157 0.898213
O O18 0.000000 0.878466 0.500000
O O19 0.044468 0.000000 0.385519
O O20 0.500000 0.156696 0.500000
O O21 0.621769 0.000000 0.748547
#
# Coordination Sequence:
#
# PCOD8066205 Si02
#       8
#     4   4   4   4   4   4   4   4
#     4  12  23  39  62  89 126 164 206 255 306 370
#     4  10  24  43  66  94 123 159 209 264 316 379
#     4   9  20  40  63  88 121 160 201 252 313 369
#     4  10  22  37  56  87 124 160 206 248 297 365
#     4  11  23  44  66  91 125 161 207 261 309 371
#     4  11  24  43  65  92 127 166 208 250 305 368
#     4  10  21  37  56  85 125 167 204 246 300 364
#     4  11  23  36  62  89 123 162 204 253 305 363
#
# _framework density 19.909051999999999
#
# number of rings (size 3 to 8) (size 9 to 14) (size 15 to 20)
#    0.000    1.500    3.750    0.750    5.250    2.000 
#    0.000    1.250    0.000    2.625    0.000    0.000 
#    0.000    0.000    0.000    0.000    0.000    0.000 
#
# Total GULP energy -396611.201598 kJ/mol
# GULP energy per Si atom -12394.100050 kJ/mol
# Density = 1.986374 g / cm^3
# Si number density = 19.909052 Si / 1000 Ang^3
#
#
#
# Elastic Constant Matrix: (Units=GPa)
#
#
# Indices 1 2 3 4 5 6 
#
# 1 128.6613 36.7070 38.0067 0.0000 -13.4414 0.0000
# 2 36.7070 59.2673 32.6835 0.0000 -8.8670 0.0000
# 3 38.0067 32.6835 106.4392 0.0000 -4.0444 0.0000
# 4 0.0000 0.0000 0.0000 25.4397 0.0000 -1.0289
# 5 -13.4414 -8.8670 -4.0444 0.0000 30.6100 0.0000
# 6 0.0000 0.0000 0.0000 -1.0289 0.0000 18.2830
#
#
#
# Elastic Compliance Matrix: (Units=1/GPa)
#
#
# Indices 1 2 3 4 5 6 
#
# 1 0.009989 -0.004651 -0.002034 0.000000 0.002771 0.000000
# 2 -0.004651 0.023297 -0.005341 0.000000 0.004001 0.000000
# 3 -0.002034 -0.005341 0.011727 0.000000 -0.000891 0.000000
# 4 0.000000 0.000000 0.000000 0.039398 0.000000 0.002217
# 5 0.002771 0.004001 -0.000891 0.000000 0.034927 0.000000
# 6 0.000000 0.000000 0.000000 0.002217 0.000000 0.054820
#
#
# Mechanical properties :
#
#
# Convention : Reuss Voigt Hill
#
# Bulk Modulus (GPa) = 47.70322 56.57357 52.13840
# Shear Modulus (GPa) = 24.36672 27.33126 25.84899
#
# Velocity S-wave (km/s) = 3.50223 3.70916 3.60718
# Velocity P-wave (km/s) = 6.35348 6.84262 6.60258
#
# Compressibility (1/GPa) = 0.02096295
#
# Stress axis : x y z
#
# Youngs Moduli (GPa) = 100.10586 42.92383 85.27105
#
# Poissons Ratio (x) = 0.19964 0.17340
# Poissons Ratio (y) = 0.46559 0.45542
# Poissons Ratio (z) = 0.20357 0.22925
#
# Static dielectric constant tensor:
#      x y z
#    x 3.785230 0.000000 -0.010260 
#    y 0.000000 3.465150 0.000000 
#    z -0.010260 0.000000 3.870840 
# 
# 
# High freq. dielectric constant tensor:
#      x y z
#    x 1.784380 0.000000 -0.004720 
#    y 0.000000 1.763310 0.000000 
#    z -0.004720 0.000000 1.785100 
# 
# From -- ./inp_files/36385.got.cif
#   From: 2010.06.25/outbox.cif.g09.slc.cpg/sg10_19_cif.got.tgz:36385.got - 2010.06.27 22:07:45.
