data_PCOD8066433
_publ_section_title
;
Structure prediction by ZEFSAII (Michael W. Deem and Ramdas Pophale) SiO2 
 PCOD8066433
Probable space group: P 2/M
;
_chemical_formula_sum "Si O2"
_cell_formula_units_Z 28
_cell_length_a 9.200745
_cell_length_b 14.032004
_cell_length_c 11.707729
_cell_angle_alpha 90.000000
_cell_angle_beta 61.964818
_cell_angle_gamma 90.000000
_cell_volume 1334.161437
_symmetry_space_group_name_H-M "P 2/M"
_symmetry_group_IT_number 10
_symmetry_cell_setting 'monoclinic'
loop_
_space_group_symop_operation_xyz
x,y,z
-x,y,-z
-x,-y,-z
x,-y,z
loop_
_atom_site_type_symbol
_atom_site_label
_atom_site_fract_x
_atom_site_fract_y
_atom_site_fract_z
Si Si1 0.272704 0.386947 0.386942
Si Si2 0.925097 0.605645 0.760879
Si Si3 0.964598 0.109451 0.646032
Si Si4 0.189402 0.396943 0.961041
Si Si5 0.573938 0.266948 0.244822
Si Si6 0.588827 0.111630 0.845697
Si Si7 0.797329 0.264032 0.364381
O O1 0.266348 0.500000 0.418111
O O2 0.144944 0.358127 0.334598
O O3 0.452790 0.357103 0.278975
O O4 0.236811 0.317982 0.505192
O O5 0.993318 0.500000 0.716359
O O6 0.078379 0.667233 0.749129
O O7 0.786889 0.609085 0.909895
O O8 0.782845 0.140379 0.761367
O O9 0.000000 0.129309 0.500000
O O10 0.109514 0.164097 0.657499
O O11 0.990184 0.000000 0.666728
O O12 0.263566 0.500000 0.892871
O O13 0.269161 0.301964 0.882729
O O14 0.000000 0.396214 0.000000
O O15 0.504100 0.169394 0.219083
O O16 0.629867 0.247420 0.355008
O O17 0.567789 0.000000 0.826594
O O18 0.500000 0.136157 0.000000
#
# Coordination Sequence:
#
# PCOD8066433 Si02
#       7
#     4   4   4   4   4   4   4
#     4  11  25  41  60  93 131 170 213 260 312 374
#     4  10  21  38  60  84 117 164 214 257 298 362
#     4  10  22  43  69  93 121 163 214 264 318 384
#     4  10  21  38  58  86 124 164 210 256 307 369
#     4  12  25  37  63  92 126 167 206 254 326 381
#     4  10  24  45  68  95 129 168 212 268 329 386
#     4  12  23  38  62  92 126 161 207 255 316 376
#
# _framework density 20.986965999999999
#
# number of rings (size 3 to 8) (size 9 to 14) (size 15 to 20)
#    0.000    1.286    1.429    4.286    4.000    4.000 
#    0.000    2.143    0.000    7.286    0.000    0.000 
#    0.000    0.000    0.000    0.000    0.000    0.000 
#
# Total GULP energy -346970.623546 kJ/mol
# GULP energy per Si atom -12391.807984 kJ/mol
# Density = 2.093920 g / cm^3
# Si number density = 20.986966 Si / 1000 Ang^3
#
#
#
# Elastic Constant Matrix: (Units=GPa)
#
#
# Indices 1 2 3 4 5 6 
#
# 1 87.2300 47.7786 24.1086 0.0000 16.9075 0.0000
# 2 47.7786 90.4520 29.9118 0.0000 6.6386 0.0000
# 3 24.1086 29.9118 96.0518 0.0000 2.7332 0.0000
# 4 0.0000 0.0000 0.0000 21.9766 0.0000 -19.7943
# 5 16.9075 6.6386 2.7332 0.0000 30.5378 0.0000
# 6 0.0000 0.0000 0.0000 -19.7943 0.0000 9.5562
#
#
#
# Elastic Compliance Matrix: (Units=1/GPa)
#
#
# Indices 1 2 3 4 5 6 
#
# 1 0.018096 -0.008408 -0.001695 0.000000 -0.008039 0.000000
# 2 -0.008408 0.016401 -0.003036 0.000000 0.001362 0.000000
# 3 -0.001695 -0.003036 0.011766 0.000000 0.000545 0.000000
# 4 0.000000 0.000000 0.000000 -0.052564 0.000000 -0.108879
# 5 -0.008039 0.001362 0.000545 0.000000 0.036853 0.000000
# 6 0.000000 0.000000 0.000000 -0.108879 0.000000 -0.120883
#
#
# Mechanical properties :
#
#
# Convention : Reuss Voigt Hill
#
# Bulk Modulus (GPa) = 50.03587 53.03688 51.53637
# Shear Modulus (GPa) = -87.12111 23.87644 -31.62234
#
# Velocity S-wave (km/s) = -6.44997 3.37661 -3.88591
# Velocity P-wave (km/s) = 5.61928 6.36618 2.11564
#
# Compressibility (1/GPa) = 0.01998566
#
# Stress axis : x y z
#
# Youngs Moduli (GPa) = 55.26071 60.97211 84.98830
#
# Poissons Ratio (x) = 0.51266 0.14404
# Poissons Ratio (y) = 0.46464 0.25801
# Poissons Ratio (z) = 0.09366 0.18510
#
# Static dielectric constant tensor:
#      x y z
#    x 3.869490 0.000000 -0.155280 
#    y 0.000000 3.812850 0.000000 
#    z -0.155280 0.000000 4.137140 
# 
# 
# High freq. dielectric constant tensor:
#      x y z
#    x 1.814650 0.000000 -0.002460 
#    y 0.000000 1.825280 0.000000 
#    z -0.002460 0.000000 1.832750 
# 
# From -- ./inp_files/42881.got.cif
#   From: 2010.06.25/outbox.cif.g09.slc.cpg/sg10_22_cif.got.tgz:42881.got - 2010.06.27 22:07:45.
