data_PCOD8066164
_publ_section_title
;
Structure prediction by ZEFSAII (Michael W. Deem and Ramdas Pophale) SiO2 
 PCOD8066164
Probable space group: P 2/M
;
_chemical_formula_sum "Si O2"
_cell_formula_units_Z 28
_cell_length_a 19.423533
_cell_length_b 9.194465
_cell_length_c 14.155226
_cell_angle_alpha 90.000000
_cell_angle_beta 145.805267
_cell_angle_gamma 90.000000
_cell_volume 1420.736345
_symmetry_space_group_name_H-M "P 2/M"
_symmetry_group_IT_number 10
_symmetry_cell_setting 'monoclinic'
loop_
_space_group_symop_operation_xyz
x,y,z
-x,y,-z
-x,-y,-z
x,-y,z
loop_
_atom_site_type_symbol
_atom_site_label
_atom_site_fract_x
_atom_site_fract_y
_atom_site_fract_z
Si Si1 0.109699 0.332688 0.555802
Si Si2 0.292686 0.666028 0.922146
Si Si3 0.473836 0.834035 0.365321
Si Si4 0.993491 0.170395 0.887447
Si Si5 0.199937 0.170171 0.484477
Si Si6 0.798156 0.165877 0.010215
Si Si7 0.442288 0.671696 0.716009
O O1 0.090923 0.500000 0.503404
O O2 0.239872 0.313062 0.757290
O O3 0.110542 0.230952 0.464733
O O4 0.000000 0.283412 0.500000
O O5 0.286022 0.500000 0.947802
O O6 0.205291 0.752457 0.894241
O O7 0.434443 0.717439 0.087074
O O8 0.500000 0.779582 0.500000
O O9 0.330012 0.819955 0.187921
O O10 0.548514 0.729977 0.380210
O O11 0.518988 0.000000 0.400858
O O12 0.862911 0.199825 0.688850
O O13 0.019625 0.000000 0.926784
O O14 0.000000 0.240993 0.000000
O O15 0.100416 0.237785 0.943226
O O16 0.328530 0.252813 0.638059
O O17 0.221034 0.000000 0.525087
O O18 0.832625 0.000000 0.072166
O O19 0.420661 0.500000 0.691078
#
# Coordination Sequence:
#
# PCOD8066164 Si02
#       7
#     4   4   4   4   4   4   4
#     4  10  21  38  61  85 111 146 184 224 276 335
#     4   9  19  36  57  80 108 146 182 220 272 330
#     4   9  18  31  53  82 108 139 182 229 274 325
#     4   9  19  34  54  78 107 144 181 220 272 331
#     4  11  23  37  57  84 113 144 184 234 278 323
#     4   9  17  31  53  80 106 137 178 225 272 320
#     4  10  21  37  55  77 112 150 186 226 272 329
#
# _framework density 19.708089999999999
#
# number of rings (size 3 to 8) (size 9 to 14) (size 15 to 20)
#    0.000    2.429    0.000    1.714    2.000    2.286 
#    0.000    3.571    0.000    2.143    0.000    0.000 
#    0.000    0.000    0.000    0.000    0.000    0.000 
#
# Total GULP energy -347219.605826 kJ/mol
# GULP energy per Si atom -12400.700208 kJ/mol
# Density = 1.966323 g / cm^3
# Si number density = 19.708090 Si / 1000 Ang^3
#
#
#
# Elastic Constant Matrix: (Units=GPa)
#
#
# Indices 1 2 3 4 5 6 
#
# 1 102.6332 44.0068 39.7468 0.0000 7.5755 0.0000
# 2 44.0068 68.5092 29.6982 0.0000 0.9654 0.0000
# 3 39.7468 29.6982 69.8080 0.0000 -4.2151 0.0000
# 4 0.0000 0.0000 0.0000 21.3625 0.0000 0.7321
# 5 7.5755 0.9654 -4.2151 0.0000 33.9443 0.0000
# 6 0.0000 0.0000 0.0000 0.7321 0.0000 26.8251
#
#
#
# Elastic Compliance Matrix: (Units=1/GPa)
#
#
# Indices 1 2 3 4 5 6 
#
# 1 0.015471 -0.007306 -0.005941 0.000000 -0.003983 0.000000
# 2 -0.007306 0.021420 -0.004928 0.000000 0.000409 0.000000
# 3 -0.005941 -0.004928 0.020043 0.000000 0.003955 0.000000
# 4 0.000000 0.000000 0.000000 0.046855 0.000000 -0.001279
# 5 -0.003983 0.000409 0.003955 0.000000 0.030828 0.000000
# 6 0.000000 0.000000 0.000000 -0.001279 0.000000 0.037313
#
#
# Mechanical properties :
#
#
# Convention : Reuss Voigt Hill
#
# Bulk Modulus (GPa) = 48.58225 51.98378 50.28301
# Shear Modulus (GPa) = 23.24043 24.92628 24.08336
#
# Velocity S-wave (km/s) = 3.43772 3.56022 3.49951
# Velocity P-wave (km/s) = 6.36095 6.58289 6.47287
#
# Compressibility (1/GPa) = 0.02058365
#
# Stress axis : x y z
#
# Youngs Moduli (GPa) = 64.63751 46.68486 49.89294
#
# Poissons Ratio (x) = 0.34109 0.29641
# Poissons Ratio (y) = 0.47226 0.24587
# Poissons Ratio (z) = 0.38401 0.23006
#
# Static dielectric constant tensor:
#      x y z
#    x 3.592470 0.000000 0.019310 
#    y 0.000000 3.417680 0.000000 
#    z 0.019310 0.000000 3.679130 
# 
# 
# High freq. dielectric constant tensor:
#      x y z
#    x 1.766090 0.000000 0.003930 
#    y 0.000000 1.745610 0.000000 
#    z 0.003930 0.000000 1.777540 
# 
# From -- ./inp_files/68585.got.cif
#   From: 2010.06.25/outbox.cif.g09.slc.cpg/sg10_35_cif.got.tgz:68585.got - 2010.06.27 22:07:45.
