data_PCOD8066124
_publ_section_title
;
Structure prediction by ZEFSAII (Michael W. Deem and Ramdas Pophale) SiO2 
 PCOD8066124
Probable space group: P 2/M
;
_chemical_formula_sum "Si O2"
_cell_formula_units_Z 28
_cell_length_a 9.747249
_cell_length_b 10.267169
_cell_length_c 14.760830
_cell_angle_alpha 90.000000
_cell_angle_beta 112.128237
_cell_angle_gamma 90.000000
_cell_volume 1368.407427
_symmetry_space_group_name_H-M "P 2/M"
_symmetry_group_IT_number 10
_symmetry_cell_setting 'monoclinic'
loop_
_space_group_symop_operation_xyz
x,y,z
-x,y,-z
-x,-y,-z
x,-y,z
loop_
_atom_site_type_symbol
_atom_site_label
_atom_site_fract_x
_atom_site_fract_y
_atom_site_fract_z
Si Si1 0.866179 0.849760 0.222624
Si Si2 0.156081 0.853548 0.387986
Si Si3 0.409622 0.646598 0.066779
Si Si4 0.542061 0.145432 0.607930
Si Si5 0.845924 0.846200 0.013073
Si Si6 0.828410 0.359526 0.470242
Si Si7 0.377656 0.721338 0.728685
O O1 0.711096 0.828832 0.234899
O O2 0.005206 0.788753 0.312176
O O3 0.903172 0.000000 0.224024
O O4 0.862328 0.794845 0.119980
O O5 0.278864 0.857109 0.339186
O O6 0.225813 0.763237 0.484494
O O7 0.129663 0.000000 0.420241
O O8 0.343369 0.500000 0.037248
O O9 0.283766 0.754030 0.059516
O O10 0.523264 0.637544 0.178819
O O11 0.500000 0.690359 0.000000
O O12 0.500000 0.209364 0.500000
O O13 0.484679 0.220343 0.680130
O O14 0.474445 0.000000 0.593271
O O15 0.800911 0.000000 0.995368
O O16 0.000000 0.821006 0.000000
O O17 0.799827 0.500000 0.510981
O O18 0.744929 0.364945 0.352997
O O19 0.000000 0.336775 0.500000
#
# Coordination Sequence:
#
# PCOD8066124 Si02
#       7
#     4   4   4   4   4   4   4
#     4  10  21  37  62  95 123 158 209 260 314 378
#     4  10  21  39  60  88 124 162 207 254 309 377
#     4  11  25  45  67  94 131 173 217 270 327 387
#     4  10  21  36  59  92 130 166 206 258 317 372
#     4  10  23  44  69  97 129 163 209 270 329 385
#     4  11  23  39  60  89 124 164 210 257 310 367
#     4  12  22  39  63  92 127 169 214 262 313 376
#
# _framework density 20.461742999999998
#
# number of rings (size 3 to 8) (size 9 to 14) (size 15 to 20)
#    0.000    1.429    4.286    0.857    2.000    2.571 
#    0.000    2.857    0.000    0.000    0.000    0.000 
#    0.000    0.000    0.000    0.000    0.000    0.000 
#
# Total GULP energy -347024.189964 kJ/mol
# GULP energy per Si atom -12393.721070 kJ/mol
# Density = 2.041517 g / cm^3
# Si number density = 20.461743 Si / 1000 Ang^3
#
#
#
# Elastic Constant Matrix: (Units=GPa)
#
#
# Indices 1 2 3 4 5 6 
#
# 1 115.2185 49.2120 42.6094 0.0000 -4.1354 0.0000
# 2 49.2120 93.2463 37.1926 0.0000 0.2256 0.0000
# 3 42.6094 37.1926 115.3329 0.0000 -0.4461 0.0000
# 4 0.0000 0.0000 0.0000 17.7397 0.0000 -1.9382
# 5 -4.1354 0.2256 -0.4461 0.0000 38.8512 0.0000
# 6 0.0000 0.0000 0.0000 -1.9382 0.0000 12.0979
#
#
#
# Elastic Compliance Matrix: (Units=1/GPa)
#
#
# Indices 1 2 3 4 5 6 
#
# 1 0.011969 -0.005231 -0.002730 0.000000 0.001273 0.000000
# 2 -0.005231 0.014594 -0.002776 0.000000 -0.000673 0.000000
# 3 -0.002730 -0.002776 0.010574 0.000000 -0.000153 0.000000
# 4 0.000000 0.000000 0.000000 0.057375 0.000000 0.009192
# 5 0.001273 -0.000673 -0.000153 0.000000 0.025877 0.000000
# 6 0.000000 0.000000 0.000000 0.009192 0.000000 0.084132
#
#
# Mechanical properties :
#
#
# Convention : Reuss Voigt Hill
#
# Bulk Modulus (GPa) = 63.84840 64.64729 64.24784
# Shear Modulus (GPa) = 21.62490 26.72335 24.17412
#
# Velocity S-wave (km/s) = 3.25444 3.61780 3.44092
# Velocity P-wave (km/s) = 6.73746 7.00815 6.87414
#
# Compressibility (1/GPa) = 0.01566210
#
# Stress axis : x y z
#
# Youngs Moduli (GPa) = 83.55184 68.52169 94.57263
#
# Poissons Ratio (x) = 0.35842 0.25819
# Poissons Ratio (y) = 0.43704 0.26257
# Poissons Ratio (z) = 0.22810 0.19024
#
# Static dielectric constant tensor:
#      x y z
#    x 3.726710 0.000000 0.108650 
#    y 0.000000 3.527090 0.000000 
#    z 0.108650 0.000000 3.899880 
# 
# 
# High freq. dielectric constant tensor:
#      x y z
#    x 1.807020 0.000000 0.008890 
#    y 0.000000 1.780160 0.000000 
#    z 0.008890 0.000000 1.799570 
# 
# From -- ./inp_files/28223.got.cif
#   From: 2010.06.25/outbox.cif.g09.slc.cpg/sg10_15_cif.got.tgz:28223.got - 2010.06.27 22:07:45.
