data_PCOD8066429
_publ_section_title
;
Structure prediction by ZEFSAII (Michael W. Deem and Ramdas Pophale) SiO2 
 PCOD8066429
Probable space group: P 2/M
;
_chemical_formula_sum "Si O2"
_cell_formula_units_Z 28
_cell_length_a 7.701876
_cell_length_b 23.201293
_cell_length_c 13.899544
_cell_angle_alpha 90.000000
_cell_angle_beta 146.218660
_cell_angle_gamma 90.000000
_cell_volume 1381.031374
_symmetry_space_group_name_H-M "P 2/M"
_symmetry_group_IT_number 10
_symmetry_cell_setting 'monoclinic'
loop_
_space_group_symop_operation_xyz
x,y,z
-x,y,-z
-x,-y,-z
x,-y,z
loop_
_atom_site_type_symbol
_atom_site_label
_atom_site_fract_x
_atom_site_fract_y
_atom_site_fract_z
Si Si1 0.305342 0.933463 0.203561
Si Si2 0.705157 0.230004 1.000000
Si Si3 0.171317 0.850775 0.310947
Si Si4 0.238477 0.149225 0.689053
Si Si5 0.264816 0.436049 0.311351
Si Si6 0.330765 0.436049 0.688649
Si Si7 0.696207 0.644042 1.000000
O O1 0.247422 0.907175 0.282850
O O2 0.601127 0.907175 0.282850
O O3 0.382343 0.000000 0.254895
O O4 0.000000 0.923484 0.000000
O O5 0.793967 0.294003 0.000000
O O6 0.024368 0.196817 0.172100
O O7 0.500000 0.233091 0.000000
O O8 0.508068 0.196817 0.827900
O O9 0.500000 0.825314 0.500000
O O10 0.938538 0.866324 0.292359
O O11 0.000000 0.174686 0.500000
O O12 0.500000 0.411441 0.500000
O O13 0.143940 0.500000 0.286837
O O14 0.432191 0.441575 0.288127
O O15 0.985933 0.392323 0.170292
O O16 0.283432 0.500000 0.713164
O O17 0.000000 0.411441 0.500000
O O18 0.475055 0.392323 0.829707
O O19 0.500000 0.662299 0.000000
#
# Coordination Sequence:
#
# PCOD8066429 Si02
#       7
#     4   4   4   4   4   4   4
#     4  11  24  42  66  97 127 161 207 254 301 366
#     4   9  22  41  61  85 120 158 205 251 296 356
#     4  11  22  42  65  90 126 166 204 252 309 364
#     4  11  22  42  65  90 126 166 204 252 309 364
#     4  10  21  38  58  84 119 156 197 246 303 362
#     4  10  21  38  58  84 119 156 197 246 303 362
#     4  11  22  38  59  88 119 152 200 252 296 360
#
# _framework density 20.274702999999999
#
# number of rings (size 3 to 8) (size 9 to 14) (size 15 to 20)
#    0.000    1.571    2.857    1.714    0.000    5.714 
#    5.143    4.286    0.000    0.000    0.000    0.000 
#    0.000    0.000    0.000    0.000    0.000    0.000 
#
# Total GULP energy -347120.000138 kJ/mol
# GULP energy per Si atom -12397.142862 kJ/mol
# Density = 2.022856 g / cm^3
# Si number density = 20.274703 Si / 1000 Ang^3
#
#
#
# Elastic Constant Matrix: (Units=GPa)
#
#
# Indices 1 2 3 4 5 6 
#
# 1 88.1848 38.9926 26.1303 0.0000 0.0999 0.0000
# 2 38.9926 153.8631 98.5778 0.0000 1.8386 0.0000
# 3 26.1303 98.5778 187.4586 0.0000 2.9631 0.0000
# 4 0.0000 0.0000 0.0000 76.3378 0.0000 1.8478
# 5 0.0999 1.8386 2.9631 0.0000 32.7369 0.0000
# 6 0.0000 0.0000 0.0000 1.8478 0.0000 16.4782
#
#
#
# Elastic Compliance Matrix: (Units=1/GPa)
#
#
# Indices 1 2 3 4 5 6 
#
# 1 0.012773 -0.003162 -0.000120 0.000000 0.000149 0.000000
# 2 -0.003162 0.010584 -0.005123 0.000000 -0.000121 0.000000
# 3 -0.000120 -0.005123 0.008052 0.000000 -0.000441 0.000000
# 4 0.000000 0.000000 0.000000 0.013135 0.000000 -0.001473
# 5 0.000149 -0.000121 -0.000441 0.000000 0.030593 0.000000
# 6 0.000000 0.000000 0.000000 -0.001473 0.000000 0.060852
#
#
# Mechanical properties :
#
#
# Convention : Reuss Voigt Hill
#
# Bulk Modulus (GPa) = 68.49558 84.10088 76.29823
# Shear Modulus (GPa) = 31.71238 42.83095 37.27167
#
# Velocity S-wave (km/s) = 3.95921 4.60121 4.29223
# Velocity P-wave (km/s) = 7.39983 8.35458 7.89166
#
# Compressibility (1/GPa) = 0.01459948
#
# Stress axis : x y z
#
# Youngs Moduli (GPa) = 78.28800 94.47798 124.18645
#
# Poissons Ratio (x) = 0.29873 0.01492
# Poissons Ratio (y) = 0.24754 0.63625
# Poissons Ratio (z) = 0.00941 0.48404
#
# Static dielectric constant tensor:
#      x y z
#    x 3.764900 0.000000 0.003660 
#    y 0.000000 4.080540 0.000000 
#    z 0.003660 0.000000 3.883550 
# 
# 
# High freq. dielectric constant tensor:
#      x y z
#    x 1.795620 0.000000 0.000370 
#    y 0.000000 1.782560 0.000000 
#    z 0.000370 0.000000 1.807550 
# 
# From -- ./inp_files/30480.got.cif
#   From: 2010.06.25/outbox.cif.g09.slc.cpg/sg10_16_cif.got.tgz:30480.got - 2010.06.27 22:07:45.
