data_PCOD8066285
_publ_section_title
;
Structure prediction by ZEFSAII (Michael W. Deem and Ramdas Pophale) SiO2 
 PCOD8066285
Probable space group: P 2/M
;
_chemical_formula_sum "Si O2"
_cell_formula_units_Z 32
_cell_length_a 13.990357
_cell_length_b 8.867322
_cell_length_c 22.085152
_cell_angle_alpha 90.000000
_cell_angle_beta 143.636333
_cell_angle_gamma 90.000000
_cell_volume 1624.460825
_symmetry_space_group_name_H-M "P 2/M"
_symmetry_group_IT_number 10
_symmetry_cell_setting 'monoclinic'
loop_
_space_group_symop_operation_xyz
x,y,z
-x,y,-z
-x,-y,-z
x,-y,z
loop_
_atom_site_type_symbol
_atom_site_label
_atom_site_fract_x
_atom_site_fract_y
_atom_site_fract_z
Si Si1 0.310822 0.829666 0.914998
Si Si2 0.293860 0.324656 0.786077
Si Si3 0.285825 0.178158 0.503628
Si Si4 0.187525 0.822183 0.091809
Si Si5 0.685503 0.833409 0.612738
Si Si6 0.626358 0.677736 0.701456
Si Si7 0.976309 0.168969 0.417483
Si Si8 0.658405 0.677826 0.947593
O O1 0.231204 0.758559 0.814706
O O2 0.249338 0.000000 0.892329
O O3 0.500000 0.821289 0.000000
O O4 0.260234 0.735103 0.948495
O O5 0.292933 0.500000 0.799802
O O6 0.470483 0.275216 0.853325
O O7 0.170034 0.281218 0.670507
O O8 0.230503 0.222099 0.406685
O O9 0.443160 0.265469 0.606782
O O10 0.140149 0.230028 0.471500
O O11 0.323425 0.000000 0.526955
O O12 0.280467 0.749825 0.195212
O O13 0.257932 0.759336 0.065450
O O14 0.214473 0.000000 0.107361
O O15 0.000000 0.778679 0.000000
O O16 0.500000 0.841287 0.500000
O O17 0.716680 0.721643 0.684718
O O18 0.746822 0.000000 0.663357
O O19 0.628905 0.500000 0.710501
O O20 0.000000 0.167692 0.500000
O O21 0.936849 0.000000 0.373550
O O22 0.683399 0.500000 0.954216
#
# Coordination Sequence:
#
# PCOD8066285 Si02
#       8
#     4   4   4   4   4   4   4   4
#     4   9  17  33  59  88 115 150 197 240 280 338
#     4  10  21  37  58  87 122 158 193 238 296 348
#     4   9  19  37  59  85 117 156 197 241 286 337
#     4  11  25  44  63  85 113 150 196 241 289 349
#     4   8  15  32  57  82 111 148 191 236 283 336
#     4  11  22  36  60  89 117 150 188 237 295 351
#     4  10  22  38  56  84 119 158 203 247 285 334
#     4  10  21  38  62  90 120 153 190 238 298 353
#
# _framework density 19.698843
#
# number of rings (size 3 to 8) (size 9 to 14) (size 15 to 20)
#    0.000    2.250    0.000    3.375    1.750    7.000 
#    2.250    0.000    0.000    0.000    0.000    0.000 
#    0.000    0.000    0.000    0.000    0.000    0.000 
#
# Total GULP energy -396773.191536 kJ/mol
# GULP energy per Si atom -12399.162235 kJ/mol
# Density = 1.965401 g / cm^3
# Si number density = 19.698843 Si / 1000 Ang^3
#
#
#
# Elastic Constant Matrix: (Units=GPa)
#
#
# Indices 1 2 3 4 5 6 
#
# 1 142.1815 54.9828 54.4305 0.0000 -15.0388 0.0000
# 2 54.9828 99.0302 48.2322 0.0000 -4.0319 0.0000
# 3 54.4305 48.2322 83.2473 0.0000 -10.5895 0.0000
# 4 0.0000 0.0000 0.0000 27.1346 0.0000 -2.9842
# 5 -15.0388 -4.0319 -10.5895 0.0000 25.1731 0.0000
# 6 0.0000 0.0000 0.0000 -2.9842 0.0000 16.2568
#
#
#
# Elastic Compliance Matrix: (Units=1/GPa)
#
#
# Indices 1 2 3 4 5 6 
#
# 1 0.010461 -0.003565 -0.004281 0.000000 0.003878 0.000000
# 2 -0.003565 0.015320 -0.006871 0.000000 -0.002567 0.000000
# 3 -0.004281 -0.006871 0.019363 0.000000 0.004488 0.000000
# 4 0.000000 0.000000 0.000000 0.037613 0.000000 0.006904
# 5 0.003878 -0.002567 0.004488 0.000000 0.043518 0.000000
# 6 0.000000 0.000000 0.000000 0.006904 0.000000 0.062780
#
#
# Mechanical properties :
#
#
# Convention : Reuss Voigt Hill
#
# Bulk Modulus (GPa) = 63.65771 71.08331 67.37051
# Shear Modulus (GPa) = 22.34875 24.83379 23.59127
#
# Velocity S-wave (km/s) = 3.37192 3.55445 3.46439
# Velocity P-wave (km/s) = 6.89532 7.28072 7.09063
#
# Compressibility (1/GPa) = 0.01570902
#
# Stress axis : x y z
#
# Youngs Moduli (GPa) = 95.59373 65.27622 51.64371
#
# Poissons Ratio (x) = 0.23272 0.22108
# Poissons Ratio (y) = 0.34081 0.35486
# Poissons Ratio (z) = 0.40923 0.44854
#
# Static dielectric constant tensor:
#      x y z
#    x 3.921640 0.000000 -0.267380 
#    y 0.000000 3.595380 0.000000 
#    z -0.267380 0.000000 3.505720 
# 
# 
# High freq. dielectric constant tensor:
#      x y z
#    x 1.770810 0.000000 -0.018370 
#    y 0.000000 1.766620 0.000000 
#    z -0.018370 0.000000 1.759220 
# 
# From -- ./inp_files/84763.got.cif
#   From: 2010.06.25/outbox.cif.g09.slc.cpg/sg10_43_cif.got.tgz:84763.got - 2010.06.27 22:07:45.
