data_PCOD8066459
_publ_section_title
;
Structure prediction by ZEFSAII (Michael W. Deem and Ramdas Pophale) SiO2 
 PCOD8066459
Probable space group: P 2/M
;
_chemical_formula_sum "Si O2"
_cell_formula_units_Z 28
_cell_length_a 9.968147
_cell_length_b 9.085943
_cell_length_c 25.277071
_cell_angle_alpha 90.000000
_cell_angle_beta 140.509870
_cell_angle_gamma 90.000000
_cell_volume 1455.897981
_symmetry_space_group_name_H-M "P 2/M"
_symmetry_group_IT_number 10
_symmetry_cell_setting 'monoclinic'
loop_
_space_group_symop_operation_xyz
x,y,z
-x,y,-z
-x,-y,-z
x,-y,z
loop_
_atom_site_type_symbol
_atom_site_label
_atom_site_fract_x
_atom_site_fract_y
_atom_site_fract_z
Si Si1 0.521388 0.328500 0.568152
Si Si2 0.529000 0.827747 0.750073
Si Si3 0.054895 0.330653 0.154318
Si Si4 0.936087 0.172111 0.735087
Si Si5 0.398064 0.331653 0.022499
Si Si6 0.760106 0.172221 0.437378
Si Si7 0.367799 0.170004 0.814469
O O1 0.500000 0.297445 0.500000
O O2 0.541813 0.500000 0.587317
O O3 0.725845 0.245897 0.650679
O O4 0.317639 0.263250 0.535608
O O5 0.744322 0.737299 0.813641
O O6 0.380113 0.784581 0.655905
O O7 0.410468 0.780633 0.767487
O O8 0.582922 0.000000 0.765501
O O9 0.100818 0.500000 0.182779
O O10 0.996930 0.241968 0.189224
O O11 0.854779 0.316452 0.054770
O O12 0.122711 0.204032 0.750612
O O13 0.892652 0.000000 0.730007
O O14 0.471979 0.500000 0.048864
O O15 0.478322 0.252690 0.099093
O O16 0.500000 0.262835 0.000000
O O17 0.000000 0.218820 0.500000
O O18 0.743184 0.000000 0.445280
O O19 0.417587 0.000000 0.837987
#
# Coordination Sequence:
#
# PCOD8066459 Si02
#       7
#     4   4   4   4   4   4   4
#     4  11  25  42  61  91 126 158 199 248 296 353
#     4  10  22  41  60  87 123 158 200 245 297 357
#     4  11  22  38  62  88 119 160 200 245 299 357
#     4  11  22  38  63  91 118 156 202 247 297 356
#     4  10  21  38  59  86 121 159 201 248 299 356
#     4  10  22  40  65  91 120 160 201 245 296 354
#     4  10  23  39  60  90 122 156 200 252 300 354
#
# _framework density 19.232116000000001
#
# number of rings (size 3 to 8) (size 9 to 14) (size 15 to 20)
#    0.000    1.571    2.857    1.286    2.000    4.571 
#    0.000    2.857    0.000    0.000    0.000    0.000 
#    0.000    0.000    0.000    0.000    0.000    0.000 
#
# Total GULP energy -347329.022893 kJ/mol
# GULP energy per Si atom -12404.607960 kJ/mol
# Density = 1.918834 g / cm^3
# Si number density = 19.232116 Si / 1000 Ang^3
#
#
#
# Elastic Constant Matrix: (Units=GPa)
#
#
# Indices 1 2 3 4 5 6 
#
# 1 153.5545 64.8186 47.3514 0.0000 7.2638 0.0000
# 2 64.8186 79.7246 44.2333 0.0000 1.1886 0.0000
# 3 47.3514 44.2333 87.3916 0.0000 11.7642 0.0000
# 4 0.0000 0.0000 0.0000 28.0410 0.0000 -3.1698
# 5 7.2638 1.1886 11.7642 0.0000 32.8636 0.0000
# 6 0.0000 0.0000 0.0000 -3.1698 0.0000 27.3120
#
#
#
# Elastic Compliance Matrix: (Units=1/GPa)
#
#
# Indices 1 2 3 4 5 6 
#
# 1 0.010184 -0.007373 -0.001596 0.000000 -0.001413 0.000000
# 2 -0.007373 0.023003 -0.008148 0.000000 0.003715 0.000000
# 3 -0.001596 -0.008148 0.017172 0.000000 -0.005500 0.000000
# 4 0.000000 0.000000 0.000000 0.036136 0.000000 0.004194
# 5 -0.001413 0.003715 -0.005500 0.000000 0.032575 0.000000
# 6 0.000000 0.000000 0.000000 0.004194 0.000000 0.037101
#
#
# Mechanical properties :
#
#
# Convention : Reuss Voigt Hill
#
# Bulk Modulus (GPa) = 62.01636 70.38635 66.20135
# Shear Modulus (GPa) = 25.53889 28.59448 27.06668
#
# Velocity S-wave (km/s) = 3.64803 3.86010 3.75556
# Velocity P-wave (km/s) = 7.07534 7.51964 7.30087
#
# Compressibility (1/GPa) = 0.01612478
#
# Stress axis : x y z
#
# Youngs Moduli (GPa) = 98.19682 43.47205 58.23501
#
# Poissons Ratio (x) = 0.32053 0.09292
# Poissons Ratio (y) = 0.72403 0.47451
# Poissons Ratio (z) = 0.15668 0.35421
#
# Static dielectric constant tensor:
#      x y z
#    x 3.768060 0.000000 0.008720 
#    y 0.000000 3.555090 0.000000 
#    z 0.008720 0.000000 3.559900 
# 
# 
# High freq. dielectric constant tensor:
#      x y z
#    x 1.757520 0.000000 0.006680 
#    y 0.000000 1.748880 0.000000 
#    z 0.006680 0.000000 1.754510 
# 
# From -- ./inp_files/92092.got.cif
#   From: 2010.06.25/outbox.cif.g09.slc.cpg/sg10_47_cif.got.tgz:92092.got - 2010.06.27 22:07:45.
