data_PCOD8066316
_publ_section_title
;
Structure prediction by ZEFSAII (Michael W. Deem and Ramdas Pophale) SiO2 
 PCOD8066316
Probable space group: P 2/M
;
_chemical_formula_sum "Si O2"
_cell_formula_units_Z 18
_cell_length_a 10.556708
_cell_length_b 10.738123
_cell_length_c 10.675310
_cell_angle_alpha 90.000000
_cell_angle_beta 135.503025
_cell_angle_gamma 90.000000
_cell_volume 848.156208
_symmetry_space_group_name_H-M "P 2/M"
_symmetry_group_IT_number 10
_symmetry_cell_setting 'monoclinic'
loop_
_space_group_symop_operation_xyz
x,y,z
-x,y,-z
-x,-y,-z
x,-y,z
loop_
_atom_site_type_symbol
_atom_site_label
_atom_site_fract_x
_atom_site_fract_y
_atom_site_fract_z
Si Si1 0.697280 0.365237 0.464590
Si Si2 0.574265 0.857085 0.779605
Si Si3 0.000000 0.298430 0.500000
Si Si4 0.854813 0.139976 0.184610
Si Si5 0.861372 0.239342 0.800008
O O1 0.595227 0.500000 0.384871
O O2 0.581192 0.245556 0.343559
O O3 0.871241 0.379477 0.497563
O O4 0.762538 0.349698 0.654596
O O5 0.713186 0.847328 0.762149
O O6 0.499584 0.000000 0.728437
O O7 0.675868 0.823920 0.980472
O O8 0.865299 0.218795 0.318109
O O9 0.032672 0.154025 0.224398
O O10 0.840869 0.000000 0.220789
O O11 0.000000 0.297298 0.000000
#
# Coordination Sequence:
#
# PCOD8066316 Si02
#       5
#     4   4   2   4   4
#     4  11  24  40  58  81 113 152 193 236 281 333
#     4  10  21  37  59  89 120 147 181 229 285 339
#     4  10  22  40  58  78 107 152 199 238 279 328
#     4   9  18  35  60  88 116 148 186 230 278 334
#     4   9  19  36  59  87 116 147 183 229 283 337
#
# _framework density 21.222504000000001
#
# number of rings (size 3 to 8) (size 9 to 14) (size 15 to 20)
#    0.000    2.222    0.000    2.000    0.000   12.000 
#    0.000   13.333    0.000    0.000    0.000    0.000 
#    0.000    0.000    0.000    0.000    0.000    0.000 
#
# Total GULP energy -223086.641278 kJ/mol
# GULP energy per Si atom -12393.702293 kJ/mol
# Density = 2.117420 g / cm^3
# Si number density = 21.222504 Si / 1000 Ang^3
#
#
#
# Elastic Constant Matrix: (Units=GPa)
#
#
# Indices 1 2 3 4 5 6 
#
# 1 45.4156 24.4982 30.3673 0.0000 -9.0110 0.0000
# 2 24.4982 151.1415 76.6910 0.0000 1.6298 0.0000
# 3 30.3673 76.6910 123.2026 0.0000 -10.7827 0.0000
# 4 0.0000 0.0000 0.0000 18.5540 0.0000 6.1539
# 5 -9.0110 1.6298 -10.7827 0.0000 35.9627 0.0000
# 6 0.0000 0.0000 0.0000 6.1539 0.0000 -7.0910
#
#
#
# Elastic Compliance Matrix: (Units=1/GPa)
#
#
# Indices 1 2 3 4 5 6 
#
# 1 0.027564 -0.001932 -0.005113 0.000000 0.005461 0.000000
# 2 -0.001932 0.009996 -0.005985 0.000000 -0.002732 0.000000
# 3 -0.005113 -0.005985 0.013365 0.000000 0.002997 0.000000
# 4 0.000000 0.000000 0.000000 0.041850 0.000000 0.036320
# 5 0.005461 -0.002732 0.002997 0.000000 0.030197 0.000000
# 6 0.000000 0.000000 0.000000 0.036320 0.000000 -0.109503
#
#
# Mechanical properties :
#
#
# Convention : Reuss Voigt Hill
#
# Bulk Modulus (GPa) = 40.21958 64.76362 52.49160
# Shear Modulus (GPa) = 104.56495 22.03202 63.29849
#
# Velocity S-wave (km/s) = 7.02693 3.22552 5.46725
# Velocity P-wave (km/s) = 9.21029 6.66744 8.04003
#
# Compressibility (1/GPa) = 0.02486351
#
# Stress axis : x y z
#
# Youngs Moduli (GPa) = 36.27973 100.04193 74.82261
#
# Poissons Ratio (x) = 0.19328 0.38259
# Poissons Ratio (y) = 0.07009 0.44782
# Poissons Ratio (z) = 0.18551 0.59875
#
# Static dielectric constant tensor:
#      x y z
#    x 3.763510 0.000000 -0.158410 
#    y 0.000000 3.536920 0.000000 
#    z -0.158410 0.000000 4.076840 
# 
# 
# High freq. dielectric constant tensor:
#      x y z
#    x 1.833820 0.000000 -0.011660 
#    y 0.000000 1.812720 0.000000 
#    z -0.011660 0.000000 1.836790 
# 
# From -- ./inp_files/45706.got.cif
#   From: 2010.06.25/outbox.cif.g09.slc.cpg/sg10_23_cif.got.tgz:45706.got - 2010.06.27 22:07:45.
