data_PCOD8066470
_publ_section_title
;
Structure prediction by ZEFSAII (Michael W. Deem and Ramdas Pophale) SiO2 
 PCOD8066470
Probable space group: P 2/M
;
_chemical_formula_sum "Si O2"
_cell_formula_units_Z 32
_cell_length_a 20.212680
_cell_length_b 8.894819
_cell_length_c 25.080153
_cell_angle_alpha 90.000000
_cell_angle_beta 22.842348
_cell_angle_gamma 90.000000
_cell_volume 1750.423736
_symmetry_space_group_name_H-M "P 2/M"
_symmetry_group_IT_number 10
_symmetry_cell_setting 'monoclinic'
loop_
_space_group_symop_operation_xyz
x,y,z
-x,y,-z
-x,-y,-z
x,-y,z
loop_
_atom_site_type_symbol
_atom_site_label
_atom_site_fract_x
_atom_site_fract_y
_atom_site_fract_z
Si Si1 0.661026 0.825459 0.344284
Si Si2 0.123292 0.177526 0.722487
Si Si3 0.833324 0.322994 0.875146
Si Si4 0.448147 0.177468 0.408288
Si Si5 0.488941 0.177851 0.163189
Si Si6 0.981643 0.323336 0.651292
Si Si7 0.630774 0.678062 0.641958
Si Si8 0.153927 0.822832 0.349276
O O1 0.500000 0.792800 0.500000
O O2 0.823854 0.763668 0.256791
O O3 0.612517 0.763858 0.321303
O O4 0.691525 0.000000 0.314928
O O5 0.273458 0.213977 0.569147
O O6 0.955051 0.268901 0.832395
O O7 0.084280 0.000000 0.751629
O O8 0.803742 0.500000 0.901700
O O9 0.918722 0.275243 0.756187
O O10 0.654984 0.238344 0.010541
O O11 0.456206 0.268943 0.347908
O O12 0.460768 0.000000 0.387534
O O13 0.475074 0.250311 0.231577
O O14 0.329785 0.228304 0.245325
O O15 0.497751 0.000000 0.163076
O O16 0.972871 0.500000 0.649954
O O17 0.174275 0.264010 0.500475
O O18 0.857219 0.248372 0.700837
O O19 0.620904 0.500000 0.652949
O O20 0.000000 0.760993 0.500000
O O21 0.141596 0.000000 0.352034
#
# Coordination Sequence:
#
# PCOD8066470 Si02
#       8
#     4   4   4   4   4   4   4   4
#     4   7  12  24  44  75 110 141 179 224 270 316
#     4   9  16  29  52  79 109 147 186 225 269 318
#     4  11  23  39  55  80 116 150 184 223 270 328
#     4   9  16  28  51  81 111 144 183 229 271 315
#     4  11  24  41  59  82 108 141 184 228 278 331
#     4  10  22  37  57  82 111 147 183 217 266 330
#     4  11  21  35  55  82 113 146 183 225 271 324
#     4  10  21  38  60  84 109 136 177 232 278 318
#
# _framework density 18.281286999999999
#
# number of rings (size 3 to 8) (size 9 to 14) (size 15 to 20)
#    0.000    2.250    2.500    2.625    0.000    3.250 
#    0.000    3.125    0.000    3.000    0.000    5.250 
#    0.000    0.000    0.000    0.000    0.000    0.000 
#
# Total GULP energy -396662.665985 kJ/mol
# GULP energy per Si atom -12395.708312 kJ/mol
# Density = 1.823968 g / cm^3
# Si number density = 18.281287 Si / 1000 Ang^3
#
#
#
# Elastic Constant Matrix: (Units=GPa)
#
#
# Indices 1 2 3 4 5 6 
#
# 1 136.2086 36.2630 31.9303 0.0000 -20.8783 0.0000
# 2 36.2630 45.2437 21.8800 0.0000 -3.3088 0.0000
# 3 31.9303 21.8800 64.7358 0.0000 -10.7671 0.0000
# 4 0.0000 0.0000 0.0000 22.4700 0.0000 5.4727
# 5 -20.8783 -3.3088 -10.7671 0.0000 24.6136 0.0000
# 6 0.0000 0.0000 0.0000 5.4727 0.0000 17.5849
#
#
#
# Elastic Compliance Matrix: (Units=1/GPa)
#
#
# Indices 1 2 3 4 5 6 
#
# 1 0.010823 -0.007349 -0.001609 0.000000 0.007489 0.000000
# 2 -0.007349 0.031415 -0.007902 0.000000 -0.005468 0.000000
# 3 -0.001609 -0.007902 0.019961 0.000000 0.006305 0.000000
# 4 0.000000 0.000000 0.000000 0.048154 0.000000 -0.014986
# 5 0.007489 -0.005468 0.006305 0.000000 0.049003 0.000000
# 6 0.000000 0.000000 0.000000 -0.014986 0.000000 0.061531
#
#
# Mechanical properties :
#
#
# Convention : Reuss Voigt Hill
#
# Bulk Modulus (GPa) = 35.11533 47.37053 41.24293
# Shear Modulus (GPa) = 18.93223 23.34135 21.13679
#
# Velocity S-wave (km/s) = 3.22158 3.57710 3.40398
# Velocity P-wave (km/s) = 5.75223 6.55966 6.16917
#
# Compressibility (1/GPa) = 0.02847759
#
# Stress axis : x y z
#
# Youngs Moduli (GPa) = 92.39270 31.83235 50.09891
#
# Poissons Ratio (x) = 0.23394 0.08061
# Poissons Ratio (y) = 0.67901 0.39590
# Poissons Ratio (z) = 0.14866 0.25155
#
# Static dielectric constant tensor:
#      x y z
#    x 3.697880 0.000000 -0.187190 
#    y 0.000000 3.152290 0.000000 
#    z -0.187190 0.000000 3.186100 
# 
# 
# High freq. dielectric constant tensor:
#      x y z
#    x 1.728470 0.000000 -0.013240 
#    y 0.000000 1.693200 0.000000 
#    z -0.013240 0.000000 1.680090 
# 
# From -- ./inp_files/93687.got.cif
#   From: 2010.06.25/outbox.cif.g09.slc.cpg/sg10_47_cif.got.tgz:93687.got - 2010.06.27 22:07:45.
