data_PCOD8066615
_publ_section_title
;
Structure prediction by ZEFSAII (Michael W. Deem and Ramdas Pophale) SiO2 
 PCOD8066615
Probable space group: P 2/M
;
_chemical_formula_sum "Si O2"
_cell_formula_units_Z 32
_cell_length_a 15.011298
_cell_length_b 8.858983
_cell_length_c 23.220689
_cell_angle_alpha 90.000000
_cell_angle_beta 149.030832
_cell_angle_gamma 90.000000
_cell_volume 1589.012704
_symmetry_space_group_name_H-M "P 2/M"
_symmetry_group_IT_number 10
_symmetry_cell_setting 'monoclinic'
loop_
_space_group_symop_operation_xyz
x,y,z
-x,y,-z
-x,-y,-z
x,-y,z
loop_
_atom_site_type_symbol
_atom_site_label
_atom_site_fract_x
_atom_site_fract_y
_atom_site_fract_z
Si Si1 0.462848 0.170510 0.236322
Si Si2 0.353464 0.829820 0.777094
Si Si3 0.017005 0.677434 0.830833
Si Si4 0.691079 0.820917 0.586526
Si Si5 0.896793 0.822786 0.001001
Si Si6 0.395816 0.675953 0.000426
Si Si7 0.011527 0.672920 0.573833
Si Si8 0.703172 0.178540 0.464602
O O1 0.613477 0.174322 0.272602
O O2 0.541745 0.246704 0.337948
O O3 0.406372 0.000000 0.219843
O O4 0.291734 0.250230 0.116898
O O5 0.197367 0.716013 0.703148
O O6 0.307559 0.000000 0.771322
O O7 0.523690 0.774387 0.904130
O O8 0.990502 0.500000 0.818990
O O9 0.845543 0.748493 0.708354
O O10 0.027577 0.738138 0.901798
O O11 0.189365 0.715436 0.887558
O O12 0.500000 0.770508 0.500000
O O13 0.703717 0.756964 0.528917
O O14 0.713296 0.000000 0.602856
O O15 0.891517 0.000000 0.013492
O O16 0.000000 0.790158 0.000000
O O17 0.423100 0.500000 0.028536
O O18 0.500000 0.721032 0.000000
O O19 0.971735 0.500000 0.566639
O O20 0.000000 0.704751 0.500000
O O21 0.880748 0.780501 0.533295
O O22 0.683965 0.000000 0.454281
#
# Coordination Sequence:
#
# PCOD8066615 Si02
#       8
#     4   4   4   4   4   4   4   4
#     4   9  18  34  58  90 121 150 192 250 309 359
#     4  11  21  36  60  87 119 155 199 256 305 356
#     4  11  24  42  64  91 130 168 204 254 309 372
#     4  10  24  44  68  92 120 162 212 264 310 360
#     4  10  21  38  66  95 121 156 200 253 308 365
#     4  10  23  42  61  85 122 168 206 247 305 367
#     4  11  23  37  55  84 122 161 199 240 297 367
#     4  10  21  39  62  89 121 158 205 254 306 364
#
# _framework density 20.138290000000001
#
# number of rings (size 3 to 8) (size 9 to 14) (size 15 to 20)
#    0.000    1.750    2.500    1.125    3.500    2.250 
#    0.000    0.625    0.000    0.000    0.000    0.000 
#    0.000    0.000    0.000    0.000    0.000    0.000 
#
# Total GULP energy -396668.556278 kJ/mol
# GULP energy per Si atom -12395.892384 kJ/mol
# Density = 2.009245 g / cm^3
# Si number density = 20.138290 Si / 1000 Ang^3
#
#
#
# Elastic Constant Matrix: (Units=GPa)
#
#
# Indices 1 2 3 4 5 6 
#
# 1 103.1250 29.6415 64.5104 0.0000 -8.0348 0.0000
# 2 29.6415 39.6167 39.2132 0.0000 -5.6983 0.0000
# 3 64.5104 39.2132 180.3085 0.0000 -7.6284 0.0000
# 4 0.0000 0.0000 0.0000 68.6979 0.0000 8.7936
# 5 -8.0348 -5.6983 -7.6284 0.0000 31.7006 0.0000
# 6 0.0000 0.0000 0.0000 8.7936 0.0000 22.3145
#
#
#
# Elastic Compliance Matrix: (Units=1/GPa)
#
#
# Indices 1 2 3 4 5 6 
#
# 1 0.013917 -0.006797 -0.003438 0.000000 0.001478 0.000000
# 2 -0.006797 0.036032 -0.005257 0.000000 0.003489 0.000000
# 3 -0.003438 -0.005257 0.007923 0.000000 0.000090 0.000000
# 4 0.000000 0.000000 0.000000 0.015330 0.000000 -0.006041
# 5 0.001478 0.003489 0.000090 0.000000 0.032569 0.000000
# 6 0.000000 0.000000 0.000000 -0.006041 0.000000 0.047195
#
#
# Mechanical properties :
#
#
# Convention : Reuss Voigt Hill
#
# Bulk Modulus (GPa) = 37.19059 65.53116 51.36087
# Shear Modulus (GPa) = 25.91852 37.18827 31.55339
#
# Velocity S-wave (km/s) = 3.59141 4.30192 3.96262
# Velocity P-wave (km/s) = 5.97539 7.56879 6.81879
#
# Compressibility (1/GPa) = 0.02688852
#
# Stress axis : x y z
#
# Youngs Moduli (GPa) = 71.85658 27.75276 126.20930
#
# Poissons Ratio (x) = 0.18862 0.43396
# Poissons Ratio (y) = 0.48837 0.66348
# Poissons Ratio (z) = 0.24707 0.14590
#
# Static dielectric constant tensor:
#      x y z
#    x 3.747210 0.000000 -0.083330 
#    y 0.000000 3.422160 0.000000 
#    z -0.083330 0.000000 4.026050 
# 
# 
# High freq. dielectric constant tensor:
#      x y z
#    x 1.787920 0.000000 0.000290 
#    y 0.000000 1.763460 0.000000 
#    z 0.000290 0.000000 1.802800 
# 
# From -- ./inp_files/89584.got.cif
#   From: 2010.06.25/outbox.cif.g09.slc.cpg/sg10_45_cif.got.tgz:89584.got - 2010.06.27 22:07:45.
