data_PCOD8066363
_publ_section_title
;
Structure prediction by ZEFSAII (Michael W. Deem and Ramdas Pophale) SiO2 
 PCOD8066363
Probable space group: P 2/M
;
_chemical_formula_sum "Si O2"
_cell_formula_units_Z 24
_cell_length_a 14.693962
_cell_length_b 14.329622
_cell_length_c 8.677220
_cell_angle_alpha 90.000000
_cell_angle_beta 139.368292
_cell_angle_gamma 90.000000
_cell_volume 1189.775028
_symmetry_space_group_name_H-M "P 2/M"
_symmetry_group_IT_number 10
_symmetry_cell_setting 'monoclinic'
loop_
_space_group_symop_operation_xyz
x,y,z
-x,y,-z
-x,-y,-z
x,-y,z
loop_
_atom_site_type_symbol
_atom_site_label
_atom_site_fract_x
_atom_site_fract_y
_atom_site_fract_z
Si Si1 0.374481 0.260451 0.460035
Si Si2 0.806410 0.104114 0.181238
Si Si3 0.491405 0.105723 0.814038
Si Si4 0.361731 0.392235 0.724141
Si Si5 0.894130 0.719147 0.485741
Si Si6 0.916532 0.199025 0.036455
O O1 0.500000 0.268903 0.500000
O O2 0.385886 0.167933 0.580082
O O3 0.380069 0.349980 0.577684
O O4 0.225047 0.254850 0.185235
O O5 0.852574 0.177689 0.369804
O O6 0.840396 0.000000 0.286900
O O7 0.643068 0.113432 0.932564
O O8 0.884749 0.119195 0.120207
O O9 0.433448 0.000000 0.737700
O O10 0.500000 0.143171 0.000000
O O11 0.324825 0.500000 0.655255
O O12 0.240162 0.344384 0.666833
O O13 0.500000 0.376508 0.000000
O O14 0.000000 0.671359 0.500000
O O15 0.974564 0.726819 0.751072
O O16 0.000000 0.154255 0.000000
#
# Coordination Sequence:
#
# PCOD8066363 Si02
#       6
#     4   4   4   4   4   4
#     4  12  23  40  68  91 129 168 203 263 319 369
#     4  10  21  39  62  91 127 171 215 257 300 363
#     4  10  21  37  61  91 123 169 220 257 302 368
#     4  11  25  45  70  96 121 157 214 266 312 377
#     4  10  22  41  66  90 129 168 206 252 312 377
#     4  11  23  39  59  93 126 172 205 247 309 376
#
# _framework density 20.171880999999999
#
# number of rings (size 3 to 8) (size 9 to 14) (size 15 to 20)
#    0.000    1.333    3.333    2.500    2.333    5.000 
#    0.000    1.667    0.000    0.000    0.000    0.000 
#    0.000    0.000    0.000    0.000    0.000    0.000 
#
# Total GULP energy -297614.780783 kJ/mol
# GULP energy per Si atom -12400.615866 kJ/mol
# Density = 2.012597 g / cm^3
# Si number density = 20.171881 Si / 1000 Ang^3
#
#
#
# Elastic Constant Matrix: (Units=GPa)
#
#
# Indices 1 2 3 4 5 6 
#
# 1 139.6191 64.6742 37.0952 0.0000 2.4035 0.0000
# 2 64.6742 128.4046 65.0394 0.0000 1.2193 0.0000
# 3 37.0952 65.0394 122.9668 0.0000 2.6887 0.0000
# 4 0.0000 0.0000 0.0000 14.4897 0.0000 -1.4357
# 5 2.4035 1.2193 2.6887 0.0000 32.2118 0.0000
# 6 0.0000 0.0000 0.0000 -1.4357 0.0000 13.4810
#
#
#
# Elastic Compliance Matrix: (Units=1/GPa)
#
#
# Indices 1 2 3 4 5 6 
#
# 1 0.009368 -0.004491 -0.000440 0.000000 -0.000492 0.000000
# 2 -0.004491 0.012791 -0.005417 0.000000 0.000303 0.000000
# 3 -0.000440 -0.005417 0.011145 0.000000 -0.000692 0.000000
# 4 0.000000 0.000000 0.000000 0.069750 0.000000 0.007428
# 5 -0.000492 0.000303 -0.000692 0.000000 0.031128 0.000000
# 6 0.000000 0.000000 0.000000 0.007428 0.000000 0.074970
#
#
# Mechanical properties :
#
#
# Convention : Reuss Voigt Hill
#
# Bulk Modulus (GPa) = 79.31365 80.51199 79.91282
# Shear Modulus (GPa) = 21.36289 26.98195 24.17242
#
# Velocity S-wave (km/s) = 3.25782 3.66129 3.46544
# Velocity P-wave (km/s) = 7.31816 7.60743 7.46420
#
# Compressibility (1/GPa) = 0.01260817
#
# Stress axis : x y z
#
# Youngs Moduli (GPa) = 106.74664 78.18074 89.72320
#
# Poissons Ratio (x) = 0.35110 0.03947
# Poissons Ratio (y) = 0.47939 0.48605
# Poissons Ratio (z) = 0.04696 0.42352
#
# Static dielectric constant tensor:
#      x y z
#    x 3.941130 0.000000 0.090110 
#    y 0.000000 3.426400 0.000000 
#    z 0.090110 0.000000 3.792410 
# 
# 
# High freq. dielectric constant tensor:
#      x y z
#    x 1.808510 0.000000 0.008260 
#    y 0.000000 1.756180 0.000000 
#    z 0.008260 0.000000 1.798910 
# 
# From -- ./inp_files/29283.got.cif
#   From: 2010.06.25/outbox.cif.g09.slc.cpg/sg10_15_cif.got.tgz:29283.got - 2010.06.27 22:07:45.
