data_PCOD8066528
_publ_section_title
;
Structure prediction by ZEFSAII (Michael W. Deem and Ramdas Pophale) SiO2 
 PCOD8066528
Probable space group: P 2/M
;
_chemical_formula_sum "Si O2"
_cell_formula_units_Z 28
_cell_length_a 30.947160
_cell_length_b 8.646645
_cell_length_c 30.930228
_cell_angle_alpha 90.000000
_cell_angle_beta 170.443150
_cell_angle_gamma 90.000000
_cell_volume 1374.130604
_symmetry_space_group_name_H-M "P 2/M"
_symmetry_group_IT_number 10
_symmetry_cell_setting 'monoclinic'
loop_
_space_group_symop_operation_xyz
x,y,z
-x,y,-z
-x,-y,-z
x,-y,z
loop_
_atom_site_type_symbol
_atom_site_label
_atom_site_fract_x
_atom_site_fract_y
_atom_site_fract_z
Si Si1 0.088378 0.817833 0.039496
Si Si2 0.262000 0.184211 0.736992
Si Si3 0.691145 0.183568 0.314481
Si Si4 0.390820 0.319128 0.481675
Si Si5 0.883901 0.821252 0.122614
Si Si6 0.592007 0.821475 0.409525
Si Si7 0.169373 0.319056 0.838129
O O1 0.373944 0.749244 0.314186
O O2 0.106102 0.000000 0.051122
O O3 0.000000 0.769269 0.000000
O O4 0.883355 0.754160 0.802650
O O5 0.285627 0.246058 0.711517
O O6 0.000000 0.249779 0.500000
O O7 0.261785 0.000000 0.737083
O O8 0.500000 0.249743 0.000000
O O9 0.930082 0.243716 0.577615
O O10 0.690585 0.000000 0.315093
O O11 0.429394 0.243684 0.077071
O O12 0.378131 0.500000 0.460959
O O13 0.437284 0.285106 0.577699
O O14 0.854684 0.712366 0.134917
O O15 0.149039 0.776394 0.360478
O O16 0.883966 0.000000 0.137560
O O17 0.649779 0.785046 0.859510
O O18 0.596267 0.000000 0.428483
O O19 0.173775 0.500000 0.833720
#
# Coordination Sequence:
#
# PCOD8066528 Si02
#       7
#     4   4   4   4   4   4   4
#     4  11  24  43  66  90 121 165 212 253 298 358
#     4   9  17  31  55  87 115 143 192 253 298 336
#     4  11  22  39  64  89 118 159 204 247 294 359
#     4  12  25  40  63  95 129 161 198 251 308 361
#     4  10  21  38  61  87 115 154 203 248 293 351
#     4  10  21  38  61  87 118 156 198 245 295 355
#     4  12  25  40  60  89 126 160 195 248 306 358
#
# _framework density 20.376519999999999
#
# number of rings (size 3 to 8) (size 9 to 14) (size 15 to 20)
#    0.000    1.286    0.000    6.429    0.000    8.571 
#    0.000    0.000    0.000    8.571    0.000    0.000 
#    0.000    0.000    0.000    0.000    0.000    0.000 
#
# Total GULP energy -347390.443780 kJ/mol
# GULP energy per Si atom -12406.801564 kJ/mol
# Density = 2.033014 g / cm^3
# Si number density = 20.376520 Si / 1000 Ang^3
#
#
#
# Elastic Constant Matrix: (Units=GPa)
#
#
# Indices 1 2 3 4 5 6 
#
# 1 122.6292 38.3533 46.9369 0.0000 3.6156 0.0000
# 2 38.3533 82.8950 29.9792 0.0000 1.2777 0.0000
# 3 46.9369 29.9792 153.6889 0.0000 9.0171 0.0000
# 4 0.0000 0.0000 0.0000 19.9522 0.0000 6.8822
# 5 3.6156 1.2777 9.0171 0.0000 34.0981 0.0000
# 6 0.0000 0.0000 0.0000 6.8822 0.0000 2.4955
#
#
#
# Elastic Compliance Matrix: (Units=1/GPa)
#
#
# Indices 1 2 3 4 5 6 
#
# 1 0.010288 -0.003901 -0.002362 0.000000 -0.000320 0.000000
# 2 -0.003901 0.014459 -0.001647 0.000000 0.000307 0.000000
# 3 -0.002362 -0.001647 0.007650 0.000000 -0.001711 0.000000
# 4 0.000000 0.000000 0.000000 1.028959 0.000000 -2.837750
# 5 -0.000320 0.000307 -0.001711 0.000000 0.029802 0.000000
# 6 0.000000 0.000000 0.000000 -2.837750 0.000000 8.226918
#
#
# Mechanical properties :
#
#
# Convention : Reuss Voigt Hill
#
# Bulk Modulus (GPa) = 60.32623 65.52800 62.92712
# Shear Modulus (GPa) = 0.53537 27.57206 14.05371
#
# Velocity S-wave (km/s) = 0.51313 3.68248 2.62907
# Velocity P-wave (km/s) = 5.47915 7.09290 6.33760
#
# Compressibility (1/GPa) = 0.01657654
#
# Stress axis : x y z
#
# Youngs Moduli (GPa) = 97.19744 69.15994 130.72225
#
# Poissons Ratio (x) = 0.26978 0.30882
# Poissons Ratio (y) = 0.37915 0.21532
# Poissons Ratio (z) = 0.22962 0.11392
#
# Static dielectric constant tensor:
#      x y z
#    x 3.852640 0.000000 0.027040 
#    y 0.000000 3.548060 0.000000 
#    z 0.027040 0.000000 3.902920 
# 
# 
# High freq. dielectric constant tensor:
#      x y z
#    x 1.813050 0.000000 0.001190 
#    y 0.000000 1.780860 0.000000 
#    z 0.001190 0.000000 1.819960 
# 
# From -- ./inp_files/96041.got.cif
#   From: 2010.06.25/outbox.cif.g09.slc.cpg/sg10_49_cif.got.tgz:96041.got - 2010.06.27 22:07:45.
