data_PCOD8066278
_publ_section_title
;
Structure prediction by ZEFSAII (Michael W. Deem and Ramdas Pophale) SiO2 
 PCOD8066278
Probable space group: P 2/M
;
_chemical_formula_sum "Si O2"
_cell_formula_units_Z 16
_cell_length_a 11.736427
_cell_length_b 7.873072
_cell_length_c 10.496087
_cell_angle_alpha 90.000000
_cell_angle_beta 56.354844
_cell_angle_gamma 90.000000
_cell_volume 807.390958
_symmetry_space_group_name_H-M "P 2/M"
_symmetry_group_IT_number 10
_symmetry_cell_setting 'monoclinic'
loop_
_space_group_symop_operation_xyz
x,y,z
-x,y,-z
-x,-y,-z
x,-y,z
loop_
_atom_site_type_symbol
_atom_site_label
_atom_site_fract_x
_atom_site_fract_y
_atom_site_fract_z
Si Si1 0.518461 0.811561 0.849865
Si Si2 0.224912 0.000000 0.348148
Si Si3 0.089382 0.692614 0.819162
Si Si4 0.604014 0.694687 0.332460
Si Si5 0.018703 0.000000 0.694251
O O1 0.447609 0.709136 0.780560
O O2 0.449223 0.000000 0.899331
O O3 0.680627 0.830876 0.720353
O O4 0.500000 0.721200 0.000000
O O5 0.155787 0.000000 0.527359
O O6 0.117345 0.000000 0.302834
O O7 0.093421 0.500000 0.758937
O O8 0.242087 0.766874 0.751535
O O9 0.014361 0.825182 0.774452
O O10 0.000000 0.688295 0.000000
O O11 0.500000 0.783343 0.500000
O O12 0.613107 0.500000 0.363610
#
# Coordination Sequence:
#
# PCOD8066278 Si02
#       5
#     4   2   4   4   2
#     4   9  20  35  56  79 115 144 185 235 281 335
#     4   9  21  37  53  89 109 145 199 233 269 365
#     4  10  23  38  57  88 118 147 193 239 283 346
#     4  10  21  37  58  86 114 146 192 240 286 341
#     4  11  21  37  63  79 117 157 187 233 293 335
#
# _framework density 19.816918000000001
#
# number of rings (size 3 to 8) (size 9 to 14) (size 15 to 20)
#    0.750    1.500    0.000    1.875    5.250    1.000 
#    0.000    3.750    0.000    0.000    0.000    0.000 
#    0.000    0.000    0.000    0.000    0.000    0.000 
#
# Total GULP energy -198259.234239 kJ/mol
# GULP energy per Si atom -12391.202140 kJ/mol
# Density = 1.977181 g / cm^3
# Si number density = 19.816918 Si / 1000 Ang^3
#
#
#
# Elastic Constant Matrix: (Units=GPa)
#
#
# Indices 1 2 3 4 5 6 
#
# 1 46.7026 18.2292 18.2629 0.0000 -4.2007 0.0000
# 2 18.2292 69.2996 20.6821 0.0000 5.7518 0.0000
# 3 18.2629 20.6821 77.8928 0.0000 8.2132 0.0000
# 4 0.0000 0.0000 0.0000 12.4998 0.0000 8.0793
# 5 -4.2007 5.7518 8.2132 0.0000 39.5351 0.0000
# 6 0.0000 0.0000 0.0000 8.0793 0.0000 22.2460
#
#
#
# Elastic Compliance Matrix: (Units=1/GPa)
#
#
# Indices 1 2 3 4 5 6 
#
# 1 0.026051 -0.005723 -0.005079 0.000000 0.004656 0.000000
# 2 -0.005723 0.017011 -0.002914 0.000000 -0.002478 0.000000
# 3 -0.005079 -0.002914 0.015147 0.000000 -0.003262 0.000000
# 4 0.000000 0.000000 0.000000 0.104542 0.000000 -0.037968
# 5 0.004656 -0.002478 -0.003262 0.000000 0.026827 0.000000
# 6 0.000000 0.000000 0.000000 -0.037968 0.000000 0.058741
#
#
# Mechanical properties :
#
#
# Convention : Reuss Voigt Hill
#
# Bulk Modulus (GPa) = 32.49254 34.24927 33.37090
# Shear Modulus (GPa) = 17.48194 23.97089 20.72642
#
# Velocity S-wave (km/s) = 2.97336 3.48173 3.23754
# Velocity P-wave (km/s) = 5.31223 5.78650 5.55443
#
# Compressibility (1/GPa) = 0.03077630
#
# Stress axis : x y z
#
# Youngs Moduli (GPa) = 38.38624 58.78627 66.02111
#
# Poissons Ratio (x) = 0.33645 0.33534
# Poissons Ratio (y) = 0.21969 0.19236
# Poissons Ratio (z) = 0.19497 0.17128
#
# Static dielectric constant tensor:
#      x y z
#    x 3.565560 0.000000 -0.249070 
#    y 0.000000 3.431740 0.000000 
#    z -0.249070 0.000000 3.791810 
# 
# 
# High freq. dielectric constant tensor:
#      x y z
#    x 1.773600 0.000000 -0.007560 
#    y 0.000000 1.743800 0.000000 
#    z -0.007560 0.000000 1.785380 
# 
# From -- ./inp_files/22010.got.cif
#   From: 2010.06.25/outbox.cif.g09.slc.cpg/sg10_12_cif.got.tgz:22010.got - 2010.06.27 22:07:45.
