data_PCOD8066929
_publ_section_title
;
Structure prediction by ZEFSAII (Michael W. Deem and Ramdas Pophale) SiO2 
 PCOD8066929
Probable space group: P 2/M
;
_chemical_formula_sum "Si O2"
_cell_formula_units_Z 32
_cell_length_a 14.600005
_cell_length_b 9.779326
_cell_length_c 24.942888
_cell_angle_alpha 90.000000
_cell_angle_beta 28.597234
_cell_angle_gamma 90.000000
_cell_volume 1704.614778
_symmetry_space_group_name_H-M "P 2/M"
_symmetry_group_IT_number 10
_symmetry_cell_setting 'monoclinic'
loop_
_space_group_symop_operation_xyz
x,y,z
-x,y,-z
-x,-y,-z
x,-y,z
loop_
_atom_site_type_symbol
_atom_site_label
_atom_site_fract_x
_atom_site_fract_y
_atom_site_fract_z
Si Si1 0.634747 0.841843 0.813840
Si Si2 0.559551 0.156680 0.627653
Si Si3 0.942512 0.156680 0.372347
Si Si4 0.576266 0.841843 0.186160
Si Si5 0.657719 0.348865 0.989149
Si Si6 0.248049 0.340488 0.738583
Si Si7 0.125165 0.651135 0.010851
Si Si8 0.036202 0.340488 0.738583
O O1 0.565720 0.803565 0.789520
O O2 0.517334 0.757174 0.919039
O O3 0.856772 0.802172 0.703710
O O4 0.597548 0.000000 0.845525
O O5 0.781819 0.179489 0.500000
O O6 0.532096 0.197828 0.703710
O O7 0.435101 0.251169 0.652693
O O8 0.497789 0.000000 0.649576
O O9 0.893180 0.251169 0.347307
O O10 0.946517 0.000000 0.350424
O O11 0.774449 0.757174 0.080962
O O12 0.634124 0.000000 0.154475
O O13 0.575893 0.500000 0.018073
O O14 0.764825 0.352893 0.990117
O O15 0.813442 0.304656 0.864675
O O16 0.301513 0.500000 0.713330
O O17 0.167446 0.301524 0.721702
O O18 0.092532 0.304656 0.864675
O O19 0.130113 0.500000 0.981927
O O20 0.058498 0.500000 0.713330
#
# Coordination Sequence:
#
# PCOD8066929 Si02
#       8
#     4   4   4   4   4   4   4   4
#     4   9  18  33  53  76 102 133 168 206 249 298
#     4  10  22  37  51  72 102 135 173 213 251 293
#     4  10  22  37  51  72 102 135 173 213 251 293
#     4   9  18  33  53  76 102 133 168 206 249 298
#     4   8  15  30  52  77 103 129 160 201 251 305
#     4   9  19  36  56  77 102 133 167 204 250 303
#     4   8  15  30  52  77 103 129 160 201 251 305
#     4   9  19  36  56  77 102 133 167 204 250 303
#
# _framework density 18.772570000000002
#
# number of rings (size 3 to 8) (size 9 to 14) (size 15 to 20)
#    0.000    3.000    0.000    1.500    0.000    5.000 
#    0.000   12.500    0.000    0.000    0.000    5.250 
#    0.000    0.000    0.000    0.000    0.000    0.000 
#
# Total GULP energy -396759.487485 kJ/mol
# GULP energy per Si atom -12398.733984 kJ/mol
# Density = 1.872984 g / cm^3
# Si number density = 18.772570 Si / 1000 Ang^3
#
#
#
# Elastic Constant Matrix: (Units=GPa)
#
#
# Indices 1 2 3 4 5 6 
#
# 1 51.4601 22.3642 14.6413 0.0000 -1.9019 0.0000
# 2 22.3642 53.4320 31.6551 0.0000 -0.6601 0.0000
# 3 14.6413 31.6551 80.3459 0.0000 -0.1503 0.0000
# 4 0.0000 0.0000 0.0000 78.8109 0.0000 -4.1163
# 5 -1.9019 -0.6601 -0.1503 0.0000 31.6700 0.0000
# 6 0.0000 0.0000 0.0000 -4.1163 0.0000 20.8735
#
#
#
# Elastic Compliance Matrix: (Units=1/GPa)
#
#
# Indices 1 2 3 4 5 6 
#
# 1 0.023819 -0.009632 -0.000543 0.000000 0.001227 0.000000
# 2 -0.009632 0.028316 -0.009401 0.000000 -0.000033 0.000000
# 3 -0.000543 -0.009401 0.016249 0.000000 -0.000151 0.000000
# 4 0.000000 0.000000 0.000000 0.012821 0.000000 0.002528
# 5 0.001227 -0.000033 -0.000151 0.000000 0.031648 0.000000
# 6 0.000000 0.000000 0.000000 0.002528 0.000000 0.048406
#
#
# Mechanical properties :
#
#
# Convention : Reuss Voigt Hill
#
# Bulk Modulus (GPa) = 34.21082 35.83991 35.02536
# Shear Modulus (GPa) = 23.79201 34.04270 28.91736
#
# Velocity S-wave (km/s) = 3.56389 4.26306 3.92906
# Velocity P-wave (km/s) = 5.93283 6.58518 6.26750
#
# Compressibility (1/GPa) = 0.02923052
#
# Stress axis : x y z
#
# Youngs Moduli (GPa) = 41.98403 35.31562 61.54351
#
# Poissons Ratio (x) = 0.34018 0.03342
# Poissons Ratio (y) = 0.40441 0.57856
# Poissons Ratio (z) = 0.02280 0.33200
#
# Static dielectric constant tensor:
#      x y z
#    x 3.267080 0.000000 -0.017150 
#    y 0.000000 3.530100 0.000000 
#    z -0.017150 0.000000 3.508490 
# 
# 
# High freq. dielectric constant tensor:
#      x y z
#    x 1.722320 0.000000 -0.000240 
#    y 0.000000 1.724600 0.000000 
#    z -0.000240 0.000000 1.725720 
# 
# From -- ./inp_files/72233.got.cif
#   From: 2010.06.25/outbox.cif.g09.slc.cpg/sg10_37_cif.got.tgz:72233.got - 2010.06.27 22:07:45.
