data_PCOD8066071
_publ_section_title
;
Structure prediction by ZEFSAII (Michael W. Deem and Ramdas Pophale) SiO2 
 PCOD8066071
Probable space group: P 2/M
;
_chemical_formula_sum "Si O2"
_cell_formula_units_Z 32
_cell_length_a 14.240333
_cell_length_b 8.969591
_cell_length_c 15.628745
_cell_angle_alpha 90.000000
_cell_angle_beta 56.986821
_cell_angle_gamma 90.000000
_cell_volume 1673.953555
_symmetry_space_group_name_H-M "P 2/M"
_symmetry_group_IT_number 10
_symmetry_cell_setting 'monoclinic'
loop_
_space_group_symop_operation_xyz
x,y,z
-x,y,-z
-x,-y,-z
x,-y,z
loop_
_atom_site_type_symbol
_atom_site_label
_atom_site_fract_x
_atom_site_fract_y
_atom_site_fract_z
Si Si1 0.225687 0.828582 0.469600
Si Si2 0.551768 0.323909 0.887163
Si Si3 0.418959 0.323473 0.789536
Si Si4 0.537512 0.828690 0.574373
Si Si5 0.181233 0.823950 0.910817
Si Si6 0.000172 0.823295 0.675078
Si Si7 0.786197 0.325047 0.700789
Si Si8 0.997551 0.175789 0.135355
O O1 0.328868 0.809452 0.483552
O O2 0.247442 0.725226 0.377383
O O3 0.114257 0.773712 0.572745
O O4 0.213720 0.000000 0.445585
O O5 0.535410 0.500000 0.896194
O O6 0.486424 0.258083 0.837583
O O7 0.683275 0.283091 0.814843
O O8 0.500000 0.254181 0.000000
O O9 0.421418 0.500000 0.788077
O O10 0.474264 0.268039 0.675432
O O11 0.293287 0.268423 0.858644
O O12 0.500000 0.770884 0.500000
O O13 0.501273 0.000000 0.605049
O O14 0.111015 0.768821 0.863018
O O15 0.206066 0.000000 0.894482
O O16 0.111479 0.780865 0.030240
O O17 0.896968 0.758718 0.674247
O O18 0.000875 0.754851 0.770461
O O19 0.988073 0.000000 0.683021
O O20 0.809220 0.500000 0.689193
O O21 0.988122 0.000000 0.145809
#
# Coordination Sequence:
#
# PCOD8066071 Si02
#       8
#     4   4   4   4   4   4   4   4
#     4  10  21  38  59  82 111 145 183 231 283 331
#     4   9  20  38  57  78 111 154 192 226 278 341
#     4  11  22  37  59  87 117 153 187 233 290 338
#     4  10  22  39  62  88 113 149 194 236 280 339
#     4   9  18  35  59  83 112 150 188 227 275 334
#     4  10  21  36  57  83 111 143 184 232 282 332
#     4  11  22  38  59  81 109 147 187 229 279 336
#     4   8  17  35  58  83 112 147 186 232 281 326
#
# _framework density 19.116420000000002
#
# number of rings (size 3 to 8) (size 9 to 14) (size 15 to 20)
#    0.000    2.250    1.250    1.875    3.500    2.250 
#    0.000    1.875    0.000    3.000    0.000    0.000 
#    0.000    0.000    0.000    0.000    0.000    0.000 
#
# Total GULP energy -396824.718188 kJ/mol
# GULP energy per Si atom -12400.772443 kJ/mol
# Density = 1.907291 g / cm^3
# Si number density = 19.116420 Si / 1000 Ang^3
#
#
#
# Elastic Constant Matrix: (Units=GPa)
#
#
# Indices 1 2 3 4 5 6 
#
# 1 103.8936 22.2788 64.9405 0.0000 -6.0157 0.0000
# 2 22.2788 33.5454 32.9702 0.0000 -3.8072 0.0000
# 3 64.9405 32.9702 143.1607 0.0000 0.3273 0.0000
# 4 0.0000 0.0000 0.0000 24.6070 0.0000 -4.8999
# 5 -6.0157 -3.8072 0.3273 0.0000 37.1757 0.0000
# 6 0.0000 0.0000 0.0000 -4.8999 0.0000 17.8754
#
#
#
# Elastic Compliance Matrix: (Units=1/GPa)
#
#
# Indices 1 2 3 4 5 6 
#
# 1 0.013953 -0.003648 -0.005494 0.000000 0.001933 0.000000
# 2 -0.003648 0.040098 -0.007588 0.000000 0.003583 0.000000
# 3 -0.005494 -0.007588 0.011229 0.000000 -0.001765 0.000000
# 4 0.000000 0.000000 0.000000 0.042985 0.000000 0.011783
# 5 0.001933 0.003583 -0.001765 0.000000 0.027595 0.000000
# 6 0.000000 0.000000 0.000000 0.011783 0.000000 0.059173
#
#
# Mechanical properties :
#
#
# Convention : Reuss Voigt Hill
#
# Bulk Modulus (GPa) = 31.42651 57.88652 44.65651
# Shear Modulus (GPa) = 20.91188 26.62563 23.76875
#
# Velocity S-wave (km/s) = 3.31104 3.73609 3.52997
# Velocity P-wave (km/s) = 5.57607 6.99700 6.32655
#
# Compressibility (1/GPa) = 0.03182027
#
# Stress axis : x y z
#
# Youngs Moduli (GPa) = 71.66694 24.93911 89.05667
#
# Poissons Ratio (x) = 0.09098 0.48926
# Poissons Ratio (y) = 0.26145 0.67576
# Poissons Ratio (z) = 0.39372 0.18924
#
# Static dielectric constant tensor:
#      x y z
#    x 3.690060 0.000000 0.138870 
#    y 0.000000 3.179530 0.000000 
#    z 0.138870 0.000000 3.889250 
# 
# 
# High freq. dielectric constant tensor:
#      x y z
#    x 1.757210 0.000000 -0.002260 
#    y 0.000000 1.711590 0.000000 
#    z -0.002260 0.000000 1.754780 
# 
# From -- ./inp_files/66489.got.cif
#   From: 2010.06.25/outbox.cif.g09.slc.cpg/sg10_34_cif.got.tgz:66489.got - 2010.06.27 22:07:45.
