data_PCOD8066395
_publ_section_title
;
Structure prediction by ZEFSAII (Michael W. Deem and Ramdas Pophale) SiO2 
 PCOD8066395
Probable space group: P 2/M
;
_chemical_formula_sum "Si O2"
_cell_formula_units_Z 30
_cell_length_a 31.236884
_cell_length_b 12.264009
_cell_length_c 30.349786
_cell_angle_alpha 90.000000
_cell_angle_beta 9.535288
_cell_angle_gamma 90.000000
_cell_volume 1926.018255
_symmetry_space_group_name_H-M "P 2/M"
_symmetry_group_IT_number 10
_symmetry_cell_setting 'monoclinic'
loop_
_space_group_symop_operation_xyz
x,y,z
-x,y,-z
-x,-y,-z
x,-y,z
loop_
_atom_site_type_symbol
_atom_site_label
_atom_site_fract_x
_atom_site_fract_y
_atom_site_fract_z
Si Si1 0.235028 0.000000 0.794611
Si Si2 0.352969 0.869954 0.498822
Si Si3 0.764449 0.372683 0.207709
Si Si4 0.824005 0.194021 0.078808
Si Si5 0.948648 0.129988 0.652104
Si Si6 0.525336 0.130048 0.924696
Si Si7 0.630126 0.870614 0.619116
Si Si8 0.104657 0.130172 0.194578
O O1 0.500000 0.000000 0.500000
O O2 0.225288 0.893079 0.833472
O O3 0.000000 0.000000 0.000000
O O4 0.619245 0.823421 0.247724
O O5 0.342865 0.832564 0.458512
O O6 0.342170 0.000000 0.515421
O O7 0.112090 0.816237 0.767882
O O8 0.500000 0.338265 0.500000
O O9 0.771030 0.500000 0.190084
O O10 0.788968 0.312546 0.135945
O O11 0.000000 0.337436 0.000000
O O12 0.711832 0.174793 0.863479
O O13 0.922831 0.174834 0.727887
O O14 0.948447 0.000000 0.652536
O O15 0.211788 0.174799 0.363618
O O16 0.525197 0.000000 0.925243
O O17 0.500000 0.175183 0.000000
O O18 0.869013 0.823797 0.404671
O O19 0.626431 0.000000 0.625300
O O20 0.367831 0.823561 0.906448
O O21 0.104209 0.000000 0.194910
#
# Coordination Sequence:
#
# PCOD8066395 Si02
#       8
#     2   4   4   4   4   4   4   4
#     4  12  22  32  46  66  92 114 136 162 198 236
#     4  11  20  33  45  66  91 117 138 164 203 251
#     4  10  21  38  56  72  90 115 146 178 208 238
#     4  12  21  34  50  69  93 116 143 171 204 247
#     4   9  15  21  30  40  55  73 103 144 180 225
#     4   9  15  21  27  37  52  74  99 134 186 239
#     4   9  17  26  39  51  72  97 123 150 183 231
#     4   9  15  24  34  49  62  86 119 152 186 222
#
# _framework density 15.576176999999999
#
# number of rings (size 3 to 8) (size 9 to 14) (size 15 to 20)
#    0.000    2.000    1.333    4.400    0.000    6.933 
#    0.000    0.000    0.000    0.000    0.000    0.000 
#    0.000    0.000    0.000    0.000    0.000    0.000 
#
# Total GULP energy -372043.066010 kJ/mol
# GULP energy per Si atom -12401.435534 kJ/mol
# Density = 1.554072 g / cm^3
# Si number density = 15.576177 Si / 1000 Ang^3
#
#
#
# Elastic Constant Matrix: (Units=GPa)
#
#
# Indices 1 2 3 4 5 6 
#
# 1 128.9777 19.7465 53.7542 0.0000 -5.5492 0.0000
# 2 19.7465 24.6469 10.4083 0.0000 1.6078 0.0000
# 3 53.7542 10.4083 127.7359 0.0000 -3.5743 0.0000
# 4 0.0000 0.0000 0.0000 6.5450 0.0000 0.6844
# 5 -5.5492 1.6078 -3.5743 0.0000 39.1996 0.0000
# 6 0.0000 0.0000 0.0000 0.6844 0.0000 2.8763
#
#
#
# Elastic Compliance Matrix: (Units=1/GPa)
#
#
# Indices 1 2 3 4 5 6 
#
# 1 0.010447 -0.006858 -0.003798 0.000000 0.001414 0.000000
# 2 -0.006858 0.046685 -0.001001 0.000000 -0.002977 0.000000
# 3 -0.003798 -0.001001 0.009519 0.000000 0.000371 0.000000
# 4 0.000000 0.000000 0.000000 0.156687 0.000000 -0.037282
# 5 0.001414 -0.002977 0.000371 0.000000 0.025867 0.000000
# 6 0.000000 0.000000 0.000000 -0.037282 0.000000 0.356544
#
#
# Mechanical properties :
#
#
# Convention : Reuss Voigt Hill
#
# Bulk Modulus (GPa) = 23.07562 49.90874 36.49218
# Shear Modulus (GPa) = 7.76991 22.88761 15.32876
#
# Velocity S-wave (km/s) = 2.23588 3.83743 3.14046
# Velocity P-wave (km/s) = 4.63815 7.19345 6.05220
#
# Compressibility (1/GPa) = 0.04333578
#
# Stress axis : x y z
#
# Youngs Moduli (GPa) = 95.72143 21.42029 105.05435
#
# Poissons Ratio (x) = 0.14691 0.39899
# Poissons Ratio (y) = 0.65648 0.10518
# Poissons Ratio (z) = 0.36354 0.02145
#
# Static dielectric constant tensor:
#      x y z
#    x 3.181030 0.000000 -0.030510 
#    y 0.000000 2.346690 0.000000 
#    z -0.030510 0.000000 3.297820 
# 
# 
# High freq. dielectric constant tensor:
#      x y z
#    x 1.613420 0.000000 -0.002560 
#    y 0.000000 1.506570 0.000000 
#    z -0.002560 0.000000 1.625300 
# 
# From -- ./inp_files/96067.got.cif
#   From: 2010.06.25/outbox.cif.g09.slc.cpg/sg10_49_cif.got.tgz:96067.got - 2010.06.27 22:07:45.
