data_PCOD8066227
_publ_section_title
;
Structure prediction by ZEFSAII (Michael W. Deem and Ramdas Pophale) SiO2 
 PCOD8066227
Probable space group: P 2/M
;
_chemical_formula_sum "Si O2"
_cell_formula_units_Z 20
_cell_length_a 25.637720
_cell_length_b 9.192480
_cell_length_c 8.873026
_cell_angle_alpha 90.000000
_cell_angle_beta 149.894330
_cell_angle_gamma 90.000000
_cell_volume 1048.909975
_symmetry_space_group_name_H-M "P 2/M"
_symmetry_group_IT_number 10
_symmetry_cell_setting 'monoclinic'
loop_
_space_group_symop_operation_xyz
x,y,z
-x,y,-z
-x,-y,-z
x,-y,z
loop_
_atom_site_type_symbol
_atom_site_label
_atom_site_fract_x
_atom_site_fract_y
_atom_site_fract_z
Si Si1 0.899137 0.171314 0.838929
Si Si2 0.700110 0.332079 0.850425
Si Si3 0.510483 0.667508 0.852902
Si Si4 0.100945 0.670191 0.845433
Si Si5 0.694141 0.828124 0.148546
O O1 0.798510 0.220867 0.494116
O O2 0.901635 0.000000 0.871549
O O3 0.897296 0.246022 0.994770
O O4 0.000000 0.224740 0.000000
O O5 0.708196 0.500000 0.919967
O O6 0.598666 0.302443 0.498647
O O7 0.798666 0.284034 0.998898
O O8 0.695684 0.233930 0.985603
O O9 0.544922 0.500000 0.921136
O O10 0.500000 0.711618 0.000000
O O11 0.596104 0.768570 0.993057
O O12 0.100503 0.500000 0.880559
O O13 0.000000 0.717963 0.500000
O O14 0.684688 0.000000 0.114554
#
# Coordination Sequence:
#
# PCOD8066227 Si02
#       5
#     4   4   4   4   4
#     4  10  22  39  57  80 112 149 185 221 271 333
#     4  10  21  37  57  82 112 146 183 223 274 333
#     4  10  21  38  59  81 109 147 185 223 274 332
#     4  10  21  37  59  87 113 140 182 232 275 319
#     4  11  23  37  56  83 112 144 185 230 272 319
#
# _framework density 19.067412000000001
#
# number of rings (size 3 to 8) (size 9 to 14) (size 15 to 20)
#    0.000    1.800    0.000    3.600    0.000    8.400 
#    0.000    0.000    0.000    0.000    0.000    0.000 
#    0.000    0.000    0.000    0.000    0.000    0.000 
#
# Total GULP energy -248115.695332 kJ/mol
# GULP energy per Si atom -12405.784767 kJ/mol
# Density = 1.902401 g / cm^3
# Si number density = 19.067412 Si / 1000 Ang^3
#
#
#
# Elastic Constant Matrix: (Units=GPa)
#
#
# Indices 1 2 3 4 5 6 
#
# 1 171.5495 62.7816 97.0823 0.0000 -1.8053 0.0000
# 2 62.7816 54.3083 55.3361 0.0000 -2.3142 0.0000
# 3 97.0823 55.3361 154.1119 0.0000 5.1421 0.0000
# 4 0.0000 0.0000 0.0000 31.4220 0.0000 -4.9199
# 5 -1.8053 -2.3142 5.1421 0.0000 42.7848 0.0000
# 6 0.0000 0.0000 0.0000 -4.9199 0.0000 84.2171
#
#
#
# Elastic Compliance Matrix: (Units=1/GPa)
#
#
# Indices 1 2 3 4 5 6 
#
# 1 0.011404 -0.009192 -0.003899 0.000000 0.000453 0.000000
# 2 -0.009192 0.036792 -0.007504 0.000000 0.002504 0.000000
# 3 -0.003899 -0.007504 0.011705 0.000000 -0.001977 0.000000
# 4 0.000000 0.000000 0.000000 0.032119 0.000000 0.001876
# 5 0.000453 0.002504 -0.001977 0.000000 0.023765 0.000000
# 6 0.000000 0.000000 0.000000 0.001876 0.000000 0.011984
#
#
# Mechanical properties :
#
#
# Convention : Reuss Voigt Hill
#
# Bulk Modulus (GPa) = 53.44026 90.04110 71.74068
# Shear Modulus (GPa) = 28.53971 42.66942 35.60456
#
# Velocity S-wave (km/s) = 3.87302 4.73569 4.32591
# Velocity P-wave (km/s) = 6.93457 8.78791 7.91567
#
# Compressibility (1/GPa) = 0.01871248
#
# Stress axis : x y z
#
# Youngs Moduli (GPa) = 87.68692 27.17999 85.43271
#
# Poissons Ratio (x) = 0.24983 0.33308
# Poissons Ratio (y) = 0.80599 0.64107
# Poissons Ratio (z) = 0.34187 0.20395
#
# Static dielectric constant tensor:
#      x y z
#    x 3.549550 0.000000 0.047620 
#    y 0.000000 3.418200 0.000000 
#    z 0.047620 0.000000 3.755030 
# 
# 
# High freq. dielectric constant tensor:
#      x y z
#    x 1.758210 0.000000 0.001590 
#    y 0.000000 1.735260 0.000000 
#    z 0.001590 0.000000 1.763670 
# 
# From -- ./inp_files/22093.got.cif
#   From: 2010.06.25/outbox.cif.g09.slc.cpg/sg10_12_cif.got.tgz:22093.got - 2010.06.27 22:07:45.
