data_PCOD8066310
_publ_section_title
;
Structure prediction by ZEFSAII (Michael W. Deem and Ramdas Pophale) SiO2 
 PCOD8066310
Probable space group: P 2/M
;
_chemical_formula_sum "Si O2"
_cell_formula_units_Z 28
_cell_length_a 23.154163
_cell_length_b 7.807505
_cell_length_c 15.422366
_cell_angle_alpha 90.000000
_cell_angle_beta 28.503584
_cell_angle_gamma 90.000000
_cell_volume 1330.470638
_symmetry_space_group_name_H-M "P 2/M"
_symmetry_group_IT_number 10
_symmetry_cell_setting 'monoclinic'
loop_
_space_group_symop_operation_xyz
x,y,z
-x,y,-z
-x,-y,-z
x,-y,z
loop_
_atom_site_type_symbol
_atom_site_label
_atom_site_fract_x
_atom_site_fract_y
_atom_site_fract_z
Si Si1 0.174978 0.000000 0.307065
Si Si2 0.433032 0.695419 0.670590
Si Si3 0.049996 0.000000 0.288330
Si Si4 0.640411 0.807989 0.510989
Si Si5 0.394324 0.694322 0.259372
Si Si6 0.668820 0.304240 0.846120
Si Si7 0.883010 0.796326 0.100165
Si Si8 0.838850 0.698556 0.966359
O O1 0.251139 0.825871 0.205666
O O2 0.111797 0.000000 0.299137
O O3 0.091954 0.000000 0.502336
O O4 0.500000 0.785127 0.500000
O O5 0.408546 0.500000 0.678600
O O6 0.519146 0.708567 0.641092
O O7 0.298906 0.772047 0.862031
O O8 0.079141 0.174660 0.198635
O O9 0.650982 0.808367 0.601072
O O10 0.762614 0.730363 0.308675
O O11 0.625067 0.000000 0.497851
O O12 0.371400 0.500000 0.317340
O O13 0.319360 0.738925 0.271776
O O14 0.533739 0.726258 0.056057
O O15 0.709547 0.500000 0.810378
O O16 0.883943 0.000000 0.087971
O O17 0.884377 0.707651 0.004987
O O18 0.000000 0.734988 0.000000
O O19 0.851374 0.500000 0.918034
#
# Coordination Sequence:
#
# PCOD8066310 Si02
#       8
#     2   4   2   4   4   4   4   4
#     4  11  26  45  70  88 122 173 202 264 322 373
#     4  10  21  37  59  87 124 163 206 261 314 368
#     4  11  28  48  62  94 128 158 215 269 313 370
#     4  11  23  33  58  97 128 169 215 258 315 378
#     4   9  20  38  59  92 135 161 199 268 317 370
#     4   9  21  41  66  95 125 165 210 258 321 384
#     4  10  22  42  62  89 134 176 216 264 304 365
#     4  11  24  43  69  95 125 170 214 262 320 375
#
# _framework density 21.045185
#
# number of rings (size 3 to 8) (size 9 to 14) (size 15 to 20)
#    0.000    1.857    2.143    1.286    5.000    4.000 
#    0.000    2.857    0.000    0.000    0.000    0.000 
#    0.000    0.000    0.000    0.000    0.000    0.000 
#
# Total GULP energy -347161.245635 kJ/mol
# GULP energy per Si atom -12398.615916 kJ/mol
# Density = 2.099728 g / cm^3
# Si number density = 21.045185 Si / 1000 Ang^3
#
#
#
# Elastic Constant Matrix: (Units=GPa)
#
#
# Indices 1 2 3 4 5 6 
#
# 1 83.7019 21.0880 35.8668 0.0000 2.4615 0.0000
# 2 21.0880 85.7086 32.4637 0.0000 1.5166 0.0000
# 3 35.8668 32.4637 55.8768 0.0000 6.9539 0.0000
# 4 0.0000 0.0000 0.0000 22.1294 0.0000 0.6942
# 5 2.4615 1.5166 6.9539 0.0000 41.3449 0.0000
# 6 0.0000 0.0000 0.0000 0.6942 0.0000 29.7519
#
#
#
# Elastic Compliance Matrix: (Units=1/GPa)
#
#
# Indices 1 2 3 4 5 6 
#
# 1 0.016507 -0.000031 -0.010679 0.000000 0.000815 0.000000
# 2 -0.000031 0.014995 -0.008808 0.000000 0.000933 0.000000
# 3 -0.010679 -0.008808 0.030385 0.000000 -0.004152 0.000000
# 4 0.000000 0.000000 0.000000 0.045222 0.000000 -0.001055
# 5 0.000815 0.000933 -0.004152 0.000000 0.024802 0.000000
# 6 0.000000 0.000000 0.000000 -0.001055 0.000000 0.033636
#
#
# Mechanical properties :
#
#
# Convention : Reuss Voigt Hill
#
# Bulk Modulus (GPa) = 43.76177 44.90268 44.33223
# Shear Modulus (GPa) = 23.56264 27.70318 25.63291
#
# Velocity S-wave (km/s) = 3.34970 3.63211 3.49376
# Velocity P-wave (km/s) = 5.98331 6.24278 6.11442
#
# Compressibility (1/GPa) = 0.02285099
#
# Stress axis : x y z
#
# Youngs Moduli (GPa) = 60.58014 66.69006 32.91062
#
# Poissons Ratio (x) = 0.00206 0.35146
# Poissons Ratio (y) = 0.00187 0.28988
# Poissons Ratio (z) = 0.64694 0.58741
#
# Static dielectric constant tensor:
#      x y z
#    x 3.749160 0.000000 0.013960 
#    y 0.000000 3.661840 0.000000 
#    z 0.013960 0.000000 3.897200 
# 
# 
# High freq. dielectric constant tensor:
#      x y z
#    x 1.826290 0.000000 0.004080 
#    y 0.000000 1.820380 0.000000 
#    z 0.004080 0.000000 1.817140 
# 
# From -- ./inp_files/70252.got.cif
#   From: 2010.06.25/outbox.cif.g09.slc.cpg/sg10_36_cif.got.tgz:70252.got - 2010.06.27 22:07:45.
