data_PCOD8066686
_publ_section_title
;
Structure prediction by ZEFSAII (Michael W. Deem and Ramdas Pophale) SiO2 
 PCOD8066686
Probable space group: P 2/M
;
_chemical_formula_sum "Si O2"
_cell_formula_units_Z 32
_cell_length_a 25.647537
_cell_length_b 8.633496
_cell_length_c 14.620678
_cell_angle_alpha 90.000000
_cell_angle_beta 29.757593
_cell_angle_gamma 90.000000
_cell_volume 1606.836754
_symmetry_space_group_name_H-M "P 2/M"
_symmetry_group_IT_number 10
_symmetry_cell_setting 'monoclinic'
loop_
_space_group_symop_operation_xyz
x,y,z
-x,y,-z
-x,-y,-z
x,-y,z
loop_
_atom_site_type_symbol
_atom_site_label
_atom_site_fract_x
_atom_site_fract_y
_atom_site_fract_z
Si Si1 0.934603 0.678902 0.513084
Si Si2 0.560743 0.318147 0.143731
Si Si3 0.661971 0.818886 0.515705
Si Si4 0.206667 0.680956 0.526956
Si Si5 0.730164 0.180163 0.756517
Si Si6 0.240162 0.820358 0.824829
Si Si7 0.976611 0.676566 0.817318
Si Si8 0.402886 0.682870 0.706534
O O1 0.899822 0.500000 0.575740
O O2 0.830346 0.781650 0.666862
O O3 0.000000 0.737085 0.500000
O O4 0.007996 0.702779 0.313784
O O5 0.582742 0.500000 0.100273
O O6 0.439639 0.282993 0.307601
O O7 0.590798 0.255887 0.199156
O O8 0.626195 0.225166 0.969300
O O9 0.749854 0.782845 0.456907
O O10 0.705547 0.765811 0.351282
O O11 0.634276 0.000000 0.559713
O O12 0.223805 0.500000 0.520085
O O13 0.265855 0.722794 0.343034
O O14 0.083366 0.721860 0.707109
O O15 0.727954 0.000000 0.735324
O O16 0.292573 0.731814 0.830181
O O17 0.256834 0.000000 0.816128
O O18 0.116818 0.784621 0.005812
O O19 0.945797 0.500000 0.885164
O O20 0.500000 0.753530 0.500000
O O21 0.411202 0.500000 0.694525
#
# Coordination Sequence:
#
# PCOD8066686 Si02
#       8
#     4   4   4   4   4   4   4   4
#     4   9  19  37  59  84 116 157 204 247 290 346
#     4  11  23  40  63  89 119 159 205 248 291 352
#     4  11  24  41  61  89 122 157 196 247 305 356
#     4  10  22  43  67  89 115 155 203 251 297 348
#     4  11  23  39  60  89 124 156 192 244 304 361
#     4  11  24  38  58  89 126 161 194 240 301 363
#     4   9  20  38  60  86 117 155 201 248 291 344
#     4  10  21  39  62  86 116 158 204 248 292 343
#
# _framework density 19.914904
#
# number of rings (size 3 to 8) (size 9 to 14) (size 15 to 20)
#    0.000    1.750    1.250    3.375    1.750    6.500 
#    0.000    5.000    0.000    0.000    0.000    0.000 
#    0.000    0.000    0.000    0.000    0.000    0.000 
#
# Total GULP energy -396980.519887 kJ/mol
# GULP energy per Si atom -12405.641246 kJ/mol
# Density = 1.986958 g / cm^3
# Si number density = 19.914904 Si / 1000 Ang^3
#
#
#
# Elastic Constant Matrix: (Units=GPa)
#
#
# Indices 1 2 3 4 5 6 
#
# 1 97.8776 13.0373 17.8722 0.0000 -15.1995 0.0000
# 2 13.0373 38.5260 18.6289 0.0000 0.3909 0.0000
# 3 17.8722 18.6289 98.2556 0.0000 -9.4339 0.0000
# 4 0.0000 0.0000 0.0000 31.9218 0.0000 1.6126
# 5 -15.1995 0.3909 -9.4339 0.0000 17.7090 0.0000
# 6 0.0000 0.0000 0.0000 1.6126 0.0000 21.1084
#
#
#
# Elastic Compliance Matrix: (Units=1/GPa)
#
#
# Indices 1 2 3 4 5 6 
#
# 1 0.012490 -0.004101 -0.000481 0.000000 0.010554 0.000000
# 2 -0.004101 0.030156 -0.005663 0.000000 -0.007202 0.000000
# 3 -0.000481 -0.005663 0.011921 0.000000 0.006063 0.000000
# 4 0.000000 0.000000 0.000000 0.031448 0.000000 -0.002402
# 5 0.010554 -0.007202 0.006063 0.000000 0.068916 0.000000
# 6 0.000000 0.000000 0.000000 -0.002402 0.000000 0.047558
#
#
# Mechanical properties :
#
#
# Convention : Reuss Voigt Hill
#
# Bulk Modulus (GPa) = 29.34587 37.08177 33.21382
# Shear Modulus (GPa) = 21.33678 26.48921 23.91299
#
# Velocity S-wave (km/s) = 3.27677 3.65104 3.46896
# Velocity P-wave (km/s) = 5.39295 6.03606 5.72354
#
# Compressibility (1/GPa) = 0.03407634
#
# Stress axis : x y z
#
# Youngs Moduli (GPa) = 80.06459 33.16120 83.88701
#
# Poissons Ratio (x) = 0.13600 0.04034
# Poissons Ratio (y) = 0.32836 0.47505
# Poissons Ratio (z) = 0.03851 0.18779
#
# Static dielectric constant tensor:
#      x y z
#    x 3.686280 0.000000 0.028990 
#    y 0.000000 3.489320 0.000000 
#    z 0.028990 0.000000 3.574140 
# 
# 
# High freq. dielectric constant tensor:
#      x y z
#    x 1.781650 0.000000 -0.001790 
#    y 0.000000 1.772730 0.000000 
#    z -0.001790 0.000000 1.779190 
# 
# From -- ./inp_files/71475.got.cif
#   From: 2010.06.25/outbox.cif.g09.slc.cpg/sg10_36_cif.got.tgz:71475.got - 2010.06.27 22:07:45.
