data_PCOD8066960
_publ_section_title
;
Structure prediction by ZEFSAII (Michael W. Deem and Ramdas Pophale) SiO2 
 PCOD8066960
Probable space group: P 2/M
;
_chemical_formula_sum "Si O2"
_cell_formula_units_Z 28
_cell_length_a 10.081469
_cell_length_b 14.380058
_cell_length_c 12.153401
_cell_angle_alpha 90.000000
_cell_angle_beta 114.508399
_cell_angle_gamma 90.000000
_cell_volume 1603.157438
_symmetry_space_group_name_H-M "P 2/M"
_symmetry_group_IT_number 10
_symmetry_cell_setting 'monoclinic'
loop_
_space_group_symop_operation_xyz
x,y,z
-x,y,-z
-x,-y,-z
x,-y,z
loop_
_atom_site_type_symbol
_atom_site_label
_atom_site_fract_x
_atom_site_fract_y
_atom_site_fract_z
Si Si1 0.371421 0.895709 0.751481
Si Si2 0.664551 0.208824 0.828996
Si Si3 0.791104 0.109118 0.081934
Si Si4 0.640379 0.322822 0.499976
Si Si5 0.120150 0.104285 0.248778
Si Si6 0.395040 0.396868 0.290218
Si Si7 0.153044 0.834433 0.500094
O O1 0.500092 0.827498 0.760771
O O2 0.302210 0.864599 0.843231
O O3 0.247285 0.894983 0.616473
O O4 0.433761 0.000000 0.783041
O O5 0.760392 0.172469 0.760443
O O6 0.659301 0.321025 0.818464
O O7 0.733367 0.175040 0.966118
O O8 0.959180 0.135455 0.157084
O O9 0.773317 0.000000 0.046189
O O10 0.500000 0.261925 0.500000
O O11 0.569354 0.384872 0.376872
O O12 0.692574 0.384852 0.623104
O O13 0.771975 0.263376 0.499911
O O14 0.131093 0.104965 0.383802
O O15 0.150835 0.000000 0.217136
O O16 0.366029 0.500000 0.232251
O O17 0.000000 0.808645 0.500000
#
# Coordination Sequence:
#
# PCOD8066960 Si02
#       7
#     4   4   4   4   4   4   4
#     4  11  22  36  54  80 115 153 187 224 267 319
#     4  12  21  36  57  85 107 139 193 237 266 311
#     4  10  22  38  55  78 113 161 193 213 260 323
#     4   8  16  35  55  82 107 135 180 224 275 329
#     4  11  22  36  54  80 115 153 187 224 267 319
#     4   9  18  34  61  84 105 135 180 231 289 338
#     4  12  21  34  55  84 116 150 180 225 280 327
#
# _framework density 17.465534000000002
#
# number of rings (size 3 to 8) (size 9 to 14) (size 15 to 20)
#    0.857    0.571    4.286    3.429    0.000    2.857 
#    0.000    1.429    0.000    5.143    0.000    0.000 
#    0.000    0.000    0.000    0.000    0.000    0.000 
#
# Total GULP energy -347004.852088 kJ/mol
# GULP energy per Si atom -12393.030432 kJ/mol
# Density = 1.742578 g / cm^3
# Si number density = 17.465534 Si / 1000 Ang^3
#
#
#
# Elastic Constant Matrix: (Units=GPa)
#
#
# Indices 1 2 3 4 5 6 
#
# 1 112.5212 46.9824 30.2575 0.0000 -1.4550 0.0000
# 2 46.9824 114.2441 40.5864 0.0000 -0.3671 0.0000
# 3 30.2575 40.5864 115.7378 0.0000 0.5753 0.0000
# 4 0.0000 0.0000 0.0000 17.3694 0.0000 0.0833
# 5 -1.4550 -0.3671 0.5753 0.0000 14.1800 0.0000
# 6 0.0000 0.0000 0.0000 0.0833 0.0000 13.0713
#
#
#
# Elastic Compliance Matrix: (Units=1/GPa)
#
#
# Indices 1 2 3 4 5 6 
#
# 1 0.010959 -0.003980 -0.001475 0.000000 0.001081 0.000000
# 2 -0.003980 0.011446 -0.002974 0.000000 0.000009 0.000000
# 3 -0.001475 -0.002974 0.010072 0.000000 -0.000637 0.000000
# 4 0.000000 0.000000 0.000000 0.057574 0.000000 -0.000367
# 5 0.001081 0.000009 -0.000637 0.000000 0.070659 0.000000
# 6 0.000000 0.000000 0.000000 -0.000367 0.000000 0.076506
#
#
# Mechanical properties :
#
#
# Convention : Reuss Voigt Hill
#
# Bulk Modulus (GPa) = 64.01561 64.23952 64.12757
# Shear Modulus (GPa) = 19.28418 23.90258 21.59338
#
# Velocity S-wave (km/s) = 3.32645 3.70342 3.51998
# Velocity P-wave (km/s) = 7.17536 7.42614 7.30183
#
# Compressibility (1/GPa) = 0.01562119
#
# Stress axis : x y z
#
# Youngs Moduli (GPa) = 91.24532 87.36542 99.28759
#
# Poissons Ratio (x) = 0.34768 0.14645
# Poissons Ratio (y) = 0.36312 0.29524
# Poissons Ratio (z) = 0.13459 0.25979
#
# Static dielectric constant tensor:
#      x y z
#    x 3.201930 0.000000 0.001030 
#    y 0.000000 2.901880 0.000000 
#    z 0.001030 0.000000 3.266530 
# 
# 
# High freq. dielectric constant tensor:
#      x y z
#    x 1.669510 0.000000 0.000170 
#    y 0.000000 1.642470 0.000000 
#    z 0.000170 0.000000 1.678940 
# 
# From -- ./inp_files/42736.got.cif
#   From: 2010.06.25/outbox.cif.g09.slc.cpg/sg10_22_cif.got.tgz:42736.got - 2010.06.27 22:07:45.
