data_PCOD8066134
_publ_section_title
;
Structure prediction by ZEFSAII (Michael W. Deem and Ramdas Pophale) SiO2 
 PCOD8066134
Probable space group: P 2/M
;
_chemical_formula_sum "Si O2"
_cell_formula_units_Z 32
_cell_length_a 12.687416
_cell_length_b 12.500716
_cell_length_c 16.127932
_cell_angle_alpha 90.000000
_cell_angle_beta 37.419298
_cell_angle_gamma 90.000000
_cell_volume 1554.302407
_symmetry_space_group_name_H-M "P 2/M"
_symmetry_group_IT_number 10
_symmetry_cell_setting 'monoclinic'
loop_
_space_group_symop_operation_xyz
x,y,z
-x,y,-z
-x,-y,-z
x,-y,z
loop_
_atom_site_type_symbol
_atom_site_label
_atom_site_fract_x
_atom_site_fract_y
_atom_site_fract_z
Si Si1 0.387948 0.875332 0.988982
Si Si2 0.263857 0.700817 0.828135
Si Si3 0.416954 0.117480 0.635481
Si Si4 0.576747 0.269636 0.741204
Si Si5 0.000653 0.378292 0.877713
Si Si6 0.239005 0.882723 0.481298
Si Si7 0.045959 0.238447 0.248874
Si Si8 0.144790 0.619419 0.340368
O O1 0.190574 0.841626 0.125165
O O2 0.398304 0.000000 0.959674
O O3 0.500000 0.848856 0.000000
O O4 0.455811 0.808025 0.869417
O O5 0.267927 0.811929 0.772945
O O6 0.458433 0.677283 0.741544
O O7 0.188168 0.617218 0.807348
O O8 0.131535 0.697744 0.988324
O O9 0.500000 0.169551 0.500000
O O10 0.567993 0.103630 0.606940
O O11 0.337771 0.000000 0.663359
O O12 0.743162 0.201073 0.605205
O O13 0.662733 0.363431 0.741412
O O14 0.930482 0.500000 0.914891
O O15 0.016086 0.327897 0.777326
O O16 0.116881 0.835903 0.628829
O O17 0.169825 0.000000 0.495229
O O18 0.117687 0.296580 0.284860
O O19 0.139410 0.500000 0.306806
O O20 0.000000 0.634443 0.500000
#
# Coordination Sequence:
#
# PCOD8066134 Si02
#       8
#     4   4   4   4   4   4   4   4
#     4  11  23  39  61  93 133 165 199 257 318 376
#     4  10  21  39  63  89 122 163 209 258 307 372
#     4   9  18  35  59  88 122 159 202 252 307 365
#     4  11  21  42  63  91 127 162 208 252 313 380
#     4  11  24  42  63  87 123 167 212 265 321 369
#     4  10  21  36  61  90 121 161 200 244 306 379
#     4  12  22  42  64  93 125 162 211 258 315 379
#     4  11  24  42  64  91 125 164 209 266 318 365
#
# _framework density 20.588014000000001
#
# number of rings (size 3 to 8) (size 9 to 14) (size 15 to 20)
#    0.000    1.375    3.750    2.625    0.000    1.500 
#    0.000    3.125    0.000    4.500    0.000    0.000 
#    0.000    0.000    0.000    0.000    0.000    0.000 
#
# Total GULP energy -396617.406351 kJ/mol
# GULP energy per Si atom -12394.293948 kJ/mol
# Density = 2.054115 g / cm^3
# Si number density = 20.588014 Si / 1000 Ang^3
#
#
#
# Elastic Constant Matrix: (Units=GPa)
#
#
# Indices 1 2 3 4 5 6 
#
# 1 82.9652 16.3749 9.2510 0.0000 -4.4350 0.0000
# 2 16.3749 83.5416 46.4831 0.0000 -6.6464 0.0000
# 3 9.2510 46.4831 108.7610 0.0000 1.4593 0.0000
# 4 0.0000 0.0000 0.0000 20.8219 0.0000 -3.4037
# 5 -4.4350 -6.6464 1.4593 0.0000 25.2952 0.0000
# 6 0.0000 0.0000 0.0000 -3.4037 0.0000 18.3553
#
#
#
# Elastic Compliance Matrix: (Units=1/GPa)
#
#
# Indices 1 2 3 4 5 6 
#
# 1 0.012602 -0.002273 -0.000122 0.000000 0.001619 0.000000
# 2 -0.002273 0.016648 -0.006981 0.000000 0.004378 0.000000
# 3 -0.000122 -0.006981 0.012223 0.000000 -0.002561 0.000000
# 4 0.000000 0.000000 0.000000 0.049528 0.000000 0.009184
# 5 0.001619 0.004378 -0.002561 0.000000 0.041115 0.000000
# 6 0.000000 0.000000 0.000000 0.009184 0.000000 0.056183
#
#
# Mechanical properties :
#
#
# Convention : Reuss Voigt Hill
#
# Bulk Modulus (GPa) = 44.01247 46.60953 45.31100
# Shear Modulus (GPa) = 23.29652 26.43841 24.86746
#
# Velocity S-wave (km/s) = 3.36751 3.58741 3.47920
# Velocity P-wave (km/s) = 6.04519 6.31250 6.18029
#
# Compressibility (1/GPa) = 0.02272083
#
# Stress axis : x y z
#
# Youngs Moduli (GPa) = 79.35177 60.06705 81.81564
#
# Poissons Ratio (x) = 0.13656 0.00998
# Poissons Ratio (y) = 0.18040 0.57112
# Poissons Ratio (z) = 0.00968 0.41930
#
# Static dielectric constant tensor:
#      x y z
#    x 3.802660 0.000000 0.046950 
#    y 0.000000 3.910290 0.000000 
#    z 0.046950 0.000000 3.726880 
# 
# 
# High freq. dielectric constant tensor:
#      x y z
#    x 1.810230 0.000000 0.006410 
#    y 0.000000 1.798490 0.000000 
#    z 0.006410 0.000000 1.800130 
# 
# From -- ./inp_files/78178.got.cif
#   From: 2010.06.25/outbox.cif.g09.slc.cpg/sg10_40_cif.got.tgz:78178.got - 2010.06.27 22:07:45.
