data_PCOD8066991
_publ_section_title
;
Structure prediction by ZEFSAII (Michael W. Deem and Ramdas Pophale) SiO2 
 PCOD8066991
Probable space group: P 2/M
;
_chemical_formula_sum "Si O2"
_cell_formula_units_Z 28
_cell_length_a 10.264312
_cell_length_b 12.742228
_cell_length_c 14.108026
_cell_angle_alpha 90.000000
_cell_angle_beta 122.991885
_cell_angle_gamma 90.000000
_cell_volume 1547.650204
_symmetry_space_group_name_H-M "P 2/M"
_symmetry_group_IT_number 10
_symmetry_cell_setting 'monoclinic'
loop_
_space_group_symop_operation_xyz
x,y,z
-x,y,-z
-x,-y,-z
x,-y,z
loop_
_atom_site_type_symbol
_atom_site_label
_atom_site_fract_x
_atom_site_fract_y
_atom_site_fract_z
Si Si1 0.597986 0.123289 0.130764
Si Si2 0.896399 0.755462 0.202342
Si Si3 0.431078 0.619908 0.575243
Si Si4 0.593523 0.243926 0.797599
Si Si5 0.100116 0.121647 0.134015
Si Si6 0.069053 0.619865 0.424862
Si Si7 0.347069 0.377539 0.000108
O O1 0.772907 0.163984 0.196452
O O2 0.521130 0.163233 0.196575
O O3 0.602577 0.000000 0.135842
O O4 0.500000 0.161834 0.000000
O O5 0.012672 0.821141 0.184079
O O6 0.991334 0.699979 0.322299
O O7 0.807452 0.665990 0.109355
O O8 0.500000 0.641554 0.500000
O O9 0.462742 0.500000 0.620331
O O10 0.509026 0.699978 0.677906
O O11 0.250032 0.643916 0.500225
O O12 0.736827 0.178145 0.815388
O O13 0.644487 0.332815 0.891193
O O14 0.127339 0.000000 0.171100
O O15 0.000000 0.131731 0.000000
O O16 0.036685 0.500000 0.379679
O O17 0.000000 0.641435 0.500000
O O18 0.326172 0.500000 0.001150
O O19 0.500000 0.348524 0.000000
#
# Coordination Sequence:
#
# PCOD8066991 Si02
#       7
#     4   4   4   4   4   4   4
#     4  11  21  36  59  87 118 151 198 238 286 358
#     4  12  20  39  59  87 120 153 191 241 300 342
#     4  10  22  40  60  83 112 155 200 234 276 343
#     4  12  20  39  61  87 116 153 195 241 293 342
#     4  11  23  38  59  87 122 155 194 240 292 355
#     4  10  22  38  60  87 114 153 198 236 282 347
#     4  11  22  35  56  92 124 151 182 237 305 357
#
# _framework density 18.091943000000001
#
# number of rings (size 3 to 8) (size 9 to 14) (size 15 to 20)
#    0.000    1.000    4.286    3.429    0.000    2.286 
#    0.000    2.857    0.000   17.143    0.000    0.000 
#    0.000    0.000    0.000    0.000    0.000    0.000 
#
# Total GULP energy -347287.973948 kJ/mol
# GULP energy per Si atom -12403.141927 kJ/mol
# Density = 1.805076 g / cm^3
# Si number density = 18.091943 Si / 1000 Ang^3
#
#
#
# Elastic Constant Matrix: (Units=GPa)
#
#
# Indices 1 2 3 4 5 6 
#
# 1 181.5953 80.1122 68.9506 0.0000 1.1391 0.0000
# 2 80.1122 149.3793 79.7778 0.0000 3.1436 0.0000
# 3 68.9506 79.7778 123.7457 0.0000 5.4400 0.0000
# 4 0.0000 0.0000 0.0000 40.2633 0.0000 0.2088
# 5 1.1391 3.1436 5.4400 0.0000 4.0381 0.0000
# 6 0.0000 0.0000 0.0000 0.2088 0.0000 32.1037
#
#
#
# Elastic Compliance Matrix: (Units=1/GPa)
#
#
# Indices 1 2 3 4 5 6 
#
# 1 0.007729 -0.002801 -0.002659 0.000000 0.003582 0.000000
# 2 -0.002801 0.011228 -0.005664 0.000000 -0.000320 0.000000
# 3 -0.002659 -0.005664 0.013805 0.000000 -0.013438 0.000000
# 4 0.000000 0.000000 0.000000 0.024837 0.000000 -0.000162
# 5 0.003582 -0.000320 -0.013438 0.000000 0.264983 0.000000
# 6 0.000000 0.000000 0.000000 -0.000162 0.000000 0.031150
#
#
# Mechanical properties :
#
#
# Convention : Reuss Voigt Hill
#
# Bulk Modulus (GPa) = 95.09799 101.37794 98.23797
# Shear Modulus (GPa) = 13.17578 30.33968 21.75773
#
# Velocity S-wave (km/s) = 2.70157 4.09953 3.47164
# Velocity P-wave (km/s) = 7.89995 8.86367 8.39565
#
# Compressibility (1/GPa) = 0.01051547
#
# Stress axis : x y z
#
# Youngs Moduli (GPa) = 129.37776 89.06244 72.43906
#
# Poissons Ratio (x) = 0.24944 0.19258
# Poissons Ratio (y) = 0.36236 0.41029
# Poissons Ratio (z) = 0.34396 0.50445
#
# Static dielectric constant tensor:
#      x y z
#    x 3.524490 0.000000 -0.007550 
#    y 0.000000 3.448770 0.000000 
#    z -0.007550 0.000000 3.216180 
# 
# 
# High freq. dielectric constant tensor:
#      x y z
#    x 1.719130 0.000000 -0.000800 
#    y 0.000000 1.715510 0.000000 
#    z -0.000800 0.000000 1.691040 
# 
# From -- ./inp_files/43030.got.cif
#   From: 2010.06.25/outbox.cif.g09.slc.cpg/sg10_22_cif.got.tgz:43030.got - 2010.06.27 22:07:45.
