data_PCOD8066509
_publ_section_title
;
Structure prediction by ZEFSAII (Michael W. Deem and Ramdas Pophale) SiO2 
 PCOD8066509
Probable space group: P 2/M
;
_chemical_formula_sum "Si O2"
_cell_formula_units_Z 28
_cell_length_a 9.044363
_cell_length_b 18.897973
_cell_length_c 15.478508
_cell_angle_alpha 90.000000
_cell_angle_beta 28.848508
_cell_angle_gamma 90.000000
_cell_volume 1276.484323
_symmetry_space_group_name_H-M "P 2/M"
_symmetry_group_IT_number 10
_symmetry_cell_setting 'monoclinic'
loop_
_space_group_symop_operation_xyz
x,y,z
-x,y,-z
-x,-y,-z
x,-y,z
loop_
_atom_site_type_symbol
_atom_site_label
_atom_site_fract_x
_atom_site_fract_y
_atom_site_fract_z
Si Si1 0.858218 0.083395 0.810233
Si Si2 0.340098 0.727238 0.334245
Si Si3 0.628371 0.500000 0.090238
Si Si4 0.368556 0.643870 0.479261
Si Si5 0.651113 0.500000 0.280984
Si Si6 0.130107 0.078897 0.847035
Si Si7 0.359202 0.353802 0.161770
Si Si8 0.206743 0.117830 0.466812
O O1 0.013147 0.114413 0.818348
O O2 0.001930 0.128181 0.657561
O O3 0.928032 0.000000 0.759851
O O4 0.500000 0.098510 0.000000
O O5 0.508119 0.689659 0.328521
O O6 0.486173 0.703541 0.167779
O O7 0.327578 0.810426 0.360011
O O8 0.000000 0.695343 0.500000
O O9 0.567210 0.500000 0.223312
O O10 0.472321 0.431735 0.128519
O O11 0.987690 0.500000 0.885815
O O12 0.500000 0.678062 0.500000
O O13 0.498259 0.565735 0.405773
O O14 0.003879 0.645480 0.664779
O O15 0.496570 0.073003 0.660375
O O16 0.989346 0.000000 0.918709
O O17 0.000000 0.118321 0.000000
O O18 0.500000 0.328242 0.000000
O O19 0.000000 0.078252 0.500000
#
# Coordination Sequence:
#
# PCOD8066509 Si02
#       8
#     4   4   2   4   2   4   4   4
#     4  10  21  38  64  97 130 163 205 261 320 372
#     4   9  22  42  60  83 120 162 208 250 303 363
#     4  11  22  37  64  96 122 156 196 255 317 375
#     4  11  22  39  61  87 120 161 199 247 305 366
#     4  11  22  37  60  94 126 152 196 251 309 373
#     4  10  21  38  60  91 128 163 204 254 308 367
#     4  11  22  41  65  90 121 158 204 252 311 373
#     4  11  22  39  61  89 124 168 211 256 307 373
#
# _framework density 21.935248000000001
#
# number of rings (size 3 to 8) (size 9 to 14) (size 15 to 20)
#    0.000    1.571    1.429    3.429    0.000    5.143 
#    0.000   13.571    0.000    0.000    0.000    0.000 
#    0.000    0.000    0.000    0.000    0.000    0.000 
#
# Total GULP energy -347099.355357 kJ/mol
# GULP energy per Si atom -12396.405548 kJ/mol
# Density = 2.188532 g / cm^3
# Si number density = 21.935248 Si / 1000 Ang^3
#
#
#
# Elastic Constant Matrix: (Units=GPa)
#
#
# Indices 1 2 3 4 5 6 
#
# 1 191.0785 23.4868 69.4857 0.0000 19.1267 0.0000
# 2 23.4868 64.9459 15.6359 0.0000 12.1640 0.0000
# 3 69.4857 15.6359 124.7699 0.0000 16.1972 0.0000
# 4 0.0000 0.0000 0.0000 5.5446 0.0000 7.6086
# 5 19.1267 12.1640 16.1972 0.0000 50.2285 0.0000
# 6 0.0000 0.0000 0.0000 7.6086 0.0000 19.7990
#
#
#
# Elastic Compliance Matrix: (Units=1/GPa)
#
#
# Indices 1 2 3 4 5 6 
#
# 1 0.006774 -0.001408 -0.003450 0.000000 -0.001126 0.000000
# 2 -0.001408 0.016726 -0.000893 0.000000 -0.003226 0.000000
# 3 -0.003450 -0.000893 0.010280 0.000000 -0.001785 0.000000
# 4 0.000000 0.000000 0.000000 0.381585 0.000000 -0.146641
# 5 -0.001126 -0.003226 -0.001785 0.000000 0.021695 0.000000
# 6 0.000000 0.000000 0.000000 -0.146641 0.000000 0.106861
#
#
# Mechanical properties :
#
#
# Convention : Reuss Voigt Hill
#
# Bulk Modulus (GPa) = 44.88845 66.44567 55.66706
# Shear Modulus (GPa) = 8.88340 33.26014 21.07177
#
# Velocity S-wave (km/s) = 2.01460 3.89818 3.10277
# Velocity P-wave (km/s) = 5.09117 7.11467 6.18622
#
# Compressibility (1/GPa) = 0.02227744
#
# Stress axis : x y z
#
# Youngs Moduli (GPa) = 147.62886 59.78727 97.28030
#
# Poissons Ratio (x) = 0.08419 0.33559
# Poissons Ratio (y) = 0.20789 0.08687
# Poissons Ratio (z) = 0.50928 0.05339
#
# Static dielectric constant tensor:
#      x y z
#    x 4.479180 0.000000 0.200820 
#    y 0.000000 3.560940 0.000000 
#    z 0.200820 0.000000 3.922880 
# 
# 
# High freq. dielectric constant tensor:
#      x y z
#    x 1.889130 0.000000 0.012320 
#    y 0.000000 1.833590 0.000000 
#    z 0.012320 0.000000 1.859140 
# 
# From -- ./inp_files/62595.got.cif
#   From: 2010.06.25/outbox.cif.g09.slc.cpg/sg10_32_cif.got.tgz:62595.got - 2010.06.27 22:07:45.
