data_PCOD8066481
_publ_section_title
;
Structure prediction by ZEFSAII (Michael W. Deem and Ramdas Pophale) SiO2 
 PCOD8066481
Probable space group: P 2/M
;
_chemical_formula_sum "Si O2"
_cell_formula_units_Z 28
_cell_length_a 10.243473
_cell_length_b 9.093812
_cell_length_c 30.749500
_cell_angle_alpha 90.000000
_cell_angle_beta 147.773335
_cell_angle_gamma 90.000000
_cell_volume 1527.490204
_symmetry_space_group_name_H-M "P 2/M"
_symmetry_group_IT_number 10
_symmetry_cell_setting 'monoclinic'
loop_
_space_group_symop_operation_xyz
x,y,z
-x,y,-z
-x,-y,-z
x,-y,z
loop_
_atom_site_type_symbol
_atom_site_label
_atom_site_fract_x
_atom_site_fract_y
_atom_site_fract_z
Si Si1 0.655518 0.672346 0.264502
Si Si2 0.662224 0.329094 0.166435
Si Si3 0.181906 0.829672 0.167897
Si Si4 0.055995 0.168895 0.585799
Si Si5 0.171569 0.169063 0.010298
Si Si6 0.866206 0.326454 0.755062
Si Si7 0.607426 0.169043 0.401274
O O1 0.617322 0.500000 0.261392
O O2 0.705202 0.712338 0.228642
O O3 0.416671 0.757441 0.212417
O O4 0.890158 0.727819 0.357855
O O5 0.611782 0.500000 0.146654
O O6 0.429485 0.248965 0.080792
O O7 0.900267 0.279109 0.207183
O O8 0.110281 0.751757 0.192167
O O9 0.241573 0.000000 0.193780
O O10 0.953519 0.810409 0.071515
O O11 0.798356 0.217707 0.492287
O O12 0.272776 0.189818 0.612195
O O13 0.042734 0.000000 0.597102
O O14 0.221987 0.000000 0.035785
O O15 0.000000 0.237248 0.000000
O O16 0.848726 0.500000 0.757120
O O17 0.628008 0.272498 0.661666
O O18 0.530588 0.000000 0.386274
#
# Coordination Sequence:
#
# PCOD8066481 Si02
#       7
#     4   4   4   4   4   4   4
#     4  11  21  35  57  86 113 147 191 230 276 335
#     4  10  24  41  57  81 118 155 186 228 283 337
#     4  11  22  37  59  85 114 145 185 238 284 328
#     4   9  18  33  56  85 115 145 185 234 280 328
#     4  10  21  38  60  86 112 144 190 237 280 330
#     4  11  23  39  57  83 117 153 190 228 277 339
#     4   9  18  34  56  83 115 149 184 230 282 330
#
# _framework density 18.330722999999999
#
# number of rings (size 3 to 8) (size 9 to 14) (size 15 to 20)
#    0.000    1.857    2.857    2.143    0.000    4.286 
#    0.000    5.000    0.000    4.286    0.000    0.000 
#    0.000    0.000    0.000    0.000    0.000    0.000 
#
# Total GULP energy -347297.955553 kJ/mol
# GULP energy per Si atom -12403.498413 kJ/mol
# Density = 1.828900 g / cm^3
# Si number density = 18.330723 Si / 1000 Ang^3
#
#
#
# Elastic Constant Matrix: (Units=GPa)
#
#
# Indices 1 2 3 4 5 6 
#
# 1 131.2580 66.3049 65.7353 0.0000 9.6855 0.0000
# 2 66.3049 88.1255 63.5233 0.0000 2.3943 0.0000
# 3 65.7353 63.5233 118.4410 0.0000 12.7542 0.0000
# 4 0.0000 0.0000 0.0000 10.9329 0.0000 23.9445
# 5 9.6855 2.3943 12.7542 0.0000 21.1808 0.0000
# 6 0.0000 0.0000 0.0000 23.9445 0.0000 -10.2671
#
#
#
# Elastic Compliance Matrix: (Units=1/GPa)
#
#
# Indices 1 2 3 4 5 6 
#
# 1 0.013233 -0.007890 -0.002735 0.000000 -0.003512 0.000000
# 2 -0.007890 0.023551 -0.008933 0.000000 0.006325 0.000000
# 3 -0.002735 -0.008933 0.015515 0.000000 -0.007082 0.000000
# 4 0.000000 0.000000 0.000000 0.014976 0.000000 0.034926
# 5 -0.003512 0.006325 -0.007082 0.000000 0.052368 0.000000
# 6 0.000000 0.000000 0.000000 0.034926 0.000000 -0.015947
#
#
# Mechanical properties :
#
#
# Convention : Reuss Voigt Hill
#
# Bulk Modulus (GPa) = 75.85406 80.99459 78.42432
# Shear Modulus (GPa) = 33.96622 13.85340 23.90981
#
# Velocity S-wave (km/s) = 4.30928 2.75207 3.61551
# Velocity P-wave (km/s) = 8.13821 7.37425 7.76563
#
# Compressibility (1/GPa) = 0.01318321
#
# Stress axis : x y z
#
# Youngs Moduli (GPa) = 75.57056 42.46076 64.45540
#
# Poissons Ratio (x) = 0.33500 0.17626
# Poissons Ratio (y) = 0.59622 0.57581
# Poissons Ratio (z) = 0.20665 0.37932
#
# Static dielectric constant tensor:
#      x y z
#    x 3.378180 0.000000 -0.121950 
#    y 0.000000 3.376620 0.000000 
#    z -0.121950 0.000000 3.550490 
# 
# 
# High freq. dielectric constant tensor:
#      x y z
#    x 1.694630 0.000000 -0.005310 
#    y 0.000000 1.712670 0.000000 
#    z -0.005310 0.000000 1.726940 
# 
# From -- ./inp_files/37348.got.cif
#   From: 2010.06.25/outbox.cif.g09.slc.cpg/sg10_19_cif.got.tgz:37348.got - 2010.06.27 22:07:45.
