data_PCOD8066631
_publ_section_title
;
Structure prediction by ZEFSAII (Michael W. Deem and Ramdas Pophale) SiO2 
 PCOD8066631
Probable space group: P 2/M
;
_chemical_formula_sum "Si O2"
_cell_formula_units_Z 28
_cell_length_a 14.895750
_cell_length_b 9.159809
_cell_length_c 10.900821
_cell_angle_alpha 90.000000
_cell_angle_beta 66.066358
_cell_angle_gamma 90.000000
_cell_volume 1359.445364
_symmetry_space_group_name_H-M "P 2/M"
_symmetry_group_IT_number 10
_symmetry_cell_setting 'monoclinic'
loop_
_space_group_symop_operation_xyz
x,y,z
-x,y,-z
-x,-y,-z
x,-y,z
loop_
_atom_site_type_symbol
_atom_site_label
_atom_site_fract_x
_atom_site_fract_y
_atom_site_fract_z
Si Si1 0.754832 0.165928 0.192339
Si Si2 0.938505 0.663229 0.186864
Si Si3 0.443512 0.670268 0.157594
Si Si4 0.131120 0.165703 0.101147
Si Si5 0.760195 0.828673 0.715271
Si Si6 0.444473 0.671942 0.655548
Si Si7 0.904821 0.662633 0.489401
O O1 0.854168 0.229203 0.191784
O O2 0.662065 0.256681 0.288158
O O3 0.740552 0.000000 0.244725
O O4 0.770785 0.174970 0.036871
O O5 0.929782 0.500000 0.134422
O O6 0.928159 0.653477 0.335998
O O7 0.045917 0.729121 0.094625
O O8 0.418627 0.500000 0.181118
O O9 0.344950 0.760576 0.204259
O O10 0.500991 0.720770 0.249182
O O11 0.500000 0.705276 0.000000
O O12 0.166145 0.214830 0.215731
O O13 0.090065 0.000000 0.125775
O O14 0.809077 0.762165 0.565913
O O15 0.746903 0.000000 0.708076
O O16 0.500000 0.722180 0.500000
O O17 0.428841 0.500000 0.663037
O O18 0.885015 0.500000 0.553785
O O19 0.000000 0.734652 0.500000
#
# Coordination Sequence:
#
# PCOD8066631 Si02
#       7
#     4   4   4   4   4   4   4
#     4  11  24  41  62  87 121 160 198 243 300 360
#     4  11  23  38  61  89 119 158 204 248 292 352
#     4  10  22  41  65  91 120 158 204 254 306 360
#     4  10  22  40  59  87 126 162 194 240 297 355
#     4  11  23  37  61  92 122 157 198 245 301 359
#     4  10  23  43  64  88 119 157 203 255 306 356
#     4  10  21  39  59  84 119 159 200 245 297 352
#
# _framework density 20.596634999999999
#
# number of rings (size 3 to 8) (size 9 to 14) (size 15 to 20)
#    0.000    1.571    1.429    2.571    2.000    6.000 
#    0.000    0.000    0.000    0.000    0.000    0.000 
#    0.000    0.000    0.000    0.000    0.000    0.000 
#
# Total GULP energy -347202.605428 kJ/mol
# GULP energy per Si atom -12400.093051 kJ/mol
# Density = 2.054976 g / cm^3
# Si number density = 20.596635 Si / 1000 Ang^3
#
#
#
# Elastic Constant Matrix: (Units=GPa)
#
#
# Indices 1 2 3 4 5 6 
#
# 1 87.1558 34.5129 41.6766 0.0000 -19.2313 0.0000
# 2 34.5129 53.5444 34.2668 0.0000 -19.5915 0.0000
# 3 41.6766 34.2668 108.8613 0.0000 -16.8419 0.0000
# 4 0.0000 0.0000 0.0000 29.1544 0.0000 -3.4805
# 5 -19.2313 -19.5915 -16.8419 0.0000 39.4232 0.0000
# 6 0.0000 0.0000 0.0000 -3.4805 0.0000 32.6779
#
#
#
# Elastic Compliance Matrix: (Units=1/GPa)
#
#
# Indices 1 2 3 4 5 6 
#
# 1 0.016805 -0.007421 -0.003641 0.000000 0.002955 0.000000
# 2 -0.007421 0.030150 -0.005238 0.000000 0.009126 0.000000
# 3 -0.003641 -0.005238 0.012368 0.000000 0.000905 0.000000
# 4 0.000000 0.000000 0.000000 0.034742 0.000000 0.003700
# 5 0.002955 0.009126 0.000905 0.000000 0.031729 0.000000
# 6 0.000000 0.000000 0.000000 0.003700 0.000000 0.030996
#
#
# Mechanical properties :
#
#
# Convention : Reuss Voigt Hill
#
# Bulk Modulus (GPa) = 37.41766 52.27488 44.84627
# Shear Modulus (GPa) = 25.21457 29.52478 27.36968
#
# Velocity S-wave (km/s) = 3.50266 3.79023 3.64928
# Velocity P-wave (km/s) = 5.87916 6.67757 6.29104
#
# Compressibility (1/GPa) = 0.02672535
#
# Stress axis : x y z
#
# Youngs Moduli (GPa) = 59.50526 33.16701 80.85057
#
# Poissons Ratio (x) = 0.24614 0.29435
# Poissons Ratio (y) = 0.44159 0.42347
# Poissons Ratio (z) = 0.21664 0.17372
#
# Static dielectric constant tensor:
#      x y z
#    x 2.556880 0.000000 -5.403800 
#    y 0.000000 3.870150 0.000000 
#    z -5.403800 0.000000 -24.444890 
# 
# 
# High freq. dielectric constant tensor:
#      x y z
#    x 1.801730 0.000000 0.001460 
#    y 0.000000 1.805690 0.000000 
#    z 0.001460 0.000000 1.823670 
# 
# From -- ./inp_files/49588.got.cif
#   From: 2010.06.25/outbox.cif.g09.slc.cpg/sg10_25_cif.got.tgz:49588.got - 2010.06.27 22:07:45.
