data_PCOD8066551
_publ_section_title
;
Structure prediction by ZEFSAII (Michael W. Deem and Ramdas Pophale) SiO2 
 PCOD8066551
Probable space group: P 2/M
;
_chemical_formula_sum "Si O2"
_cell_formula_units_Z 32
_cell_length_a 22.440430
_cell_length_b 8.848237
_cell_length_c 15.051234
_cell_angle_alpha 90.000000
_cell_angle_beta 148.399353
_cell_angle_gamma 90.000000
_cell_volume 1565.985030
_symmetry_space_group_name_H-M "P 2/M"
_symmetry_group_IT_number 10
_symmetry_cell_setting 'monoclinic'
loop_
_space_group_symop_operation_xyz
x,y,z
-x,y,-z
-x,-y,-z
x,-y,z
loop_
_atom_site_type_symbol
_atom_site_label
_atom_site_fract_x
_atom_site_fract_y
_atom_site_fract_z
Si Si1 0.141626 0.823884 0.038755
Si Si2 0.426212 0.673456 0.820144
Si Si3 0.199207 0.177435 0.579998
Si Si4 0.246014 0.175477 0.985028
Si Si5 0.130801 0.677614 0.671455
Si Si6 0.910110 0.677519 0.717026
Si Si7 0.737652 0.173752 0.628513
Si Si8 0.495862 0.172834 0.249657
O O1 0.227830 0.784616 0.227560
O O2 0.111128 0.000000 0.998194
O O3 0.200124 0.771193 0.021963
O O4 0.026153 0.732530 0.909764
O O5 0.386044 0.500000 0.762641
O O6 0.317454 0.781819 0.682951
O O7 0.502500 0.717257 0.832879
O O8 0.500000 0.703295 0.000000
O O9 0.199025 0.243897 0.678529
O O10 0.098893 0.247081 0.392148
O O11 0.182475 0.000000 0.563540
O O12 0.182769 0.272231 0.830476
O O13 0.219862 0.000000 0.933966
O O14 0.380805 0.207824 0.157049
O O15 0.145384 0.500000 0.678956
O O16 0.000000 0.728083 0.500000
O O17 0.912194 0.500000 0.706818
O O18 0.803919 0.721958 0.643320
O O19 0.603054 0.205037 0.449776
O O20 0.767630 0.000000 0.644207
O O21 0.497108 0.000000 0.217455
#
# Coordination Sequence:
#
# PCOD8066551 Si02
#       8
#     4   4   4   4   4   4   4   4
#     4  10  22  40  63  90 123 163 209 257 308 365
#     4  11  23  38  58  87 121 158 199 244 299 360
#     4  12  24  39  62  89 119 157 201 249 304 364
#     4  10  22  40  62  91 124 163 210 256 303 363
#     4  11  24  41  61  88 123 163 206 253 306 366
#     4  12  24  39  61  91 126 160 204 258 314 372
#     4  10  21  39  63  91 123 163 206 254 311 367
#     4  10  21  38  61  89 123 162 205 252 303 361
#
# _framework density 20.434422000000001
#
# number of rings (size 3 to 8) (size 9 to 14) (size 15 to 20)
#    0.000    1.250    1.250    4.875    0.000    9.500 
#    0.000    2.500    0.000    0.000    0.000    3.500 
#    0.000    0.000    0.000    0.000    0.000    0.000 
#
# Total GULP energy -397032.267227 kJ/mol
# GULP energy per Si atom -12407.258351 kJ/mol
# Density = 2.038791 g / cm^3
# Si number density = 20.434422 Si / 1000 Ang^3
#
#
#
# Elastic Constant Matrix: (Units=GPa)
#
#
# Indices 1 2 3 4 5 6 
#
# 1 92.4572 33.4623 43.5522 0.0000 -4.7794 0.0000
# 2 33.4623 91.8890 52.4734 0.0000 -4.7311 0.0000
# 3 43.5522 52.4734 133.1007 0.0000 -3.6242 0.0000
# 4 0.0000 0.0000 0.0000 22.5385 0.0000 1.5516
# 5 -4.7794 -4.7311 -3.6242 0.0000 41.2779 0.0000
# 6 0.0000 0.0000 0.0000 1.5516 0.0000 15.0502
#
#
#
# Elastic Compliance Matrix: (Units=1/GPa)
#
#
# Indices 1 2 3 4 5 6 
#
# 1 0.013462 -0.003037 -0.003182 0.000000 0.000931 0.000000
# 2 -0.003037 0.014782 -0.004809 0.000000 0.000920 0.000000
# 3 -0.003182 -0.004809 0.010450 0.000000 -0.000002 0.000000
# 4 0.000000 0.000000 0.000000 0.044686 0.000000 -0.004607
# 5 0.000931 0.000920 -0.000002 0.000000 0.024439 0.000000
# 6 0.000000 0.000000 0.000000 -0.004607 0.000000 0.066919
#
#
# Mechanical properties :
#
#
# Convention : Reuss Voigt Hill
#
# Bulk Modulus (GPa) = 60.10357 64.04697 62.07527
# Shear Modulus (GPa) = 24.71074 28.30392 26.50733
#
# Velocity S-wave (km/s) = 3.48123 3.72574 3.60556
# Velocity P-wave (km/s) = 6.75540 7.06533 6.91210
#
# Compressibility (1/GPa) = 0.01663795
#
# Stress axis : x y z
#
# Youngs Moduli (GPa) = 74.28205 67.64881 95.69238
#
# Poissons Ratio (x) = 0.20546 0.30452
# Poissons Ratio (y) = 0.22561 0.46017
# Poissons Ratio (z) = 0.23638 0.32531
#
# Static dielectric constant tensor:
#      x y z
#    x 3.697290 0.000000 -0.014590 
#    y 0.000000 3.613510 0.000000 
#    z -0.014590 0.000000 3.884620 
# 
# 
# High freq. dielectric constant tensor:
#      x y z
#    x 1.798850 0.000000 -0.000720 
#    y 0.000000 1.793770 0.000000 
#    z -0.000720 0.000000 1.812780 
# 
# From -- ./inp_files/71695.got.cif
#   From: 2010.06.25/outbox.cif.g09.slc.cpg/sg10_36_cif.got.tgz:71695.got - 2010.06.27 22:07:45.
