data_PCOD8066078
_publ_section_title
;
Structure prediction by ZEFSAII (Michael W. Deem and Ramdas Pophale) SiO2 
 PCOD8066078
Probable space group: P 2/M
;
_chemical_formula_sum "Si O2"
_cell_formula_units_Z 28
_cell_length_a 17.461462
_cell_length_b 9.056082
_cell_length_c 14.745949
_cell_angle_alpha 90.000000
_cell_angle_beta 143.747237
_cell_angle_gamma 90.000000
_cell_volume 1378.914073
_symmetry_space_group_name_H-M "P 2/M"
_symmetry_group_IT_number 10
_symmetry_cell_setting 'monoclinic'
loop_
_space_group_symop_operation_xyz
x,y,z
-x,y,-z
-x,-y,-z
x,-y,z
loop_
_atom_site_type_symbol
_atom_site_label
_atom_site_fract_x
_atom_site_fract_y
_atom_site_fract_z
Si Si1 0.679143 0.326405 0.128620
Si Si2 0.041692 0.674535 0.635866
Si Si3 0.529782 0.828437 0.348625
Si Si4 0.996067 0.675491 0.789676
Si Si5 0.239571 0.174037 0.111828
Si Si6 0.428952 0.673681 0.791251
Si Si7 0.223521 0.829648 0.305245
O O1 0.657720 0.500000 0.105053
O O2 0.810688 0.274439 0.207996
O O3 0.678050 0.283343 0.234848
O O4 0.563209 0.259501 0.958938
O O5 0.031233 0.500000 0.614515
O O6 0.967201 0.722370 0.656595
O O7 0.000000 0.748439 0.500000
O O8 0.385115 0.766242 0.229413
O O9 0.599642 0.753064 0.330030
O O10 0.627027 0.797368 0.525178
O O11 0.518302 0.000000 0.317861
O O12 0.006879 0.500000 0.808936
O O13 0.877107 0.731303 0.735304
O O14 0.133819 0.742482 0.950693
O O15 0.207763 0.210730 0.185480
O O16 0.229725 0.000000 0.084077
O O17 0.432008 0.500000 0.774678
O O18 0.188477 0.000000 0.290336
#
# Coordination Sequence:
#
# PCOD8066078 Si02
#       7
#     4   4   4   4   4   4   4
#     4   8  15  29  48  72 103 142 185 221 260 326
#     4   9  18  31  49  75 109 144 179 219 268 328
#     4  10  21  36  57  84 112 143 188 237 278 327
#     4  11  23  37  59  90 117 144 186 239 285 329
#     4  10  21  40  63  82 108 153 196 229 276 342
#     4   9  17  30  52  78 105 140 181 226 276 329
#     4  10  22  40  60  82 113 152 192 231 279 341
#
# _framework density 20.305834999999998
#
# number of rings (size 3 to 8) (size 9 to 14) (size 15 to 20)
#    0.000    2.429    0.000    3.000    2.000    6.286 
#    0.000    1.429    0.000    6.000    0.000    0.000 
#    0.000    0.000    0.000    0.000    0.000    0.000 
#
# Total GULP energy -346989.886886 kJ/mol
# GULP energy per Si atom -12392.495960 kJ/mol
# Density = 2.025962 g / cm^3
# Si number density = 20.305835 Si / 1000 Ang^3
#
#
#
# Elastic Constant Matrix: (Units=GPa)
#
#
# Indices 1 2 3 4 5 6 
#
# 1 107.9740 30.0939 31.3029 0.0000 -8.7615 0.0000
# 2 30.0939 39.6445 28.7371 0.0000 -5.1949 0.0000
# 3 31.3029 28.7371 82.7926 0.0000 -14.2121 0.0000
# 4 0.0000 0.0000 0.0000 23.1275 0.0000 -0.6338
# 5 -8.7615 -5.1949 -14.2121 0.0000 32.7723 0.0000
# 6 0.0000 0.0000 0.0000 -0.6338 0.0000 6.0708
#
#
#
# Elastic Compliance Matrix: (Units=1/GPa)
#
#
# Indices 1 2 3 4 5 6 
#
# 1 0.012000 -0.007766 -0.001623 0.000000 0.001273 0.000000
# 2 -0.007766 0.038732 -0.010599 0.000000 -0.000533 0.000000
# 3 -0.001623 -0.010599 0.017296 0.000000 0.005386 0.000000
# 4 0.000000 0.000000 0.000000 0.043363 0.000000 0.004527
# 5 0.001273 -0.000533 0.005386 0.000000 0.033105 0.000000
# 6 0.000000 0.000000 0.000000 0.004527 0.000000 0.165195
#
#
# Mechanical properties :
#
#
# Convention : Reuss Voigt Hill
#
# Bulk Modulus (GPa) = 35.64824 45.63100 40.63962
# Shear Modulus (GPa) = 13.92691 21.74593 17.83642
#
# Velocity S-wave (km/s) = 2.62173 3.27604 2.96698
# Velocity P-wave (km/s) = 5.17285 6.06882 5.63866
#
# Compressibility (1/GPa) = 0.02805187
#
# Stress axis : x y z
#
# Youngs Moduli (GPa) = 83.33532 25.81828 57.81822
#
# Poissons Ratio (x) = 0.20050 0.09384
# Poissons Ratio (y) = 0.64715 0.61283
# Poissons Ratio (z) = 0.13525 0.27365
#
# Static dielectric constant tensor:
#      x y z
#    x 3.872330 0.000000 -0.024600 
#    y 0.000000 3.243270 0.000000 
#    z -0.024600 0.000000 3.861470 
# 
# 
# High freq. dielectric constant tensor:
#      x y z
#    x 1.809090 0.000000 -0.004020 
#    y 0.000000 1.745280 0.000000 
#    z -0.004020 0.000000 1.802810 
# 
# From -- ./inp_files/68662.got.cif
#   From: 2010.06.25/outbox.cif.g09.slc.cpg/sg10_35_cif.got.tgz:68662.got - 2010.06.27 22:07:45.
