data_PCOD8066475
_publ_section_title
;
Structure prediction by ZEFSAII (Michael W. Deem and Ramdas Pophale) SiO2 
 PCOD8066475
Probable space group: P 2/M
;
_chemical_formula_sum "Si O2"
_cell_formula_units_Z 28
_cell_length_a 9.412681
_cell_length_b 14.218915
_cell_length_c 11.692667
_cell_angle_alpha 90.000000
_cell_angle_beta 119.237203
_cell_angle_gamma 90.000000
_cell_volume 1365.561098
_symmetry_space_group_name_H-M "P 2/M"
_symmetry_group_IT_number 10
_symmetry_cell_setting 'monoclinic'
loop_
_space_group_symop_operation_xyz
x,y,z
-x,y,-z
-x,-y,-z
x,-y,z
loop_
_atom_site_type_symbol
_atom_site_label
_atom_site_fract_x
_atom_site_fract_y
_atom_site_fract_z
Si Si1 0.475934 0.606120 0.357651
Si Si2 0.333096 0.893199 0.276309
Si Si3 0.223287 0.106355 0.786655
Si Si4 0.133974 0.895464 0.416623
Si Si5 0.173578 0.199321 0.007375
Si Si6 0.367318 0.785055 0.650648
Si Si7 0.804730 0.397760 0.922780
O O1 0.500000 0.633624 0.500000
O O2 0.537962 0.500000 0.362770
O O3 0.596702 0.673478 0.331413
O O4 0.287290 0.616141 0.237764
O O5 0.185810 0.874812 0.305837
O O6 0.490465 0.831820 0.370205
O O7 0.389854 0.000000 0.298559
O O8 0.285975 0.864463 0.130086
O O9 0.171313 0.151805 0.884667
O O10 0.357410 0.170686 0.774956
O O11 0.060015 0.104350 0.646592
O O12 0.290085 0.000000 0.829726
O O13 0.200939 0.811542 0.521128
O O14 0.199741 0.000000 0.478530
O O15 0.245069 0.306250 0.022642
O O16 0.000000 0.204474 0.000000
O O17 0.745814 0.500000 0.949398
O O18 0.000000 0.400808 0.000000
#
# Coordination Sequence:
#
# PCOD8066475 Si02
#       7
#     4   4   4   4   4   4   4
#     4  10  21  39  65  95 127 162 206 260 318 373
#     4  11  21  34  56  86 115 151 196 252 298 354
#     4  11  24  40  59  85 122 168 208 250 307 376
#     4  10  21  38  60  84 116 162 208 249 301 370
#     4  11  21  37  61  85 116 157 207 253 307 363
#     4  12  23  37  58  88 124 155 197 251 315 371
#     4   9  19  37  62  91 121 154 204 259 309 367
#
# _framework density 20.504390999999998
#
# number of rings (size 3 to 8) (size 9 to 14) (size 15 to 20)
#    0.000    1.429    2.857    3.429    0.000    3.429 
#    0.000    2.143    0.000    3.429    0.000    0.000 
#    0.000    0.000    0.000    0.000    0.000    0.000 
#
# Total GULP energy -346902.352425 kJ/mol
# GULP energy per Si atom -12389.369729 kJ/mol
# Density = 2.045772 g / cm^3
# Si number density = 20.504391 Si / 1000 Ang^3
#
#
#
# Elastic Constant Matrix: (Units=GPa)
#
#
# Indices 1 2 3 4 5 6 
#
# 1 74.9302 47.2901 18.9125 0.0000 -6.5882 0.0000
# 2 47.2901 143.9568 42.5675 0.0000 -17.3920 0.0000
# 3 18.9125 42.5675 86.4454 0.0000 5.2221 0.0000
# 4 0.0000 0.0000 0.0000 29.2619 0.0000 -2.1359
# 5 -6.5882 -17.3920 5.2221 0.0000 23.9896 0.0000
# 6 0.0000 0.0000 0.0000 -2.1359 0.0000 11.8065
#
#
#
# Elastic Compliance Matrix: (Units=1/GPa)
#
#
# Indices 1 2 3 4 5 6 
#
# 1 0.016965 -0.005027 -0.001315 0.000000 0.001301 0.000000
# 2 -0.005027 0.010909 -0.004729 0.000000 0.007558 0.000000
# 3 -0.001315 -0.004729 0.014605 0.000000 -0.006969 0.000000
# 4 0.000000 0.000000 0.000000 0.034631 0.000000 0.006265
# 5 0.001301 0.007558 -0.006969 0.000000 0.049038 0.000000
# 6 0.000000 0.000000 0.000000 0.006265 0.000000 0.085832
#
#
# Mechanical properties :
#
#
# Convention : Reuss Voigt Hill
#
# Bulk Modulus (GPa) = 49.16864 58.09696 53.63280
# Shear Modulus (GPa) = 20.75540 26.11574 23.43557
#
# Velocity S-wave (km/s) = 3.18503 3.57272 3.38443
# Velocity P-wave (km/s) = 6.12842 6.73903 6.44096
#
# Compressibility (1/GPa) = 0.02033817
#
# Stress axis : x y z
#
# Youngs Moduli (GPa) = 58.94628 91.66510 68.46920
#
# Poissons Ratio (x) = 0.46080 0.09001
# Poissons Ratio (y) = 0.29632 0.32377
# Poissons Ratio (z) = 0.07749 0.43346
#
# Static dielectric constant tensor:
#      x y z
#    x 3.598400 0.000000 0.210430 
#    y 0.000000 4.164260 0.000000 
#    z 0.210430 0.000000 3.813140 
# 
# 
# High freq. dielectric constant tensor:
#      x y z
#    x 1.771040 0.000000 0.013630 
#    y 0.000000 1.810780 0.000000 
#    z 0.013630 0.000000 1.805910 
# 
# From -- ./inp_files/25223.got.cif
#   From: 2010.06.25/outbox.cif.g09.slc.cpg/sg10_13_cif.got.tgz:25223.got - 2010.06.27 22:07:45.
