data_PCOD8066404
_publ_section_title
;
Structure prediction by ZEFSAII (Michael W. Deem and Ramdas Pophale) SiO2 
 PCOD8066404
Probable space group: P 2/M
;
_chemical_formula_sum "Si O2"
_cell_formula_units_Z 20
_cell_length_a 5.039706
_cell_length_b 19.337820
_cell_length_c 14.722554
_cell_angle_alpha 90.000000
_cell_angle_beta 122.199406
_cell_angle_gamma 90.000000
_cell_volume 1214.138471
_symmetry_space_group_name_H-M "P 2/M"
_symmetry_group_IT_number 10
_symmetry_cell_setting 'monoclinic'
loop_
_space_group_symop_operation_xyz
x,y,z
-x,y,-z
-x,-y,-z
x,-y,z
loop_
_atom_site_type_symbol
_atom_site_label
_atom_site_fract_x
_atom_site_fract_y
_atom_site_fract_z
Si Si1 0.851601 0.579103 0.570851
Si Si2 0.629178 0.500000 0.924171
Si Si3 0.867965 0.147220 0.075335
Si Si4 0.133320 0.000000 0.924333
Si Si5 0.304509 0.635405 0.799036
Si Si6 0.914493 0.291636 0.878505
O O1 0.500000 0.607717 0.500000
O O2 0.853571 0.500000 0.606168
O O3 0.000000 0.585843 0.500000
O O4 0.034309 0.625856 0.675841
O O5 0.509410 0.566542 0.848154
O O6 0.500000 0.500000 0.000000
O O7 0.000000 0.500000 0.000000
O O8 0.952868 0.073449 0.141600
O O9 0.029638 0.214007 0.151100
O O10 0.500000 0.161670 0.000000
O O11 0.000000 0.139469 0.000000
O O12 0.500000 0.000000 0.000000
O O13 0.000000 0.000000 0.000000
O O14 0.545683 0.692016 0.802672
O O15 0.139863 0.656984 0.863398
O O16 0.000000 0.298196 0.000000
#
# Coordination Sequence:
#
# PCOD8066404 Si02
#       6
#     4   2   4   2   4   4
#     4  10  21  38  57  71  86 110 153 207 254 292
#     4  12  24  34  46  66  94 124 158 188 217 264
#     4   9  16  27  42  62  89 126 164 192 220 258
#     4   8  14  24  40  60  84 118 164 200 216 246
#     4  12  22  36  50  70  92 125 158 197 238 280
#     4  11  21  32  48  68 101 133 159 185 226 282
#
# _framework density 16.472584999999999
#
# number of rings (size 3 to 8) (size 9 to 14) (size 15 to 20)
#    0.000    1.600    1.000    7.200    0.000    0.000 
#    0.000    0.000    0.000    0.000    0.000    0.000 
#    0.000    0.000    0.000   18.000    0.000    2.200 
#
# Total GULP energy -247826.816947 kJ/mol
# GULP energy per Si atom -12391.340847 kJ/mol
# Density = 1.643509 g / cm^3
# Si number density = 16.472585 Si / 1000 Ang^3
#
#
#
# Elastic Constant Matrix: (Units=GPa)
#
#
# Indices 1 2 3 4 5 6 
#
# 1 128.3635 41.6767 33.1252 0.0000 20.2748 0.0000
# 2 41.6767 121.9106 50.1391 0.0000 12.9753 0.0000
# 3 33.1252 50.1391 69.7733 0.0000 19.7232 0.0000
# 4 0.0000 0.0000 0.0000 5.8663 0.0000 5.1212
# 5 20.2748 12.9753 19.7232 0.0000 24.6642 0.0000
# 6 0.0000 0.0000 0.0000 5.1212 0.0000 25.3439
#
#
#
# Elastic Compliance Matrix: (Units=1/GPa)
#
#
# Indices 1 2 3 4 5 6 
#
# 1 0.009767 -0.002112 -0.001503 0.000000 -0.005715 0.000000
# 2 -0.002112 0.012111 -0.008256 0.000000 0.001967 0.000000
# 3 -0.001503 -0.008256 0.025068 0.000000 -0.014467 0.000000
# 4 0.000000 0.000000 0.000000 0.206975 0.000000 -0.041823
# 5 -0.005715 0.001967 -0.014467 0.000000 0.055777 0.000000
# 6 0.000000 0.000000 0.000000 -0.041823 0.000000 0.047908
#
#
# Mechanical properties :
#
#
# Convention : Reuss Voigt Hill
#
# Bulk Modulus (GPa) = 43.09925 63.32549 53.21237
# Shear Modulus (GPa) = 12.85070 24.18199 18.51635
#
# Velocity S-wave (km/s) = 2.79610 3.83562 3.35635
# Velocity P-wave (km/s) = 6.05354 7.62512 6.88432
#
# Compressibility (1/GPa) = 0.02320226
#
# Stress axis : x y z
#
# Youngs Moduli (GPa) = 102.38690 82.56886 39.89094
#
# Poissons Ratio (x) = 0.17441 0.05997
# Poissons Ratio (y) = 0.21627 0.32935
# Poissons Ratio (z) = 0.15393 0.68171
#
# Static dielectric constant tensor:
#      x y z
#    x 3.330690 0.000000 0.102800 
#    y 0.000000 4.047460 0.000000 
#    z 0.102800 0.000000 2.687100 
# 
# 
# High freq. dielectric constant tensor:
#      x y z
#    x 1.668780 0.000000 0.008760 
#    y 0.000000 1.639410 0.000000 
#    z 0.008760 0.000000 1.570540 
# 
# From -- ./inp_files/39282.got.cif
#   From: 2010.06.25/outbox.cif.g09.slc.cpg/sg10_20_cif.got.tgz:39282.got - 2010.06.27 22:07:45.
