data_PCOD8066010
_publ_section_title
;
Structure prediction by ZEFSAII (Michael W. Deem and Ramdas Pophale) SiO2 
 PCOD8066010
Probable space group: P 2/M
;
_chemical_formula_sum "Si O2"
_cell_formula_units_Z 32
_cell_length_a 15.633129
_cell_length_b 9.077944
_cell_length_c 23.041704
_cell_angle_alpha 90.000000
_cell_angle_beta 29.701599
_cell_angle_gamma 90.000000
_cell_volume 1620.230054
_symmetry_space_group_name_H-M "P 2/M"
_symmetry_group_IT_number 10
_symmetry_cell_setting 'monoclinic'
loop_
_space_group_symop_operation_xyz
x,y,z
-x,y,-z
-x,-y,-z
x,-y,z
loop_
_atom_site_type_symbol
_atom_site_label
_atom_site_fract_x
_atom_site_fract_y
_atom_site_fract_z
Si Si1 0.143315 0.327681 0.680757
Si Si2 0.515274 0.826301 0.923664
Si Si3 0.325975 0.831698 0.670942
Si Si4 0.985397 0.169687 0.943253
Si Si5 0.680824 0.172596 0.520151
Si Si6 0.197940 0.326400 0.048834
Si Si7 0.202130 0.330553 0.442513
Si Si8 0.196770 0.670044 0.313972
O O1 0.166152 0.500000 0.659720
O O2 0.294635 0.267767 0.633143
O O3 0.163053 0.250559 0.606729
O O4 0.956525 0.286010 0.816139
O O5 0.700622 0.773236 0.791066
O O6 0.496245 0.000000 0.926426
O O7 0.500000 0.781483 0.000000
O O8 0.369920 0.746038 0.971819
O O9 0.174355 0.810055 0.805993
O O10 0.499920 0.779401 0.599106
O O11 0.338509 0.000000 0.642029
O O12 0.845746 0.262918 0.989126
O O13 0.924877 0.000000 0.978231
O O14 0.000000 0.230692 0.000000
O O15 0.679933 0.228219 0.586729
O O16 0.710408 0.000000 0.501297
O O17 0.225736 0.500000 0.026814
O O18 0.231952 0.500000 0.441365
O O19 0.260617 0.301732 0.342074
O O20 0.003549 0.287694 0.570537
O O21 0.226029 0.500000 0.279364
#
# Coordination Sequence:
#
# PCOD8066010 Si02
#       8
#     4   4   4   4   4   4   4   4
#     4  10  21  36  55  79 109 146 189 235 282 335
#     4  11  25  41  60  89 121 153 195 245 296 352
#     4   9  19  35  51  75 111 147 183 225 278 336
#     4   9  18  35  59  83 112 151 189 232 286 342
#     4  11  22  33  52  82 114 149 188 229 279 340
#     4  10  22  39  58  83 113 150 194 239 293 349
#     4   9  20  39  61  86 114 149 191 235 287 341
#     4   9  20  41  64  84 114 151 189 237 290 343
#
# _framework density 19.750281999999999
#
# number of rings (size 3 to 8) (size 9 to 14) (size 15 to 20)
#    0.000    2.250    0.000    2.625    1.750    7.250 
#    0.000    2.500    0.000    0.000    0.000    0.000 
#    0.000    0.000    0.000    0.000    0.000    0.000 
#
# Total GULP energy -396903.310226 kJ/mol
# GULP energy per Si atom -12403.228445 kJ/mol
# Density = 1.970533 g / cm^3
# Si number density = 19.750282 Si / 1000 Ang^3
#
#
#
# Elastic Constant Matrix: (Units=GPa)
#
#
# Indices 1 2 3 4 5 6 
#
# 1 85.8625 35.1091 28.4126 0.0000 10.9654 0.0000
# 2 35.1091 68.7991 29.7264 0.0000 3.3406 0.0000
# 3 28.4126 29.7264 64.8144 0.0000 7.3699 0.0000
# 4 0.0000 0.0000 0.0000 19.8004 0.0000 -1.6547
# 5 10.9654 3.3406 7.3699 0.0000 27.7923 0.0000
# 6 0.0000 0.0000 0.0000 -1.6547 0.0000 32.3672
#
#
#
# Elastic Compliance Matrix: (Units=1/GPa)
#
#
# Indices 1 2 3 4 5 6 
#
# 1 0.016040 -0.006423 -0.003561 0.000000 -0.004612 0.000000
# 2 -0.006423 0.020699 -0.006891 0.000000 0.001873 0.000000
# 3 -0.003561 -0.006891 0.020515 0.000000 -0.003207 0.000000
# 4 0.000000 0.000000 0.000000 0.050721 0.000000 0.002593
# 5 -0.004612 0.001873 -0.003207 0.000000 0.038426 0.000000
# 6 0.000000 0.000000 0.000000 0.002593 0.000000 0.031028
#
#
# Mechanical properties :
#
#
# Convention : Reuss Voigt Hill
#
# Bulk Modulus (GPa) = 42.54558 45.10802 43.82680
# Shear Modulus (GPa) = 22.82958 24.40719 23.61838
#
# Velocity S-wave (km/s) = 3.40356 3.51919 3.46186
# Velocity P-wave (km/s) = 6.08557 6.27708 6.18207
#
# Compressibility (1/GPa) = 0.02350420
#
# Stress axis : x y z
#
# Youngs Moduli (GPa) = 62.34286 48.31113 48.74508
#
# Poissons Ratio (x) = 0.31030 0.17360
# Poissons Ratio (y) = 0.40042 0.33590
# Poissons Ratio (z) = 0.22202 0.33291
#
# Static dielectric constant tensor:
#      x y z
#    x 3.683490 0.000000 0.106940 
#    y 0.000000 3.521610 0.000000 
#    z 0.106940 0.000000 3.569620 
# 
# 
# High freq. dielectric constant tensor:
#      x y z
#    x 1.776280 0.000000 0.005010 
#    y 0.000000 1.767040 0.000000 
#    z 0.005010 0.000000 1.767910 
# 
# From -- ./inp_files/89533.got.cif
#   From: 2010.06.25/outbox.cif.g09.slc.cpg/sg10_45_cif.got.tgz:89533.got - 2010.06.27 22:07:45.
