data_PCOD8066729
_publ_section_title
;
Structure prediction by ZEFSAII (Michael W. Deem and Ramdas Pophale) SiO2 
 PCOD8066729
Probable space group: P 2/M
;
_chemical_formula_sum "Si O2"
_cell_formula_units_Z 32
_cell_length_a 11.238880
_cell_length_b 8.539840
_cell_length_c 15.384952
_cell_angle_alpha 90.000000
_cell_angle_beta 86.343594
_cell_angle_gamma 90.000000
_cell_volume 1473.614804
_symmetry_space_group_name_H-M "P 2/M"
_symmetry_group_IT_number 10
_symmetry_cell_setting 'monoclinic'
loop_
_space_group_symop_operation_xyz
x,y,z
-x,y,-z
-x,-y,-z
x,-y,z
loop_
_atom_site_type_symbol
_atom_site_label
_atom_site_fract_x
_atom_site_fract_y
_atom_site_fract_z
Si Si1 0.616198 0.312868 0.048915
Si Si2 0.868017 0.179395 0.473871
Si Si3 0.873723 0.317823 0.969132
Si Si4 0.896080 0.677040 0.295706
Si Si5 0.650340 0.318675 0.238222
Si Si6 0.257055 0.673475 0.361362
Si Si7 0.482795 0.326643 0.595043
Si Si8 0.124600 0.820228 0.216099
O O1 0.619216 0.500000 0.044021
O O2 0.599369 0.252269 0.149353
O O3 0.500000 0.250691 0.000000
O O4 0.746598 0.247889 0.010577
O O5 0.840981 0.288284 0.392729
O O6 0.779395 0.227696 0.553498
O O7 0.000000 0.210964 0.500000
O O8 0.846353 0.000000 0.449508
O O9 0.875210 0.500000 0.991378
O O10 0.873682 0.290898 0.866774
O O11 0.000000 0.244317 0.000000
O O12 0.945338 0.500000 0.290013
O O13 0.793351 0.700364 0.228555
O O14 0.000597 0.799555 0.272864
O O15 0.613590 0.500000 0.247015
O O16 0.601121 0.237053 0.329867
O O17 0.196881 0.500000 0.363367
O O18 0.396984 0.656760 0.357075
O O19 0.229078 0.768016 0.275277
O O20 0.500000 0.239173 0.500000
O O21 0.429759 0.500000 0.575631
O O22 0.141154 0.000000 0.187918
#
# Coordination Sequence:
#
# PCOD8066729 Si02
#       8
#     4   4   4   4   4   4   4   4
#     4   9  18  32  56  90 123 152 191 247 310 361
#     4  11  22  36  54  80 119 160 193 240 298 355
#     4  10  21  39  63  91 119 150 198 257 309 361
#     4  11  21  36  61  88 116 153 201 249 297 351
#     4   9  18  33  56  88 122 151 187 247 306 352
#     4  11  22  36  60  89 116 153 201 247 294 353
#     4   9  18  33  55  88 123 151 189 244 301 353
#     4  12  25  39  57  85 122 160 196 241 301 363
#
# _framework density 21.715306999999999
#
# number of rings (size 3 to 8) (size 9 to 14) (size 15 to 20)
#    0.000    1.750    1.250    3.750    1.750    4.750 
#    0.000    0.000    0.000    8.625    0.000    0.000 
#    0.000    0.000    0.000    0.000    0.000    0.000 
#
# Total GULP energy -396571.541986 kJ/mol
# GULP energy per Si atom -12392.860687 kJ/mol
# Density = 2.166588 g / cm^3
# Si number density = 21.715307 Si / 1000 Ang^3
#
#
#
# Elastic Constant Matrix: (Units=GPa)
#
#
# Indices 1 2 3 4 5 6 
#
# 1 116.7663 16.2554 43.7570 0.0000 8.3736 0.0000
# 2 16.2554 35.4840 2.1691 0.0000 8.4559 0.0000
# 3 43.7570 2.1691 142.7728 0.0000 8.3125 0.0000
# 4 0.0000 0.0000 0.0000 14.9010 0.0000 -4.5845
# 5 8.3736 8.4559 8.3125 0.0000 27.5357 0.0000
# 6 0.0000 0.0000 0.0000 -4.5845 0.0000 -1.8809
#
#
#
# Elastic Compliance Matrix: (Units=1/GPa)
#
#
# Indices 1 2 3 4 5 6 
#
# 1 0.010383 -0.004356 -0.003064 0.000000 -0.000895 0.000000
# 2 -0.004356 0.032235 0.001369 0.000000 -0.008988 0.000000
# 3 -0.003064 0.001369 0.008034 0.000000 -0.001914 0.000000
# 4 0.000000 0.000000 0.000000 0.038350 0.000000 -0.093476
# 5 -0.000895 -0.008988 -0.001914 0.000000 0.039926 0.000000
# 6 0.000000 0.000000 0.000000 -0.093476 0.000000 -0.303827
#
#
# Mechanical properties :
#
#
# Convention : Reuss Voigt Hill
#
# Bulk Modulus (GPa) = 25.94068 46.59845 36.26956
# Shear Modulus (GPa) = -33.34531 23.63394 -4.85568
#
# Velocity S-wave (km/s) = -3.92288 3.30260 -1.49697
# Velocity P-wave (km/s) = 2.92351 6.00402 3.70819
#
# Compressibility (1/GPa) = 0.03854950
#
# Stress axis : x y z
#
# Youngs Moduli (GPa) = 96.31282 31.02189 124.47441
#
# Poissons Ratio (x) = 0.13513 0.38137
# Poissons Ratio (y) = 0.41953 -0.17035
# Poissons Ratio (z) = 0.29509 -0.04245
#
# Static dielectric constant tensor:
#      x y z
#    x -16.162950 0.000000 9.805500 
#    y 0.000000 3.377440 0.000000 
#    z 9.805500 0.000000 -0.563710 
# 
# 
# High freq. dielectric constant tensor:
#      x y z
#    x 1.862160 0.000000 0.005470 
#    y 0.000000 1.795620 0.000000 
#    z 0.005470 0.000000 1.866950 
# 
# From -- ./inp_files/63823.got.cif
#   From: 2010.06.25/outbox.cif.g09.slc.cpg/sg10_32_cif.got.tgz:63823.got - 2010.06.27 22:07:45.
