data_PCOD8066795
_publ_section_title
;
Structure prediction by ZEFSAII (Michael W. Deem and Ramdas Pophale) SiO2 
 PCOD8066795
Probable space group: P 2/M
;
_chemical_formula_sum "Si O2"
_cell_formula_units_Z 28
_cell_length_a 15.285826
_cell_length_b 9.206039
_cell_length_c 11.623754
_cell_angle_alpha 90.000000
_cell_angle_beta 119.922082
_cell_angle_gamma 90.000000
_cell_volume 1417.683277
_symmetry_space_group_name_H-M "P 2/M"
_symmetry_group_IT_number 10
_symmetry_cell_setting 'monoclinic'
loop_
_space_group_symop_operation_xyz
x,y,z
-x,y,-z
-x,-y,-z
x,-y,z
loop_
_atom_site_type_symbol
_atom_site_label
_atom_site_fract_x
_atom_site_fract_y
_atom_site_fract_z
Si Si1 0.286743 0.169445 0.134333
Si Si2 0.384936 0.667076 0.408886
Si Si3 0.013990 0.164586 0.695078
Si Si4 0.163633 0.836362 0.590696
Si Si5 0.351495 0.666922 0.645091
Si Si6 0.478996 0.831478 0.115750
Si Si7 0.079057 0.669009 0.952557
O O1 0.330182 0.232813 0.280924
O O2 0.363060 0.195216 0.077374
O O3 0.267536 0.000000 0.141377
O O4 0.181574 0.243463 0.036212
O O5 0.500000 0.716909 0.500000
O O6 0.379655 0.500000 0.363561
O O7 0.330393 0.687947 0.495738
O O8 0.112898 0.174626 0.681471
O O9 0.023273 0.280978 0.801070
O O10 0.915397 0.209073 0.559020
O O11 0.004014 0.000000 0.736325
O O12 0.257574 0.729067 0.653647
O O13 0.202111 0.000000 0.593966
O O14 0.365075 0.500000 0.686513
O O15 0.453573 0.746221 0.748740
O O16 0.508184 0.000000 0.142909
O O17 0.500000 0.774134 0.000000
O O18 0.106030 0.500000 0.963558
O O19 0.000000 0.703796 0.000000
#
# Coordination Sequence:
#
# PCOD8066795 Si02
#       7
#     4   4   4   4   4   4   4
#     4  11  24  41  65  92 118 158 208 254 301 357
#     4  10  21  40  61  84 122 160 193 241 297 352
#     4   9  20  41  65  88 117 156 203 250 301 357
#     4   9  20  39  63  90 121 155 194 251 307 352
#     4  11  23  37  60  92 122 158 200 243 298 363
#     4  10  23  42  62  88 124 162 201 249 303 359
#     4  11  26  44  62  87 124 164 201 249 308 361
#
# _framework density 19.750533000000001
#
# number of rings (size 3 to 8) (size 9 to 14) (size 15 to 20)
#    0.000    1.857    1.429    2.143    4.000    4.571 
#    0.000    1.429    0.000    0.000    0.000    0.000 
#    0.000    0.000    0.000    0.000    0.000    0.000 
#
# Total GULP energy -347297.978319 kJ/mol
# GULP energy per Si atom -12403.499226 kJ/mol
# Density = 1.970558 g / cm^3
# Si number density = 19.750533 Si / 1000 Ang^3
#
#
#
# Elastic Constant Matrix: (Units=GPa)
#
#
# Indices 1 2 3 4 5 6 
#
# 1 93.4610 56.8861 32.1151 0.0000 3.1817 0.0000
# 2 56.8861 96.5356 51.2483 0.0000 -0.4058 0.0000
# 3 32.1151 51.2483 89.2286 0.0000 -11.3600 0.0000
# 4 0.0000 0.0000 0.0000 20.5222 0.0000 -7.9433
# 5 3.1817 -0.4058 -11.3600 0.0000 25.8396 0.0000
# 6 0.0000 0.0000 0.0000 -7.9433 0.0000 16.7378
#
#
#
# Elastic Compliance Matrix: (Units=1/GPa)
#
#
# Indices 1 2 3 4 5 6 
#
# 1 0.016868 -0.009420 -0.001000 0.000000 -0.002664 0.000000
# 2 -0.009420 0.020513 -0.008689 0.000000 -0.002338 0.000000
# 3 -0.001000 -0.008689 0.017537 0.000000 0.007697 0.000000
# 4 0.000000 0.000000 0.000000 0.059692 0.000000 0.028328
# 5 -0.002664 -0.002338 0.007697 0.000000 0.042375 0.000000
# 6 0.000000 0.000000 0.000000 0.028328 0.000000 0.073189
#
#
# Mechanical properties :
#
#
# Convention : Reuss Voigt Hill
#
# Bulk Modulus (GPa) = 59.87843 62.19159 61.03501
# Shear Modulus (GPa) = 18.25103 21.88497 20.06800
#
# Velocity S-wave (km/s) = 3.04316 3.33238 3.19105
# Velocity P-wave (km/s) = 6.53689 6.80906 6.67436
#
# Compressibility (1/GPa) = 0.01670051
#
# Stress axis : x y z
#
# Youngs Moduli (GPa) = 59.28553 48.75053 57.02186
#
# Poissons Ratio (x) = 0.45923 0.05701
# Poissons Ratio (y) = 0.55847 0.49544
# Poissons Ratio (z) = 0.05927 0.42357
#
# Static dielectric constant tensor:
#      x y z
#    x 3.665040 0.000000 -0.057600 
#    y 0.000000 3.577860 0.000000 
#    z -0.057600 0.000000 3.572090 
# 
# 
# High freq. dielectric constant tensor:
#      x y z
#    x 1.779170 0.000000 -0.001380 
#    y 0.000000 1.770210 0.000000 
#    z -0.001380 0.000000 1.771120 
# 
# From -- ./inp_files/50064.got.cif
#   From: 2010.06.25/outbox.cif.g09.slc.cpg/sg10_26_cif.got.tgz:50064.got - 2010.06.27 22:07:45.
