data_PCOD8066976
_publ_section_title
;
Structure prediction by ZEFSAII (Michael W. Deem and Ramdas Pophale) SiO2 
 PCOD8066976
Probable space group: P 2/M
;
_chemical_formula_sum "Si O2"
_cell_formula_units_Z 28
_cell_length_a 8.867421
_cell_length_b 8.819558
_cell_length_c 24.542675
_cell_angle_alpha 90.000000
_cell_angle_beta 47.492822
_cell_angle_gamma 90.000000
_cell_volume 1414.969462
_symmetry_space_group_name_H-M "P 2/M"
_symmetry_group_IT_number 10
_symmetry_cell_setting 'monoclinic'
loop_
_space_group_symop_operation_xyz
x,y,z
-x,y,-z
-x,-y,-z
x,-y,z
loop_
_atom_site_type_symbol
_atom_site_label
_atom_site_fract_x
_atom_site_fract_y
_atom_site_fract_z
Si Si1 0.485922 0.669217 0.088383
Si Si2 0.955233 0.323095 0.613848
Si Si3 0.169172 0.671276 0.067428
Si Si4 0.869592 0.681096 0.757355
Si Si5 0.369250 0.822708 0.479190
Si Si6 0.537856 0.676693 0.654896
Si Si7 0.138564 0.178329 0.784822
O O1 0.551192 0.500000 0.088232
O O2 0.322241 0.666524 0.080271
O O3 0.360449 0.742549 0.169833
O O4 0.700558 0.745409 0.015480
O O5 0.013551 0.500000 0.597629
O O6 0.914437 0.267730 0.685218
O O7 0.758185 0.287534 0.625967
O O8 0.136068 0.225974 0.544220
O O9 0.095587 0.500000 0.071935
O O10 0.974433 0.772191 0.131510
O O11 0.874655 0.500000 0.762915
O O12 0.040761 0.750542 0.754499
O O13 0.500000 0.779056 0.500000
O O14 0.470505 0.732300 0.405035
O O15 0.378639 0.000000 0.463882
O O16 0.485564 0.500000 0.669706
O O17 0.371258 0.765135 0.731628
O O18 0.128489 0.000000 0.782089
#
# Coordination Sequence:
#
# PCOD8066976 Si02
#       7
#     4   4   4   4   4   4   4
#     4   7  11  22  45  73  99 130 170 214 260 307
#     4  10  22  38  58  82 106 136 175 215 256 306
#     4   8  13  25  45  70 100 135 173 215 262 306
#     4   9  17  33  55  78 105 137 173 217 265 308
#     4  11  24  40  59  84 111 137 168 207 253 307
#     4  11  23  39  57  78 105 138 177 216 256 305
#     4  11  21  32  49  77 108 139 177 217 261 312
#
# _framework density 19.788414
#
# number of rings (size 3 to 8) (size 9 to 14) (size 15 to 20)
#    0.000    2.429    0.000    5.143    0.000    6.857 
#    0.000    5.714    0.000    0.857    0.000    6.000 
#    0.000    0.000    0.000    0.000    0.000    0.000 
#
# Total GULP energy -346994.360146 kJ/mol
# GULP energy per Si atom -12392.655719 kJ/mol
# Density = 1.974337 g / cm^3
# Si number density = 19.788414 Si / 1000 Ang^3
#
#
#
# Elastic Constant Matrix: (Units=GPa)
#
#
# Indices 1 2 3 4 5 6 
#
# 1 39.6322 17.7833 10.7777 0.0000 -13.7776 0.0000
# 2 17.7833 57.1680 27.8690 0.0000 -9.0330 0.0000
# 3 10.7777 27.8690 129.7843 0.0000 -22.1321 0.0000
# 4 0.0000 0.0000 0.0000 2.7404 0.0000 4.9560
# 5 -13.7776 -9.0330 -22.1321 0.0000 15.9275 0.0000
# 6 0.0000 0.0000 0.0000 4.9560 0.0000 14.0126
#
#
#
# Elastic Compliance Matrix: (Units=1/GPa)
#
#
# Indices 1 2 3 4 5 6 
#
# 1 0.040894 -0.009272 0.004889 0.000000 0.036909 0.000000
# 2 -0.009272 0.022233 -0.004222 0.000000 -0.001279 0.000000
# 3 0.004889 -0.004222 0.011164 0.000000 0.017348 0.000000
# 4 0.000000 0.000000 0.000000 1.012644 0.000000 -0.358155
# 5 0.036909 -0.001279 0.017348 0.000000 0.118092 0.000000
# 6 0.000000 0.000000 0.000000 -0.358155 0.000000 0.198037
#
#
# Mechanical properties :
#
#
# Convention : Reuss Voigt Hill
#
# Bulk Modulus (GPa) = 17.51924 37.71607 27.61765
# Shear Modulus (GPa) = 3.47391 17.87975 10.67683
#
# Velocity S-wave (km/s) = 1.32640 3.00917 2.32534
# Velocity P-wave (km/s) = 3.34937 5.58341 4.60395
#
# Compressibility (1/GPa) = 0.05708009
#
# Stress axis : x y z
#
# Youngs Moduli (GPa) = 24.45345 44.97833 89.57335
#
# Poissons Ratio (x) = 0.41706 -0.43795
# Poissons Ratio (y) = 0.22674 0.37820
# Poissons Ratio (z) = -0.11956 0.18991
#
# Static dielectric constant tensor:
#      x y z
#    x 3.254810 0.000000 0.041660 
#    y 0.000000 3.356610 0.000000 
#    z 0.041660 0.000000 4.345280 
# 
# 
# High freq. dielectric constant tensor:
#      x y z
#    x 1.732880 0.000000 -0.004670 
#    y 0.000000 1.743420 0.000000 
#    z -0.004670 0.000000 1.804540 
# 
# From -- ./inp_files/33482.got.cif
#   From: 2010.06.25/outbox.cif.g09.slc.cpg/sg10_17_cif.got.tgz:33482.got - 2010.06.27 22:07:45.
