data_PCOD8066472
_publ_section_title
;
Structure prediction by ZEFSAII (Michael W. Deem and Ramdas Pophale) SiO2 
 PCOD8066472
Probable space group: P 2/M
;
_chemical_formula_sum "Si O2"
_cell_formula_units_Z 32
_cell_length_a 14.213289
_cell_length_b 9.067944
_cell_length_c 12.533258
_cell_angle_alpha 90.000000
_cell_angle_beta 85.873525
_cell_angle_gamma 90.000000
_cell_volume 1611.165249
_symmetry_space_group_name_H-M "P 2/M"
_symmetry_group_IT_number 10
_symmetry_cell_setting 'monoclinic'
loop_
_space_group_symop_operation_xyz
x,y,z
-x,y,-z
-x,-y,-z
x,-y,z
loop_
_atom_site_type_symbol
_atom_site_label
_atom_site_fract_x
_atom_site_fract_y
_atom_site_fract_z
Si Si1 0.381489 0.328492 0.271228
Si Si2 0.253441 0.827712 0.854097
Si Si3 0.248818 0.325144 0.637537
Si Si4 0.531672 0.172404 0.114414
Si Si5 0.174018 0.671080 0.236447
Si Si6 0.609769 0.833201 0.510509
Si Si7 0.901090 0.826812 0.960620
Si Si8 0.103780 0.324901 0.469846
O O1 0.401953 0.500000 0.287902
O O2 0.470528 0.257693 0.206142
O O3 0.286133 0.303798 0.210749
O O4 0.363167 0.255830 0.386612
O O5 0.220558 0.732246 0.756162
O O6 0.359342 0.786145 0.879763
O O7 0.244695 0.000000 0.826983
O O8 0.184316 0.781906 0.955061
O O9 0.261417 0.500000 0.638412
O O10 0.346278 0.248116 0.595536
O O11 0.170012 0.271101 0.560499
O O12 0.512873 0.000000 0.132947
O O13 0.500000 0.223850 0.000000
O O14 0.148193 0.500000 0.230312
O O15 0.114895 0.754304 0.152190
O O16 0.142535 0.734927 0.354012
O O17 0.500000 0.833710 0.500000
O O18 0.648254 0.000000 0.516820
O O19 0.904891 0.000000 0.942074
O O20 0.000000 0.768863 0.000000
O O21 0.102378 0.500000 0.467571
O O22 0.000000 0.260156 0.500000
#
# Coordination Sequence:
#
# PCOD8066472 Si02
#       8
#     4   4   4   4   4   4   4   4
#     4  11  22  37  58  87 120 151 191 247 299 344
#     4  10  22  40  59  84 122 158 195 244 295 355
#     4  11  22  38  61  89 121 155 196 244 296 349
#     4  10  21  38  60  84 113 158 206 242 292 359
#     4  10  21  39  62  89 120 152 196 246 295 356
#     4  11  23  38  57  83 117 159 200 235 285 353
#     4  10  23  42  63  88 120 157 198 248 300 348
#     4   9  19  37  60  86 118 155 192 239 296 352
#
# _framework density 19.861401999999998
#
# number of rings (size 3 to 8) (size 9 to 14) (size 15 to 20)
#    0.000    1.750    1.250    2.625    1.750    7.500 
#    0.000    0.000    0.000    1.875    0.000    0.000 
#    0.000    0.000    0.000    0.000    0.000    0.000 
#
# Total GULP energy -396940.923075 kJ/mol
# GULP energy per Si atom -12404.403846 kJ/mol
# Density = 1.981620 g / cm^3
# Si number density = 19.861402 Si / 1000 Ang^3
#
#
#
# Elastic Constant Matrix: (Units=GPa)
#
#
# Indices 1 2 3 4 5 6 
#
# 1 123.8172 37.2355 54.1521 0.0000 -1.5992 0.0000
# 2 37.2355 61.4985 42.9340 0.0000 3.3836 0.0000
# 3 54.1521 42.9340 129.0988 0.0000 11.9325 0.0000
# 4 0.0000 0.0000 0.0000 35.7690 0.0000 6.3083
# 5 -1.5992 3.3836 11.9325 0.0000 35.7268 0.0000
# 6 0.0000 0.0000 0.0000 6.3083 0.0000 16.6291
#
#
#
# Elastic Compliance Matrix: (Units=1/GPa)
#
#
# Indices 1 2 3 4 5 6 
#
# 1 0.010857 -0.004396 -0.003277 0.000000 0.001997 0.000000
# 2 -0.004396 0.022962 -0.005751 0.000000 -0.000451 0.000000
# 3 -0.003277 -0.005751 0.011347 0.000000 -0.003392 0.000000
# 4 0.000000 0.000000 0.000000 0.029962 0.000000 -0.011366
# 5 0.001997 -0.000451 -0.003392 0.000000 0.029255 0.000000
# 6 0.000000 0.000000 0.000000 -0.011366 0.000000 0.064447
#
#
# Mechanical properties :
#
#
# Convention : Reuss Voigt Hill
#
# Bulk Modulus (GPa) = 54.58960 64.78419 59.68690
# Shear Modulus (GPa) = 24.77909 29.63118 27.20513
#
# Velocity S-wave (km/s) = 3.53597 3.86670 3.70503
# Velocity P-wave (km/s) = 6.64949 7.25425 6.95844
#
# Compressibility (1/GPa) = 0.01831851
#
# Stress axis : x y z
#
# Youngs Moduli (GPa) = 92.10327 43.55068 88.13288
#
# Poissons Ratio (x) = 0.19145 0.28880
# Poissons Ratio (y) = 0.40489 0.50683
# Poissons Ratio (z) = 0.30181 0.25045
#
# Static dielectric constant tensor:
#      x y z
#    x 3.771730 0.000000 0.013360 
#    y 0.000000 3.470220 0.000000 
#    z 0.013360 0.000000 3.776300 
# 
# 
# High freq. dielectric constant tensor:
#      x y z
#    x 1.785400 0.000000 0.000070 
#    y 0.000000 1.760160 0.000000 
#    z 0.000070 0.000000 1.783880 
# 
# From -- ./inp_files/49879.got.cif
#   From: 2010.06.25/outbox.cif.g09.slc.cpg/sg10_25_cif.got.tgz:49879.got - 2010.06.27 22:07:45.
