data_PCOD8066672
_publ_section_title
;
Structure prediction by ZEFSAII (Michael W. Deem and Ramdas Pophale) SiO2 
 PCOD8066672
Probable space group: P 2/M
;
_chemical_formula_sum "Si O2"
_cell_formula_units_Z 32
_cell_length_a 14.441885
_cell_length_b 8.507883
_cell_length_c 24.546995
_cell_angle_alpha 90.000000
_cell_angle_beta 148.688002
_cell_angle_gamma 90.000000
_cell_volume 1567.453964
_symmetry_space_group_name_H-M "P 2/M"
_symmetry_group_IT_number 10
_symmetry_cell_setting 'monoclinic'
loop_
_space_group_symop_operation_xyz
x,y,z
-x,y,-z
-x,-y,-z
x,-y,z
loop_
_atom_site_type_symbol
_atom_site_label
_atom_site_fract_x
_atom_site_fract_y
_atom_site_fract_z
Si Si1 0.992469 0.318731 0.166127
Si Si2 0.736693 0.686370 0.219459
Si Si3 0.575055 0.315368 0.478779
Si Si4 0.170904 0.315629 0.615049
Si Si5 0.299636 0.816910 0.256245
Si Si6 0.366628 0.183892 0.056953
Si Si7 0.051992 0.816439 0.310147
Si Si8 0.468298 0.817272 0.228638
O O1 0.008865 0.500000 0.191382
O O2 0.124254 0.281994 0.182502
O O3 0.060364 0.212439 0.249982
O O4 0.791645 0.281627 0.049077
O O5 0.710801 0.500000 0.205069
O O6 0.815557 0.747881 0.316496
O O7 0.545601 0.768333 0.114800
O O8 0.868620 0.740588 0.238559
O O9 0.500000 0.265434 0.500000
O O10 0.554258 0.500000 0.458659
O O11 0.466509 0.225062 0.378025
O O12 0.780923 0.266280 0.576678
O O13 0.146179 0.500000 0.604126
O O14 0.346991 0.273882 0.669740
O O15 0.000000 0.236913 0.500000
O O16 0.340266 0.772680 0.214067
O O17 0.256438 0.000000 0.240534
O O18 0.377501 0.232398 0.126031
O O19 0.329284 0.000000 0.030754
O O20 0.057125 0.000000 0.325657
O O21 0.515138 0.000000 0.251478
#
# Coordination Sequence:
#
# PCOD8066672 Si02
#       8
#     4   4   4   4   4   4   4   4
#     4  12  25  42  63  90 120 157 204 253 305 358
#     4  10  21  39  61  89 125 159 199 249 301 357
#     4  11  23  40  62  88 123 163 201 248 304 356
#     4   9  19  35  56  85 118 158 200 242 294 354
#     4  11  23  40  62  92 124 160 204 247 299 360
#     4  10  21  42  66  89 121 160 201 251 305 355
#     4  12  25  41  63  91 122 160 204 248 301 364
#     4   9  21  39  60  88 121 157 198 247 299 354
#
# _framework density 20.415272999999999
#
# number of rings (size 3 to 8) (size 9 to 14) (size 15 to 20)
#    0.000    1.500    1.250    3.750    1.750    3.750 
#    0.000    5.000    0.000    0.000    0.000    0.000 
#    0.000    0.000    0.000    0.000    0.000    0.000 
#
# Total GULP energy -396979.336808 kJ/mol
# GULP energy per Si atom -12405.604275 kJ/mol
# Density = 2.036881 g / cm^3
# Si number density = 20.415273 Si / 1000 Ang^3
#
#
#
# Elastic Constant Matrix: (Units=GPa)
#
#
# Indices 1 2 3 4 5 6 
#
# 1 87.8757 19.4826 12.6956 0.0000 17.2033 0.0000
# 2 19.4826 49.0535 14.0614 0.0000 -0.0526 0.0000
# 3 12.6956 14.0614 87.3899 0.0000 23.2428 0.0000
# 4 0.0000 0.0000 0.0000 26.8839 0.0000 5.7118
# 5 17.2033 -0.0526 23.2428 0.0000 26.1197 0.0000
# 6 0.0000 0.0000 0.0000 5.7118 0.0000 32.7186
#
#
#
# Elastic Compliance Matrix: (Units=1/GPa)
#
#
# Indices 1 2 3 4 5 6 
#
# 1 0.014771 -0.006435 0.001940 0.000000 -0.011468 0.000000
# 2 -0.006435 0.024510 -0.005436 0.000000 0.009125 0.000000
# 3 0.001940 -0.005436 0.016216 0.000000 -0.015719 0.000000
# 4 0.000000 0.000000 0.000000 0.038630 0.000000 -0.006744
# 5 -0.011468 0.009125 -0.015719 0.000000 0.059844 0.000000
# 6 0.000000 0.000000 0.000000 -0.006744 0.000000 0.031741
#
#
# Mechanical properties :
#
#
# Convention : Reuss Voigt Hill
#
# Bulk Modulus (GPa) = 28.06229 35.19983 31.63106
# Shear Modulus (GPa) = 22.99349 29.01638 26.00494
#
# Velocity S-wave (km/s) = 3.35966 3.77411 3.57290
# Velocity P-wave (km/s) = 5.36893 6.02256 5.70511
#
# Compressibility (1/GPa) = 0.03563502
#
# Stress axis : x y z
#
# Youngs Moduli (GPa) = 67.69942 40.80028 61.66561
#
# Poissons Ratio (x) = 0.26255 -0.11960
# Poissons Ratio (y) = 0.43564 0.33520
# Poissons Ratio (z) = -0.13130 0.22178
#
# Static dielectric constant tensor:
#      x y z
#    x 3.797860 0.000000 -0.025540 
#    y 0.000000 3.634760 0.000000 
#    z -0.025540 0.000000 3.787670 
# 
# 
# High freq. dielectric constant tensor:
#      x y z
#    x 1.801140 0.000000 0.006500 
#    y 0.000000 1.800470 0.000000 
#    z 0.006500 0.000000 1.800710 
# 
# From -- ./inp_files/89633.got.cif
#   From: 2010.06.25/outbox.cif.g09.slc.cpg/sg10_45_cif.got.tgz:89633.got - 2010.06.27 22:07:45.
