data_PCOD8066368
_publ_section_title
;
Structure prediction by ZEFSAII (Michael W. Deem and Ramdas Pophale) SiO2 
 PCOD8066368
Probable space group: P 2/M
;
_chemical_formula_sum "Si O2"
_cell_formula_units_Z 14
_cell_length_a 13.961497
_cell_length_b 10.077633
_cell_length_c 5.253038
_cell_angle_alpha 90.000000
_cell_angle_beta 95.077949
_cell_angle_gamma 90.000000
_cell_volume 736.195566
_symmetry_space_group_name_H-M "P 2/M"
_symmetry_group_IT_number 10
_symmetry_cell_setting 'monoclinic'
loop_
_space_group_symop_operation_xyz
x,y,z
-x,y,-z
-x,-y,-z
x,-y,z
loop_
_atom_site_type_symbol
_atom_site_label
_atom_site_fract_x
_atom_site_fract_y
_atom_site_fract_z
Si Si1 0.563889 0.500000 0.264980
Si Si2 0.283650 0.270366 0.687380
Si Si3 0.099556 0.350837 0.402795
Si Si4 0.776060 0.151121 0.817721
O O1 0.500000 0.500000 0.500000
O O2 0.627895 0.369209 0.278676
O O3 0.500000 0.500000 0.000000
O O4 0.182709 0.350223 0.638965
O O5 0.294521 0.175544 0.441278
O O6 0.282854 0.182505 0.941402
O O7 0.088891 0.500000 0.288809
O O8 0.130484 0.248182 0.186119
O O9 0.000000 0.301259 0.500000
O O10 0.812169 0.000000 0.831005
#
# Coordination Sequence:
#
# PCOD8066368 Si02
#       4
#     2   4   4   4
#     4  12  24  40  69  95 117 151 200 258 308 359
#     4  10  21  39  60  89 121 151 203 248 295 358
#     4   9  20  37  61  89 124 163 203 249 294 346
#     4  10  21  37  62  86 127 168 196 239 295 358
#
# _framework density 19.016684999999999
#
# number of rings (size 3 to 8) (size 9 to 14) (size 15 to 20)
#    1.714    0.286    1.429    2.571    2.000    1.714 
#    0.000    4.286    0.000   17.143    0.000    0.000 
#    0.000    0.000    0.000    0.000    0.000    0.000 
#
# Total GULP energy -173471.309154 kJ/mol
# GULP energy per Si atom -12390.807797 kJ/mol
# Density = 1.897340 g / cm^3
# Si number density = 19.016685 Si / 1000 Ang^3
#
#
#
# Elastic Constant Matrix: (Units=GPa)
#
#
# Indices 1 2 3 4 5 6 
#
# 1 108.8003 42.4435 44.5210 0.0000 0.1092 0.0000
# 2 42.4435 134.6803 40.4608 0.0000 -20.3360 0.0000
# 3 44.5210 40.4608 135.4555 0.0000 -21.0155 0.0000
# 4 0.0000 0.0000 0.0000 24.5162 0.0000 -7.6710
# 5 0.1092 -20.3360 -21.0155 0.0000 23.2300 0.0000
# 6 0.0000 0.0000 0.0000 -7.6710 0.0000 5.9316
#
#
#
# Elastic Compliance Matrix: (Units=1/GPa)
#
#
# Indices 1 2 3 4 5 6 
#
# 1 0.012286 -0.003716 -0.004004 0.000000 -0.006933 0.000000
# 2 -0.003716 0.009997 -0.000470 0.000000 0.008344 0.000000
# 3 -0.004004 -0.000470 0.010211 0.000000 0.008845 0.000000
# 4 0.000000 0.000000 0.000000 0.068513 0.000000 0.088603
# 5 -0.006933 0.008344 0.008845 0.000000 0.058386 0.000000
# 6 0.000000 0.000000 0.000000 0.088603 0.000000 0.283172
#
#
# Mechanical properties :
#
#
# Convention : Reuss Voigt Hill
#
# Bulk Modulus (GPa) = 62.05638 70.42075 66.23857
# Shear Modulus (GPa) = 10.76850 27.50294 19.13572
#
# Velocity S-wave (km/s) = 2.38222 3.80709 3.17560
# Velocity P-wave (km/s) = 6.34587 7.51243 6.95366
#
# Compressibility (1/GPa) = 0.01611438
#
# Stress axis : x y z
#
# Youngs Moduli (GPa) = 81.39336 100.02838 97.93168
#
# Poissons Ratio (x) = 0.37169 0.39210
# Poissons Ratio (y) = 0.30244 0.04606
# Poissons Ratio (z) = 0.32588 0.04705
#
# Static dielectric constant tensor:
#      x y z
#    x 3.251140 0.000000 -0.059170 
#    y 0.000000 3.317100 0.000000 
#    z -0.059170 0.000000 3.433550 
# 
# 
# High freq. dielectric constant tensor:
#      x y z
#    x 1.717110 0.000000 -0.008520 
#    y 0.000000 1.735540 0.000000 
#    z -0.008520 0.000000 1.739490 
# 
# From -- ./inp_files/6090.got.cif
#   From: 2010.06.25/outbox.cif.g09.slc.cpg/sg10_4_cif.got.tgz:6090.got - 2010.06.27 22:07:45.
