data_PCOD8066812
_publ_section_title
;
Structure prediction by ZEFSAII (Michael W. Deem and Ramdas Pophale) SiO2 
 PCOD8066812
Probable space group: P 2/M
;
_chemical_formula_sum "Si O2"
_cell_formula_units_Z 20
_cell_length_a 9.712799
_cell_length_b 15.910599
_cell_length_c 13.961817
_cell_angle_alpha 90.000000
_cell_angle_beta 152.387892
_cell_angle_gamma 90.000000
_cell_volume 1000.016037
_symmetry_space_group_name_H-M "P 2/M"
_symmetry_group_IT_number 10
_symmetry_cell_setting 'monoclinic'
loop_
_space_group_symop_operation_xyz
x,y,z
-x,y,-z
-x,-y,-z
x,-y,z
loop_
_atom_site_type_symbol
_atom_site_label
_atom_site_fract_x
_atom_site_fract_y
_atom_site_fract_z
Si Si1 0.337931 0.500000 0.680190
Si Si2 0.204196 0.500000 0.379605
Si Si3 0.252162 0.095523 0.580294
Si Si4 0.689494 0.371670 0.019691
Si Si5 0.818117 0.095020 0.676844
Si Si6 0.793764 0.209396 0.960381
O O1 0.349021 0.500000 0.573346
O O2 0.500508 0.419061 0.822822
O O3 0.000000 0.500000 0.500000
O O4 0.500000 0.500000 0.500000
O O5 0.000930 0.417914 0.235277
O O6 0.094288 0.102206 0.380087
O O7 0.493479 0.169421 0.734171
O O8 0.000000 0.117115 0.500000
O O9 0.379005 0.000000 0.673350
O O10 0.749905 0.281949 0.011072
O O11 0.500000 0.364111 0.000000
O O12 0.500000 0.139194 0.500000
O O13 0.796795 0.000000 0.699660
O O14 0.064749 0.134127 0.894678
O O15 0.000000 0.241468 0.000000
#
# Coordination Sequence:
#
# PCOD8066812 Si02
#       6
#     2   2   4   4   4   4
#     4  11  21  47  75  88 121 173 205 248 311 371
#     4  11  25  45  73  97 123 165 207 253 308 372
#     4  10  23  42  63  90 124 168 219 261 308 371
#     4  11  26  44  65  99 128 160 213 252 306 388
#     4  10  21  40  64  88 122 170 219 260 306 368
#     4  12  26  40  62  95 132 165 204 264 319 363
#
# _framework density 19.999680000000001
#
# number of rings (size 3 to 8) (size 9 to 14) (size 15 to 20)
#    0.000    1.200    4.000    1.200    5.600    4.800 
#    0.000    3.000    0.000    0.000    0.000    0.000 
#    0.000    0.000    0.000    0.000    0.000    0.000 
#
# Total GULP energy -247961.159914 kJ/mol
# GULP energy per Si atom -12398.057996 kJ/mol
# Density = 1.995416 g / cm^3
# Si number density = 19.999680 Si / 1000 Ang^3
#
#
#
# Elastic Constant Matrix: (Units=GPa)
#
#
# Indices 1 2 3 4 5 6 
#
# 1 166.5132 38.9340 51.0243 0.0000 0.6840 0.0000
# 2 38.9340 82.7387 36.2393 0.0000 -2.7678 0.0000
# 3 51.0243 36.2393 104.7928 0.0000 -10.9217 0.0000
# 4 0.0000 0.0000 0.0000 5.4799 0.0000 -8.0698
# 5 0.6840 -2.7678 -10.9217 0.0000 35.8656 0.0000
# 6 0.0000 0.0000 0.0000 -8.0698 0.0000 29.2746
#
#
#
# Elastic Compliance Matrix: (Units=1/GPa)
#
#
# Indices 1 2 3 4 5 6 
#
# 1 0.007447 -0.002241 -0.002979 0.000000 -0.001222 0.000000
# 2 -0.002241 0.014924 -0.004075 0.000000 -0.000046 0.000000
# 3 -0.002979 -0.004075 0.012781 0.000000 0.003634 0.000000
# 4 0.000000 0.000000 0.000000 0.307189 0.000000 0.084680
# 5 -0.001222 -0.000046 0.003634 0.000000 0.029008 0.000000
# 6 0.000000 0.000000 0.000000 0.084680 0.000000 0.057502
#
#
# Mechanical properties :
#
#
# Convention : Reuss Voigt Hill
#
# Bulk Modulus (GPa) = 60.37260 67.38221 63.87740
# Shear Modulus (GPa) = 11.03850 29.31383 20.17616
#
# Velocity S-wave (km/s) = 2.35188 3.83262 3.17964
# Velocity P-wave (km/s) = 6.13412 7.30411 6.74453
#
# Compressibility (1/GPa) = 0.01656381
#
# Stress axis : x y z
#
# Youngs Moduli (GPa) = 134.27909 67.00698 78.24211
#
# Poissons Ratio (x) = 0.15014 0.23305
# Poissons Ratio (y) = 0.30087 0.31882
# Poissons Ratio (z) = 0.39996 0.27304
#
# Static dielectric constant tensor:
#      x y z
#    x 3.914570 0.000000 0.133060 
#    y 0.000000 3.584530 0.000000 
#    z 0.133060 0.000000 3.471310 
# 
# 
# High freq. dielectric constant tensor:
#      x y z
#    x 1.799040 0.000000 -0.008620 
#    y 0.000000 1.773050 0.000000 
#    z -0.008620 0.000000 1.787370 
# 
# From -- ./inp_files/43434.got.cif
#   From: 2010.06.25/outbox.cif.g09.slc.cpg/sg10_22_cif.got.tgz:43434.got - 2010.06.27 22:07:45.
