data_PCOD8066282
_publ_section_title
;
Structure prediction by ZEFSAII (Michael W. Deem and Ramdas Pophale) SiO2 
 PCOD8066282
Probable space group: P 2/M
;
_chemical_formula_sum "Si O2"
_cell_formula_units_Z 32
_cell_length_a 24.367282
_cell_length_b 8.925993
_cell_length_c 16.051183
_cell_angle_alpha 90.000000
_cell_angle_beta 26.431646
_cell_angle_gamma 90.000000
_cell_volume 1554.022790
_symmetry_space_group_name_H-M "P 2/M"
_symmetry_group_IT_number 10
_symmetry_cell_setting 'monoclinic'
loop_
_space_group_symop_operation_xyz
x,y,z
-x,y,-z
-x,-y,-z
x,-y,z
loop_
_atom_site_type_symbol
_atom_site_label
_atom_site_fract_x
_atom_site_fract_y
_atom_site_fract_z
Si Si1 0.231355 0.827521 0.542375
Si Si2 0.556797 0.671178 0.837217
Si Si3 0.002409 0.172366 0.249934
Si Si4 0.100993 0.174943 0.431231
Si Si5 0.321433 0.670844 0.047050
Si Si6 0.589532 0.822982 0.230712
Si Si7 0.672736 0.326273 0.429612
Si Si8 0.248179 0.327066 0.861052
O O1 0.327733 0.773990 0.341806
O O2 0.095522 0.805166 0.690459
O O3 0.241069 0.730442 0.612864
O O4 0.258021 0.000000 0.527231
O O5 0.601386 0.500000 0.788409
O O6 0.500000 0.733232 0.000000
O O7 0.458139 0.683365 0.897841
O O8 0.946338 0.225045 0.413998
O O9 0.045674 0.000000 0.197050
O O10 0.118183 0.274763 0.072884
O O11 0.225512 0.264734 0.243930
O O12 0.000000 0.218594 0.500000
O O13 0.132421 0.000000 0.386375
O O14 0.286838 0.500000 0.073981
O O15 0.317039 0.765360 0.967815
O O16 0.453346 0.764405 0.399546
O O17 0.639231 0.764345 0.251444
O O18 0.588659 0.000000 0.231772
O O19 0.640627 0.500000 0.487320
O O20 0.748260 0.299174 0.242507
O O21 0.267901 0.500000 0.856416
#
# Coordination Sequence:
#
# PCOD8066282 Si02
#       8
#     4   4   4   4   4   4   4   4
#     4  11  23  39  62  91 125 168 211 258 315 372
#     4  10  21  37  58  86 121 162 205 253 307 364
#     4  10  23  42  62  91 130 168 211 263 314 370
#     4  10  21  38  60  87 122 166 211 257 311 368
#     4  11  22  36  59  90 124 162 204 252 306 367
#     4  12  24  40  65  95 128 163 203 256 318 381
#     4  11  24  43  65  92 126 162 207 263 317 375
#     4  11  25  43  66  93 122 162 209 260 319 377
#
# _framework density 20.591718
#
# number of rings (size 3 to 8) (size 9 to 14) (size 15 to 20)
#    0.000    1.250    1.250    4.500    0.000    7.500 
#    0.000    2.500    0.000    0.000    0.000    0.000 
#    0.000    0.000    0.000    0.000    0.000    0.000 
#
# Total GULP energy -397047.856222 kJ/mol
# GULP energy per Si atom -12407.745507 kJ/mol
# Density = 2.054485 g / cm^3
# Si number density = 20.591718 Si / 1000 Ang^3
#
#
#
# Elastic Constant Matrix: (Units=GPa)
#
#
# Indices 1 2 3 4 5 6 
#
# 1 99.1661 45.2042 24.1120 0.0000 14.5615 0.0000
# 2 45.2042 123.7995 46.7354 0.0000 8.6197 0.0000
# 3 24.1120 46.7354 83.9691 0.0000 10.0866 0.0000
# 4 0.0000 0.0000 0.0000 31.2421 0.0000 2.8627
# 5 14.5615 8.6197 10.0866 0.0000 33.9019 0.0000
# 6 0.0000 0.0000 0.0000 2.8627 0.0000 33.0513
#
#
#
# Elastic Compliance Matrix: (Units=1/GPa)
#
#
# Indices 1 2 3 4 5 6 
#
# 1 0.012754 -0.004017 -0.000924 0.000000 -0.004182 0.000000
# 2 -0.004017 0.011520 -0.005303 0.000000 0.000374 0.000000
# 3 -0.000924 -0.005303 0.015470 0.000000 -0.002857 0.000000
# 4 0.000000 0.000000 0.000000 0.032264 0.000000 -0.002795
# 5 -0.004182 0.000374 -0.002857 0.000000 0.032048 0.000000
# 6 0.000000 0.000000 0.000000 -0.002795 0.000000 0.030498
#
#
# Mechanical properties :
#
#
# Convention : Reuss Voigt Hill
#
# Bulk Modulus (GPa) = 51.93577 59.89310 55.91443
# Shear Modulus (GPa) = 30.96715 32.36462 31.66588
#
# Velocity S-wave (km/s) = 3.88218 3.96881 3.92573
# Velocity P-wave (km/s) = 6.73584 7.08174 6.91095
#
# Compressibility (1/GPa) = 0.01925455
#
# Stress axis : x y z
#
# Youngs Moduli (GPa) = 78.40708 86.80289 64.64310
#
# Poissons Ratio (x) = 0.34868 0.05975
# Poissons Ratio (y) = 0.31495 0.34283
# Poissons Ratio (z) = 0.07247 0.46036
#
# Static dielectric constant tensor:
#      x y z
#    x 3.863750 0.000000 0.150060 
#    y 0.000000 3.737110 0.000000 
#    z 0.150060 0.000000 3.654920 
# 
# 
# High freq. dielectric constant tensor:
#      x y z
#    x 1.817090 0.000000 0.008590 
#    y 0.000000 1.809070 0.000000 
#    z 0.008590 0.000000 1.807300 
# 
# From -- ./inp_files/71548.got.cif
#   From: 2010.06.25/outbox.cif.g09.slc.cpg/sg10_36_cif.got.tgz:71548.got - 2010.06.27 22:07:45.
