data_PCOD8066213
_publ_section_title
;
Structure prediction by ZEFSAII (Michael W. Deem and Ramdas Pophale) SiO2 
 PCOD8066213
Probable space group: P 2/M
;
_chemical_formula_sum "Si O2"
_cell_formula_units_Z 28
_cell_length_a 11.153924
_cell_length_b 9.814978
_cell_length_c 15.096070
_cell_angle_alpha 90.000000
_cell_angle_beta 59.149068
_cell_angle_gamma 90.000000
_cell_volume 1418.807355
_symmetry_space_group_name_H-M "P 2/M"
_symmetry_group_IT_number 10
_symmetry_cell_setting 'monoclinic'
loop_
_space_group_symop_operation_xyz
x,y,z
-x,y,-z
-x,-y,-z
x,-y,z
loop_
_atom_site_type_symbol
_atom_site_label
_atom_site_fract_x
_atom_site_fract_y
_atom_site_fract_z
Si Si1 0.836733 0.155158 0.351938
Si Si2 0.149894 0.843738 0.973918
Si Si3 0.620336 0.645354 0.176985
Si Si4 0.684300 0.339861 0.753285
Si Si5 0.142250 0.841617 0.184111
Si Si6 0.702725 0.151934 0.583176
Si Si7 0.439054 0.717986 0.612388
O O1 0.820523 0.172150 0.463630
O O2 0.717265 0.231980 0.344005
O O3 0.987769 0.211772 0.266834
O O4 0.826205 0.000000 0.325651
O O5 0.268531 0.763720 0.876207
O O6 0.165143 0.000000 0.938888
O O7 0.169468 0.824289 0.070269
O O8 0.000000 0.787101 0.000000
O O9 0.683413 0.500000 0.121855
O O10 0.482120 0.678087 0.172425
O O11 0.571544 0.623095 0.297608
O O12 0.727305 0.500000 0.735350
O O13 0.750056 0.260060 0.810496
O O14 0.734446 0.266263 0.644179
O O15 0.163597 0.000000 0.204899
O O16 0.549964 0.162807 0.594817
O O17 0.713544 0.000000 0.620576
O O18 0.500000 0.644085 0.500000
#
# Coordination Sequence:
#
# PCOD8066213 Si02
#       7
#     4   4   4   4   4   4   4
#     4   9  17  31  53  82 113 143 179 226 277 325
#     4  10  22  40  62  87 113 140 173 220 275 326
#     4  10  22  38  57  81 110 147 184 223 271 319
#     4  10  22  39  55  76 110 148 186 227 271 318
#     4  10  21  37  57  80 107 142 184 227 270 321
#     4   9  17  31  55  84 111 143 182 224 271 326
#     4   9  17  31  54  85 116 143 176 221 273 327
#
# _framework density 19.734884999999998
#
# number of rings (size 3 to 8) (size 9 to 14) (size 15 to 20)
#    0.000    2.429    0.000    1.714    0.000    8.571 
#    0.000   10.714    0.000    0.000    0.000    0.000 
#    0.000    0.000    0.000    0.000    0.000    0.000 
#
# Total GULP energy -347046.933363 kJ/mol
# GULP energy per Si atom -12394.533334 kJ/mol
# Density = 1.968997 g / cm^3
# Si number density = 19.734885 Si / 1000 Ang^3
#
#
#
# Elastic Constant Matrix: (Units=GPa)
#
#
# Indices 1 2 3 4 5 6 
#
# 1 107.0470 48.7301 39.6350 0.0000 1.8743 0.0000
# 2 48.7301 98.1470 40.0863 0.0000 -1.2647 0.0000
# 3 39.6350 40.0863 87.3550 0.0000 -7.0682 0.0000
# 4 0.0000 0.0000 0.0000 5.2705 0.0000 -10.0292
# 5 1.8743 -1.2647 -7.0682 0.0000 29.9134 0.0000
# 6 0.0000 0.0000 0.0000 -10.0292 0.0000 10.8283
#
#
#
# Elastic Compliance Matrix: (Units=1/GPa)
#
#
# Indices 1 2 3 4 5 6 
#
# 1 0.013033 -0.004943 -0.003800 0.000000 -0.001924 0.000000
# 2 -0.004943 0.014435 -0.004391 0.000000 -0.000117 0.000000
# 3 -0.003800 -0.004391 0.015487 0.000000 0.003712 0.000000
# 4 0.000000 0.000000 0.000000 -0.248838 0.000000 -0.230476
# 5 -0.001924 -0.000117 0.003712 0.000000 0.034423 0.000000
# 6 0.000000 0.000000 0.000000 -0.230476 0.000000 -0.121117
#
#
# Mechanical properties :
#
#
# Convention : Reuss Voigt Hill
#
# Bulk Modulus (GPa) = 59.93089 61.05020 60.49054
# Shear Modulus (GPa) = -19.17568 20.14226 0.48329
#
# Velocity S-wave (km/s) = -3.12053 3.19822 0.49540
# Velocity P-wave (km/s) = 4.17735 6.68135 5.57184
#
# Compressibility (1/GPa) = 0.01668589
#
# Stress axis : x y z
#
# Youngs Moduli (GPa) = 76.72914 69.27632 64.57003
#
# Poissons Ratio (x) = 0.34246 0.24540
# Poissons Ratio (y) = 0.37930 0.28350
# Poissons Ratio (z) = 0.29161 0.30417
#
# Static dielectric constant tensor:
#      x y z
#    x 3.606940 0.000000 -0.004920 
#    y 0.000000 3.409300 0.000000 
#    z -0.004920 0.000000 3.556890 
# 
# 
# High freq. dielectric constant tensor:
#      x y z
#    x 1.769040 0.000000 0.003980 
#    y 0.000000 1.754400 0.000000 
#    z 0.003980 0.000000 1.769300 
# 
# From -- ./inp_files/63638.got.cif
#   From: 2010.06.25/outbox.cif.g09.slc.cpg/sg10_32_cif.got.tgz:63638.got - 2010.06.27 22:07:45.
