data_PCOD8066000
_publ_section_title
;
Structure prediction by ZEFSAII (Michael W. Deem and Ramdas Pophale) SiO2 
 PCOD8066000
Probable space group: P 2/M
;
_chemical_formula_sum "Si O2"
_cell_formula_units_Z 28
_cell_length_a 9.829910
_cell_length_b 11.099483
_cell_length_c 16.799343
_cell_angle_alpha 90.000000
_cell_angle_beta 126.246871
_cell_angle_gamma 90.000000
_cell_volume 1478.211304
_symmetry_space_group_name_H-M "P 2/M"
_symmetry_group_IT_number 10
_symmetry_cell_setting 'monoclinic'
loop_
_space_group_symop_operation_xyz
x,y,z
-x,y,-z
-x,-y,-z
x,-y,z
loop_
_atom_site_type_symbol
_atom_site_label
_atom_site_fract_x
_atom_site_fract_y
_atom_site_fract_z
Si Si1 0.144908 0.638493 0.925321
Si Si2 0.389960 0.243288 0.125467
Si Si3 0.732775 0.358647 0.201254
Si Si4 0.612276 0.000000 0.960959
Si Si5 0.190228 0.758884 0.208789
Si Si6 0.009332 0.640721 0.415430
Si Si7 0.312068 0.360685 0.407101
Si Si8 0.999412 0.000000 0.903505
O O1 0.192529 0.500000 0.953777
O O2 0.225662 0.692458 0.871996
O O3 0.943541 0.653306 0.856314
O O4 0.220360 0.714525 0.023339
O O5 0.542490 0.332958 0.160428
O O6 0.349960 0.244994 0.205150
O O7 0.437546 0.111601 0.111762
O O8 0.763529 0.500000 0.207993
O O9 0.863608 0.300653 0.309600
O O10 0.806507 0.000000 0.056274
O O11 0.500000 0.000000 0.000000
O O12 0.263702 0.733682 0.321600
O O13 0.094835 0.885859 0.166967
O O14 0.970899 0.500000 0.410159
O O15 0.000000 0.700517 0.500000
O O16 0.191885 0.664376 0.440709
O O17 0.500000 0.332921 0.500000
O O18 0.293062 0.500000 0.371441
O O19 0.000000 0.000000 0.000000
#
# Coordination Sequence:
#
# PCOD8066000 Si02
#       8
#     4   4   4   2   4   4   4   2
#     4  11  21  36  55  82 122 159 194 240 299 365
#     4  12  24  36  56  87 120 158 203 246 292 359
#     4  10  21  36  54  83 122 157 194 242 300 360
#     4  12  24  40  62  86 115 160 211 252 292 344
#     4  12  23  39  62  86 118 161 202 249 303 356
#     4   9  18  35  58  82 115 158 197 242 301 362
#     4  10  22  39  61  92 123 152 198 256 310 366
#     4  12  22  46  63  86 122 162 208 252 296 354
#
# _framework density 18.941811000000001
#
# number of rings (size 3 to 8) (size 9 to 14) (size 15 to 20)
#    0.000    1.143    4.286    2.571    2.000    4.000 
#    0.000    0.357    0.000    0.000    0.000    1.000 
#    0.000    0.000    0.000    0.000    0.000    0.000 
#
# Total GULP energy -347253.799979 kJ/mol
# GULP energy per Si atom -12401.921428 kJ/mol
# Density = 1.889870 g / cm^3
# Si number density = 18.941811 Si / 1000 Ang^3
#
#
#
# Elastic Constant Matrix: (Units=GPa)
#
#
# Indices 1 2 3 4 5 6 
#
# 1 127.7825 16.6164 39.2485 0.0000 -10.8435 0.0000
# 2 16.6164 54.8228 33.4231 0.0000 -9.3002 0.0000
# 3 39.2485 33.4231 108.1490 0.0000 -6.2352 0.0000
# 4 0.0000 0.0000 0.0000 23.3611 0.0000 -0.1290
# 5 -10.8435 -9.3002 -6.2352 0.0000 37.4224 0.0000
# 6 0.0000 0.0000 0.0000 -0.1290 0.0000 21.9507
#
#
#
# Elastic Compliance Matrix: (Units=1/GPa)
#
#
# Indices 1 2 3 4 5 6 
#
# 1 0.008979 -0.000580 -0.002966 0.000000 0.001963 0.000000
# 2 -0.000580 0.023279 -0.006724 0.000000 0.004497 0.000000
# 3 -0.002966 -0.006724 0.012374 0.000000 -0.000469 0.000000
# 4 0.000000 0.000000 0.000000 0.042808 0.000000 0.000251
# 5 0.001963 0.004497 -0.000469 0.000000 0.028330 0.000000
# 6 0.000000 0.000000 0.000000 0.000251 0.000000 0.045558
#
#
# Mechanical properties :
#
#
# Convention : Reuss Voigt Hill
#
# Bulk Modulus (GPa) = 41.51011 52.14783 46.82897
# Shear Modulus (GPa) = 26.32976 29.97793 28.15384
#
# Velocity S-wave (km/s) = 3.73236 3.98255 3.85948
# Velocity P-wave (km/s) = 6.36680 6.98125 6.68109
#
# Compressibility (1/GPa) = 0.02409052
#
# Stress axis : x y z
#
# Youngs Moduli (GPa) = 111.37255 42.95746 80.81411
#
# Poissons Ratio (x) = 0.02492 0.23970
# Poissons Ratio (y) = 0.06461 0.54343
# Poissons Ratio (z) = 0.33034 0.28887
#
# Static dielectric constant tensor:
#      x y z
#    x 3.575470 0.000000 -0.116060 
#    y 0.000000 3.294430 0.000000 
#    z -0.116060 0.000000 3.565640 
# 
# 
# High freq. dielectric constant tensor:
#      x y z
#    x 1.753670 0.000000 -0.002640 
#    y 0.000000 1.707700 0.000000 
#    z -0.002640 0.000000 1.729880 
# 
# From -- ./inp_files/61312.got.cif
#   From: 2010.06.25/outbox.cif.g09.slc.cpg/sg10_31_cif.got.tgz:61312.got - 2010.06.27 22:07:45.
