data_PCOD8066180
_publ_section_title
;
Structure prediction by ZEFSAII (Michael W. Deem and Ramdas Pophale) SiO2 
 PCOD8066180
Probable space group: P 2/M
;
_chemical_formula_sum "Si O2"
_cell_formula_units_Z 32
_cell_length_a 24.279112
_cell_length_b 10.185306
_cell_length_c 23.298692
_cell_angle_alpha 90.000000
_cell_angle_beta 16.772198
_cell_angle_gamma 90.000000
_cell_volume 1662.591058
_symmetry_space_group_name_H-M "P 2/M"
_symmetry_group_IT_number 10
_symmetry_cell_setting 'monoclinic'
loop_
_space_group_symop_operation_xyz
x,y,z
-x,y,-z
-x,-y,-z
x,-y,z
loop_
_atom_site_type_symbol
_atom_site_label
_atom_site_fract_x
_atom_site_fract_y
_atom_site_fract_z
Si Si1 0.358081 0.150073 0.718077
Si Si2 0.622099 0.350553 0.604604
Si Si3 0.082517 0.847018 0.637252
Si Si4 0.709438 0.156673 0.791974
Si Si5 0.783872 0.255718 0.022099
Si Si6 0.770187 0.153992 0.273528
Si Si7 0.995671 0.155453 0.411899
Si Si8 0.889934 0.641210 0.235661
O O1 0.284015 0.171812 0.855645
O O2 0.566181 0.211439 0.498702
O O3 0.209346 0.187964 0.814964
O O4 0.402586 0.000000 0.663606
O O5 0.652687 0.500000 0.597333
O O6 0.396260 0.319088 0.830500
O O7 0.697295 0.339124 0.464625
O O8 0.735294 0.242773 0.529067
O O9 0.013989 0.794213 0.643562
O O10 0.147298 0.000000 0.571783
O O11 0.903509 0.834707 0.858889
O O12 0.813525 0.206061 0.746302
O O13 0.816334 0.206742 0.628094
O O14 0.702821 0.000000 0.798441
O O15 0.500000 0.219234 0.000000
O O16 0.928981 0.364725 0.901678
O O17 0.920052 0.240742 0.160466
O O18 0.810820 0.000000 0.245997
O O19 0.995518 0.000000 0.411740
O O20 0.882477 0.500000 0.211368
#
# Coordination Sequence:
#
# PCOD8066180 Si02
#       8
#     4   4   4   4   4   4   4   4
#     4   9  18  33  54  78 103 134 171 213 266 327
#     4  10  22  40  58  75 105 149 189 226 271 328
#     4  10  22  36  55  85 116 144 180 231 279 320
#     4   8  13  23  44  70 104 150 183 208 254 315
#     4  11  21  36  55  79 105 141 181 222 272 327
#     4   9  18  35  56  77 102 132 169 215 267 327
#     4   8  15  28  43  71 112 144 176 217 263 314
#     4  10  21  37  56  79 103 130 171 223 275 325
#
# _framework density 19.247067000000001
#
# number of rings (size 3 to 8) (size 9 to 14) (size 15 to 20)
#    0.000    2.625    1.250    2.250    0.000    5.500 
#    0.000    6.875    0.000    0.000    0.000    1.750 
#    0.000    5.000    0.000    0.000    0.000    0.000 
#
# Total GULP energy -396448.941694 kJ/mol
# GULP energy per Si atom -12389.029428 kJ/mol
# Density = 1.920326 g / cm^3
# Si number density = 19.247067 Si / 1000 Ang^3
#
#
#
# Elastic Constant Matrix: (Units=GPa)
#
#
# Indices 1 2 3 4 5 6 
#
# 1 141.4692 50.2146 51.0656 0.0000 1.8968 0.0000
# 2 50.2146 82.6639 28.1398 0.0000 -9.9928 0.0000
# 3 51.0656 28.1398 94.7726 0.0000 -12.9302 0.0000
# 4 0.0000 0.0000 0.0000 5.6607 0.0000 -7.4693
# 5 1.8968 -9.9928 -12.9302 0.0000 24.6457 0.0000
# 6 0.0000 0.0000 0.0000 -7.4693 0.0000 5.4562
#
#
#
# Elastic Compliance Matrix: (Units=1/GPa)
#
#
# Indices 1 2 3 4 5 6 
#
# 1 0.010961 -0.005648 -0.005016 0.000000 -0.005765 0.000000
# 2 -0.005648 0.016674 -0.000997 0.000000 0.006672 0.000000
# 3 -0.005016 -0.000997 0.014592 0.000000 0.007637 0.000000
# 4 0.000000 0.000000 0.000000 -0.219097 0.000000 -0.299930
# 5 -0.005765 0.006672 0.007637 0.000000 0.047731 0.000000
# 6 0.000000 0.000000 0.000000 -0.299930 0.000000 -0.227309
#
#
# Mechanical properties :
#
#
# Convention : Reuss Voigt Hill
#
# Bulk Modulus (GPa) = 52.89428 64.19394 58.54411
# Shear Modulus (GPa) = -15.29879 19.78493 2.24307
#
# Velocity S-wave (km/s) = -2.82239 3.20964 1.08071
# Velocity P-wave (km/s) = 4.11342 6.86736 5.66043
#
# Compressibility (1/GPa) = 0.01890564
#
# Stress axis : x y z
#
# Youngs Moduli (GPa) = 91.23079 59.97324 68.52943
#
# Poissons Ratio (x) = 0.33873 0.34372
# Poissons Ratio (y) = 0.51527 0.06835
# Poissons Ratio (z) = 0.45759 0.05981
#
# Static dielectric constant tensor:
#      x y z
#    x 3.685020 0.000000 -0.069330 
#    y 0.000000 3.103880 0.000000 
#    z -0.069330 0.000000 3.669010 
# 
# 
# High freq. dielectric constant tensor:
#      x y z
#    x 1.742140 0.000000 -0.007240 
#    y 0.000000 1.705070 0.000000 
#    z -0.007240 0.000000 1.759550 
# 
# From -- ./inp_files/86260.got.cif
#   From: 2010.06.25/outbox.cif.g09.slc.cpg/sg10_44_cif.got.tgz:86260.got - 2010.06.27 22:07:45.
