data_PCOD8066219
_publ_section_title
;
Structure prediction by ZEFSAII (Michael W. Deem and Ramdas Pophale) SiO2 
 PCOD8066219
Probable space group: P 2/M
;
_chemical_formula_sum "Si O2"
_cell_formula_units_Z 28
_cell_length_a 13.629644
_cell_length_b 9.066232
_cell_length_c 13.582419
_cell_angle_alpha 90.000000
_cell_angle_beta 120.103300
_cell_angle_gamma 90.000000
_cell_volume 1451.998236
_symmetry_space_group_name_H-M "P 2/M"
_symmetry_group_IT_number 10
_symmetry_cell_setting 'monoclinic'
loop_
_space_group_symop_operation_xyz
x,y,z
-x,y,-z
-x,-y,-z
x,-y,z
loop_
_atom_site_type_symbol
_atom_site_label
_atom_site_fract_x
_atom_site_fract_y
_atom_site_fract_z
Si Si1 0.059271 0.668721 0.738755
Si Si2 0.624143 0.329143 0.602816
Si Si3 0.768324 0.174631 0.313961
Si Si4 0.810509 0.671066 0.539017
Si Si5 0.330938 0.825185 0.170987
Si Si6 0.107036 0.329871 0.989296
Si Si7 0.524423 0.824548 0.121250
O O1 0.087865 0.500000 0.725595
O O2 0.139811 0.775433 0.718776
O O3 0.076875 0.700282 0.861734
O O4 0.929885 0.706156 0.649347
O O5 0.500000 0.296149 0.500000
O O6 0.641274 0.500000 0.639004
O O7 0.712975 0.278997 0.564844
O O8 0.644266 0.232811 0.708494
O O9 0.800487 0.235047 0.436074
O O10 0.645456 0.235466 0.219425
O O11 0.768579 0.000000 0.318883
O O12 0.798232 0.500000 0.504964
O O13 0.428076 0.765229 0.146454
O O14 0.330343 0.000000 0.173434
O O15 0.211144 0.770828 0.071797
O O16 0.138358 0.500000 0.024930
O O17 0.000000 0.281550 0.000000
O O18 0.524548 0.000000 0.118531
O O19 0.500000 0.760919 0.000000
#
# Coordination Sequence:
#
# PCOD8066219 Si02
#       7
#     4   4   4   4   4   4   4
#     4  10  21  37  57  80 109 147 186 226 275 330
#     4  10  21  38  60  84 112 149 191 233 277 330
#     4  11  22  36  57  83 111 144 184 230 277 327
#     4  10  21  38  58  80 110 147 184 224 276 333
#     4  11  22  36  58  86 115 147 184 230 283 336
#     4  10  21  39  61  83 111 148 189 231 276 329
#     4   9  19  36  55  77 110 149 182 218 272 331
#
# _framework density 19.283770000000001
#
# number of rings (size 3 to 8) (size 9 to 14) (size 15 to 20)
#    0.000    1.857    0.000    3.857    0.000    7.429 
#    0.000    3.571    0.000    5.143    0.000    0.000 
#    0.000    0.000    0.000    0.000    0.000    0.000 
#
# Total GULP energy -347343.638486 kJ/mol
# GULP energy per Si atom -12405.129946 kJ/mol
# Density = 1.923988 g / cm^3
# Si number density = 19.283770 Si / 1000 Ang^3
#
#
#
# Elastic Constant Matrix: (Units=GPa)
#
#
# Indices 1 2 3 4 5 6 
#
# 1 164.3501 47.5579 70.2247 0.0000 -4.5461 0.0000
# 2 47.5579 58.0343 50.8052 0.0000 -1.1027 0.0000
# 3 70.2247 50.8052 140.5748 0.0000 -1.9956 0.0000
# 4 0.0000 0.0000 0.0000 32.4314 0.0000 -1.5324
# 5 -4.5461 -1.1027 -1.9956 0.0000 36.0243 0.0000
# 6 0.0000 0.0000 0.0000 -1.5324 0.0000 30.8971
#
#
#
# Elastic Compliance Matrix: (Units=1/GPa)
#
#
# Indices 1 2 3 4 5 6 
#
# 1 0.008579 -0.004788 -0.002544 0.000000 0.000795 0.000000
# 2 -0.004788 0.027881 -0.007687 0.000000 -0.000177 0.000000
# 3 -0.002544 -0.007687 0.011164 0.000000 0.000062 0.000000
# 4 0.000000 0.000000 0.000000 0.030907 0.000000 0.001533
# 5 0.000795 -0.000177 0.000062 0.000000 0.027857 0.000000
# 6 0.000000 0.000000 0.000000 0.001533 0.000000 0.032442
#
#
# Mechanical properties :
#
#
# Convention : Reuss Voigt Hill
#
# Bulk Modulus (GPa) = 56.86545 77.79277 67.32911
# Shear Modulus (GPa) = 28.61558 32.82864 30.72211
#
# Velocity S-wave (km/s) = 3.85635 4.13049 3.99577
# Velocity P-wave (km/s) = 7.02719 7.94837 7.50193
#
# Compressibility (1/GPa) = 0.01758537
#
# Stress axis : x y z
#
# Youngs Moduli (GPa) = 116.56195 35.86640 89.57721
#
# Poissons Ratio (x) = 0.17174 0.22788
# Poissons Ratio (y) = 0.55813 0.68859
# Poissons Ratio (z) = 0.29652 0.27571
#
# Static dielectric constant tensor:
#      x y z
#    x 3.738970 0.000000 -0.012150 
#    y 0.000000 3.343010 0.000000 
#    z -0.012150 0.000000 3.641270 
# 
# 
# High freq. dielectric constant tensor:
#      x y z
#    x 1.770520 0.000000 0.000430 
#    y 0.000000 1.732490 0.000000 
#    z 0.000430 0.000000 1.769240 
# 
# From -- ./inp_files/50043.got.cif
#   From: 2010.06.25/outbox.cif.g09.slc.cpg/sg10_26_cif.got.tgz:50043.got - 2010.06.27 22:07:45.
