data_PCOD8066248
_publ_section_title
;
Structure prediction by ZEFSAII (Michael W. Deem and Ramdas Pophale) SiO2 
 PCOD8066248
Probable space group: P 2/M
;
_chemical_formula_sum "Si O2"
_cell_formula_units_Z 32
_cell_length_a 12.187934
_cell_length_b 8.756172
_cell_length_c 15.282966
_cell_angle_alpha 90.000000
_cell_angle_beta 90.029329
_cell_angle_gamma 90.000000
_cell_volume 1630.992514
_symmetry_space_group_name_H-M "P 2/M"
_symmetry_group_IT_number 10
_symmetry_cell_setting 'monoclinic'
loop_
_space_group_symop_operation_xyz
x,y,z
-x,y,-z
-x,-y,-z
x,-y,z
loop_
_atom_site_type_symbol
_atom_site_label
_atom_site_fract_x
_atom_site_fract_y
_atom_site_fract_z
Si Si1 0.032079 0.182638 0.905489
Si Si2 0.043331 0.327822 0.597275
Si Si3 0.512730 0.679122 0.400505
Si Si4 0.257622 0.828619 0.843225
Si Si5 0.512160 0.817651 0.098881
Si Si6 0.891160 0.181383 0.741984
Si Si7 0.359959 0.818813 0.254596
Si Si8 0.261893 0.171622 0.640901
O O1 0.153157 0.252237 0.887856
O O2 0.946491 0.239341 0.832142
O O3 0.035921 0.000000 0.903880
O O4 0.000000 0.246869 0.000000
O O5 0.064812 0.500000 0.630457
O O6 0.954078 0.250542 0.659674
O O7 0.000000 0.327214 0.500000
O O8 0.157039 0.236816 0.591228
O O9 0.500000 0.735746 0.500000
O O10 0.494000 0.500000 0.392166
O O11 0.422926 0.759699 0.339907
O O12 0.634508 0.720509 0.371370
O O13 0.372838 0.747679 0.865660
O O14 0.230912 0.830383 0.741737
O O15 0.267164 0.000000 0.880367
O O16 0.416681 0.758435 0.164446
O O17 0.511313 0.000000 0.100746
O O18 0.500000 0.755819 0.000000
O O19 0.765334 0.239194 0.742594
O O20 0.897260 0.000000 0.734051
O O21 0.365762 0.000000 0.257047
O O22 0.287677 0.000000 0.607375
#
# Coordination Sequence:
#
# PCOD8066248 Si02
#       8
#     4   4   4   4   4   4   4   4
#     4   9  17  29  50  82 118 152 188 238 296 346
#     4  11  25  42  60  84 117 157 198 238 290 355
#     4  11  25  42  60  84 117 157 198 238 290 355
#     4   9  16  29  51  80 113 146 184 235 291 341
#     4   9  17  29  50  82 118 152 188 238 296 346
#     4  10  21  37  57  86 119 152 196 247 295 343
#     4  10  21  37  57  86 119 152 196 247 295 343
#     4  11  21  39  65  90 117 146 192 251 295 339
#
# _framework density 19.619955000000001
#
# number of rings (size 3 to 8) (size 9 to 14) (size 15 to 20)
#    0.000    2.000    2.500    1.125    3.500    2.500 
#    0.000    0.000    0.000    0.750    0.000    0.000 
#    0.000    0.000    0.000    0.000    0.000    0.000 
#
# Total GULP energy -396730.225112 kJ/mol
# GULP energy per Si atom -12397.819535 kJ/mol
# Density = 1.957530 g / cm^3
# Si number density = 19.619955 Si / 1000 Ang^3
#
#
#
# Elastic Constant Matrix: (Units=GPa)
#
#
# Indices 1 2 3 4 5 6 
#
# 1 153.9279 17.0022 52.3757 0.0000 -1.7373 0.0000
# 2 17.0022 20.9093 19.7116 0.0000 0.1220 0.0000
# 3 52.3757 19.7116 113.5439 0.0000 -3.3226 0.0000
# 4 0.0000 0.0000 0.0000 -2.2864 0.0000 -1.8155
# 5 -1.7373 0.1220 -3.3226 0.0000 34.2980 0.0000
# 6 0.0000 0.0000 0.0000 -1.8155 0.0000 7.6704
#
#
#
# Elastic Compliance Matrix: (Units=1/GPa)
#
#
# Indices 1 2 3 4 5 6 
#
# 1 0.007925 -0.003589 -0.003029 0.000000 0.000121 0.000000
# 2 -0.003589 0.058857 -0.008598 0.000000 -0.001224 0.000000
# 3 -0.003029 -0.008598 0.011727 0.000000 0.001013 0.000000
# 4 0.000000 0.000000 0.000000 -0.368171 0.000000 -0.087144
# 5 0.000121 -0.001224 0.001013 0.000000 0.029265 0.000000
# 6 0.000000 0.000000 0.000000 -0.087144 0.000000 0.109746
#
#
# Mechanical properties :
#
#
# Convention : Reuss Voigt Hill
#
# Bulk Modulus (GPa) = 20.80040 51.84000 36.32020
# Shear Modulus (GPa) = -47.98726 21.22251 -13.38237
#
# Velocity S-wave (km/s) = -4.95091 3.29246 -2.61450
# Velocity P-wave (km/s) = 4.69652 6.39790 3.07212
#
# Compressibility (1/GPa) = 0.04807599
#
# Stress axis : x y z
#
# Youngs Moduli (GPa) = 126.18253 16.99042 85.27587
#
# Poissons Ratio (x) = 0.06098 0.25830
# Poissons Ratio (y) = 0.45291 0.73319
# Poissons Ratio (z) = 0.38221 0.14608
#
# Static dielectric constant tensor:
#      x y z
#    x 3.864160 0.000000 0.011020 
#    y 0.000000 3.241740 0.000000 
#    z 0.011020 0.000000 3.764150 
# 
# 
# High freq. dielectric constant tensor:
#      x y z
#    x 1.783930 0.000000 -0.000640 
#    y 0.000000 1.718500 0.000000 
#    z -0.000640 0.000000 1.772780 
# 
# From -- ./inp_files/49820.got.cif
#   From: 2010.06.25/outbox.cif.g09.slc.cpg/sg10_25_cif.got.tgz:49820.got - 2010.06.27 22:07:45.
