data_PCOD8066276
_publ_section_title
;
Structure prediction by ZEFSAII (Michael W. Deem and Ramdas Pophale) SiO2 
 PCOD8066276
Probable space group: P 2/M
;
_chemical_formula_sum "Si O2"
_cell_formula_units_Z 18
_cell_length_a 20.771379
_cell_length_b 8.209079
_cell_length_c 5.061400
_cell_angle_alpha 90.000000
_cell_angle_beta 58.664696
_cell_angle_gamma 90.000000
_cell_volume 737.154892
_symmetry_space_group_name_H-M "P 2/M"
_symmetry_group_IT_number 10
_symmetry_cell_setting 'monoclinic'
loop_
_space_group_symop_operation_xyz
x,y,z
-x,y,-z
-x,-y,-z
x,-y,z
loop_
_atom_site_type_symbol
_atom_site_label
_atom_site_fract_x
_atom_site_fract_y
_atom_site_fract_z
Si Si1 0.088390 0.177446 0.771237
Si Si2 0.197242 0.686847 0.930590
Si Si3 0.293447 0.685116 0.206413
Si Si4 0.541112 0.190275 0.162124
Si Si5 0.946488 0.500000 0.367504
O O1 0.126545 0.207862 0.976162
O O2 0.105725 0.333607 0.536464
O O3 0.115105 0.000000 0.602499
O O4 0.000000 0.170833 0.000000
O O5 0.168373 0.500000 0.032986
O O6 0.261075 0.696924 0.568658
O O7 0.233875 0.760017 0.120670
O O8 0.309926 0.500000 0.085826
O O9 0.369937 0.784403 0.028506
O O10 0.500000 0.272036 0.500000
O O11 0.524563 0.000000 0.196884
O O12 0.500000 0.272787 0.000000
O O13 0.000000 0.500000 0.500000
O O14 0.000000 0.500000 0.000000
#
# Coordination Sequence:
#
# PCOD8066276 Si02
#       5
#     4   4   4   4   2
#     4  10  22  41  65  94 124 164 216 262 314 380
#     4  10  21  39  59  85 121 159 199 251 311 364
#     4  10  22  38  60  88 119 156 200 247 301 366
#     4  10  21  37  58  85 118 155 195 242 297 359
#     4  10  22  40  62  86 120 158 194 256 316 356
#
# _framework density 24.418205
#
# number of rings (size 3 to 8) (size 9 to 14) (size 15 to 20)
#    0.000    2.000    1.111    1.333    0.000    6.667 
#    0.000    4.444    0.000    0.000    0.000    0.000 
#    0.000    0.000    0.000    0.000    0.000    0.000 
#
# Total GULP energy -223169.898012 kJ/mol
# GULP energy per Si atom -12398.327667 kJ/mol
# Density = 2.436263 g / cm^3
# Si number density = 24.418205 Si / 1000 Ang^3
#
#
#
# Elastic Constant Matrix: (Units=GPa)
#
#
# Indices 1 2 3 4 5 6 
#
# 1 175.4984 35.7185 29.2879 0.0000 8.0622 0.0000
# 2 35.7185 135.3819 17.0223 0.0000 12.9246 0.0000
# 3 29.2879 17.0223 33.3900 0.0000 5.9959 0.0000
# 4 0.0000 0.0000 0.0000 26.5185 0.0000 -18.2214
# 5 8.0622 12.9246 5.9959 0.0000 47.5059 0.0000
# 6 0.0000 0.0000 0.0000 -18.2214 0.0000 54.6072
#
#
#
# Elastic Compliance Matrix: (Units=1/GPa)
#
#
# Indices 1 2 3 4 5 6 
#
# 1 0.006832 -0.001107 -0.005397 0.000000 -0.000177 0.000000
# 2 -0.001107 0.008205 -0.002911 0.000000 -0.001677 0.000000
# 3 -0.005397 -0.002911 0.036691 0.000000 -0.002923 0.000000
# 4 0.000000 0.000000 0.000000 0.048928 0.000000 0.016326
# 5 -0.000177 -0.001677 -0.002923 0.000000 0.021905 0.000000
# 6 0.000000 0.000000 0.000000 0.016326 0.000000 0.023760
#
#
# Mechanical properties :
#
#
# Convention : Reuss Voigt Hill
#
# Bulk Modulus (GPa) = 30.39532 56.48085 43.43808
# Shear Modulus (GPa) = 28.39032 43.20910 35.79971
#
# Velocity S-wave (km/s) = 3.41349 4.21116 3.83313
# Velocity P-wave (km/s) = 5.29252 6.84295 6.11706
#
# Compressibility (1/GPa) = 0.03289981
#
# Stress axis : x y z
#
# Youngs Moduli (GPa) = 146.36752 121.88203 27.25433
#
# Poissons Ratio (x) = 0.13494 0.14708
# Poissons Ratio (y) = 0.16204 0.07932
# Poissons Ratio (z) = 0.78988 0.35474
#
# Static dielectric constant tensor:
#      x y z
#    x 4.576110 0.000000 0.327380 
#    y 0.000000 6.002580 0.000000 
#    z 0.327380 0.000000 4.545940 
# 
# 
# High freq. dielectric constant tensor:
#      x y z
#    x 1.984550 0.000000 0.002770 
#    y 0.000000 1.952080 0.000000 
#    z 0.002770 0.000000 1.979310 
# 
# From -- ./inp_files/10482.got.cif
#   From: 2010.06.25/outbox.cif.g09.slc.cpg/sg10_6_cif.got.tgz:10482.got - 2010.06.27 22:07:45.
