data_PCOD8066384
_publ_section_title
;
Structure prediction by ZEFSAII (Michael W. Deem and Ramdas Pophale) SiO2 
 PCOD8066384
Probable space group: P 2/M
;
_chemical_formula_sum "Si O2"
_cell_formula_units_Z 28
_cell_length_a 20.351790
_cell_length_b 15.663808
_cell_length_c 11.318745
_cell_angle_alpha 90.000000
_cell_angle_beta 23.255483
_cell_angle_gamma 90.000000
_cell_volume 1424.657081
_symmetry_space_group_name_H-M "P 2/M"
_symmetry_group_IT_number 10
_symmetry_cell_setting 'monoclinic'
loop_
_space_group_symop_operation_xyz
x,y,z
-x,y,-z
-x,-y,-z
x,-y,z
loop_
_atom_site_type_symbol
_atom_site_label
_atom_site_fract_x
_atom_site_fract_y
_atom_site_fract_z
Si Si1 0.539367 0.663905 0.624100
Si Si2 0.873832 0.500000 0.377176
Si Si3 0.202720 0.231291 0.931560
Si Si4 0.168719 0.901504 0.794302
Si Si5 0.181998 0.698917 0.207220
Si Si6 0.870615 0.686430 0.450287
Si Si7 0.748281 0.500000 0.328095
Si Si8 0.375905 0.777021 0.306033
O O1 0.617791 0.731821 0.402412
O O2 0.647782 0.579863 0.445119
O O3 0.532306 0.708061 0.763979
O O4 0.346547 0.641672 0.907850
O O5 0.831248 0.584938 0.522229
O O6 0.756214 0.500000 0.456502
O O7 0.066948 0.500000 0.026623
O O8 0.161607 0.141171 0.936596
O O9 0.187062 0.224274 0.101002
O O10 0.067532 0.300000 0.107891
O O11 0.318647 0.859630 0.473192
O O12 0.210165 0.000000 0.745702
O O13 0.000000 0.888481 0.000000
O O14 0.193026 0.732400 0.323804
O O15 0.000000 0.650534 0.500000
O O16 0.784688 0.729609 0.480767
O O17 0.500000 0.808967 0.000000
#
# Coordination Sequence:
#
# PCOD8066384 Si02
#       8
#     4   2   4   4   4   4   2   4
#     4  11  21  37  59  89 113 160 210 256 299 355
#     4  11  22  35  58  92 133 154 205 270 307 350
#     4  10  21  39  64  83 122 159 207 244 291 378
#     4  10  21  37  66 100 124 151 192 253 311 363
#     4  10  23  40  59  79 116 165 209 245 298 356
#     4  11  20  38  58  92 121 165 205 250 309 350
#     4  11  22  33  57  90 126 154 203 265 318 347
#     4  11  21  36  61  91 128 156 197 248 311 373
#
# _framework density 19.653852000000001
#
# number of rings (size 3 to 8) (size 9 to 14) (size 15 to 20)
#    0.000    1.429    5.714    0.429    0.000    0.857 
#    0.000   10.000    0.000   11.571    0.000    0.000 
#    0.000    0.000    0.000    0.000    0.000    0.000 
#
# Total GULP energy -346941.207999 kJ/mol
# GULP energy per Si atom -12390.757429 kJ/mol
# Density = 1.960912 g / cm^3
# Si number density = 19.653852 Si / 1000 Ang^3
#
#
#
# Elastic Constant Matrix: (Units=GPa)
#
#
# Indices 1 2 3 4 5 6 
#
# 1 103.9018 45.9877 35.7904 0.0000 12.9698 0.0000
# 2 45.9877 117.1208 24.0048 0.0000 6.0004 0.0000
# 3 35.7904 24.0048 96.3326 0.0000 -9.3525 0.0000
# 4 0.0000 0.0000 0.0000 18.2542 0.0000 -0.6484
# 5 12.9698 6.0004 -9.3525 0.0000 38.6322 0.0000
# 6 0.0000 0.0000 0.0000 -0.6484 0.0000 13.7541
#
#
#
# Elastic Compliance Matrix: (Units=1/GPa)
#
#
# Indices 1 2 3 4 5 6 
#
# 1 0.013660 -0.004179 -0.004522 0.000000 -0.005032 0.000000
# 2 -0.004179 0.010428 -0.001093 0.000000 -0.000481 0.000000
# 3 -0.004522 -0.001093 0.012798 0.000000 0.004786 0.000000
# 4 0.000000 0.000000 0.000000 0.054874 0.000000 0.002587
# 5 -0.005032 -0.000481 0.004786 0.000000 0.028808 0.000000
# 6 0.000000 0.000000 0.000000 0.002587 0.000000 0.072828
#
#
# Mechanical properties :
#
#
# Convention : Reuss Voigt Hill
#
# Bulk Modulus (GPa) = 57.81050 58.76899 58.28974
# Shear Modulus (GPa) = 22.85734 28.23291 25.54513
#
# Velocity S-wave (km/s) = 3.41397 3.79424 3.60912
# Velocity P-wave (km/s) = 6.70958 7.01156 6.86223
#
# Compressibility (1/GPa) = 0.01729790
#
# Stress axis : x y z
#
# Youngs Moduli (GPa) = 73.20670 95.89892 78.13868
#
# Poissons Ratio (x) = 0.40076 0.35336
# Poissons Ratio (y) = 0.30593 0.08537
# Poissons Ratio (z) = 0.33106 0.10477
#
# Static dielectric constant tensor:
#      x y z
#    x 3.812040 0.000000 -0.086530 
#    y 0.000000 3.181130 0.000000 
#    z -0.086530 0.000000 3.720010 
# 
# 
# High freq. dielectric constant tensor:
#      x y z
#    x 1.779010 0.000000 -0.004200 
#    y 0.000000 1.711620 0.000000 
#    z -0.004200 0.000000 1.782900 
# 
# From -- ./inp_files/56106.got.cif
#   From: 2010.06.25/outbox.cif.g09.slc.cpg/sg10_29_cif.got.tgz:56106.got - 2010.06.27 22:07:45.
