data_PCOD8066796
_publ_section_title
;
Structure prediction by ZEFSAII (Michael W. Deem and Ramdas Pophale) SiO2 
 PCOD8066796
Probable space group: P 2/M
;
_chemical_formula_sum "Si O2"
_cell_formula_units_Z 28
_cell_length_a 17.921454
_cell_length_b 13.705846
_cell_length_c 9.241028
_cell_angle_alpha 90.000000
_cell_angle_beta 36.471826
_cell_angle_gamma 90.000000
_cell_volume 1349.268002
_symmetry_space_group_name_H-M "P 2/M"
_symmetry_group_IT_number 10
_symmetry_cell_setting 'monoclinic'
loop_
_space_group_symop_operation_xyz
x,y,z
-x,y,-z
-x,-y,-z
x,-y,z
loop_
_atom_site_type_symbol
_atom_site_label
_atom_site_fract_x
_atom_site_fract_y
_atom_site_fract_z
Si Si1 0.236954 0.287992 0.259787
Si Si2 0.076851 0.389346 0.711045
Si Si3 0.485282 0.610269 0.853880
Si Si4 0.740460 0.388389 0.331887
Si Si5 0.149203 0.289749 0.084554
Si Si6 0.858125 0.107785 0.067462
Si Si7 0.155077 0.890222 0.583510
O O1 0.202523 0.379334 0.417642
O O2 0.145885 0.291353 0.261831
O O3 0.222053 0.185253 0.368676
O O4 0.376721 0.311150 0.984775
O O5 0.023105 0.500000 0.790325
O O6 0.124795 0.358286 0.798808
O O7 0.987428 0.310964 0.771997
O O8 0.458521 0.500000 0.834157
O O9 0.612216 0.659476 0.589944
O O10 0.500000 0.604350 0.000000
O O11 0.723149 0.500000 0.396919
O O12 0.756824 0.368735 0.135545
O O13 0.201329 0.184957 0.950430
O O14 0.815198 0.138047 0.296267
O O15 0.806168 0.000000 0.113608
O O16 0.005840 0.109837 0.806677
O O17 0.204274 0.000000 0.471168
#
# Coordination Sequence:
#
# PCOD8066796 Si02
#       7
#     4   4   4   4   4   4   4
#     4  12  23  36  57  88 122 153 186 239 297 346
#     4  11  22  37  56  82 119 157 192 234 287 348
#     4  10  21  40  62  82 109 156 211 245 273 327
#     4  10  22  40  61  81 109 158 209 243 273 331
#     4  12  24  34  55  91 124 152 183 233 305 354
#     4   9  19  36  58  84 116 154 193 232 279 348
#     4   9  19  37  61  86 114 152 196 237 282 345
#
# _framework density 20.751992999999999
#
# number of rings (size 3 to 8) (size 9 to 14) (size 15 to 20)
#    0.000    1.571    2.857    3.429    2.000    5.143 
#    0.000    2.857    0.000    1.286    0.000    2.000 
#    0.000    0.000    0.000    0.000    0.000    0.000 
#
# Total GULP energy -346894.203909 kJ/mol
# GULP energy per Si atom -12389.078711 kJ/mol
# Density = 2.070476 g / cm^3
# Si number density = 20.751993 Si / 1000 Ang^3
#
#
#
# Elastic Constant Matrix: (Units=GPa)
#
#
# Indices 1 2 3 4 5 6 
#
# 1 58.3617 37.1025 3.9019 0.0000 13.6886 0.0000
# 2 37.1025 99.8335 23.5761 0.0000 5.7346 0.0000
# 3 3.9019 23.5761 46.0179 0.0000 0.3121 0.0000
# 4 0.0000 0.0000 0.0000 27.9999 0.0000 1.9889
# 5 13.6886 5.7346 0.3121 0.0000 35.5056 0.0000
# 6 0.0000 0.0000 0.0000 1.9889 0.0000 12.7331
#
#
#
# Elastic Compliance Matrix: (Units=1/GPa)
#
#
# Indices 1 2 3 4 5 6 
#
# 1 0.024832 -0.009420 0.002775 0.000000 -0.008077 0.000000
# 2 -0.009420 0.015084 -0.006938 0.000000 0.001257 0.000000
# 3 0.002775 -0.006938 0.025051 0.000000 -0.000170 0.000000
# 4 0.000000 0.000000 0.000000 0.036115 0.000000 -0.005641
# 5 -0.008077 0.001257 -0.000170 0.000000 0.031077 0.000000
# 6 0.000000 0.000000 0.000000 -0.005641 0.000000 0.079417
#
#
# Mechanical properties :
#
#
# Convention : Reuss Voigt Hill
#
# Bulk Modulus (GPa) = 26.45363 37.04154 31.74759
# Shear Modulus (GPa) = 19.89331 24.55654 22.22492
#
# Velocity S-wave (km/s) = 3.09952 3.44369 3.27613
# Velocity P-wave (km/s) = 5.05812 5.80521 5.44449
#
# Compressibility (1/GPa) = 0.03780200
#
# Stress axis : x y z
#
# Youngs Moduli (GPa) = 40.27058 66.29640 39.91888
#
# Poissons Ratio (x) = 0.62452 -0.11079
# Poissons Ratio (y) = 0.37936 0.27694
# Poissons Ratio (z) = -0.11177 0.45994
#
# Static dielectric constant tensor:
#      x y z
#    x 3.499710 0.000000 -0.005100 
#    y 0.000000 4.075170 0.000000 
#    z -0.005100 0.000000 3.867390 
# 
# 
# High freq. dielectric constant tensor:
#      x y z
#    x 1.774580 0.000000 0.015030 
#    y 0.000000 1.806470 0.000000 
#    z 0.015030 0.000000 1.815690 
# 
# From -- ./inp_files/32763.got.cif
#   From: 2010.06.25/outbox.cif.g09.slc.cpg/sg10_17_cif.got.tgz:32763.got - 2010.06.27 22:07:45.
