data_PCOD8066496
_publ_section_title
;
Structure prediction by ZEFSAII (Michael W. Deem and Ramdas Pophale) SiO2 
 PCOD8066496
Probable space group: P 2/M
;
_chemical_formula_sum "Si O2"
_cell_formula_units_Z 32
_cell_length_a 17.388818
_cell_length_b 14.138539
_cell_length_c 11.296887
_cell_angle_alpha 90.000000
_cell_angle_beta 149.290315
_cell_angle_gamma 90.000000
_cell_volume 1418.369067
_symmetry_space_group_name_H-M "P 2/M"
_symmetry_group_IT_number 10
_symmetry_cell_setting 'monoclinic'
loop_
_space_group_symop_operation_xyz
x,y,z
-x,y,-z
-x,-y,-z
x,-y,z
loop_
_atom_site_type_symbol
_atom_site_label
_atom_site_fract_x
_atom_site_fract_y
_atom_site_fract_z
Si Si1 0.390365 0.736858 0.446936
Si Si2 0.863972 0.752736 0.230116
Si Si3 0.359880 0.729342 0.878071
Si Si4 0.044930 0.893689 0.857925
Si Si5 0.479448 0.397782 0.739535
Si Si6 0.818639 0.604893 0.529990
Si Si7 0.839719 0.611166 0.002452
Si Si8 0.773424 0.106439 0.659211
O O1 0.500000 0.790568 0.500000
O O2 0.510189 0.664879 0.664809
O O3 0.350941 0.811921 0.498633
O O4 0.251478 0.678489 0.208123
O O5 0.720253 0.786763 0.120302
O O6 0.900610 0.827747 0.175996
O O7 0.823270 0.651650 0.115481
O O8 0.000000 0.738873 0.500000
O O9 0.226707 0.690025 0.618433
O O10 0.500000 0.787305 0.000000
O O11 0.444322 0.637151 0.039932
O O12 0.877381 0.869688 0.683599
O O13 0.048466 0.000000 0.812404
O O14 0.148865 0.884779 0.110027
O O15 0.543940 0.500000 0.795418
O O16 0.297541 0.396431 0.514613
O O17 0.817176 0.500000 0.466907
O O18 0.984940 0.625214 0.801122
O O19 0.791684 0.500000 0.933097
O O20 0.708332 0.000000 0.558719
#
# Coordination Sequence:
#
# PCOD8066496 Si02
#       8
#     4   4   4   4   4   4   4   4
#     4  12  25  38  59  90 128 169 212 259 323 384
#     4  12  23  37  64  95 126 168 215 268 314 369
#     4  10  21  38  60  87 125 172 221 263 308 369
#     4   9  20  40  68  98 123 155 205 262 327 386
#     4  10  22  37  58  85 125 174 215 255 313 377
#     4   9  19  37  59  86 115 163 223 271 309 357
#     4  11  24  40  58  89 131 169 215 267 314 367
#     4   9  20  41  69  92 119 159 206 265 321 384
#
# _framework density 22.561126000000002
#
# number of rings (size 3 to 8) (size 9 to 14) (size 15 to 20)
#    0.000    1.750    2.500    2.250    1.750    5.750 
#    0.000    1.875    0.000    0.375    0.000    0.000 
#    0.000    0.000    0.000    0.000    0.000    0.000 
#
# Total GULP energy -396429.214566 kJ/mol
# GULP energy per Si atom -12388.412955 kJ/mol
# Density = 2.250978 g / cm^3
# Si number density = 22.561126 Si / 1000 Ang^3
#
#
#
# Elastic Constant Matrix: (Units=GPa)
#
#
# Indices 1 2 3 4 5 6 
#
# 1 133.0053 61.2731 9.2346 0.0000 10.8931 0.0000
# 2 61.2731 106.8552 20.4702 0.0000 3.6747 0.0000
# 3 9.2346 20.4702 61.2707 0.0000 0.6727 0.0000
# 4 0.0000 0.0000 0.0000 6.8550 0.0000 -5.5151
# 5 10.8931 3.6747 0.6727 0.0000 29.8624 0.0000
# 6 0.0000 0.0000 0.0000 -5.5151 0.0000 26.3905
#
#
#
# Elastic Compliance Matrix: (Units=1/GPa)
#
#
# Indices 1 2 3 4 5 6 
#
# 1 0.010508 -0.006006 0.000457 0.000000 -0.003104 0.000000
# 2 -0.006006 0.013472 -0.003602 0.000000 0.000614 0.000000
# 3 0.000457 -0.003602 0.017457 0.000000 -0.000117 0.000000
# 4 0.000000 0.000000 0.000000 0.175364 0.000000 0.036647
# 5 -0.003104 0.000614 -0.000117 0.000000 0.034546 0.000000
# 6 0.000000 0.000000 0.000000 0.036647 0.000000 0.045551
#
#
# Mechanical properties :
#
#
# Convention : Reuss Voigt Hill
#
# Bulk Modulus (GPa) = 43.22762 53.67634 48.45198
# Shear Modulus (GPa) = 15.48410 26.63180 21.05795
#
# Velocity S-wave (km/s) = 2.62261 3.43946 3.05843
# Velocity P-wave (km/s) = 5.32659 6.29415 5.83048
#
# Compressibility (1/GPa) = 0.02313336
#
# Stress axis : x y z
#
# Youngs Moduli (GPa) = 95.16549 74.23045 57.28387
#
# Poissons Ratio (x) = 0.44585 -0.02618
# Poissons Ratio (y) = 0.57159 0.20635
# Poissons Ratio (z) = -0.04349 0.26740
#
# Static dielectric constant tensor:
#      x y z
#    x 4.404810 0.000000 0.262300 
#    y 0.000000 4.175280 0.000000 
#    z 0.262300 0.000000 3.980090 
# 
# 
# High freq. dielectric constant tensor:
#      x y z
#    x 1.901380 0.000000 0.012400 
#    y 0.000000 1.862650 0.000000 
#    z 0.012400 0.000000 1.882030 
# 
# From -- ./inp_files/54038.got.cif
#   From: 2010.06.25/outbox.cif.g09.slc.cpg/sg10_28_cif.got.tgz:54038.got - 2010.06.27 22:07:45.
