data_PCOD8066569
_publ_section_title
;
Structure prediction by ZEFSAII (Michael W. Deem and Ramdas Pophale) SiO2 
 PCOD8066569
Probable space group: P 2/M
;
_chemical_formula_sum "Si O2"
_cell_formula_units_Z 30
_cell_length_a 21.680276
_cell_length_b 9.230015
_cell_length_c 10.307929
_cell_angle_alpha 90.000000
_cell_angle_beta 43.978423
_cell_angle_gamma 90.000000
_cell_volume 1432.321396
_symmetry_space_group_name_H-M "P 2/M"
_symmetry_group_IT_number 10
_symmetry_cell_setting 'monoclinic'
loop_
_space_group_symop_operation_xyz
x,y,z
-x,y,-z
-x,-y,-z
x,-y,z
loop_
_atom_site_type_symbol
_atom_site_label
_atom_site_fract_x
_atom_site_fract_y
_atom_site_fract_z
Si Si1 0.305309 0.330450 0.327252
Si Si2 0.008902 0.343396 0.633850
Si Si3 0.000000 0.759084 0.000000
Si Si4 0.683322 0.826631 0.238703
Si Si5 0.145231 0.337453 0.963148
Si Si6 0.365504 0.331569 0.948176
Si Si7 0.133345 0.159233 0.591773
Si Si8 0.426617 0.666988 0.384419
O O1 0.285231 0.500000 0.359126
O O2 0.218510 0.247995 0.511182
O O3 0.382337 0.291760 0.313552
O O4 0.330172 0.280646 0.143226
O O5 0.026955 0.500000 0.676077
O O6 0.091844 0.238138 0.530006
O O7 0.000000 0.372223 0.500000
O O8 0.914029 0.283813 0.825782
O O9 0.077904 0.661993 0.943688
O O10 0.053050 0.855768 0.816377
O O11 0.774222 0.775362 0.170708
O O12 0.678563 0.762482 0.100041
O O13 0.604464 0.767122 0.449070
O O14 0.679224 0.000000 0.239272
O O15 0.184065 0.500000 0.921035
O O16 0.342342 0.500000 0.959406
O O17 0.469994 0.304995 0.789913
O O18 0.165478 0.000000 0.503565
O O19 0.406212 0.500000 0.451405
#
# Coordination Sequence:
#
# PCOD8066569 Si02
#       8
#     4   4   2   4   4   4   4   4
#     4  10  22  40  65  95 125 158 204 262 316 369
#     4   9  20  38  59  82 110 148 195 246 296 345
#     4  10  22  40  62  88 120 160 204 254 300 352
#     4  12  26  40  59  92 132 169 206 250 306 373
#     4  10  21  38  62  88 116 153 200 250 298 351
#     4  10  22  42  67  92 122 161 206 260 316 369
#     4  11  23  37  57  86 121 160 198 239 294 361
#     4  10  21  41  68  94 119 157 211 262 312 369
#
# _framework density 20.945021000000001
#
# number of rings (size 3 to 8) (size 9 to 14) (size 15 to 20)
#    0.000    1.733    0.000    3.600    1.867   11.467 
#    0.000    0.000    0.000    2.400    0.000    0.000 
#    0.000    0.000    0.000    0.000    0.000    0.000 
#
# Total GULP energy -371848.839920 kJ/mol
# GULP energy per Si atom -12394.961331 kJ/mol
# Density = 2.089735 g / cm^3
# Si number density = 20.945021 Si / 1000 Ang^3
#
#
#
# Elastic Constant Matrix: (Units=GPa)
#
#
# Indices 1 2 3 4 5 6 
#
# 1 110.5584 46.2362 38.5820 0.0000 1.0857 0.0000
# 2 46.2362 103.5183 31.7605 0.0000 -3.2571 0.0000
# 3 38.5820 31.7605 78.3215 0.0000 -2.2079 0.0000
# 4 0.0000 0.0000 0.0000 17.1350 0.0000 3.7283
# 5 1.0857 -3.2571 -2.2079 0.0000 38.7927 0.0000
# 6 0.0000 0.0000 0.0000 3.7283 0.0000 12.4762
#
#
#
# Elastic Compliance Matrix: (Units=1/GPa)
#
#
# Indices 1 2 3 4 5 6 
#
# 1 0.012346 -0.004191 -0.004409 0.000000 -0.000948 0.000000
# 2 -0.004191 0.012473 -0.002965 0.000000 0.000996 0.000000
# 3 -0.004409 -0.002965 0.016165 0.000000 0.000794 0.000000
# 4 0.000000 0.000000 0.000000 0.062418 0.000000 -0.018653
# 5 -0.000948 0.000996 0.000794 0.000000 0.025933 0.000000
# 6 0.000000 0.000000 0.000000 -0.018653 0.000000 0.085727
#
#
# Mechanical properties :
#
#
# Convention : Reuss Voigt Hill
#
# Bulk Modulus (GPa) = 56.01375 58.39507 57.20441
# Shear Modulus (GPa) = 20.47971 25.40206 22.94089
#
# Velocity S-wave (km/s) = 3.13035 3.48630 3.31311
# Velocity P-wave (km/s) = 6.31401 6.64428 6.48125
#
# Compressibility (1/GPa) = 0.01785276
#
# Stress axis : x y z
#
# Youngs Moduli (GPa) = 80.99995 80.17104 61.86384
#
# Poissons Ratio (x) = 0.33603 0.27274
# Poissons Ratio (y) = 0.33950 0.18345
# Poissons Ratio (z) = 0.35710 0.23773
#
# Static dielectric constant tensor:
#      x y z
#    x 3.847530 0.000000 0.005130 
#    y 0.000000 3.656840 0.000000 
#    z 0.005130 0.000000 4.036420 
# 
# 
# High freq. dielectric constant tensor:
#      x y z
#    x 1.826600 0.000000 -0.000640 
#    y 0.000000 1.801240 0.000000 
#    z -0.000640 0.000000 1.828680 
# 
# From -- ./inp_files/56626.got.cif
#   From: 2010.06.25/outbox.cif.g09.slc.cpg/sg10_29_cif.got.tgz:56626.got - 2010.06.27 22:07:45.
