data_PCOD8066555
_publ_section_title
;
Structure prediction by ZEFSAII (Michael W. Deem and Ramdas Pophale) SiO2 
 PCOD8066555
Probable space group: P 2/M
;
_chemical_formula_sum "Si O2"
_cell_formula_units_Z 28
_cell_length_a 12.354361
_cell_length_b 23.012552
_cell_length_c 5.034051
_cell_angle_alpha 90.000000
_cell_angle_beta 76.755042
_cell_angle_gamma 90.000000
_cell_volume 1393.136807
_symmetry_space_group_name_H-M "P 2/M"
_symmetry_group_IT_number 10
_symmetry_cell_setting 'monoclinic'
loop_
_space_group_symop_operation_xyz
x,y,z
-x,y,-z
-x,-y,-z
x,-y,z
loop_
_atom_site_type_symbol
_atom_site_label
_atom_site_fract_x
_atom_site_fract_y
_atom_site_fract_z
Si Si1 0.125898 0.711918 0.446282
Si Si2 0.249790 0.597394 0.221953
Si Si3 0.128156 0.212195 0.947616
Si Si4 0.618681 0.433594 0.341924
Si Si5 0.763424 0.904844 0.077160
Si Si6 0.117199 0.935187 0.488686
Si Si7 0.421706 0.000000 0.792503
Si Si8 0.921955 0.500000 0.792708
O O1 0.209153 0.660552 0.330022
O O2 0.149566 0.735896 0.727691
O O3 0.000000 0.688096 0.500000
O O4 0.146212 0.764370 0.232601
O O5 0.298367 0.567544 0.456419
O O6 0.151701 0.557922 0.159957
O O7 0.339616 0.603755 0.933967
O O8 0.222910 0.162697 0.841785
O O9 0.000000 0.188569 0.000000
O O10 0.500000 0.407882 0.500000
O O11 0.606315 0.500000 0.251032
O O12 0.851489 0.936821 0.219851
O O13 0.647829 0.939408 0.177929
O O14 0.791311 0.905099 0.748975
O O15 0.000000 0.902776 0.500000
O O16 0.107975 0.000000 0.381374
O O17 0.500000 0.000000 0.500000
O O18 0.500000 0.000000 0.000000
O O19 0.000000 0.500000 0.500000
O O20 0.000000 0.500000 0.000000
#
# Coordination Sequence:
#
# PCOD8066555 Si02
#       8
#     4   4   4   4   4   4   2   2
#     4  10  22  39  60  88 125 168 204 240 298 372
#     4  12  22  40  61  88 126 167 204 259 318 375
#     4  10  21  38  61  90 121 160 204 245 299 374
#     4  11  22  39  62  90 121 156 206 263 323 373
#     4  12  22  40  62  88 123 160 202 250 301 360
#     4  11  20  32  54  91 129 153 175 226 302 374
#     4  12  26  44  63  88 121 162 212 256 306 364
#     4  12  24  36  55  90 127 162 208 250 304 386
#
# _framework density 20.098527000000001
#
# number of rings (size 3 to 8) (size 9 to 14) (size 15 to 20)
#    0.000    0.857    2.857    5.571    0.000    5.143 
#    0.000    0.000    0.000    8.571    0.000    0.000 
#    0.000    0.000    0.000    0.000    0.000    0.000 
#
# Total GULP energy -347095.353891 kJ/mol
# GULP energy per Si atom -12396.262639 kJ/mol
# Density = 2.005278 g / cm^3
# Si number density = 20.098527 Si / 1000 Ang^3
#
#
#
# Elastic Constant Matrix: (Units=GPa)
#
#
# Indices 1 2 3 4 5 6 
#
# 1 89.4471 39.7663 30.6389 0.0000 -4.1031 0.0000
# 2 39.7663 93.1882 28.3174 0.0000 -19.1329 0.0000
# 3 30.6389 28.3174 121.8020 0.0000 -10.0381 0.0000
# 4 0.0000 0.0000 0.0000 27.4340 0.0000 -3.9070
# 5 -4.1031 -19.1329 -10.0381 0.0000 42.2229 0.0000
# 6 0.0000 0.0000 0.0000 -3.9070 0.0000 17.7370
#
#
#
# Elastic Compliance Matrix: (Units=1/GPa)
#
#
# Indices 1 2 3 4 5 6 
#
# 1 0.014526 -0.005826 -0.002449 0.000000 -0.001811 0.000000
# 2 -0.005826 0.014870 -0.001513 0.000000 0.005813 0.000000
# 3 -0.002449 -0.001513 0.009283 0.000000 0.001284 0.000000
# 4 0.000000 0.000000 0.000000 0.037632 0.000000 0.008289
# 5 -0.001811 0.005813 0.001284 0.000000 0.026447 0.000000
# 6 0.000000 0.000000 0.000000 0.008289 0.000000 0.058205
#
#
# Mechanical properties :
#
#
# Convention : Reuss Voigt Hill
#
# Bulk Modulus (GPa) = 52.34347 55.76474 54.05411
# Shear Modulus (GPa) = 26.75140 31.19310 28.97225
#
# Velocity S-wave (km/s) = 3.65226 3.94383 3.80084
# Velocity P-wave (km/s) = 6.62460 6.96737 6.79815
#
# Compressibility (1/GPa) = 0.01910458
#
# Stress axis : x y z
#
# Youngs Moduli (GPa) = 68.84351 67.24847 107.71896
#
# Poissons Ratio (x) = 0.39181 0.26376
# Poissons Ratio (y) = 0.40110 0.16293
# Poissons Ratio (z) = 0.16857 0.10172
#
# Static dielectric constant tensor:
#      x y z
#    x 3.611170 0.000000 -0.022020 
#    y 0.000000 3.521800 0.000000 
#    z -0.022020 0.000000 3.836690 
# 
# 
# High freq. dielectric constant tensor:
#      x y z
#    x 1.763310 0.000000 0.012510 
#    y 0.000000 1.770890 0.000000 
#    z 0.012510 0.000000 1.807940 
# 
# From -- ./inp_files/7720.got.cif
#   From: 2010.06.25/outbox.cif.g09.slc.cpg/sg10_4_cif.got.tgz:7720.got - 2010.06.27 22:07:45.
