data_PCOD8066808
_publ_section_title
;
Structure prediction by ZEFSAII (Michael W. Deem and Ramdas Pophale) SiO2 
 PCOD8066808
Probable space group: P 2/M
;
_chemical_formula_sum "Si O2"
_cell_formula_units_Z 32
_cell_length_a 12.103162
_cell_length_b 9.053534
_cell_length_c 31.464926
_cell_angle_alpha 90.000000
_cell_angle_beta 28.563476
_cell_angle_gamma 90.000000
_cell_volume 1648.509976
_symmetry_space_group_name_H-M "P 2/M"
_symmetry_group_IT_number 10
_symmetry_cell_setting 'monoclinic'
loop_
_space_group_symop_operation_xyz
x,y,z
-x,y,-z
-x,-y,-z
x,-y,z
loop_
_atom_site_type_symbol
_atom_site_label
_atom_site_fract_x
_atom_site_fract_y
_atom_site_fract_z
Si Si1 0.761611 0.169838 0.405003
Si Si2 0.781706 0.825190 0.020726
Si Si3 0.574709 0.824617 0.928082
Si Si4 0.496949 0.668947 0.367451
Si Si5 0.643960 0.672919 0.678941
Si Si6 0.706138 0.825232 0.141239
Si Si7 0.899498 0.169544 0.452509
Si Si8 0.036755 0.670459 0.743243
O O1 0.500000 0.226662 0.500000
O O2 0.888248 0.269170 0.327760
O O3 0.905814 0.187400 0.399601
O O4 0.758299 0.000000 0.390647
O O5 0.045285 0.771036 0.924767
O O6 0.784708 0.000000 0.018111
O O7 0.616835 0.760763 0.039833
O O8 0.686254 0.775745 0.098848
O O9 0.820415 0.758305 0.833994
O O10 0.593858 0.000000 0.918308
O O11 0.500000 0.772976 0.000000
O O12 0.418510 0.500000 0.401686
O O13 0.470383 0.713155 0.327350
O O14 0.762165 0.692963 0.290240
O O15 0.346495 0.775585 0.447562
O O16 0.654224 0.500000 0.683507
O O17 0.497341 0.745982 0.765516
O O18 0.902403 0.735185 0.592288
O O19 0.675408 0.000000 0.156675
O O20 0.932813 0.000000 0.454449
O O21 0.971023 0.500000 0.759890
#
# Coordination Sequence:
#
# PCOD8066808 Si02
#       8
#     4   4   4   4   4   4   4   4
#     4  10  21  40  63  89 120 155 196 247 300 349
#     4   8  17  36  59  83 113 146 187 239 293 341
#     4  10  22  39  61  89 121 157 196 245 302 353
#     4  10  23  42  59  80 119 162 194 236 293 349
#     4  11  24  39  57  84 120 156 193 238 293 349
#     4   9  18  36  61  84 108 147 195 242 288 338
#     4  11  23  39  62  89 116 150 197 246 290 342
#     4  11  24  40  61  89 120 160 204 243 294 358
#
# _framework density 19.411467999999999
#
# number of rings (size 3 to 8) (size 9 to 14) (size 15 to 20)
#    0.000    2.000    1.250    2.250    3.500    4.500 
#    0.000    1.875    0.000    0.000    0.000    0.000 
#    0.000    0.000    0.000    0.000    0.000    0.000 
#
# Total GULP energy -396910.292186 kJ/mol
# GULP energy per Si atom -12403.446631 kJ/mol
# Density = 1.936729 g / cm^3
# Si number density = 19.411468 Si / 1000 Ang^3
#
#
#
# Elastic Constant Matrix: (Units=GPa)
#
#
# Indices 1 2 3 4 5 6 
#
# 1 128.6520 34.3240 43.1622 0.0000 -3.5421 0.0000
# 2 34.3240 47.0048 27.7235 0.0000 2.1263 0.0000
# 3 43.1622 27.7235 106.2106 0.0000 0.3326 0.0000
# 4 0.0000 0.0000 0.0000 -356.5984 0.0000 -80.9978
# 5 -3.5421 2.1263 0.3326 0.0000 27.6709 0.0000
# 6 0.0000 0.0000 0.0000 -80.9978 0.0000 8.1902
#
#
#
# Elastic Compliance Matrix: (Units=1/GPa)
#
#
# Indices 1 2 3 4 5 6 
#
# 1 0.010321 -0.006078 -0.002614 0.000000 0.001820 0.000000
# 2 -0.006078 0.028820 -0.005044 0.000000 -0.002932 0.000000
# 3 -0.002614 -0.005044 0.011794 0.000000 -0.000089 0.000000
# 4 0.000000 0.000000 0.000000 -0.000864 0.000000 -0.008543
# 5 0.001820 -0.002932 -0.000089 0.000000 0.036598 0.000000
# 6 0.000000 0.000000 0.000000 -0.008543 0.000000 0.037611
#
#
# Mechanical properties :
#
#
# Convention : Reuss Voigt Hill
#
# Bulk Modulus (GPa) = 42.61589 54.69853 48.65721
# Shear Modulus (GPa) = 31.33369 -52.37027 -10.51829
#
# Velocity S-wave (km/s) = 4.02205 -5.19977 -2.33031
# Velocity P-wave (km/s) = 6.60082 2.79473 4.22849
#
# Compressibility (1/GPa) = 0.02346543
#
# Stress axis : x y z
#
# Youngs Moduli (GPa) = 96.88597 34.69835 84.78729
#
# Poissons Ratio (x) = 0.21088 0.22161
# Poissons Ratio (y) = 0.58884 0.42763
# Poissons Ratio (z) = 0.25323 0.17500
#
# Static dielectric constant tensor:
#      x y z
#    x 3.950030 0.000000 -0.014130 
#    y 0.000000 3.386030 0.000000 
#    z -0.014130 0.000000 3.533190 
# 
# 
# High freq. dielectric constant tensor:
#      x y z
#    x 1.770570 0.000000 -0.002340 
#    y 0.000000 1.740660 0.000000 
#    z -0.002340 0.000000 1.759160 
# 
# From -- ./inp_files/95006.got.cif
#   From: 2010.06.25/outbox.cif.g09.slc.cpg/sg10_48_cif.got.tgz:95006.got - 2010.06.27 22:07:45.
