data_PCOD8066132
_publ_section_title
;
Structure prediction by ZEFSAII (Michael W. Deem and Ramdas Pophale) SiO2 
 PCOD8066132
Probable space group: P 2/M
;
_chemical_formula_sum "Si O2"
_cell_formula_units_Z 16
_cell_length_a 16.653399
_cell_length_b 11.524276
_cell_length_c 8.101110
_cell_angle_alpha 90.000000
_cell_angle_beta 147.841213
_cell_angle_gamma 90.000000
_cell_volume 827.543805
_symmetry_space_group_name_H-M "P 2/M"
_symmetry_group_IT_number 10
_symmetry_cell_setting 'monoclinic'
loop_
_space_group_symop_operation_xyz
x,y,z
-x,y,-z
-x,-y,-z
x,-y,z
loop_
_atom_site_type_symbol
_atom_site_label
_atom_site_fract_x
_atom_site_fract_y
_atom_site_fract_z
Si Si1 0.124161 0.301945 0.601118
Si Si2 0.068289 0.864463 0.940720
Si Si3 0.415439 0.500000 0.581659
Si Si4 0.724891 0.500000 0.308742
Si Si5 0.659023 0.262364 0.732806
O O1 0.173534 0.386519 0.540696
O O2 0.000000 0.366178 0.500000
O O3 0.047970 0.186667 0.394462
O O4 0.265887 0.268309 0.957663
O O5 0.083528 0.000000 0.934655
O O6 0.235675 0.808738 0.211582
O O7 0.000000 0.836400 0.000000
O O8 0.317919 0.500000 0.576535
O O9 0.375793 0.388688 0.403407
O O10 0.589390 0.500000 0.940406
O O11 0.500000 0.199486 0.500000
#
# Coordination Sequence:
#
# PCOD8066132 Si02
#       5
#     4   4   2   2   4
#     4  10  21  36  60  86 116 154 193 237 287 344
#     4  10  23  43  62  83 115 153 196 245 291 338
#     4  11  22  34  58  86 126 152 185 236 292 342
#     4  11  20  35  56  89 120 156 188 231 287 350
#     4  11  21  38  61  88 120 154 191 237 288 346
#
# _framework density 19.334323000000001
#
# number of rings (size 3 to 8) (size 9 to 14) (size 15 to 20)
#    0.000    1.500    2.500    3.000    0.000    8.000 
#    0.000    6.250    0.000    3.000    0.000    0.000 
#    0.000    0.000    0.000    0.000    0.000    0.000 
#
# Total GULP energy -198343.649298 kJ/mol
# GULP energy per Si atom -12396.478081 kJ/mol
# Density = 1.929032 g / cm^3
# Si number density = 19.334323 Si / 1000 Ang^3
#
#
#
# Elastic Constant Matrix: (Units=GPa)
#
#
# Indices 1 2 3 4 5 6 
#
# 1 138.5135 59.7079 56.4697 0.0000 20.4971 0.0000
# 2 59.7079 104.4646 42.0511 0.0000 11.8756 0.0000
# 3 56.4697 42.0511 121.3632 0.0000 13.4754 0.0000
# 4 0.0000 0.0000 0.0000 17.1103 0.0000 -2.4875
# 5 20.4971 11.8756 13.4754 0.0000 37.2925 0.0000
# 6 0.0000 0.0000 0.0000 -2.4875 0.0000 29.8994
#
#
#
# Elastic Compliance Matrix: (Units=1/GPa)
#
#
# Indices 1 2 3 4 5 6 
#
# 1 0.011004 -0.004638 -0.003131 0.000000 -0.003440 0.000000
# 2 -0.004638 0.013262 -0.002345 0.000000 -0.000826 0.000000
# 3 -0.003131 -0.002345 0.010663 0.000000 -0.001385 0.000000
# 4 0.000000 0.000000 0.000000 0.059160 0.000000 0.004922
# 5 -0.003440 -0.000826 -0.001385 0.000000 0.029469 0.000000
# 6 0.000000 0.000000 0.000000 0.004922 0.000000 0.033855
#
#
# Mechanical properties :
#
#
# Convention : Reuss Voigt Hill
#
# Bulk Modulus (GPa) = 68.02767 75.64430 71.83598
# Shear Modulus (GPa) = 27.39087 30.60128 28.99608
#
# Velocity S-wave (km/s) = 3.76799 3.98269 3.87682
# Velocity P-wave (km/s) = 7.36149 7.76906 7.56802
#
# Compressibility (1/GPa) = 0.01469990
#
# Stress axis : x y z
#
# Youngs Moduli (GPa) = 90.87202 75.40573 93.78174
#
# Poissons Ratio (x) = 0.34975 0.29366
# Poissons Ratio (y) = 0.42148 0.21993
# Poissons Ratio (z) = 0.28455 0.17683
#
# Static dielectric constant tensor:
#      x y z
#    x 3.931360 0.000000 0.210190 
#    y 0.000000 3.356200 0.000000 
#    z 0.210190 0.000000 3.646630 
# 
# 
# High freq. dielectric constant tensor:
#      x y z
#    x 1.777450 0.000000 0.008490 
#    y 0.000000 1.733340 0.000000 
#    z 0.008490 0.000000 1.757170 
# 
# From -- ./inp_files/16874.got.cif
#   From: 2010.06.25/outbox.cif.g09.slc.cpg/sg10_9_cif.got.tgz:16874.got - 2010.06.27 22:07:45.
