data_PCOD8066580
_publ_section_title
;
Structure prediction by ZEFSAII (Michael W. Deem and Ramdas Pophale) SiO2 
 PCOD8066580
Probable space group: P 2/M
;
_chemical_formula_sum "Si O2"
_cell_formula_units_Z 32
_cell_length_a 23.721820
_cell_length_b 8.777403
_cell_length_c 14.037518
_cell_angle_alpha 90.000000
_cell_angle_beta 33.320666
_cell_angle_gamma 90.000000
_cell_volume 1605.584408
_symmetry_space_group_name_H-M "P 2/M"
_symmetry_group_IT_number 10
_symmetry_cell_setting 'monoclinic'
loop_
_space_group_symop_operation_xyz
x,y,z
-x,y,-z
-x,-y,-z
x,-y,z
loop_
_atom_site_type_symbol
_atom_site_label
_atom_site_fract_x
_atom_site_fract_y
_atom_site_fract_z
Si Si1 0.039124 0.674546 0.151833
Si Si2 0.215098 0.178047 0.789255
Si Si3 0.368592 0.679351 0.255113
Si Si4 0.704719 0.177479 0.018082
Si Si5 0.919127 0.675246 0.692372
Si Si6 0.830095 0.678071 0.346341
Si Si7 0.575504 0.178850 0.016391
Si Si8 0.616184 0.679895 0.331623
O O1 0.064955 0.500000 0.088499
O O2 0.026794 0.694811 0.281957
O O3 0.934121 0.727866 0.251401
O O4 0.131281 0.779977 0.986768
O O5 0.176179 0.230913 0.742166
O O6 0.323483 0.254963 0.662426
O O7 0.232651 0.000000 0.764060
O O8 0.389464 0.500000 0.227627
O O9 0.262548 0.724223 0.454128
O O10 0.458718 0.763409 0.185473
O O11 0.363551 0.735657 0.153580
O O12 0.627538 0.220178 0.042452
O O13 0.671702 0.271376 0.156668
O O14 0.700701 0.000000 0.048983
O O15 0.818555 0.221991 0.825397
O O16 0.888084 0.500000 0.717637
O O17 0.000000 0.733176 0.500000
O O18 0.828992 0.500000 0.324180
O O19 0.577929 0.000000 0.991776
O O20 0.500000 0.742578 0.500000
O O21 0.618302 0.500000 0.335471
#
# Coordination Sequence:
#
# PCOD8066580 Si02
#       8
#     4   4   4   4   4   4   4   4
#     4  10  21  41  64  88 122 162 202 252 305 355
#     4  12  25  41  63  91 124 159 200 249 308 373
#     4  10  21  38  62  91 117 154 206 254 296 349
#     4  11  24  41  63  94 128 166 204 248 312 374
#     4  10  22  39  65  95 124 164 210 254 305 365
#     4  10  23  40  62  90 121 157 206 257 302 356
#     4  10  22  39  59  85 125 164 195 239 304 365
#     4  11  25  44  67  93 122 161 209 258 310 368
#
# _framework density 19.930439
#
# number of rings (size 3 to 8) (size 9 to 14) (size 15 to 20)
#    0.000    1.500    1.250    3.750    3.500    6.250 
#    0.000    0.000    0.000    0.000    0.000    0.000 
#    0.000    0.000    0.000    0.000    0.000    0.000 
#
# Total GULP energy -396997.425948 kJ/mol
# GULP energy per Si atom -12406.169561 kJ/mol
# Density = 1.988508 g / cm^3
# Si number density = 19.930439 Si / 1000 Ang^3
#
#
#
# Elastic Constant Matrix: (Units=GPa)
#
#
# Indices 1 2 3 4 5 6 
#
# 1 110.9469 37.3601 28.2659 0.0000 -18.4245 0.0000
# 2 37.3601 62.1810 28.4872 0.0000 -5.2407 0.0000
# 3 28.2659 28.4872 108.4273 0.0000 -13.5061 0.0000
# 4 0.0000 0.0000 0.0000 2.6290 0.0000 -9.8832
# 5 -18.4245 -5.2407 -13.5061 0.0000 29.2541 0.0000
# 6 0.0000 0.0000 0.0000 -9.8832 0.0000 27.0564
#
#
#
# Elastic Compliance Matrix: (Units=1/GPa)
#
#
# Indices 1 2 3 4 5 6 
#
# 1 0.012485 -0.006636 -0.000721 0.000000 0.006341 0.000000
# 2 -0.006636 0.021845 -0.004289 0.000000 -0.002246 0.000000
# 3 -0.000721 -0.004289 0.011019 0.000000 0.003865 0.000000
# 4 0.000000 0.000000 0.000000 -1.019263 0.000000 -0.372318
# 5 0.006341 -0.002246 0.003865 0.000000 0.039559 0.000000
# 6 0.000000 0.000000 0.000000 -0.372318 0.000000 -0.099041
#
#
# Mechanical properties :
#
#
# Convention : Reuss Voigt Hill
#
# Bulk Modulus (GPa) = 45.34018 52.19797 48.76908
# Shear Modulus (GPa) = -4.98628 24.28405 9.64888
#
# Velocity S-wave (km/s) = -1.58344 3.49440 2.20268
# Velocity P-wave (km/s) = 4.41085 6.52135 5.56703
#
# Compressibility (1/GPa) = 0.02205549
#
# Stress axis : x y z
#
# Youngs Moduli (GPa) = 80.09705 45.77687 90.75172
#
# Poissons Ratio (x) = 0.30379 0.06545
# Poissons Ratio (y) = 0.53156 0.38925
# Poissons Ratio (z) = 0.05777 0.19634
#
# Static dielectric constant tensor:
#      x y z
#    x 3.807360 0.000000 -0.101440 
#    y 0.000000 3.612280 0.000000 
#    z -0.101440 0.000000 3.730820 
# 
# 
# High freq. dielectric constant tensor:
#      x y z
#    x 1.792200 0.000000 -0.003130 
#    y 0.000000 1.777270 0.000000 
#    z -0.003130 0.000000 1.783030 
# 
# From -- ./inp_files/71550.got.cif
#   From: 2010.06.25/outbox.cif.g09.slc.cpg/sg10_36_cif.got.tgz:71550.got - 2010.06.27 22:07:45.
