data_PCOD8066823
_publ_section_title
;
Structure prediction by ZEFSAII (Michael W. Deem and Ramdas Pophale) SiO2 
 PCOD8066823
Probable space group: P 2/M
;
_chemical_formula_sum "Si O2"
_cell_formula_units_Z 28
_cell_length_a 8.901720
_cell_length_b 13.378864
_cell_length_c 16.184491
_cell_angle_alpha 90.000000
_cell_angle_beta 133.024744
_cell_angle_gamma 90.000000
_cell_volume 1409.109371
_symmetry_space_group_name_H-M "P 2/M"
_symmetry_group_IT_number 10
_symmetry_cell_setting 'monoclinic'
loop_
_space_group_symop_operation_xyz
x,y,z
-x,y,-z
-x,-y,-z
x,-y,z
loop_
_atom_site_type_symbol
_atom_site_label
_atom_site_fract_x
_atom_site_fract_y
_atom_site_fract_z
Si Si1 0.131260 0.386378 0.244719
Si Si2 0.280302 0.236623 0.441534
Si Si3 0.264738 0.106402 0.893597
Si Si4 0.898064 0.885923 0.342779
Si Si5 0.391746 0.615949 0.183257
Si Si6 0.716565 0.310736 0.033779
Si Si7 0.222638 0.702754 0.594953
O O1 0.192613 0.500000 0.290866
O O2 0.189017 0.314723 0.341713
O O3 0.252531 0.351258 0.208256
O O4 0.886508 0.385587 0.134430
O O5 0.500000 0.190787 0.500000
O O6 0.324825 0.294606 0.543517
O O7 0.124773 0.145766 0.397368
O O8 0.250458 0.127734 0.790833
O O9 0.183034 0.200204 0.915403
O O10 0.151387 0.000000 0.872876
O O11 0.500000 0.093082 0.000000
O O12 0.814278 0.815061 0.383940
O O13 0.902340 0.000000 0.376766
O O14 0.368399 0.500000 0.154276
O O15 0.631471 0.640075 0.289855
O O16 0.314327 0.676020 0.074945
O O17 0.500000 0.325089 0.000000
O O18 0.000000 0.649625 0.500000
#
# Coordination Sequence:
#
# PCOD8066823 Si02
#       7
#     4   4   4   4   4   4   4
#     4  11  24  42  62  86 121 169 209 250 309 369
#     4  11  22  40  62  88 122 162 207 256 302 359
#     4   9  17  32  60  90 119 154 193 239 303 364
#     4  10  21  40  64  92 124 160 202 251 312 373
#     4  11  24  41  61  87 123 169 211 250 308 366
#     4  11  22  39  63  93 126 155 201 263 307 362
#     4  10  22  38  61  89 124 160 202 259 305 356
#
# _framework density 19.870706999999999
#
# number of rings (size 3 to 8) (size 9 to 14) (size 15 to 20)
#    0.000    1.571    2.857    2.571    2.000    6.286 
#    0.000    0.000    0.000    3.429    0.000    0.000 
#    0.000    0.000    0.000    0.000    0.000    0.000 
#
# Total GULP energy -347073.131618 kJ/mol
# GULP energy per Si atom -12395.468986 kJ/mol
# Density = 1.982548 g / cm^3
# Si number density = 19.870707 Si / 1000 Ang^3
#
#
#
# Elastic Constant Matrix: (Units=GPa)
#
#
# Indices 1 2 3 4 5 6 
#
# 1 97.2180 27.5510 37.1717 0.0000 -4.6196 0.0000
# 2 27.5510 79.1786 29.3096 0.0000 -17.3526 0.0000
# 3 37.1717 29.3096 128.0060 0.0000 -9.0965 0.0000
# 4 0.0000 0.0000 0.0000 35.8934 0.0000 0.3174
# 5 -4.6196 -17.3526 -9.0965 0.0000 37.7188 0.0000
# 6 0.0000 0.0000 0.0000 0.3174 0.0000 22.0550
#
#
#
# Elastic Compliance Matrix: (Units=1/GPa)
#
#
# Indices 1 2 3 4 5 6 
#
# 1 0.012300 -0.003387 -0.002849 0.000000 -0.000739 0.000000
# 2 -0.003387 0.016044 -0.002233 0.000000 0.006427 0.000000
# 3 -0.002849 -0.002233 0.009211 0.000000 0.000845 0.000000
# 4 0.000000 0.000000 0.000000 0.027864 0.000000 -0.000401
# 5 -0.000739 0.006427 0.000845 0.000000 0.029582 0.000000
# 6 0.000000 0.000000 0.000000 -0.000401 0.000000 0.045347
#
#
# Mechanical properties :
#
#
# Convention : Reuss Voigt Hill
#
# Bulk Modulus (GPa) = 48.50580 54.71858 51.61219
# Shear Modulus (GPa) = 30.45841 33.15813 31.80827
#
# Velocity S-wave (km/s) = 3.91938 4.08940 4.00529
# Velocity P-wave (km/s) = 6.70416 7.06361 6.88623
#
# Compressibility (1/GPa) = 0.02061609
#
# Stress axis : x y z
#
# Youngs Moduli (GPa) = 81.29912 62.33003 108.56877
#
# Poissons Ratio (x) = 0.21114 0.30929
# Poissons Ratio (y) = 0.27539 0.24244
# Poissons Ratio (z) = 0.23160 0.13919
#
# Static dielectric constant tensor:
#      x y z
#    x 3.559010 0.000000 -0.012850 
#    y 0.000000 4.017190 0.000000 
#    z -0.012850 0.000000 3.935140 
# 
# 
# High freq. dielectric constant tensor:
#      x y z
#    x 1.755930 0.000000 -0.000100 
#    y 0.000000 1.767410 0.000000 
#    z -0.000100 0.000000 1.803950 
# 
# From -- ./inp_files/24948.got.cif
#   From: 2010.06.25/outbox.cif.g09.slc.cpg/sg10_13_cif.got.tgz:24948.got - 2010.06.27 22:07:45.
