data_PCOD8066259
_publ_section_title
;
Structure prediction by ZEFSAII (Michael W. Deem and Ramdas Pophale) SiO2 
 PCOD8066259
Probable space group: P 2/M
;
_chemical_formula_sum "Si O2"
_cell_formula_units_Z 28
_cell_length_a 9.085912
_cell_length_b 8.957327
_cell_length_c 28.928417
_cell_angle_alpha 90.000000
_cell_angle_beta 38.139854
_cell_angle_gamma 90.000000
_cell_volume 1454.008787
_symmetry_space_group_name_H-M "P 2/M"
_symmetry_group_IT_number 10
_symmetry_cell_setting 'monoclinic'
loop_
_space_group_symop_operation_xyz
x,y,z
-x,y,-z
-x,-y,-z
x,-y,z
loop_
_atom_site_type_symbol
_atom_site_label
_atom_site_fract_x
_atom_site_fract_y
_atom_site_fract_z
Si Si1 0.886990 0.828611 0.076168
Si Si2 0.826402 0.670690 0.499909
Si Si3 0.056443 0.674187 0.209712
Si Si4 0.327991 0.174508 0.636508
Si Si5 0.232638 0.171623 0.075829
Si Si6 0.013142 0.825371 0.363364
Si Si7 0.605894 0.325753 0.790356
O O1 0.666299 0.723242 0.141777
O O2 0.085311 0.804780 0.065795
O O3 0.799984 0.000000 0.095203
O O4 0.000000 0.777587 0.000000
O O5 0.766233 0.500000 0.502794
O O6 0.586351 0.755221 0.571563
O O7 0.000000 0.684191 0.500000
O O8 0.955675 0.744807 0.424901
O O9 0.000743 0.500000 0.222808
O O10 0.120217 0.727079 0.143036
O O11 0.274590 0.713278 0.189970
O O12 0.817727 0.756788 0.284943
O O13 0.197745 0.209832 0.620471
O O14 0.352373 0.000000 0.639247
O O15 0.230342 0.000000 0.092949
O O16 0.500000 0.226122 0.000000
O O17 0.262351 0.763186 0.282848
O O18 0.040467 0.000000 0.365796
O O19 0.623685 0.500000 0.774753
#
# Coordination Sequence:
#
# PCOD8066259 Si02
#       7
#     4   4   4   4   4   4   4
#     4  10  21  37  58  83 111 146 187 230 277 329
#     4  11  24  39  56  82 116 151 186 227 276 328
#     4  10  21  37  58  84 113 146 184 227 277 331
#     4  10  21  38  61  86 111 144 187 231 276 329
#     4  10  21  37  58  83 111 146 187 230 277 329
#     4  10  21  38  61  86 111 144 187 231 276 329
#     4  10  21  37  58  84 113 146 184 227 277 331
#
# _framework density 19.257106
#
# number of rings (size 3 to 8) (size 9 to 14) (size 15 to 20)
#    0.000    1.857    0.000    3.429    0.000    9.714 
#    0.000    0.000    0.000    0.000    0.000    0.000 
#    0.000    0.000    0.000    0.000    0.000    0.000 
#
# Total GULP energy -347378.880662 kJ/mol
# GULP energy per Si atom -12406.388595 kJ/mol
# Density = 1.921328 g / cm^3
# Si number density = 19.257106 Si / 1000 Ang^3
#
#
#
# Elastic Constant Matrix: (Units=GPa)
#
#
# Indices 1 2 3 4 5 6 
#
# 1 75.2800 41.6884 59.0390 0.0000 5.8677 0.0000
# 2 41.6884 88.8399 57.7020 0.0000 19.5927 0.0000
# 3 59.0390 57.7020 141.5318 0.0000 14.9390 0.0000
# 4 0.0000 0.0000 0.0000 44.5822 0.0000 -2.7202
# 5 5.8677 19.5927 14.9390 0.0000 15.7159 0.0000
# 6 0.0000 0.0000 0.0000 -2.7202 0.0000 31.9748
#
#
#
# Elastic Compliance Matrix: (Units=1/GPa)
#
#
# Indices 1 2 3 4 5 6 
#
# 1 0.022479 -0.007704 -0.007074 0.000000 0.007936 0.000000
# 2 -0.007704 0.021717 -0.003430 0.000000 -0.020937 0.000000
# 3 -0.007074 -0.003430 0.011876 0.000000 -0.004372 0.000000
# 4 0.000000 0.000000 0.000000 0.022548 0.000000 0.001918
# 5 0.007936 -0.020937 -0.004372 0.000000 0.090924 0.000000
# 6 0.000000 0.000000 0.000000 0.001918 0.000000 0.031438
#
#
# Mechanical properties :
#
#
# Convention : Reuss Voigt Hill
#
# Bulk Modulus (GPa) = 50.87511 69.16785 60.02148
# Shear Modulus (GPa) = 20.49607 28.26940 24.38273
#
# Velocity S-wave (km/s) = 3.26596 3.83560 3.56219
# Velocity P-wave (km/s) = 6.37952 7.45734 6.93938
#
# Compressibility (1/GPa) = 0.01965598
#
# Stress axis : x y z
#
# Youngs Moduli (GPa) = 44.48558 46.04760 84.20202
#
# Poissons Ratio (x) = 0.35476 0.59562
# Poissons Ratio (y) = 0.34273 0.28883
# Poissons Ratio (z) = 0.31468 0.15795
#
# Static dielectric constant tensor:
#      x y z
#    x 3.471130 0.000000 -0.033990 
#    y 0.000000 3.619580 0.000000 
#    z -0.033990 0.000000 3.474950 
# 
# 
# High freq. dielectric constant tensor:
#      x y z
#    x 1.747520 0.000000 -0.000350 
#    y 0.000000 1.759030 0.000000 
#    z -0.000350 0.000000 1.762700 
# 
# From -- ./inp_files/36818.got.cif
#   From: 2010.06.25/outbox.cif.g09.slc.cpg/sg10_19_cif.got.tgz:36818.got - 2010.06.27 22:07:45.
