data_PCOD8066002
_publ_section_title
;
Structure prediction by ZEFSAII (Michael W. Deem and Ramdas Pophale) SiO2 
 PCOD8066002
Probable space group: P 2/M
;
_chemical_formula_sum "Si O2"
_cell_formula_units_Z 32
_cell_length_a 11.783496
_cell_length_b 10.360994
_cell_length_c 24.162835
_cell_angle_alpha 90.000000
_cell_angle_beta 146.750040
_cell_angle_gamma 90.000000
_cell_volume 1617.468717
_symmetry_space_group_name_H-M "P 2/M"
_symmetry_group_IT_number 10
_symmetry_cell_setting 'monoclinic'
loop_
_space_group_symop_operation_xyz
x,y,z
-x,y,-z
-x,-y,-z
x,-y,z
loop_
_atom_site_type_symbol
_atom_site_label
_atom_site_fract_x
_atom_site_fract_y
_atom_site_fract_z
Si Si1 0.952089 0.242607 0.640516
Si Si2 0.548399 0.352519 0.295568
Si Si3 0.439361 0.643896 0.573242
Si Si4 0.924314 0.347010 0.910328
Si Si5 0.298997 0.650611 0.852258
Si Si6 0.859677 0.855128 0.390011
Si Si7 0.679679 0.860713 0.617631
Si Si8 0.757227 0.653568 0.049062
O O1 0.156513 0.320159 0.741391
O O2 0.001456 0.151464 0.608638
O O3 0.762455 0.336748 0.547215
O O4 0.891073 0.161114 0.669973
O O5 0.576068 0.500000 0.284590
O O6 0.628755 0.343275 0.391112
O O7 0.311767 0.306726 0.196156
O O8 0.681240 0.253040 0.313195
O O9 0.527255 0.500000 0.597387
O O10 0.625100 0.745020 0.637510
O O11 0.945263 0.500000 0.918684
O O12 0.067021 0.287181 0.919632
O O13 0.000000 0.290756 0.000000
O O14 0.321024 0.500000 0.868753
O O15 0.206132 0.703117 0.872915
O O16 0.531268 0.704367 0.936656
O O17 0.000000 0.824855 0.500000
O O18 0.766294 0.000000 0.356302
O O19 0.500000 0.867497 0.500000
O O20 0.694376 0.000000 0.654724
O O21 0.769674 0.500000 0.050727
#
# Coordination Sequence:
#
# PCOD8066002 Si02
#       8
#     4   4   4   4   4   4   4   4
#     4  11  21  34  56  84 109 149 193 237 284 343
#     4  10  22  38  58  87 118 149 188 241 293 336
#     4  10  21  36  54  85 122 148 178 229 288 343
#     4   9  18  32  54  81 112 150 190 234 284 341
#     4   9  18  30  51  82 116 149 184 234 291 344
#     4  11  24  42  61  81 113 159 201 237 283 349
#     4   9  20  36  54  76 108 149 191 229 264 323
#     4   8  16  32  49  76 115 152 190 230 281 345
#
# _framework density 19.783998
#
# number of rings (size 3 to 8) (size 9 to 14) (size 15 to 20)
#    0.000    2.375    1.250    1.500    3.500    5.000 
#    0.000    0.000    0.000    0.375    0.000    7.000 
#    0.000    0.000    0.000    0.000    0.000    0.000 
#
# Total GULP energy -396616.328717 kJ/mol
# GULP energy per Si atom -12394.260272 kJ/mol
# Density = 1.973897 g / cm^3
# Si number density = 19.783998 Si / 1000 Ang^3
#
#
#
# Elastic Constant Matrix: (Units=GPa)
#
#
# Indices 1 2 3 4 5 6 
#
# 1 97.7724 43.7462 32.8856 0.0000 16.9591 0.0000
# 2 43.7462 98.8340 21.5313 0.0000 14.3012 0.0000
# 3 32.8856 21.5313 91.8470 0.0000 3.5824 0.0000
# 4 0.0000 0.0000 0.0000 3.4193 0.0000 4.5383
# 5 16.9591 14.3012 3.5824 0.0000 30.4246 0.0000
# 6 0.0000 0.0000 0.0000 4.5383 0.0000 21.9983
#
#
#
# Elastic Compliance Matrix: (Units=1/GPa)
#
#
# Indices 1 2 3 4 5 6 
#
# 1 0.014650 -0.004850 -0.003897 0.000000 -0.005427 0.000000
# 2 -0.004850 0.012995 -0.001182 0.000000 -0.003265 0.000000
# 3 -0.003897 -0.001182 0.012511 0.000000 0.001255 0.000000
# 4 0.000000 0.000000 0.000000 0.402727 0.000000 -0.083084
# 5 -0.005427 -0.003265 0.001255 0.000000 0.037281 0.000000
# 6 0.000000 0.000000 0.000000 -0.083084 0.000000 0.062599
#
#
# Mechanical properties :
#
#
# Convention : Reuss Voigt Hill
#
# Bulk Modulus (GPa) = 49.26714 53.86440 51.56577
# Shear Modulus (GPa) = 8.78138 23.85449 16.31793
#
# Velocity S-wave (km/s) = 2.10909 3.47615 2.87506
# Velocity P-wave (km/s) = 5.55766 6.58763 6.09444
#
# Compressibility (1/GPa) = 0.02029751
#
# Stress axis : x y z
#
# Youngs Moduli (GPa) = 68.25938 76.95344 79.92896
#
# Poissons Ratio (x) = 0.37324 0.31146
# Poissons Ratio (y) = 0.33107 0.09451
# Poissons Ratio (z) = 0.26599 0.09099
#
# Static dielectric constant tensor:
#      x y z
#    x 3.799140 0.000000 0.086120 
#    y 0.000000 3.398420 0.000000 
#    z 0.086120 0.000000 3.574430 
# 
# 
# High freq. dielectric constant tensor:
#      x y z
#    x 1.777930 0.000000 0.004150 
#    y 0.000000 1.726220 0.000000 
#    z 0.004150 0.000000 1.762380 
# 
# From -- ./inp_files/92812.got.cif
#   From: 2010.06.25/outbox.cif.g09.slc.cpg/sg10_47_cif.got.tgz:92812.got - 2010.06.27 22:07:45.
