data_PCOD8066663
_publ_section_title
;
Structure prediction by ZEFSAII (Michael W. Deem and Ramdas Pophale) SiO2 
 PCOD8066663
Probable space group: P 2/M
;
_chemical_formula_sum "Si O2"
_cell_formula_units_Z 26
_cell_length_a 20.105735
_cell_length_b 9.662871
_cell_length_c 7.887513
_cell_angle_alpha 90.000000
_cell_angle_beta 53.716764
_cell_angle_gamma 90.000000
_cell_volume 1235.253045
_symmetry_space_group_name_H-M "P 2/M"
_symmetry_group_IT_number 10
_symmetry_cell_setting 'monoclinic'
loop_
_space_group_symop_operation_xyz
x,y,z
-x,y,-z
-x,-y,-z
x,-y,z
loop_
_atom_site_type_symbol
_atom_site_label
_atom_site_fract_x
_atom_site_fract_y
_atom_site_fract_z
Si Si1 0.153575 0.845508 0.967350
Si Si2 0.019649 0.162844 0.658187
Si Si3 0.437153 0.844942 0.744178
Si Si4 0.699924 0.662457 0.185896
Si Si5 0.330934 0.346515 0.378006
Si Si6 0.500000 0.752724 0.000000
Si Si7 0.191084 0.846426 0.522216
O O1 0.211679 0.736887 0.978594
O O2 0.184263 0.857775 0.732317
O O3 0.157345 0.000000 0.047280
O O4 0.058808 0.790746 0.110568
O O5 0.107458 0.227988 0.580578
O O6 0.000000 0.212086 0.500000
O O7 0.032440 0.000000 0.657497
O O8 0.500000 0.804791 0.500000
O O9 0.363793 0.732925 0.848212
O O10 0.479672 0.844576 0.865248
O O11 0.402894 0.000000 0.763414
O O12 0.707706 0.500000 0.132320
O O13 0.667717 0.690492 0.424812
O O14 0.295160 0.500000 0.408806
O O15 0.422468 0.342208 0.164679
O O16 0.271249 0.245586 0.360032
O O17 0.205178 0.000000 0.423101
#
# Coordination Sequence:
#
# PCOD8066663 Si02
#       7
#     4   4   4   4   4   2   4
#     4   9  17  32  56  83 112 149 193 239 291 350
#     4   9  17  30  51  80 111 144 187 239 293 350
#     4  11  24  42  64  90 120 154 198 251 301 354
#     4  10  21  39  61  87 120 159 198 242 299 359
#     4  10  22  39  60  86 118 156 200 247 299 360
#     4  12  24  42  64  92 118 160 202 250 302 362
#     4   9  18  33  55  81 112 149 191 242 295 352
#
# _framework density 21.048317000000001
#
# number of rings (size 3 to 8) (size 9 to 14) (size 15 to 20)
#    0.000    2.154    1.538    1.385    0.000    6.462 
#    0.000    2.308    0.000    4.615    0.000    0.000 
#    0.000    0.000    0.000    0.000    0.000    0.000 
#
# Total GULP energy -322286.743176 kJ/mol
# GULP energy per Si atom -12395.643968 kJ/mol
# Density = 2.100041 g / cm^3
# Si number density = 21.048317 Si / 1000 Ang^3
#
#
#
# Elastic Constant Matrix: (Units=GPa)
#
#
# Indices 1 2 3 4 5 6 
#
# 1 145.3225 68.0263 38.1707 0.0000 -27.2010 0.0000
# 2 68.0263 103.0042 26.7650 0.0000 -20.9770 0.0000
# 3 38.1707 26.7650 71.6505 0.0000 -24.3875 0.0000
# 4 0.0000 0.0000 0.0000 13.4443 0.0000 -4.2948
# 5 -27.2010 -20.9770 -24.3875 0.0000 37.6026 0.0000
# 6 0.0000 0.0000 0.0000 -4.2948 0.0000 11.5190
#
#
#
# Elastic Compliance Matrix: (Units=1/GPa)
#
#
# Indices 1 2 3 4 5 6 
#
# 1 0.010874 -0.005920 -0.002603 0.000000 0.002876 0.000000
# 2 -0.005920 0.014560 -0.001255 0.000000 0.003026 0.000000
# 3 -0.002603 -0.001255 0.019163 0.000000 0.009845 0.000000
# 4 0.000000 0.000000 0.000000 0.084438 0.000000 0.031482
# 5 0.002876 0.003026 0.009845 0.000000 0.036748 0.000000
# 6 0.000000 0.000000 0.000000 0.031482 0.000000 0.098551
#
#
# Mechanical properties :
#
#
# Convention : Reuss Voigt Hill
#
# Bulk Modulus (GPa) = 39.93310 65.10012 52.51661
# Shear Modulus (GPa) = 17.10937 24.98087 21.04512
#
# Velocity S-wave (km/s) = 2.85417 3.44878 3.16547
# Velocity P-wave (km/s) = 5.46580 6.84506 6.19394
#
# Compressibility (1/GPa) = 0.02504188
#
# Stress axis : x y z
#
# Youngs Moduli (GPa) = 91.96085 68.68012 52.18311
#
# Poissons Ratio (x) = 0.40655 0.13583
# Poissons Ratio (y) = 0.54437 0.06551
# Poissons Ratio (z) = 0.23938 0.08622
#
# Static dielectric constant tensor:
#      x y z
#    x 3.888720 0.000000 -0.153050 
#    y 0.000000 3.652030 0.000000 
#    z -0.153050 0.000000 3.736990 
# 
# 
# High freq. dielectric constant tensor:
#      x y z
#    x 1.828570 0.000000 -0.009560 
#    y 0.000000 1.792060 0.000000 
#    z -0.009560 0.000000 1.822590 
# 
# From -- ./inp_files/34183.got.cif
#   From: 2010.06.25/outbox.cif.g09.slc.cpg/sg10_18_cif.got.tgz:34183.got - 2010.06.27 22:07:45.
