data_PCOD8066196
_publ_section_title
;
Structure prediction by ZEFSAII (Michael W. Deem and Ramdas Pophale) SiO2 
 PCOD8066196
Probable space group: P 2/M
;
_chemical_formula_sum "Si O2"
_cell_formula_units_Z 32
_cell_length_a 26.771393
_cell_length_b 8.926707
_cell_length_c 20.857450
_cell_angle_alpha 90.000000
_cell_angle_beta 160.315929
_cell_angle_gamma 90.000000
_cell_volume 1678.953793
_symmetry_space_group_name_H-M "P 2/M"
_symmetry_group_IT_number 10
_symmetry_cell_setting 'monoclinic'
loop_
_space_group_symop_operation_xyz
x,y,z
-x,y,-z
-x,-y,-z
x,-y,z
loop_
_atom_site_type_symbol
_atom_site_label
_atom_site_fract_x
_atom_site_fract_y
_atom_site_fract_z
Si Si1 0.458417 0.328670 0.021359
Si Si2 0.038922 0.322711 0.948910
Si Si3 0.016526 0.322230 0.259039
Si Si4 0.327478 0.175971 0.624314
Si Si5 0.205898 0.822914 0.912652
Si Si6 0.467182 0.824139 0.659422
Si Si7 0.765273 0.323051 0.701528
Si Si8 0.845960 0.671876 0.283108
O O1 0.507571 0.500000 0.094306
O O2 0.541129 0.216817 0.168826
O O3 0.500000 0.280478 0.000000
O O4 0.282064 0.310076 0.818233
O O5 0.027945 0.500000 0.936222
O O6 0.183914 0.273749 0.165198
O O7 0.047905 0.262581 0.887086
O O8 0.889786 0.262024 0.802554
O O9 0.012303 0.500000 0.257986
O O10 0.921289 0.255087 0.200697
O O11 0.183463 0.268012 0.470287
O O12 0.377090 0.225897 0.613471
O O13 0.294974 0.000000 0.588848
O O14 0.192070 0.776425 0.822442
O O15 0.189358 0.000000 0.897770
O O16 0.364125 0.767623 0.131078
O O17 0.392084 0.750342 0.506134
O O18 0.463235 0.000000 0.645976
O O19 0.747330 0.500000 0.675295
O O20 0.858504 0.500000 0.274804
O O21 0.000000 0.726337 0.500000
#
# Coordination Sequence:
#
# PCOD8066196 Si02
#       8
#     4   4   4   4   4   4   4   4
#     4  10  22  39  60  88 119 150 189 238 287 336
#     4   8  16  31  53  84 116 144 183 241 292 338
#     4  11  22  38  60  87 116 151 194 242 293 343
#     4  11  22  38  59  86 118 153 193 239 288 341
#     4  11  24  42  59  82 118 158 195 236 285 344
#     4  10  21  37  56  82 117 152 192 235 281 337
#     4   9  16  31  57  84 111 146 190 237 289 339
#     4  10  22  40  61  86 116 152 193 235 283 340
#
# _framework density 19.05949
#
# number of rings (size 3 to 8) (size 9 to 14) (size 15 to 20)
#    0.000    2.000    2.500    1.875    1.750    2.000 
#    0.000    3.125    0.000    3.750    0.000    0.000 
#    0.000    0.000    0.000    0.000    0.000    0.000 
#
# Total GULP energy -396831.979303 kJ/mol
# GULP energy per Si atom -12400.999353 kJ/mol
# Density = 1.901611 g / cm^3
# Si number density = 19.059490 Si / 1000 Ang^3
#
#
#
# Elastic Constant Matrix: (Units=GPa)
#
#
# Indices 1 2 3 4 5 6 
#
# 1 74.2846 19.3533 33.2593 0.0000 6.5323 0.0000
# 2 19.3533 44.9034 30.9452 0.0000 2.7976 0.0000
# 3 33.2593 30.9452 137.6443 0.0000 -0.3505 0.0000
# 4 0.0000 0.0000 0.0000 26.8295 0.0000 1.0200
# 5 6.5323 2.7976 -0.3505 0.0000 33.5136 0.0000
# 6 0.0000 0.0000 0.0000 1.0200 0.0000 14.3170
#
#
#
# Elastic Compliance Matrix: (Units=1/GPa)
#
#
# Indices 1 2 3 4 5 6 
#
# 1 0.016247 -0.004873 -0.002837 0.000000 -0.002790 0.000000
# 2 -0.004873 0.027987 -0.005118 0.000000 -0.001440 0.000000
# 3 -0.002837 -0.005118 0.009104 0.000000 0.001075 0.000000
# 4 0.000000 0.000000 0.000000 0.037374 0.000000 -0.002663
# 5 -0.002790 -0.001440 0.001075 0.000000 0.030514 0.000000
# 6 0.000000 0.000000 0.000000 -0.002663 0.000000 0.070037
#
#
# Mechanical properties :
#
#
# Convention : Reuss Voigt Hill
#
# Bulk Modulus (GPa) = 36.12609 47.10532 41.61570
# Shear Modulus (GPa) = 22.10950 26.48366 24.29658
#
# Velocity S-wave (km/s) = 3.40961 3.73168 3.57427
# Velocity P-wave (km/s) = 5.87334 6.58299 6.23827
#
# Compressibility (1/GPa) = 0.02768082
#
# Stress axis : x y z
#
# Youngs Moduli (GPa) = 61.54968 35.73040 109.84055
#
# Poissons Ratio (x) = 0.17413 0.31165
# Poissons Ratio (y) = 0.29995 0.56219
# Poissons Ratio (z) = 0.17463 0.18288
#
# Static dielectric constant tensor:
#      x y z
#    x 3.558420 0.000000 -0.092880 
#    y 0.000000 3.277230 0.000000 
#    z -0.092880 0.000000 3.642560 
# 
# 
# High freq. dielectric constant tensor:
#      x y z
#    x 1.733240 0.000000 -0.006920 
#    y 0.000000 1.726220 0.000000 
#    z -0.006920 0.000000 1.751090 
# 
# From -- ./inp_files/86977.got.cif
#   From: 2010.06.25/outbox.cif.g09.slc.cpg/sg10_44_cif.got.tgz:86977.got - 2010.06.27 22:07:45.
