data_PCOD8066008
_publ_section_title
;
Structure prediction by ZEFSAII (Michael W. Deem and Ramdas Pophale) SiO2 
 PCOD8066008
Probable space group: P 2/M
;
_chemical_formula_sum "Si O2"
_cell_formula_units_Z 20
_cell_length_a 27.193845
_cell_length_b 8.849686
_cell_length_c 9.627800
_cell_angle_alpha 90.000000
_cell_angle_beta 152.285571
_cell_angle_gamma 90.000000
_cell_volume 1077.554385
_symmetry_space_group_name_H-M "P 2/M"
_symmetry_group_IT_number 10
_symmetry_cell_setting 'monoclinic'
loop_
_space_group_symop_operation_xyz
x,y,z
-x,y,-z
-x,-y,-z
x,-y,z
loop_
_atom_site_type_symbol
_atom_site_label
_atom_site_fract_x
_atom_site_fract_y
_atom_site_fract_z
Si Si1 0.596205 0.173631 0.149072
Si Si2 0.824365 0.821541 0.422423
Si Si3 0.987469 0.176853 0.308757
Si Si4 0.591536 0.172964 0.820184
Si Si5 0.182259 0.322183 0.304414
O O1 0.699254 0.272318 0.436253
O O2 0.622611 0.000000 0.252658
O O3 0.500000 0.236742 0.000000
O O4 0.558446 0.189059 0.896751
O O5 0.859936 0.749609 0.657422
O O6 0.905494 0.778543 0.504472
O O7 0.817321 0.000000 0.431605
O O8 0.708637 0.756442 0.089624
O O9 0.000000 0.223795 0.500000
O O10 0.963087 0.000000 0.232049
O O11 0.890920 0.269796 0.004843
O O12 0.500000 0.255248 0.500000
O O13 0.598287 0.000000 0.788458
O O14 0.177323 0.500000 0.307286
#
# Coordination Sequence:
#
# PCOD8066008 Si02
#       5
#     4   4   4   4   4
#     4   9  18  33  54  77 101 133 174 217 258 304
#     4   9  18  34  55  77 103 137 177 218 259 309
#     4  10  21  36  55  79 105 134 174 225 272 312
#     4   8  14  26  47  75 101 125 159 205 255 302
#     4  11  22  35  53  76 106 143 178 213 258 317
#
# _framework density 18.560545999999999
#
# number of rings (size 3 to 8) (size 9 to 14) (size 15 to 20)
#    0.000    2.600    0.000    3.600    0.000    5.600 
#    0.000    6.000    0.000    9.600    0.000    0.000 
#    0.000    0.000    0.000    0.000    0.000    0.000 
#
# Total GULP energy -247982.629563 kJ/mol
# GULP energy per Si atom -12399.131478 kJ/mol
# Density = 1.851830 g / cm^3
# Si number density = 18.560546 Si / 1000 Ang^3
#
#
#
# Elastic Constant Matrix: (Units=GPa)
#
#
# Indices 1 2 3 4 5 6 
#
# 1 147.4543 39.0290 68.2002 0.0000 7.1446 0.0000
# 2 39.0290 57.6986 43.6017 0.0000 -1.6721 0.0000
# 3 68.2002 43.6017 141.6953 0.0000 -8.7803 0.0000
# 4 0.0000 0.0000 0.0000 9.1217 0.0000 2.7256
# 5 7.1446 -1.6721 -8.7803 0.0000 21.3215 0.0000
# 6 0.0000 0.0000 0.0000 2.7256 0.0000 8.8855
#
#
#
# Elastic Compliance Matrix: (Units=1/GPa)
#
#
# Indices 1 2 3 4 5 6 
#
# 1 0.009852 -0.003893 -0.003866 0.000000 -0.005199 0.000000
# 2 -0.003893 0.024147 -0.005499 0.000000 0.000934 0.000000
# 3 -0.003866 -0.005499 0.010943 0.000000 0.005371 0.000000
# 4 0.000000 0.000000 0.000000 0.120691 0.000000 -0.037022
# 5 -0.005199 0.000934 0.005371 0.000000 0.050928 0.000000
# 6 0.000000 0.000000 0.000000 -0.037022 0.000000 0.123899
#
#
# Mechanical properties :
#
#
# Convention : Reuss Voigt Hill
#
# Bulk Modulus (GPa) = 54.27047 72.05664 63.16356
# Shear Modulus (GPa) = 13.40054 20.93357 17.16706
#
# Velocity S-wave (km/s) = 2.68990 3.36200 3.04455
# Velocity P-wave (km/s) = 6.24104 7.34693 6.81645
#
# Compressibility (1/GPa) = 0.01842623
#
# Stress axis : x y z
#
# Youngs Moduli (GPa) = 101.49825 41.41239 91.38220
#
# Poissons Ratio (x) = 0.16124 0.35330
# Poissons Ratio (y) = 0.39518 0.50248
# Poissons Ratio (z) = 0.39241 0.22771
#
# Static dielectric constant tensor:
#      x y z
#    x 3.470720 0.000000 0.112740 
#    y 0.000000 3.058780 0.000000 
#    z 0.112740 0.000000 3.661610 
# 
# 
# High freq. dielectric constant tensor:
#      x y z
#    x 1.722060 0.000000 0.006860 
#    y 0.000000 1.682430 0.000000 
#    z 0.006860 0.000000 1.729830 
# 
# From -- ./inp_files/26752.got.cif
#   From: 2010.06.25/outbox.cif.g09.slc.cpg/sg10_14_cif.got.tgz:26752.got - 2010.06.27 22:07:45.
