data_PCOD8066794
_publ_section_title
;
Structure prediction by ZEFSAII (Michael W. Deem and Ramdas Pophale) SiO2 
 PCOD8066794
Probable space group: P 2/M
;
_chemical_formula_sum "Si O2"
_cell_formula_units_Z 24
_cell_length_a 15.955865
_cell_length_b 14.385772
_cell_length_c 9.754284
_cell_angle_alpha 90.000000
_cell_angle_beta 35.125838
_cell_angle_gamma 90.000000
_cell_volume 1288.247370
_symmetry_space_group_name_H-M "P 2/M"
_symmetry_group_IT_number 10
_symmetry_cell_setting 'monoclinic'
loop_
_space_group_symop_operation_xyz
x,y,z
-x,y,-z
-x,-y,-z
x,-y,z
loop_
_atom_site_type_symbol
_atom_site_label
_atom_site_fract_x
_atom_site_fract_y
_atom_site_fract_z
Si Si1 0.640963 0.107248 0.230463
Si Si2 0.941543 0.392538 0.222803
Si Si3 0.835654 0.892538 0.222802
Si Si4 0.363973 0.750000 0.000000
Si Si5 0.307257 0.750000 0.385487
Si Si6 0.871426 0.607248 0.769537
O O1 0.500000 0.144497 0.500000
O O2 0.777951 0.122886 0.146338
O O3 0.665085 0.162287 0.058270
O O4 0.619699 0.000000 0.217983
O O5 0.894976 0.500000 0.279421
O O6 0.797530 0.337849 0.457969
O O7 0.075711 0.377113 0.146338
O O8 0.000000 0.355683 0.000000
O O9 0.744500 0.837849 0.457969
O O10 0.825604 0.000000 0.279420
O O11 0.000000 0.855682 0.000000
O O12 0.532909 0.720451 0.776653
O O13 0.309562 0.779550 0.223348
O O14 0.276645 0.662287 0.058271
O O15 0.837682 0.500000 0.782018
O O16 0.000000 0.644496 0.500000
#
# Coordination Sequence:
#
# PCOD8066794 Si02
#       6
#     4   4   4   4   4   4
#     4  10  21  40  61  84 118 158 197 239 293 354
#     4  10  22  40  62  86 115 157 201 242 293 350
#     4  10  22  40  62  86 115 157 201 242 293 350
#     4  11  24  36  59  92 118 158 197 240 300 355
#     4  11  23  38  56  88 125 153 194 246 298 349
#     4  10  21  40  61  84 118 158 197 239 293 354
#
# _framework density 18.629963
#
# number of rings (size 3 to 8) (size 9 to 14) (size 15 to 20)
#    0.000    1.667    3.333    0.500    4.667    1.333 
#    0.000    3.333    0.000    7.000    0.000    0.000 
#    0.000    0.000    0.000    0.000    0.000    0.000 
#
# Total GULP energy -297699.287254 kJ/mol
# GULP energy per Si atom -12404.136969 kJ/mol
# Density = 1.858756 g / cm^3
# Si number density = 18.629963 Si / 1000 Ang^3
#
#
#
# Elastic Constant Matrix: (Units=GPa)
#
#
# Indices 1 2 3 4 5 6 
#
# 1 122.4091 51.2374 70.0100 0.0000 -1.2541 0.0000
# 2 51.2374 84.9936 57.2953 0.0000 -0.3326 0.0000
# 3 70.0100 57.2953 126.5271 0.0000 1.0284 0.0000
# 4 0.0000 0.0000 0.0000 33.8481 0.0000 -0.6158
# 5 -1.2541 -0.3326 1.0284 0.0000 37.4945 0.0000
# 6 0.0000 0.0000 0.0000 -0.6158 0.0000 22.6354
#
#
#
# Elastic Compliance Matrix: (Units=1/GPa)
#
#
# Indices 1 2 3 4 5 6 
#
# 1 0.012963 -0.004281 -0.005238 0.000000 0.000539 0.000000
# 2 -0.004281 0.018354 -0.005944 0.000000 0.000183 0.000000
# 3 -0.005238 -0.005944 0.013498 0.000000 -0.000598 0.000000
# 4 0.000000 0.000000 0.000000 0.029558 0.000000 0.000804
# 5 0.000539 0.000183 -0.000598 0.000000 0.026707 0.000000
# 6 0.000000 0.000000 0.000000 0.000804 0.000000 0.044200
#
#
# Mechanical properties :
#
#
# Convention : Reuss Voigt Hill
#
# Bulk Modulus (GPa) = 72.00237 76.77948 74.39093
# Shear Modulus (GPa) = 27.64923 29.15474 28.40199
#
# Velocity S-wave (km/s) = 3.85662 3.96022 3.90876
# Velocity P-wave (km/s) = 7.65271 7.88755 7.77102
#
# Compressibility (1/GPa) = 0.01388843
#
# Stress axis : x y z
#
# Youngs Moduli (GPa) = 77.14369 54.48406 74.08302
#
# Poissons Ratio (x) = 0.23325 0.38807
# Poissons Ratio (y) = 0.33026 0.44034
# Poissons Ratio (z) = 0.40411 0.32385
#
# Static dielectric constant tensor:
#      x y z
#    x 3.655160 0.000000 0.007880 
#    y 0.000000 3.308380 0.000000 
#    z 0.007880 0.000000 3.511730 
# 
# 
# High freq. dielectric constant tensor:
#      x y z
#    x 1.741200 0.000000 0.001050 
#    y 0.000000 1.718630 0.000000 
#    z 0.001050 0.000000 1.722150 
# 
# From -- ./inp_files/29303.got.cif
#   From: 2010.06.25/outbox.cif.g09.slc.cpg/sg10_15_cif.got.tgz:29303.got - 2010.06.27 22:07:45.
