data_PCOD8066875
_publ_section_title
;
Structure prediction by ZEFSAII (Michael W. Deem and Ramdas Pophale) SiO2 
 PCOD8066875
Probable space group: P 2/M
;
_chemical_formula_sum "Si O2"
_cell_formula_units_Z 20
_cell_length_a 32.993927
_cell_length_b 7.448722
_cell_length_c 10.238758
_cell_angle_alpha 90.000000
_cell_angle_beta 25.196895
_cell_angle_gamma 90.000000
_cell_volume 1071.266612
_symmetry_space_group_name_H-M "P 2/M"
_symmetry_group_IT_number 10
_symmetry_cell_setting 'monoclinic'
loop_
_space_group_symop_operation_xyz
x,y,z
-x,y,-z
-x,-y,-z
x,-y,z
loop_
_atom_site_type_symbol
_atom_site_label
_atom_site_fract_x
_atom_site_fract_y
_atom_site_fract_z
Si Si1 0.916474 0.794978 0.649590
Si Si2 0.279431 0.801174 0.371907
Si Si3 0.577232 0.000000 0.662081
Si Si4 0.283800 0.703885 0.653903
Si Si5 0.550372 0.000000 0.214868
Si Si6 0.147991 0.500000 0.648647
Si Si7 0.053751 0.500000 0.643747
O O1 0.915080 0.677812 0.523298
O O2 0.000000 0.725037 0.500000
O O3 0.933348 0.000000 0.557779
O O4 0.820210 0.775781 0.010629
O O5 0.299323 0.714402 0.453954
O O6 0.210469 0.677697 0.487887
O O7 0.232437 0.000000 0.526181
O O8 0.381927 0.823791 0.000315
O O9 0.640050 0.178249 0.491019
O O10 0.531658 0.000000 0.653282
O O11 0.500000 0.000000 0.000000
O O12 0.296652 0.500000 0.663559
O O13 0.500000 0.000000 0.500000
O O14 0.111343 0.500000 0.609189
O O15 0.059810 0.500000 0.005494
#
# Coordination Sequence:
#
# PCOD8066875 Si02
#       7
#     4   4   2   4   2   2   2
#     4  11  23  40  64  97 133 169 214 266 325 382
#     4  10  21  41  67  90 124 168 217 259 319 392
#     4  12  22  44  63  96 130 158 219 279 321 388
#     4  12  22  38  69  97 127 168 211 272 329 377
#     4  10  24  46  68  91 129 170 213 276 331 386
#     4  11  24  42  65  91 131 178 217 255 321 396
#     4  11  25  40  60  98 137 168 213 271 314 386
#
# _framework density 18.669488000000001
#
# number of rings (size 3 to 8) (size 9 to 14) (size 15 to 20)
#    0.600    0.400    6.000    1.500    0.000    5.200 
#    1.800    2.500    0.000    0.000    0.000    0.000 
#    0.000    0.000    0.000    0.000    0.000    0.000 
#
# Total GULP energy -248034.791933 kJ/mol
# GULP energy per Si atom -12401.739597 kJ/mol
# Density = 1.862700 g / cm^3
# Si number density = 18.669488 Si / 1000 Ang^3
#
#
#
# Elastic Constant Matrix: (Units=GPa)
#
#
# Indices 1 2 3 4 5 6 
#
# 1 120.5474 44.0644 61.2268 0.0000 -5.9560 0.0000
# 2 44.0644 117.3056 23.4371 0.0000 -11.9279 0.0000
# 3 61.2268 23.4371 134.2677 0.0000 -2.8940 0.0000
# 4 0.0000 0.0000 0.0000 21.4438 0.0000 12.6092
# 5 -5.9560 -11.9279 -2.8940 0.0000 37.1341 0.0000
# 6 0.0000 0.0000 0.0000 12.6092 0.0000 -1.6625
#
#
#
# Elastic Compliance Matrix: (Units=1/GPa)
#
#
# Indices 1 2 3 4 5 6 
#
# 1 0.012086 -0.003520 -0.004887 0.000000 0.000427 0.000000
# 2 -0.003520 0.010141 -0.000107 0.000000 0.002685 0.000000
# 3 -0.004887 -0.000107 0.009694 0.000000 -0.000063 0.000000
# 4 0.000000 0.000000 0.000000 0.008541 0.000000 0.064782
# 5 0.000427 0.002685 -0.000063 0.000000 0.027855 0.000000
# 6 0.000000 0.000000 0.000000 0.064782 0.000000 -0.110171
#
#
# Mechanical properties :
#
#
# Convention : Reuss Voigt Hill
#
# Bulk Modulus (GPa) = 67.15219 69.95305 68.55262
# Shear Modulus (GPa) = -251.76280 27.60923 -112.07679
#
# Velocity S-wave (km/s) = -11.62520 3.84974 -7.75644
# Velocity P-wave (km/s) = 12.00611 7.57042 6.58921
#
# Compressibility (1/GPa) = 0.01489155
#
# Stress axis : x y z
#
# Youngs Moduli (GPa) = 82.74289 98.60613 103.15766
#
# Poissons Ratio (x) = 0.34708 0.50418
# Poissons Ratio (y) = 0.29125 0.01106
# Poissons Ratio (z) = 0.40441 0.01058
#
# Static dielectric constant tensor:
#      x y z
#    x 3.189940 0.000000 -0.049160 
#    y 0.000000 3.574500 0.000000 
#    z -0.049160 0.000000 3.502330 
# 
# 
# High freq. dielectric constant tensor:
#      x y z
#    x 1.718700 0.000000 -0.006960 
#    y 0.000000 1.732900 0.000000 
#    z -0.006960 0.000000 1.731330 
# 
# From -- ./inp_files/37827.got.cif
#   From: 2010.06.25/outbox.cif.g09.slc.cpg/sg10_19_cif.got.tgz:37827.got - 2010.06.27 22:07:45.
