data_PCOD8066051
_publ_section_title
;
Structure prediction by ZEFSAII (Michael W. Deem and Ramdas Pophale) SiO2 
 PCOD8066051
Probable space group: P 2/M
;
_chemical_formula_sum "Si O2"
_cell_formula_units_Z 32
_cell_length_a 10.908691
_cell_length_b 8.957905
_cell_length_c 19.688040
_cell_angle_alpha 90.000000
_cell_angle_beta 55.068969
_cell_angle_gamma 90.000000
_cell_volume 1577.290465
_symmetry_space_group_name_H-M "P 2/M"
_symmetry_group_IT_number 10
_symmetry_cell_setting 'monoclinic'
loop_
_space_group_symop_operation_xyz
x,y,z
-x,y,-z
-x,-y,-z
x,-y,z
loop_
_atom_site_type_symbol
_atom_site_label
_atom_site_fract_x
_atom_site_fract_y
_atom_site_fract_z
Si Si1 0.236760 0.673696 0.533464
Si Si2 0.092324 0.831932 0.218607
Si Si3 0.827104 0.676835 0.045403
Si Si4 0.335479 0.173620 0.031268
Si Si5 0.342809 0.826716 0.778672
Si Si6 0.206955 0.326603 0.696501
Si Si7 0.929258 0.169970 0.621218
Si Si8 0.651351 0.173404 0.624073
O O1 0.239966 0.500000 0.521002
O O2 0.268601 0.713165 0.601943
O O3 0.363334 0.743569 0.444081
O O4 0.074743 0.732174 0.563472
O O5 0.237628 0.797265 0.128708
O O6 0.139103 0.817035 0.281899
O O7 0.968501 0.708528 0.241113
O O8 0.032015 0.000000 0.222414
O O9 0.822587 0.500000 0.039981
O O10 0.735914 0.725629 0.140460
O O11 0.744333 0.744328 0.006190
O O12 0.000000 0.731293 0.000000
O O13 0.346834 0.000000 0.007555
O O14 0.500000 0.235303 0.000000
O O15 0.288651 0.783678 0.721224
O O16 0.519288 0.791753 0.719482
O O17 0.308569 0.000000 0.804796
O O18 0.232594 0.500000 0.706656
O O19 0.803130 0.229775 0.610687
O O20 0.973582 0.000000 0.590516
O O21 0.653526 0.000000 0.606703
#
# Coordination Sequence:
#
# PCOD8066051 Si02
#       8
#     4   4   4   4   4   4   4   4
#     4  10  21  36  56  83 115 153 194 236 285 345
#     4   9  18  34  59  86 112 149 193 237 290 347
#     4  11  25  44  65  90 124 164 205 251 305 370
#     4  10  22  38  62  93 125 159 200 254 307 361
#     4  11  24  40  62  88 115 149 195 246 295 350
#     4  10  21  38  58  82 115 152 193 240 290 346
#     4   9  18  34  57  82 113 151 192 236 286 343
#     4  10  22  37  56  83 116 151 189 240 293 343
#
# _framework density 20.287956000000001
#
# number of rings (size 3 to 8) (size 9 to 14) (size 15 to 20)
#    0.000    2.000    0.000    2.625    1.750    8.750 
#    0.000    2.500    0.000    0.000    0.000    0.000 
#    0.000    0.000    0.000    0.000    0.000    0.000 
#
# Total GULP energy -396752.596551 kJ/mol
# GULP energy per Si atom -12398.518642 kJ/mol
# Density = 2.024178 g / cm^3
# Si number density = 20.287956 Si / 1000 Ang^3
#
#
#
# Elastic Constant Matrix: (Units=GPa)
#
#
# Indices 1 2 3 4 5 6 
#
# 1 87.6257 31.3354 42.4687 0.0000 10.3653 0.0000
# 2 31.3354 49.8524 39.6459 0.0000 2.7201 0.0000
# 3 42.4687 39.6459 113.3733 0.0000 5.3032 0.0000
# 4 0.0000 0.0000 0.0000 31.6772 0.0000 8.7583
# 5 10.3653 2.7201 5.3032 0.0000 20.0563 0.0000
# 6 0.0000 0.0000 0.0000 8.7583 0.0000 10.0237
#
#
#
# Elastic Compliance Matrix: (Units=1/GPa)
#
#
# Indices 1 2 3 4 5 6 
#
# 1 0.016408 -0.007356 -0.003264 0.000000 -0.006619 0.000000
# 2 -0.007356 0.031114 -0.008207 0.000000 0.001752 0.000000
# 3 -0.003264 -0.008207 0.012942 0.000000 -0.000622 0.000000
# 4 0.000000 0.000000 0.000000 0.041624 0.000000 -0.036370
# 5 -0.006619 0.001752 -0.000622 0.000000 0.053207 0.000000
# 6 0.000000 0.000000 0.000000 -0.036370 0.000000 0.131542
#
#
# Mechanical properties :
#
#
# Convention : Reuss Voigt Hill
#
# Bulk Modulus (GPa) = 43.84132 53.08350 48.46241
# Shear Modulus (GPa) = 15.05593 21.51153 18.28373
#
# Velocity S-wave (km/s) = 2.72713 3.25977 3.00527
# Velocity P-wave (km/s) = 5.61896 6.35531 5.99845
#
# Compressibility (1/GPa) = 0.02280953
#
# Stress axis : x y z
#
# Youngs Moduli (GPa) = 60.94656 32.13979 77.26734
#
# Poissons Ratio (x) = 0.23643 0.25221
# Poissons Ratio (y) = 0.44834 0.63411
# Poissons Ratio (z) = 0.19894 0.26376
#
# Static dielectric constant tensor:
#      x y z
#    x 3.828350 0.000000 0.014910 
#    y 0.000000 3.618110 0.000000 
#    z 0.014910 0.000000 3.894630 
# 
# 
# High freq. dielectric constant tensor:
#      x y z
#    x 1.789640 0.000000 0.004930 
#    y 0.000000 1.785290 0.000000 
#    z 0.004930 0.000000 1.808660 
# 
# From -- ./inp_files/83521.got.cif
#   From: 2010.06.25/outbox.cif.g09.slc.cpg/sg10_42_cif.got.tgz:83521.got - 2010.06.27 22:07:45.
