data_PCOD8066616
_publ_section_title
;
Structure prediction by ZEFSAII (Michael W. Deem and Ramdas Pophale) SiO2 
 PCOD8066616
Probable space group: P 2/M
;
_chemical_formula_sum "Si O2"
_cell_formula_units_Z 32
_cell_length_a 24.212380
_cell_length_b 14.409029
_cell_length_c 9.240715
_cell_angle_alpha 90.000000
_cell_angle_beta 29.401303
_cell_angle_gamma 90.000000
_cell_volume 1582.674676
_symmetry_space_group_name_H-M "P 2/M"
_symmetry_group_IT_number 10
_symmetry_cell_setting 'monoclinic'
loop_
_space_group_symop_operation_xyz
x,y,z
-x,y,-z
-x,-y,-z
x,-y,z
loop_
_atom_site_type_symbol
_atom_site_label
_atom_site_fract_x
_atom_site_fract_y
_atom_site_fract_z
Si Si1 0.893017 0.686559 0.144068
Si Si2 0.736408 0.603471 0.286372
Si Si3 0.696353 0.721155 0.816796
Si Si4 0.026051 0.771746 0.604995
Si Si5 0.583796 0.896841 0.433074
Si Si6 0.537686 0.256471 0.762641
Si Si7 0.768804 0.103947 0.794380
Si Si8 0.186723 0.390738 0.211280
O O1 0.840022 0.605730 0.164397
O O2 0.792878 0.718750 0.475857
O O3 0.000000 0.655626 0.000000
O O4 0.925536 0.768483 0.953604
O O5 0.688250 0.500000 0.391725
O O6 0.635088 0.668919 0.565846
O O7 0.778560 0.632510 0.031336
O O8 0.690697 0.829716 0.874571
O O9 0.719119 0.649930 0.896285
O O10 0.571889 0.692186 0.052174
O O11 0.109627 0.849808 0.472236
O O12 0.073391 0.666307 0.502197
O O13 0.000000 0.799936 0.500000
O O14 0.500000 0.860098 0.500000
O O15 0.585415 0.827692 0.561954
O O16 0.545061 0.000000 0.570768
O O17 0.711341 0.900534 0.082972
O O18 0.500000 0.212497 0.000000
O O19 0.778416 0.000000 0.706046
O O20 0.166514 0.500000 0.284867
#
# Coordination Sequence:
#
# PCOD8066616 Si02
#       8
#     4   4   4   4   4   4   4   4
#     4  12  23  42  63  91 125 166 215 259 314 373
#     4  11  26  43  63  95 128 167 214 263 317 376
#     4  11  23  41  62  95 125 171 207 258 316 380
#     4  11  22  39  64  86 124 166 211 266 313 369
#     4  10  21  38  66  96 121 160 214 260 308 372
#     4  12  24  41  65  91 135 170 207 258 326 379
#     4  10  21  39  64  94 126 162 209 261 317 379
#     4  10  22  40  63  92 122 159 211 260 314 371
#
# _framework density 20.218938000000001
#
# number of rings (size 3 to 8) (size 9 to 14) (size 15 to 20)
#    0.000    1.125    6.250    1.500    0.000    2.750 
#    0.000    2.500    0.000    0.000    0.000    0.000 
#    0.000    0.000    0.000    0.000    0.000    0.000 
#
# Total GULP energy -396592.555683 kJ/mol
# GULP energy per Si atom -12393.517365 kJ/mol
# Density = 2.017292 g / cm^3
# Si number density = 20.218938 Si / 1000 Ang^3
#
#
#
# Elastic Constant Matrix: (Units=GPa)
#
#
# Indices 1 2 3 4 5 6 
#
# 1 109.4141 26.1606 34.5816 0.0000 5.3049 0.0000
# 2 26.1606 107.9559 36.4647 0.0000 7.9825 0.0000
# 3 34.5816 36.4647 95.0027 0.0000 7.2567 0.0000
# 4 0.0000 0.0000 0.0000 7.9138 0.0000 -6.8099
# 5 5.3049 7.9825 7.2567 0.0000 39.6565 0.0000
# 6 0.0000 0.0000 0.0000 -6.8099 0.0000 15.0775
#
#
#
# Elastic Compliance Matrix: (Units=1/GPa)
#
#
# Indices 1 2 3 4 5 6 
#
# 1 0.010531 -0.001415 -0.003250 0.000000 -0.000529 0.000000
# 2 -0.001415 0.010912 -0.003570 0.000000 -0.001354 0.000000
# 3 -0.003250 -0.003570 0.013175 0.000000 -0.001258 0.000000
# 4 0.000000 0.000000 0.000000 0.206693 0.000000 0.093355
# 5 -0.000529 -0.001354 -0.001258 0.000000 0.025790 0.000000
# 6 0.000000 0.000000 0.000000 0.093355 0.000000 0.108489
#
#
# Mechanical properties :
#
#
# Convention : Reuss Voigt Hill
#
# Bulk Modulus (GPa) = 55.10044 56.30960 55.70502
# Shear Modulus (GPa) = 12.55941 26.87396 19.71668
#
# Velocity S-wave (km/s) = 2.49503 3.64970 3.12614
# Velocity P-wave (km/s) = 5.96752 6.75802 6.37504
#
# Compressibility (1/GPa) = 0.01814868
#
# Stress axis : x y z
#
# Youngs Moduli (GPa) = 94.96054 91.64361 75.90052
#
# Poissons Ratio (x) = 0.12968 0.24665
# Poissons Ratio (y) = 0.13438 0.27095
# Poissons Ratio (z) = 0.30859 0.32714
#
# Static dielectric constant tensor:
#      x y z
#    x 3.922570 0.000000 0.087920 
#    y 0.000000 3.519390 0.000000 
#    z 0.087920 0.000000 3.784770 
# 
# 
# High freq. dielectric constant tensor:
#      x y z
#    x 1.793460 0.000000 0.003420 
#    y 0.000000 1.769260 0.000000 
#    z 0.003420 0.000000 1.800880 
# 
# From -- ./inp_files/36333.got.cif
#   From: 2010.06.25/outbox.cif.g09.slc.cpg/sg10_19_cif.got.tgz:36333.got - 2010.06.27 22:07:45.
