data_PCOD8066478
_publ_section_title
;
Structure prediction by ZEFSAII (Michael W. Deem and Ramdas Pophale) SiO2 
 PCOD8066478
Probable space group: P 2/M
;
_chemical_formula_sum "Si O2"
_cell_formula_units_Z 32
_cell_length_a 14.186217
_cell_length_b 8.810981
_cell_length_c 14.349169
_cell_angle_alpha 90.000000
_cell_angle_beta 62.148079
_cell_angle_gamma 90.000000
_cell_volume 1585.796603
_symmetry_space_group_name_H-M "P 2/M"
_symmetry_group_IT_number 10
_symmetry_cell_setting 'monoclinic'
loop_
_space_group_symop_operation_xyz
x,y,z
-x,y,-z
-x,-y,-z
x,-y,z
loop_
_atom_site_type_symbol
_atom_site_label
_atom_site_fract_x
_atom_site_fract_y
_atom_site_fract_z
Si Si1 0.835621 0.679945 0.824688
Si Si2 0.704474 0.825134 0.567606
Si Si3 0.891124 0.321419 0.001915
Si Si4 0.614425 0.823256 0.418779
Si Si5 0.474585 0.669992 0.247644
Si Si6 0.892612 0.680023 0.595710
Si Si7 0.394458 0.330002 0.085487
Si Si8 0.317314 0.180132 0.814678
O O1 0.824851 0.500000 0.818517
O O2 0.886981 0.743831 0.704985
O O3 0.716290 0.750140 0.892308
O O4 0.900823 0.723956 0.887569
O O5 0.705206 0.796024 0.455920
O O6 0.584688 0.776615 0.650988
O O7 0.793393 0.727805 0.578209
O O8 0.722944 0.000000 0.584522
O O9 0.871398 0.500000 0.021833
O O10 0.796127 0.235221 0.096507
O O11 0.000000 0.269063 0.000000
O O12 0.500000 0.748026 0.500000
O O13 0.661847 0.758184 0.300252
O O14 0.593775 0.000000 0.413551
O O15 0.491259 0.500000 0.279338
O O16 0.396689 0.664072 0.195502
O O17 0.588463 0.744170 0.167474
O O18 0.895340 0.500000 0.595478
O O19 0.000000 0.746672 0.500000
O O20 0.396450 0.500000 0.040757
O O21 0.500000 0.241398 0.000000
O O22 0.321644 0.000000 0.820885
#
# Coordination Sequence:
#
# PCOD8066478 Si02
#       8
#     4   4   4   4   4   4   4   4
#     4   9  17  34  57  82 115 152 186 228 291 350
#     4  11  21  36  58  82 114 153 192 235 285 342
#     4  10  22  40  62  86 114 152 198 244 289 340
#     4   9  18  35  56  79 114 160 194 223 289 364
#     4  11  20  33  56  85 117 150 190 235 284 342
#     4  10  21  38  60  85 114 152 195 238 286 342
#     4   9  16  27  50  79 107 146 186 217 269 344
#     4  11  22  38  60  85 116 155 197 241 289 345
#
# _framework density 20.179131000000002
#
# number of rings (size 3 to 8) (size 9 to 14) (size 15 to 20)
#    0.000    2.000    2.500    1.875    0.000    3.500 
#    0.000    5.000    0.000    1.500    0.000    0.000 
#    0.000    0.000    0.000    0.000    0.000    0.000 
#
# Total GULP energy -396630.568006 kJ/mol
# GULP energy per Si atom -12394.705250 kJ/mol
# Density = 2.013320 g / cm^3
# Si number density = 20.179131 Si / 1000 Ang^3
#
#
#
# Elastic Constant Matrix: (Units=GPa)
#
#
# Indices 1 2 3 4 5 6 
#
# 1 136.1995 20.7311 58.5021 0.0000 -0.7119 0.0000
# 2 20.7311 30.3492 15.0619 0.0000 0.1825 0.0000
# 3 58.5021 15.0619 115.0201 0.0000 -4.0132 0.0000
# 4 0.0000 0.0000 0.0000 21.1811 0.0000 -2.2077
# 5 -0.7119 0.1825 -4.0132 0.0000 34.8466 0.0000
# 6 0.0000 0.0000 0.0000 -2.2077 0.0000 22.3725
#
#
#
# Elastic Compliance Matrix: (Units=1/GPa)
#
#
# Indices 1 2 3 4 5 6 
#
# 1 0.009961 -0.004581 -0.004476 0.000000 -0.000288 0.000000
# 2 -0.004581 0.037364 -0.002583 0.000000 -0.000587 0.000000
# 3 -0.004476 -0.002583 0.011352 0.000000 0.001229 0.000000
# 4 0.000000 0.000000 0.000000 0.047703 0.000000 0.004707
# 5 -0.000288 -0.000587 0.001229 0.000000 0.028836 0.000000
# 6 0.000000 0.000000 0.000000 0.004707 0.000000 0.045162
#
#
# Mechanical properties :
#
#
# Convention : Reuss Voigt Hill
#
# Bulk Modulus (GPa) = 28.25177 52.23989 40.24583
# Shear Modulus (GPa) = 23.20639 28.16496 25.68567
#
# Velocity S-wave (km/s) = 3.39487 3.74002 3.57162
# Velocity P-wave (km/s) = 5.42197 6.67792 6.08245
#
# Compressibility (1/GPa) = 0.03539602
#
# Stress axis : x y z
#
# Youngs Moduli (GPa) = 100.39479 26.76343 88.08885
#
# Poissons Ratio (x) = 0.12259 0.39433
# Poissons Ratio (y) = 0.45988 0.22758
# Poissons Ratio (z) = 0.44941 0.06914
#
# Static dielectric constant tensor:
#      x y z
#    x 3.674660 0.000000 0.053580 
#    y 0.000000 3.229490 0.000000 
#    z 0.053580 0.000000 3.921280 
# 
# 
# High freq. dielectric constant tensor:
#      x y z
#    x 1.791650 0.000000 0.007990 
#    y 0.000000 1.743770 0.000000 
#    z 0.007990 0.000000 1.795810 
# 
# From -- ./inp_files/66538.got.cif
#   From: 2010.06.25/outbox.cif.g09.slc.cpg/sg10_34_cif.got.tgz:66538.got - 2010.06.27 22:07:45.
