data_PCOD8066906
_publ_section_title
;
Structure prediction by ZEFSAII (Michael W. Deem and Ramdas Pophale) SiO2 
 PCOD8066906
Probable space group: P 2/M
;
_chemical_formula_sum "Si O2"
_cell_formula_units_Z 14
_cell_length_a 5.293604
_cell_length_b 19.057930
_cell_length_c 5.293604
_cell_angle_alpha 90.000000
_cell_angle_beta 90.000000
_cell_angle_gamma 90.000000
_cell_volume 534.045951
_symmetry_space_group_name_H-M "P 2/M"
_symmetry_group_IT_number 10
_symmetry_cell_setting 'monoclinic'
loop_
_space_group_symop_operation_xyz
x,y,z
-x,y,-z
-x,-y,-z
x,-y,z
loop_
_atom_site_type_symbol
_atom_site_label
_atom_site_fract_x
_atom_site_fract_y
_atom_site_fract_z
Si Si1 0.238808 0.349932 0.844965
Si Si2 0.500000 0.250000 0.500000
Si Si3 0.844965 0.849932 0.761192
Si Si4 0.663634 0.500000 0.250479
Si Si5 0.749521 0.000000 0.663634
O O1 0.274164 0.298749 0.605860
O O2 0.169816 0.428841 0.749255
O O3 0.500000 0.349826 0.000000
O O4 0.000000 0.321180 0.000000
O O5 0.394140 0.201251 0.274164
O O6 0.000000 0.849826 0.500000
O O7 0.749255 0.928841 0.830184
O O8 0.000000 0.821180 0.000000
O O9 0.500000 0.500000 0.500000
O O10 0.500000 0.500000 0.000000
O O11 0.500000 0.000000 0.500000
O O12 0.000000 0.000000 0.500000
#
# Coordination Sequence:
#
# PCOD8066906 Si02
#       5
#     4   2   4   2   2
#     4  11  27  48  78 112 160 209 270 332 404 480
#     4  12  28  46  76 116 164 210 276 328 420 490
#     4  11  27  48  78 112 160 209 270 332 404 480
#     4  10  21  50  78 115 151 207 268 333 395 476
#     4  10  21  50  78 115 151 207 268 333 395 476
#
# _framework density 26.214971999999999
#
# number of rings (size 3 to 8) (size 9 to 14) (size 15 to 20)
#    0.000    1.143    2.857    0.857    8.000    0.000 
#    0.000    5.714    0.000    0.000    0.000    2.000 
#    0.000    0.000    0.000    0.000    0.000    0.000 
#
# Total GULP energy -173620.072526 kJ/mol
# GULP energy per Si atom -12401.433752 kJ/mol
# Density = 2.615531 g / cm^3
# Si number density = 26.214972 Si / 1000 Ang^3
#
#
#
# Elastic Constant Matrix: (Units=GPa)
#
#
# Indices 1 2 3 4 5 6 
#
# 1 147.0608 45.9204 50.0374 0.0000 -1.3764 0.0000
# 2 45.9204 220.3605 45.9204 0.0000 0.0000 0.0000
# 3 50.0374 45.9204 147.0608 0.0000 1.3765 0.0000
# 4 0.0000 0.0000 0.0000 -2.0400 0.0000 0.0000
# 5 -1.3764 0.0000 1.3765 0.0000 60.8126 0.0000
# 6 0.0000 0.0000 0.0000 0.0000 0.0000 -2.0402
#
#
#
# Elastic Compliance Matrix: (Units=1/GPa)
#
#
# Indices 1 2 3 4 5 6 
#
# 1 0.007966 -0.001171 -0.002347 0.000000 0.000233 0.000000
# 2 -0.001171 0.005026 -0.001171 0.000000 0.000000 0.000000
# 3 -0.002347 -0.001171 0.007966 0.000000 -0.000233 0.000000
# 4 0.000000 0.000000 0.000000 -0.490186 0.000000 0.000007
# 5 0.000233 0.000000 -0.000233 0.000000 0.016455 0.000000
# 6 0.000000 0.000000 0.000000 0.000007 0.000000 -0.490158
#
#
# Mechanical properties :
#
#
# Convention : Reuss Voigt Hill
#
# Bulk Modulus (GPa) = 86.35111 88.69316 87.52214
# Shear Modulus (GPa) = -5.37812 36.18674 15.40431
#
# Velocity S-wave (km/s) = -1.43388 3.71938 2.42671
# Velocity P-wave (km/s) = 5.50180 7.23544 6.42734
#
# Compressibility (1/GPa) = 0.01158063
#
# Stress axis : x y z
#
# Youngs Moduli (GPa) = 125.52830 198.96318 125.52825
#
# Poissons Ratio (x) = 0.23298 0.29462
# Poissons Ratio (y) = 0.14699 0.14699
# Poissons Ratio (z) = 0.29463 0.23298
#
# Static dielectric constant tensor:
#      x y z
#    x 4.417050 0.000000 0.000000 
#    y 0.000000 5.956980 0.000000 
#    z 0.000000 0.000000 4.417050 
# 
# 
# High freq. dielectric constant tensor:
#      x y z
#    x 2.036440 0.000000 0.000000 
#    y 0.000000 2.088650 0.000000 
#    z 0.000000 0.000000 2.036440 
# 
# From -- ./inp_files/796.got.cif
#   From: 2010.06.25/outbox.cif.g09.slc.cpg/sg10_1_cif.got.tgz:796.got - 2010.06.27 22:07:45.
