data_PCOD8066751
_publ_section_title
;
Structure prediction by ZEFSAII (Michael W. Deem and Ramdas Pophale) SiO2 
 PCOD8066751
Probable space group: P 2/M
;
_chemical_formula_sum "Si O2"
_cell_formula_units_Z 28
_cell_length_a 19.002880
_cell_length_b 9.049788
_cell_length_c 14.088711
_cell_angle_alpha 90.000000
_cell_angle_beta 146.458512
_cell_angle_gamma 90.000000
_cell_volume 1338.731041
_symmetry_space_group_name_H-M "P 2/M"
_symmetry_group_IT_number 10
_symmetry_cell_setting 'monoclinic'
loop_
_space_group_symop_operation_xyz
x,y,z
-x,y,-z
-x,-y,-z
x,-y,z
loop_
_atom_site_type_symbol
_atom_site_label
_atom_site_fract_x
_atom_site_fract_y
_atom_site_fract_z
Si Si1 0.116758 0.666381 0.060228
Si Si2 0.526335 0.673599 0.636515
Si Si3 0.714027 0.167183 0.608050
Si Si4 0.940018 0.170223 0.195089
Si Si5 0.216399 0.165855 0.519510
Si Si6 0.530066 0.669271 0.143401
Si Si7 0.669257 0.828945 0.946298
O O1 0.170654 0.500000 0.108745
O O2 0.227480 0.764082 0.231051
O O3 0.075179 0.726028 0.912454
O O4 0.000000 0.667997 0.000000
O O5 0.500000 0.724993 0.500000
O O6 0.540643 0.500000 0.663341
O O7 0.406895 0.735581 0.562095
O O8 0.648849 0.753372 0.819580
O O9 0.804869 0.172747 0.618613
O O10 0.673083 0.000000 0.585932
O O11 0.074715 0.208971 0.399221
O O12 0.943333 0.000000 0.164170
O O13 0.821397 0.192181 0.135254
O O14 0.326878 0.272074 0.680219
O O15 0.254400 0.000000 0.593783
O O16 0.526587 0.500000 0.173033
O O17 0.417733 0.753331 0.072287
O O18 0.500000 0.687283 0.000000
O O19 0.630530 0.000000 0.899042
#
# Coordination Sequence:
#
# PCOD8066751 Si02
#       7
#     4   4   4   4   4   4   4
#     4  11  22  33  50  81 122 169 216 255 301 359
#     4  11  23  37  55  82 122 166 208 255 305 360
#     4  11  21  34  56  82 114 158 209 257 302 353
#     4  10  22  40  61  88 125 165 208 255 308 364
#     4  10  21  39  64  92 120 156 202 252 305 364
#     4  11  25  45  70  97 124 158 201 255 319 381
#     4  11  23  40  64  93 124 163 206 256 313 369
#
# _framework density 20.915327999999999
#
# number of rings (size 3 to 8) (size 9 to 14) (size 15 to 20)
#    0.000    1.286    2.857    3.000    0.000    7.429 
#    0.000    0.714    0.000    4.286    0.000    0.000 
#    0.000    0.000    0.000    0.000    0.000    0.000 
#
# Total GULP energy -347109.113453 kJ/mol
# GULP energy per Si atom -12396.754052 kJ/mol
# Density = 2.086772 g / cm^3
# Si number density = 20.915328 Si / 1000 Ang^3
#
#
#
# Elastic Constant Matrix: (Units=GPa)
#
#
# Indices 1 2 3 4 5 6 
#
# 1 78.0650 49.7853 50.1468 0.0000 21.8577 0.0000
# 2 49.7853 130.4328 56.4292 0.0000 12.4162 0.0000
# 3 50.1468 56.4292 106.8144 0.0000 26.0488 0.0000
# 4 0.0000 0.0000 0.0000 29.4659 0.0000 -2.5200
# 5 21.8577 12.4162 26.0488 0.0000 36.5173 0.0000
# 6 0.0000 0.0000 0.0000 -2.5200 0.0000 3.9094
#
#
#
# Elastic Compliance Matrix: (Units=1/GPa)
#
#
# Indices 1 2 3 4 5 6 
#
# 1 0.021809 -0.005145 -0.005767 0.000000 -0.007191 0.000000
# 2 -0.005145 0.011158 -0.004001 0.000000 0.002140 0.000000
# 3 -0.005767 -0.004001 0.015750 0.000000 -0.006422 0.000000
# 4 0.000000 0.000000 0.000000 0.035918 0.000000 0.023152
# 5 -0.007191 0.002140 -0.006422 0.000000 0.035542 0.000000
# 6 0.000000 0.000000 0.000000 0.023152 0.000000 0.270718
#
#
# Mechanical properties :
#
#
# Convention : Reuss Voigt Hill
#
# Bulk Modulus (GPa) = 52.93769 69.78164 61.35967
# Shear Modulus (GPa) = 11.70914 24.57524 18.14219
#
# Velocity S-wave (km/s) = 2.36865 3.43153 2.94838
# Velocity P-wave (km/s) = 5.73115 7.00977 6.40246
#
# Compressibility (1/GPa) = 0.01889013
#
# Stress axis : x y z
#
# Youngs Moduli (GPa) = 45.85290 89.62356 63.49403
#
# Poissons Ratio (x) = 0.46109 0.36619
# Poissons Ratio (y) = 0.23590 0.25404
# Poissons Ratio (z) = 0.26444 0.35859
#
# Static dielectric constant tensor:
#      x y z
#    x 3.759100 0.000000 0.324040 
#    y 0.000000 3.881800 0.000000 
#    z 0.324040 0.000000 3.870700 
# 
# 
# High freq. dielectric constant tensor:
#      x y z
#    x 1.809930 0.000000 0.029440 
#    y 0.000000 1.825980 0.000000 
#    z 0.029440 0.000000 1.814600 
# 
# From -- ./inp_files/70291.got.cif
#   From: 2010.06.25/outbox.cif.g09.slc.cpg/sg10_36_cif.got.tgz:70291.got - 2010.06.27 22:07:45.
