data_PCOD8066721
_publ_section_title
;
Structure prediction by ZEFSAII (Michael W. Deem and Ramdas Pophale) SiO2 
 PCOD8066721
Probable space group: P 2/M
;
_chemical_formula_sum "Si O2"
_cell_formula_units_Z 24
_cell_length_a 9.115026
_cell_length_b 13.622360
_cell_length_c 13.194342
_cell_angle_alpha 90.000000
_cell_angle_beta 133.282754
_cell_angle_gamma 90.000000
_cell_volume 1192.660803
_symmetry_space_group_name_H-M "P 2/M"
_symmetry_group_IT_number 10
_symmetry_cell_setting 'monoclinic'
loop_
_space_group_symop_operation_xyz
x,y,z
-x,y,-z
-x,-y,-z
x,-y,z
loop_
_atom_site_type_symbol
_atom_site_label
_atom_site_fract_x
_atom_site_fract_y
_atom_site_fract_z
Si Si1 0.218706 0.886229 0.630187
Si Si2 0.011899 0.885205 0.123080
Si Si3 0.574135 0.604445 0.427016
Si Si4 0.450332 0.193000 0.359711
Si Si5 0.723926 0.773748 0.143163
Si Si6 0.019595 0.613456 0.625960
O O1 0.381045 0.868447 0.619109
O O2 0.298514 0.848996 0.775302
O O3 0.000000 0.838371 0.500000
O O4 0.187646 0.000000 0.629151
O O5 0.856843 0.820311 0.115252
O O6 0.240286 0.862008 0.258821
O O7 0.964982 0.000000 0.120140
O O8 0.000000 0.856874 0.000000
O O9 0.500000 0.575407 0.500000
O O10 0.567885 0.500000 0.359691
O O11 0.452311 0.694332 0.315574
O O12 0.798972 0.638926 0.560678
O O13 0.500000 0.203868 0.500000
O O14 0.821147 0.674588 0.232961
O O15 0.500000 0.748387 0.000000
O O16 0.081317 0.500000 0.667724
O O17 0.000000 0.644785 0.500000
#
# Coordination Sequence:
#
# PCOD8066721 Si02
#       6
#     4   4   4   4   4   4
#     4  11  23  38  58  86 119 155 199 250 302 357
#     4  11  25  43  60  82 117 161 204 245 298 361
#     4   9  17  31  55  84 112 144 183 230 283 340
#     4  11  21  36  60  87 117 151 195 245 293 350
#     4  12  24  39  62  88 119 157 201 253 305 355
#     4  10  21  39  63  90 121 156 194 239 294 358
#
# _framework density 20.123072000000001
#
# number of rings (size 3 to 8) (size 9 to 14) (size 15 to 20)
#    0.000    1.333    0.000    7.500    0.000    5.667 
#    0.000    0.000    0.000    4.000    0.000    0.000 
#    0.000    0.000    0.000    0.000    0.000    0.000 
#
# Total GULP energy -297363.321531 kJ/mol
# GULP energy per Si atom -12390.138397 kJ/mol
# Density = 2.007727 g / cm^3
# Si number density = 20.123072 Si / 1000 Ang^3
#
#
#
# Elastic Constant Matrix: (Units=GPa)
#
#
# Indices 1 2 3 4 5 6 
#
# 1 137.5591 39.9890 61.0166 0.0000 14.8029 0.0000
# 2 39.9890 104.4008 37.2784 0.0000 -8.8037 0.0000
# 3 61.0166 37.2784 96.6130 0.0000 1.1030 0.0000
# 4 0.0000 0.0000 0.0000 35.6058 0.0000 1.1019
# 5 14.8029 -8.8037 1.1030 0.0000 33.2472 0.0000
# 6 0.0000 0.0000 0.0000 1.1019 0.0000 27.0556
#
#
#
# Elastic Compliance Matrix: (Units=1/GPa)
#
#
# Indices 1 2 3 4 5 6 
#
# 1 0.011326 -0.002637 -0.006072 0.000000 -0.005539 0.000000
# 2 -0.002637 0.012049 -0.003035 0.000000 0.004465 0.000000
# 3 -0.006072 -0.003035 0.015340 0.000000 0.001391 0.000000
# 4 0.000000 0.000000 0.000000 0.028121 0.000000 -0.001145
# 5 -0.005539 0.004465 0.001391 0.000000 0.033680 0.000000
# 6 0.000000 0.000000 0.000000 -0.001145 0.000000 0.037008
#
#
# Mechanical properties :
#
#
# Convention : Reuss Voigt Hill
#
# Bulk Modulus (GPa) = 65.67088 68.34898 67.00993
# Shear Modulus (GPa) = 30.10482 32.53434 31.31958
#
# Velocity S-wave (km/s) = 3.87206 4.02527 3.94941
# Velocity P-wave (km/s) = 7.25919 7.45942 7.35999
#
# Compressibility (1/GPa) = 0.01522745
#
# Stress axis : x y z
#
# Youngs Moduli (GPa) = 88.29499 82.99701 65.18735
#
# Poissons Ratio (x) = 0.21887 0.39582
# Poissons Ratio (y) = 0.23284 0.19781
# Poissons Ratio (z) = 0.53613 0.25185
#
# Static dielectric constant tensor:
#      x y z
#    x 3.845110 0.000000 0.093650 
#    y 0.000000 3.942800 0.000000 
#    z 0.093650 0.000000 3.491530 
# 
# 
# High freq. dielectric constant tensor:
#      x y z
#    x 1.808380 0.000000 0.012940 
#    y 0.000000 1.807020 0.000000 
#    z 0.012940 0.000000 1.757080 
# 
# From -- ./inp_files/61945.got.cif
#   From: 2010.06.25/outbox.cif.g09.slc.cpg/sg10_31_cif.got.tgz:61945.got - 2010.06.27 22:07:45.
