data_PCOD8066382
_publ_section_title
;
Structure prediction by ZEFSAII (Michael W. Deem and Ramdas Pophale) SiO2 
 PCOD8066382
Probable space group: P 2/M
;
_chemical_formula_sum "Si O2"
_cell_formula_units_Z 24
_cell_length_a 9.755376
_cell_length_b 20.487951
_cell_length_c 9.091920
_cell_angle_alpha 90.000000
_cell_angle_beta 138.356605
_cell_angle_gamma 90.000000
_cell_volume 1207.502836
_symmetry_space_group_name_H-M "P 2/M"
_symmetry_group_IT_number 10
_symmetry_cell_setting 'monoclinic'
loop_
_space_group_symop_operation_xyz
x,y,z
-x,y,-z
-x,-y,-z
x,-y,z
loop_
_atom_site_type_symbol
_atom_site_label
_atom_site_fract_x
_atom_site_fract_y
_atom_site_fract_z
Si Si1 0.902865 0.835092 0.578265
Si Si2 0.668318 0.500000 0.507764
Si Si3 0.873105 0.926858 0.046738
Si Si4 0.449847 0.818137 0.286550
Si Si5 0.992027 0.599611 0.316962
Si Si6 0.095266 0.727772 0.923826
Si Si7 0.654145 0.500000 0.995254
O O1 0.659282 0.826633 0.362722
O O2 0.000000 0.815889 0.500000
O O3 0.982922 0.905625 0.698587
O O4 0.970326 0.789701 0.767797
O O5 0.500000 0.500000 0.500000
O O6 0.497204 0.500000 0.254632
O O7 0.809945 0.565405 0.603457
O O8 0.794929 0.000000 0.018105
O O9 0.677364 0.881026 0.865003
O O10 0.000000 0.925005 0.000000
O O11 0.500000 0.816935 0.500000
O O12 0.332953 0.751001 0.141959
O O13 0.948326 0.673255 0.233742
O O14 0.000000 0.594015 0.500000
O O15 0.791243 0.563889 0.099017
O O16 0.000000 0.702612 0.000000
O O17 0.500000 0.500000 0.000000
#
# Coordination Sequence:
#
# PCOD8066382 Si02
#       7
#     4   2   4   4   4   4   2
#     4  11  23  42  63  90 129 165 206 266 318 367
#     4  11  25  43  69  97 129 167 209 259 312 368
#     4  10  21  37  63  97 126 163 215 259 308 380
#     4  11  20  42  66  87 124 171 210 256 315 369
#     4  11  24  44  66  94 131 165 208 259 315 376
#     4  11  24  41  63  95 123 161 216 263 305 375
#     4  11  21  45  69  94 125 171 207 250 311 377
#
# _framework density 19.875730000000001
#
# number of rings (size 3 to 8) (size 9 to 14) (size 15 to 20)
#    0.000    1.167    5.000    2.000    2.333    6.000 
#    3.000    0.833    0.000    0.000    0.000    0.000 
#    0.000    0.000    0.000    0.000    0.000    0.000 
#
# Total GULP energy -297334.219875 kJ/mol
# GULP energy per Si atom -12388.925828 kJ/mol
# Density = 1.983049 g / cm^3
# Si number density = 19.875730 Si / 1000 Ang^3
#
#
#
# Elastic Constant Matrix: (Units=GPa)
#
#
# Indices 1 2 3 4 5 6 
#
# 1 135.7534 33.2746 45.8504 0.0000 22.0187 0.0000
# 2 33.2746 103.9874 45.8955 0.0000 14.7388 0.0000
# 3 45.8504 45.8955 118.2857 0.0000 30.1559 0.0000
# 4 0.0000 0.0000 0.0000 36.5379 0.0000 -9.1038
# 5 22.0187 14.7388 30.1559 0.0000 34.4645 0.0000
# 6 0.0000 0.0000 0.0000 -9.1038 0.0000 -120.4141
#
#
#
# Elastic Compliance Matrix: (Units=1/GPa)
#
#
# Indices 1 2 3 4 5 6 
#
# 1 0.008960 -0.001494 -0.002055 0.000000 -0.003287 0.000000
# 2 -0.001494 0.011899 -0.003841 0.000000 -0.000774 0.000000
# 3 -0.002055 -0.003841 0.012855 0.000000 -0.008292 0.000000
# 4 0.000000 0.000000 0.000000 0.026863 0.000000 -0.002031
# 5 -0.003287 -0.000774 -0.008292 0.000000 0.038702 0.000000
# 6 0.000000 0.000000 0.000000 -0.002031 0.000000 -0.008151
#
#
# Mechanical properties :
#
#
# Convention : Reuss Voigt Hill
#
# Bulk Modulus (GPa) = 52.81441 67.56305 60.18873
# Shear Modulus (GPa) = 44.55559 5.65140 25.10350
#
# Velocity S-wave (km/s) = 4.73980 1.68806 3.55776
# Velocity P-wave (km/s) = 7.52226 6.15353 6.87205
#
# Compressibility (1/GPa) = 0.01893423
#
# Stress axis : x y z
#
# Youngs Moduli (GPa) = 111.60939 84.03804 77.79026
#
# Poissons Ratio (x) = 0.12555 0.15989
# Poissons Ratio (y) = 0.16674 0.29876
# Poissons Ratio (z) = 0.22940 0.32276
#
# Static dielectric constant tensor:
#      x y z
#    x 3.741890 0.000000 0.273570 
#    y 0.000000 3.889620 0.000000 
#    z 0.273570 0.000000 3.968140 
# 
# 
# High freq. dielectric constant tensor:
#      x y z
#    x 1.775570 0.000000 0.001890 
#    y 0.000000 1.771400 0.000000 
#    z 0.001890 0.000000 1.794300 
# 
# From -- ./inp_files/20295.got.cif
#   From: 2010.06.25/outbox.cif.g09.slc.cpg/sg10_11_cif.got.tgz:20295.got - 2010.06.27 22:07:45.
