data_PCOD8066027
_publ_section_title
;
Structure prediction by ZEFSAII (Michael W. Deem and Ramdas Pophale) SiO2 
 PCOD8066027
Probable space group: P 2/M
;
_chemical_formula_sum "Si O2"
_cell_formula_units_Z 28
_cell_length_a 28.455985
_cell_length_b 8.988260
_cell_length_c 8.063987
_cell_angle_alpha 90.000000
_cell_angle_beta 139.754733
_cell_angle_gamma 90.000000
_cell_volume 1332.516351
_symmetry_space_group_name_H-M "P 2/M"
_symmetry_group_IT_number 10
_symmetry_cell_setting 'monoclinic'
loop_
_space_group_symop_operation_xyz
x,y,z
-x,y,-z
-x,-y,-z
x,-y,z
loop_
_atom_site_type_symbol
_atom_site_label
_atom_site_fract_x
_atom_site_fract_y
_atom_site_fract_z
Si Si1 0.035494 0.158646 0.931142
Si Si2 0.934846 0.662376 0.449952
Si Si3 0.339932 0.822564 0.906775
Si Si4 0.804878 0.170028 0.638491
Si Si5 0.793198 0.170198 0.981866
Si Si6 0.342424 0.676665 0.255104
Si Si7 0.414150 0.829715 0.764055
O O1 0.973264 0.273167 0.712944
O O2 0.044494 0.000000 0.851355
O O3 0.114516 0.243017 0.157423
O O4 0.000000 0.100970 0.000000
O O5 0.900166 0.500000 0.391487
O O6 0.875357 0.775259 0.220884
O O7 0.000000 0.649806 0.500000
O O8 0.255929 0.767426 0.652202
O O9 0.384806 0.772643 0.863726
O O10 0.345390 0.000000 0.944740
O O11 0.371388 0.743481 0.157232
O O12 0.817795 0.000000 0.625754
O O13 0.770367 0.186722 0.728592
O O14 0.787226 0.000000 0.026282
O O15 0.741022 0.271647 0.952473
O O16 0.348468 0.500000 0.264663
O O17 0.386799 0.735175 0.533278
O O18 0.388872 0.000000 0.667185
O O19 0.500000 0.814752 0.000000
#
# Coordination Sequence:
#
# PCOD8066027 Si02
#       7
#     4   4   4   4   4   4   4
#     4  10  21  36  55  82 113 154 210 263 314 373
#     4  11  23  37  53  81 117 155 199 254 325 386
#     4  10  21  41  67  96 129 169 220 269 315 374
#     4   9  18  35  60  87 114 154 212 269 316 366
#     4  11  21  39  65  87 114 159 218 271 316 375
#     4  12  26  42  63  98 138 173 209 256 326 395
#     4  10  22  44  74 103 130 168 219 268 311 367
#
# _framework density 21.012875999999999
#
# number of rings (size 3 to 8) (size 9 to 14) (size 15 to 20)
#    0.000    1.571    2.857    2.143    2.000    2.286 
#    0.000    3.571    0.000    0.000    0.000    0.000 
#    0.000    0.000    0.000    0.000    0.000    0.000 
#
# Total GULP energy -346894.272450 kJ/mol
# GULP energy per Si atom -12389.081159 kJ/mol
# Density = 2.096505 g / cm^3
# Si number density = 21.012876 Si / 1000 Ang^3
#
#
#
# Elastic Constant Matrix: (Units=GPa)
#
#
# Indices 1 2 3 4 5 6 
#
# 1 98.5162 43.5319 48.8641 0.0000 -16.5523 0.0000
# 2 43.5319 108.1939 55.0140 0.0000 -13.6766 0.0000
# 3 48.8641 55.0140 98.8673 0.0000 -12.5918 0.0000
# 4 0.0000 0.0000 0.0000 27.0959 0.0000 1.1956
# 5 -16.5523 -13.6766 -12.5918 0.0000 31.9639 0.0000
# 6 0.0000 0.0000 0.0000 1.1956 0.0000 17.9111
#
#
#
# Elastic Compliance Matrix: (Units=1/GPa)
#
#
# Indices 1 2 3 4 5 6 
#
# 1 0.014652 -0.002709 -0.005175 0.000000 0.004390 0.000000
# 2 -0.002709 0.013639 -0.005986 0.000000 0.002075 0.000000
# 3 -0.005175 -0.005986 0.016146 0.000000 0.001119 0.000000
# 4 0.000000 0.000000 0.000000 0.037015 0.000000 -0.002471
# 5 0.004390 0.002075 0.001119 0.000000 0.034887 0.000000
# 6 0.000000 0.000000 0.000000 -0.002471 0.000000 0.055996
#
#
# Mechanical properties :
#
#
# Convention : Reuss Voigt Hill
#
# Bulk Modulus (GPa) = 59.89390 66.71081 63.30236
# Shear Modulus (GPa) = 24.31430 25.93868 25.12649
#
# Velocity S-wave (km/s) = 3.40533 3.51724 3.46174
# Velocity P-wave (km/s) = 6.63528 6.95062 6.79478
#
# Compressibility (1/GPa) = 0.01669619
#
# Stress axis : x y z
#
# Youngs Moduli (GPa) = 68.24991 73.32127 61.93571
#
# Poissons Ratio (x) = 0.19862 0.32053
# Poissons Ratio (y) = 0.18488 0.37075
# Poissons Ratio (z) = 0.35321 0.43890
#
# Static dielectric constant tensor:
#      x y z
#    x 3.794720 0.000000 0.029590 
#    y 0.000000 3.844700 0.000000 
#    z 0.029590 0.000000 3.803130 
# 
# 
# High freq. dielectric constant tensor:
#      x y z
#    x 1.824890 0.000000 0.001570 
#    y 0.000000 1.798390 0.000000 
#    z 0.001570 0.000000 1.824590 
# 
# From -- ./inp_files/38042.got.cif
#   From: 2010.06.25/outbox.cif.g09.slc.cpg/sg10_20_cif.got.tgz:38042.got - 2010.06.27 22:07:45.
