data_PCOD8066606
_publ_section_title
;
Structure prediction by ZEFSAII (Michael W. Deem and Ramdas Pophale) SiO2 
 PCOD8066606
Probable space group: P 2/M
;
_chemical_formula_sum "Si O2"
_cell_formula_units_Z 20
_cell_length_a 9.715874
_cell_length_b 7.481871
_cell_length_c 28.699677
_cell_angle_alpha 90.000000
_cell_angle_beta 152.943724
_cell_angle_gamma 90.000000
_cell_volume 948.969008
_symmetry_space_group_name_H-M "P 2/M"
_symmetry_group_IT_number 10
_symmetry_cell_setting 'monoclinic'
loop_
_space_group_symop_operation_xyz
x,y,z
-x,y,-z
-x,-y,-z
x,-y,z
loop_
_atom_site_type_symbol
_atom_site_label
_atom_site_fract_x
_atom_site_fract_y
_atom_site_fract_z
Si Si1 0.808279 0.000000 0.653625
Si Si2 0.174029 0.710634 0.816428
Si Si3 0.866812 0.709561 0.817225
Si Si4 0.138326 0.711847 0.993703
Si Si5 0.817335 0.292034 0.398478
Si Si6 0.130344 0.000000 0.437018
O O1 0.951431 0.181620 0.716081
O O2 0.455461 0.000000 0.559988
O O3 0.850088 0.000000 0.611703
O O4 0.115764 0.500000 0.791081
O O5 0.513178 0.768077 0.906047
O O6 0.103220 0.767446 0.848448
O O7 0.883886 0.500000 0.828680
O O8 0.531179 0.767629 0.700474
O O9 0.959628 0.794027 0.895228
O O10 0.107503 0.500000 0.985123
O O11 0.000000 0.791910 0.000000
O O12 0.846486 0.500000 0.394262
O O13 0.000000 0.244458 0.500000
O O14 0.954342 0.179391 0.397815
#
# Coordination Sequence:
#
# PCOD8066606 Si02
#       6
#     2   4   4   4   4   2
#     4  11  26  42  59  89 120 158 211 247 298 375
#     4  10  21  40  64  86 122 163 199 249 302 355
#     4   9  18  34  60  93 123 158 204 247 299 363
#     4   9  18  33  59  92 124 160 200 245 302 362
#     4  10  21  38  64  93 121 157 206 250 297 360
#     4  11  25  42  59  86 126 159 198 259 307 350
#
# _framework density 21.075503999999999
#
# number of rings (size 3 to 8) (size 9 to 14) (size 15 to 20)
#    0.000    2.200    0.000    2.100    2.800    6.400 
#    0.000    5.500    0.000    0.000    0.000    0.000 
#    0.000    0.000    0.000    0.000    0.000    0.000 
#
# Total GULP energy -247987.681211 kJ/mol
# GULP energy per Si atom -12399.384061 kJ/mol
# Density = 2.102754 g / cm^3
# Si number density = 21.075504 Si / 1000 Ang^3
#
#
#
# Elastic Constant Matrix: (Units=GPa)
#
#
# Indices 1 2 3 4 5 6 
#
# 1 168.5126 32.2345 92.2021 0.0000 15.7064 0.0000
# 2 32.2345 67.0890 30.0839 0.0000 1.9173 0.0000
# 3 92.2021 30.0839 148.1748 0.0004 2.4296 0.0000
# 4 0.0000 0.0000 0.0004 3.8253 0.0000 1.2850
# 5 15.7064 1.9173 2.4296 0.0000 36.5645 0.0000
# 6 0.0000 0.0000 0.0000 1.2850 0.0000 23.9390
#
#
#
# Elastic Compliance Matrix: (Units=1/GPa)
#
#
# Indices 1 2 3 4 5 6 
#
# 1 0.009721 -0.002068 -0.005569 0.000001 -0.003697 0.000000
# 2 -0.002068 0.016853 -0.002137 0.000000 0.000147 0.000000
# 3 -0.005569 -0.002137 0.010618 -0.000001 0.001799 0.000000
# 4 0.000001 0.000000 -0.000001 0.266215 0.000000 -0.014290
# 5 -0.003697 0.000147 0.001799 0.000000 0.028810 0.000000
# 6 0.000000 0.000000 0.000000 -0.014290 0.000000 0.042540
#
#
# Mechanical properties :
#
#
# Convention : Reuss Voigt Hill
#
# Bulk Modulus (GPa) = 56.67295 76.97972 66.82633
# Shear Modulus (GPa) = 12.49414 28.14949 20.32181
#
# Velocity S-wave (km/s) = 2.43745 3.65862 3.10859
# Velocity P-wave (km/s) = 5.90511 7.37918 6.68291
#
# Compressibility (1/GPa) = 0.01764510
#
# Stress axis : x y z
#
# Youngs Moduli (GPa) = 102.86580 59.33507 94.17682
#
# Poissons Ratio (x) = 0.12271 0.52444
# Poissons Ratio (y) = 0.21274 0.20128
# Poissons Ratio (z) = 0.57282 0.12681
#
# Static dielectric constant tensor:
#      x y z
#    x 4.002320 0.000000 0.041110 
#    y 0.000000 3.527220 0.000000 
#    z 0.041110 0.000000 4.040640 
# 
# 
# High freq. dielectric constant tensor:
#      x y z
#    x 1.833750 0.000000 0.004070 
#    y 0.000000 1.812660 0.000000 
#    z 0.004070 0.000000 1.834480 
# 
# From -- ./inp_files/31451.got.cif
#   From: 2010.06.25/outbox.cif.g09.slc.cpg/sg10_16_cif.got.tgz:31451.got - 2010.06.27 22:07:45.
