data_PCOD8066184
_publ_section_title
;
Structure prediction by ZEFSAII (Michael W. Deem and Ramdas Pophale) SiO2 
 PCOD8066184
Probable space group: P 2/M
;
_chemical_formula_sum "Si O2"
_cell_formula_units_Z 28
_cell_length_a 9.019456
_cell_length_b 9.067451
_cell_length_c 18.477344
_cell_angle_alpha 90.000000
_cell_angle_beta 76.775740
_cell_angle_gamma 90.000000
_cell_volume 1471.069153
_symmetry_space_group_name_H-M "P 2/M"
_symmetry_group_IT_number 10
_symmetry_cell_setting 'monoclinic'
loop_
_space_group_symop_operation_xyz
x,y,z
-x,y,-z
-x,-y,-z
x,-y,z
loop_
_atom_site_type_symbol
_atom_site_label
_atom_site_fract_x
_atom_site_fract_y
_atom_site_fract_z
Si Si1 0.067751 0.829277 0.069455
Si Si2 0.622451 0.325660 0.928075
Si Si3 0.171175 0.162499 0.508568
Si Si4 0.518306 0.829335 0.796274
Si Si5 0.183649 0.829500 0.782907
Si Si6 0.767196 0.827629 0.652756
Si Si7 0.078290 0.674087 0.653568
O O1 0.213649 0.731339 0.067428
O O2 0.944462 0.794062 0.144213
O O3 0.116104 0.000000 0.064745
O O4 0.000000 0.783356 0.000000
O O5 0.627553 0.500000 0.924420
O O6 0.578412 0.267647 0.854698
O O7 0.500000 0.268481 0.000000
O O8 0.267459 0.216247 0.427408
O O9 0.182842 0.274675 0.574083
O O10 0.000000 0.153601 0.500000
O O11 0.225903 0.000000 0.528248
O O12 0.344500 0.788498 0.800315
O O13 0.616544 0.790251 0.714412
O O14 0.537032 0.000000 0.815508
O O15 0.160374 0.726597 0.716753
O O16 0.179236 0.000000 0.759079
O O17 0.908808 0.739261 0.669889
O O18 0.810887 0.000000 0.652294
O O19 0.066826 0.500000 0.653725
#
# Coordination Sequence:
#
# PCOD8066184 Si02
#       7
#     4   4   4   4   4   4   4
#     4  10  21  38  61  86 109 138 180 225 265 310
#     4  11  24  39  56  82 115 147 177 214 265 321
#     4   8  15  30  52  76 104 137 175 222 270 315
#     4  10  21  38  60  82 105 139 183 226 267 314
#     4  10  21  37  56  79 108 141 178 222 270 317
#     4   9  18  34  56  81 106 135 176 225 273 319
#     4  11  21  32  51  79 109 143 181 219 264 320
#
# _framework density 19.033777000000001
#
# number of rings (size 3 to 8) (size 9 to 14) (size 15 to 20)
#    0.000    2.143    0.000    4.286    0.000   10.286 
#    0.000    0.714    0.000    4.286    0.000    0.000 
#    0.000    0.000    0.000    0.000    0.000    0.000 
#
# Total GULP energy -347237.100357 kJ/mol
# GULP energy per Si atom -12401.325013 kJ/mol
# Density = 1.899045 g / cm^3
# Si number density = 19.033777 Si / 1000 Ang^3
#
#
#
# Elastic Constant Matrix: (Units=GPa)
#
#
# Indices 1 2 3 4 5 6 
#
# 1 103.2224 46.9492 60.0537 0.0000 -7.4070 0.0000
# 2 46.9492 83.9127 58.0197 0.0000 2.4311 0.0000
# 3 60.0537 58.0197 148.4157 0.0000 -5.4812 0.0000
# 4 0.0000 0.0000 0.0000 4.5575 0.0000 -17.6544
# 5 -7.4070 2.4311 -5.4812 0.0000 30.2784 0.0000
# 6 0.0000 0.0000 0.0000 -17.6544 0.0000 1.1243
#
#
#
# Elastic Compliance Matrix: (Units=1/GPa)
#
#
# Indices 1 2 3 4 5 6 
#
# 1 0.014640 -0.005868 -0.003504 0.000000 0.003418 0.000000
# 2 -0.005868 0.018871 -0.005146 0.000000 -0.003882 0.000000
# 3 -0.003504 -0.005146 0.010219 0.000000 0.001406 0.000000
# 4 0.000000 0.000000 0.000000 -0.003667 0.000000 -0.057590
# 5 0.003418 -0.003882 0.001406 0.000000 0.034429 0.000000
# 6 0.000000 0.000000 0.000000 -0.057590 0.000000 -0.014867
#
#
# Mechanical properties :
#
#
# Convention : Reuss Voigt Hill
#
# Bulk Modulus (GPa) = 68.05039 73.95512 71.00276
# Shear Modulus (GPa) = 53.44178 18.56059 36.00119
#
# Velocity S-wave (km/s) = 5.30455 3.12611 4.35378
# Velocity P-wave (km/s) = 8.56433 7.20896 7.91571
#
# Compressibility (1/GPa) = 0.01469499
#
# Stress axis : x y z
#
# Youngs Moduli (GPa) = 68.30372 52.99178 97.85345
#
# Poissons Ratio (x) = 0.31094 0.34287
# Poissons Ratio (y) = 0.40078 0.50358
# Poissons Ratio (z) = 0.23933 0.27271
#
# Static dielectric constant tensor:
#      x y z
#    x 3.378110 0.000000 -0.212590 
#    y 0.000000 3.367820 0.000000 
#    z -0.212590 0.000000 3.997720 
# 
# 
# High freq. dielectric constant tensor:
#      x y z
#    x 1.725620 0.000000 -0.005800 
#    y 0.000000 1.727690 0.000000 
#    z -0.005800 0.000000 1.762150 
# 
# From -- ./inp_files/37020.got.cif
#   From: 2010.06.25/outbox.cif.g09.slc.cpg/sg10_19_cif.got.tgz:37020.got - 2010.06.27 22:07:45.
