data_PCOD8066774
_publ_section_title
;
Structure prediction by ZEFSAII (Michael W. Deem and Ramdas Pophale) SiO2 
 PCOD8066774
Probable space group: P 2/M
;
_chemical_formula_sum "Si O2"
_cell_formula_units_Z 26
_cell_length_a 7.747210
_cell_length_b 9.270025
_cell_length_c 19.533086
_cell_angle_alpha 90.000000
_cell_angle_beta 54.799718
_cell_angle_gamma 90.000000
_cell_volume 1146.290417
_symmetry_space_group_name_H-M "P 2/M"
_symmetry_group_IT_number 10
_symmetry_cell_setting 'monoclinic'
loop_
_space_group_symop_operation_xyz
x,y,z
-x,y,-z
-x,-y,-z
x,-y,z
loop_
_atom_site_type_symbol
_atom_site_label
_atom_site_fract_x
_atom_site_fract_y
_atom_site_fract_z
Si Si1 0.614241 0.663358 0.130081
Si Si2 0.950784 0.338808 0.434869
Si Si3 0.061292 0.661647 0.820516
Si Si4 0.267126 0.838590 0.025642
Si Si5 0.701414 0.168510 0.711846
Si Si6 0.367049 0.158625 0.673017
Si Si7 0.500000 0.748440 0.500000
O O1 0.554138 0.500000 0.121635
O O2 0.773501 0.660732 0.156108
O O3 0.739248 0.743531 0.041268
O O4 0.403322 0.750863 0.199161
O O5 0.044016 0.500000 0.405769
O O6 0.700848 0.346768 0.476478
O O7 0.000000 0.281214 0.500000
O O8 0.066095 0.233243 0.354535
O O9 0.984768 0.500000 0.820341
O O10 0.177050 0.728128 0.727541
O O11 0.864314 0.760464 0.884976
O O12 0.177869 0.000000 0.031368
O O13 0.500000 0.850119 0.000000
O O14 0.566287 0.199621 0.674631
O O15 0.720816 0.000000 0.725274
O O16 0.437599 0.152957 0.578370
O O17 0.285453 0.000000 0.712864
#
# Coordination Sequence:
#
# PCOD8066774 Si02
#       7
#     4   4   4   4   4   4   2
#     4  10  21  39  65  95 125 162 208 256 312 374
#     4  11  24  42  64  91 126 167 213 267 322 382
#     4  10  22  40  64  92 124 162 208 260 312 374
#     4  11  24  40  60  89 126 165 208 257 311 373
#     4  10  21  40  65  93 126 167 211 260 319 381
#     4  10  22  40  64  93 126 164 210 263 321 383
#     4  12  24  42  66  98 126 170 218 270 324 388
#
# _framework density 22.681861000000001
#
# number of rings (size 3 to 8) (size 9 to 14) (size 15 to 20)
#    0.000    1.538    1.538    2.769    0.000    9.538 
#    0.000    0.000    0.000    0.000    0.000    0.000 
#    0.000    0.000    0.000    0.000    0.000    0.000 
#
# Total GULP energy -322469.738928 kJ/mol
# GULP energy per Si atom -12402.682266 kJ/mol
# Density = 2.263024 g / cm^3
# Si number density = 22.681861 Si / 1000 Ang^3
#
#
#
# Elastic Constant Matrix: (Units=GPa)
#
#
# Indices 1 2 3 4 5 6 
#
# 1 54.7316 24.2806 27.6583 0.0000 -12.9513 0.0000
# 2 24.2806 179.3706 73.9666 0.0000 -17.3656 0.0000
# 3 27.6583 73.9666 141.8247 0.0000 -14.6568 0.0000
# 4 0.0000 0.0000 0.0000 39.1020 0.0000 -8.6482
# 5 -12.9513 -17.3656 -14.6568 0.0000 37.2739 0.0000
# 6 0.0000 0.0000 0.0000 -8.6482 0.0000 7.2192
#
#
#
# Elastic Compliance Matrix: (Units=1/GPa)
#
#
# Indices 1 2 3 4 5 6 
#
# 1 0.021681 -0.001116 -0.003045 0.000000 0.005816 0.000000
# 2 -0.001116 0.007296 -0.003415 0.000000 0.001668 0.000000
# 3 -0.003045 -0.003415 0.009540 0.000000 0.001102 0.000000
# 4 0.000000 0.000000 0.000000 0.034792 0.000000 0.041680
# 5 0.005816 0.001668 0.001102 0.000000 0.030060 0.000000
# 6 0.000000 0.000000 0.000000 0.041680 0.000000 0.188450
#
#
# Mechanical properties :
#
#
# Convention : Reuss Voigt Hill
#
# Bulk Modulus (GPa) = 42.80002 69.74867 56.27434
# Shear Modulus (GPa) = 15.88513 33.38709 24.63611
#
# Velocity S-wave (km/s) = 2.64927 3.84079 3.29927
# Velocity P-wave (km/s) = 5.31685 7.10539 6.27517
#
# Compressibility (1/GPa) = 0.02336448
#
# Stress axis : x y z
#
# Youngs Moduli (GPa) = 46.12297 137.06338 104.82478
#
# Poissons Ratio (x) = 0.15298 0.31920
# Poissons Ratio (y) = 0.05148 0.35797
# Poissons Ratio (z) = 0.14045 0.46807
#
# Static dielectric constant tensor:
#      x y z
#    x 3.837820 0.000000 -0.051880 
#    y 0.000000 4.243610 0.000000 
#    z -0.051880 0.000000 4.237540 
# 
# 
# High freq. dielectric constant tensor:
#      x y z
#    x 1.884740 0.000000 -0.002750 
#    y 0.000000 1.899250 0.000000 
#    z -0.002750 0.000000 1.899310 
# 
# From -- ./inp_files/82183.got.cif
#   From: 2010.06.25/outbox.cif.g09.slc.cpg/sg10_42_cif.got.tgz:82183.got - 2010.06.27 22:07:45.
