data_PCOD8066337
_publ_section_title
;
Structure prediction by ZEFSAII (Michael W. Deem and Ramdas Pophale) SiO2 
 PCOD8066337
Probable space group: P 2/M
;
_chemical_formula_sum "Si O2"
_cell_formula_units_Z 32
_cell_length_a 28.209824
_cell_length_b 8.846941
_cell_length_c 11.932962
_cell_angle_alpha 90.000000
_cell_angle_beta 147.132280
_cell_angle_gamma 90.000000
_cell_volume 1616.228088
_symmetry_space_group_name_H-M "P 2/M"
_symmetry_group_IT_number 10
_symmetry_cell_setting 'monoclinic'
loop_
_space_group_symop_operation_xyz
x,y,z
-x,y,-z
-x,-y,-z
x,-y,z
loop_
_atom_site_type_symbol
_atom_site_label
_atom_site_fract_x
_atom_site_fract_y
_atom_site_fract_z
Si Si1 0.993101 0.323273 0.356322
Si Si2 0.347500 0.826492 0.475842
Si Si3 0.848284 0.173752 0.923459
Si Si4 0.497599 0.179376 0.370748
Si Si5 0.340528 0.826045 0.905244
Si Si6 0.598408 0.678103 0.194737
Si Si7 0.856295 0.826105 0.482608
Si Si8 0.103263 0.327014 0.208850
O O1 0.978990 0.500000 0.307573
O O2 0.081646 0.274986 0.470759
O O3 0.000000 0.282107 0.500000
O O4 0.910123 0.235614 0.143475
O O5 0.251282 0.810184 0.231111
O O6 0.418928 0.758101 0.532124
O O7 0.348794 0.737516 0.594358
O O8 0.370015 0.000000 0.546895
O O9 0.858347 0.268555 0.830816
O O10 0.872399 0.000000 0.946545
O O11 0.500000 0.250227 0.500000
O O12 0.502777 0.000000 0.389010
O O13 0.408224 0.231995 0.133606
O O14 0.350936 0.728460 0.814860
O O15 0.242624 0.805815 0.758133
O O16 0.359468 0.000000 0.912085
O O17 0.596875 0.500000 0.196549
O O18 0.500000 0.744221 0.000000
O O19 0.859662 0.774596 0.617862
O O20 0.886332 0.000000 0.534720
O O21 0.132641 0.500000 0.285361
O O22 0.000000 0.312395 0.000000
#
# Coordination Sequence:
#
# PCOD8066337 Si02
#       8
#     4   4   4   4   4   4   4   4
#     4  11  25  44  63  84 115 159 203 239 288 355
#     4  10  21  37  60  88 117 152 192 238 291 346
#     4  11  23  38  61  92 120 150 194 248 299 346
#     4   9  18  35  59  84 112 149 192 235 280 337
#     4  10  21  37  60  88 117 152 192 238 291 346
#     4  11  22  35  56  87 121 157 194 237 287 344
#     4  11  23  38  61  92 120 150 194 248 299 346
#     4  11  22  37  60  87 118 156 192 233 290 359
#
# _framework density 19.799185000000001
#
# number of rings (size 3 to 8) (size 9 to 14) (size 15 to 20)
#    0.000    1.500    2.500    2.625    0.000    8.000 
#    0.000    2.500    0.000    1.500    0.000    0.000 
#    0.000    0.000    0.000    0.000    0.000    0.000 
#
# Total GULP energy -396939.558463 kJ/mol
# GULP energy per Si atom -12404.361202 kJ/mol
# Density = 1.975412 g / cm^3
# Si number density = 19.799185 Si / 1000 Ang^3
#
#
#
# Elastic Constant Matrix: (Units=GPa)
#
#
# Indices 1 2 3 4 5 6 
#
# 1 75.8741 18.2262 72.0716 0.0000 -13.5675 0.0000
# 2 18.2262 49.6804 32.4167 0.0000 2.7615 0.0000
# 3 72.0716 32.4167 128.1963 0.0000 6.5516 0.0000
# 4 0.0000 0.0000 0.0000 20.1983 0.0000 -3.2037
# 5 -13.5675 2.7615 6.5516 0.0000 34.1231 0.0000
# 6 0.0000 0.0000 0.0000 -3.2037 0.0000 49.8840
#
#
#
# Elastic Compliance Matrix: (Units=1/GPa)
#
#
# Indices 1 2 3 4 5 6 
#
# 1 0.037678 -0.000514 -0.022037 0.000000 0.019254 0.000000
# 2 -0.000514 0.024134 -0.005760 0.000000 -0.001052 0.000000
# 3 -0.022037 -0.005760 0.022289 0.000000 -0.012575 0.000000
# 4 0.000000 0.000000 0.000000 0.050019 0.000000 0.003212
# 5 0.019254 -0.001052 -0.012575 0.000000 0.039461 0.000000
# 6 0.000000 0.000000 0.000000 0.003212 0.000000 0.020253
#
#
# Mechanical properties :
#
#
# Convention : Reuss Voigt Hill
#
# Bulk Modulus (GPa) = 36.39063 55.46442 45.92752
# Shear Modulus (GPa) = 19.25932 29.57682 24.41807
#
# Velocity S-wave (km/s) = 3.12225 3.86922 3.51563
# Velocity P-wave (km/s) = 5.60515 6.93076 6.30290
#
# Compressibility (1/GPa) = 0.02747960
#
# Stress axis : x y z
#
# Youngs Moduli (GPa) = 26.54041 41.43510 44.86593
#
# Poissons Ratio (x) = 0.02131 0.98869
# Poissons Ratio (y) = 0.01365 0.25842
# Poissons Ratio (z) = 0.58486 0.23866
#
# Static dielectric constant tensor:
#      x y z
#    x 3.595180 0.000000 0.109290 
#    y 0.000000 3.526140 0.000000 
#    z 0.109290 0.000000 3.813110 
# 
# 
# High freq. dielectric constant tensor:
#      x y z
#    x 1.770130 0.000000 0.011160 
#    y 0.000000 1.762910 0.000000 
#    z 0.011160 0.000000 1.784120 
# 
# From -- ./inp_files/58237.got.cif
#   From: 2010.06.25/outbox.cif.g09.slc.cpg/sg10_30_cif.got.tgz:58237.got - 2010.06.27 22:07:45.
