data_PCOD8066650
_publ_section_title
;
Structure prediction by ZEFSAII (Michael W. Deem and Ramdas Pophale) SiO2 
 PCOD8066650
Probable space group: P 2/M
;
_chemical_formula_sum "Si O2"
_cell_formula_units_Z 28
_cell_length_a 22.641948
_cell_length_b 8.906141
_cell_length_c 16.223174
_cell_angle_alpha 90.000000
_cell_angle_beta 25.943333
_cell_angle_gamma 90.000000
_cell_volume 1431.196852
_symmetry_space_group_name_H-M "P 2/M"
_symmetry_group_IT_number 10
_symmetry_cell_setting 'monoclinic'
loop_
_space_group_symop_operation_xyz
x,y,z
-x,y,-z
-x,-y,-z
x,-y,z
loop_
_atom_site_type_symbol
_atom_site_label
_atom_site_fract_x
_atom_site_fract_y
_atom_site_fract_z
Si Si1 0.149448 0.326330 0.807967
Si Si2 0.334124 0.828125 0.293263
Si Si3 0.373241 0.829061 0.053645
Si Si4 0.345407 0.678826 0.703763
Si Si5 0.886129 0.820902 0.705962
Si Si6 0.882868 0.672327 0.332283
Si Si7 0.137924 0.822289 0.076229
O O1 0.135407 0.500000 0.849896
O O2 0.260181 0.258151 0.731719
O O3 0.196094 0.302985 0.654982
O O4 0.000000 0.251854 0.000000
O O5 0.477520 0.757729 0.143612
O O6 0.215719 0.723686 0.472689
O O7 0.313876 0.000000 0.348641
O O8 0.323068 0.821131 0.209649
O O9 0.391374 0.000000 0.003830
O O10 0.259117 0.753016 0.139982
O O11 0.500000 0.734245 0.500000
O O12 0.341103 0.500000 0.716415
O O13 0.279663 0.749388 0.869064
O O14 0.904528 0.770813 0.777765
O O15 0.000000 0.756808 0.500000
O O16 0.885348 0.000000 0.699339
O O17 0.923360 0.500000 0.294107
O O18 0.021513 0.765983 0.160606
O O19 0.152209 0.000000 0.053629
#
# Coordination Sequence:
#
# PCOD8066650 Si02
#       7
#     4   4   4   4   4   4   4
#     4   9  17  34  57  76 100 138 179 213 254 321
#     4   9  17  31  53  79 104 134 177 223 262 310
#     4   8  15  30  51  74 105 143 177 211 259 320
#     4  10  21  39  61  82 108 146 185 221 270 331
#     4   9  17  30  51  78 108 143 179 215 263 324
#     4  11  21  34  55  78 104 138 179 220 267 321
#     4  11  22  35  55  82 110 140 181 229 271 315
#
# _framework density 19.564045
#
# number of rings (size 3 to 8) (size 9 to 14) (size 15 to 20)
#    0.000    2.429    1.429    2.571    0.000    3.714 
#    0.000    3.571    0.000    8.571    0.000    0.000 
#    0.000    0.000    0.000    0.000    0.000    0.000 
#
# Total GULP energy -346992.916943 kJ/mol
# GULP energy per Si atom -12392.604177 kJ/mol
# Density = 1.951952 g / cm^3
# Si number density = 19.564045 Si / 1000 Ang^3
#
#
#
# Elastic Constant Matrix: (Units=GPa)
#
#
# Indices 1 2 3 4 5 6 
#
# 1 106.4715 23.8453 46.7149 0.0000 -15.2169 0.0000
# 2 23.8453 33.6034 30.3722 0.0000 4.3125 0.0000
# 3 46.7149 30.3722 133.1855 0.0000 -5.4766 0.0000
# 4 0.0000 0.0000 0.0000 25.7776 0.0000 1.2710
# 5 -15.2169 4.3125 -5.4766 0.0000 30.2349 0.0000
# 6 0.0000 0.0000 0.0000 1.2710 0.0000 16.1462
#
#
#
# Elastic Compliance Matrix: (Units=1/GPa)
#
#
# Indices 1 2 3 4 5 6 
#
# 1 0.013398 -0.008179 -0.002528 0.000000 0.007452 0.000000
# 2 -0.008179 0.043985 -0.007646 0.000000 -0.011775 0.000000
# 3 -0.002528 -0.007646 0.010207 0.000000 0.001667 0.000000
# 4 0.000000 0.000000 0.000000 0.038945 0.000000 -0.003066
# 5 0.007452 -0.011775 0.001667 0.000000 0.038806 0.000000
# 6 0.000000 0.000000 0.000000 -0.003066 0.000000 0.062175
#
#
# Mechanical properties :
#
#
# Convention : Reuss Voigt Hill
#
# Bulk Modulus (GPa) = 32.37875 52.79168 42.58521
# Shear Modulus (GPa) = 19.64514 25.92027 22.78271
#
# Velocity S-wave (km/s) = 3.17226 3.64386 3.41621
# Velocity P-wave (km/s) = 5.47757 6.68926 6.11351
#
# Compressibility (1/GPa) = 0.03088446
#
# Stress axis : x y z
#
# Youngs Moduli (GPa) = 74.63771 22.73526 97.97120
#
# Poissons Ratio (x) = 0.18595 0.24765
# Poissons Ratio (y) = 0.61046 0.74907
# Poissons Ratio (z) = 0.18867 0.17383
#
# Static dielectric constant tensor:
#      x y z
#    x 3.794240 0.000000 -0.171110 
#    y 0.000000 3.076420 0.000000 
#    z -0.171110 0.000000 3.705320 
# 
# 
# High freq. dielectric constant tensor:
#      x y z
#    x 1.768200 0.000000 -0.004200 
#    y 0.000000 1.708260 0.000000 
#    z -0.004200 0.000000 1.769710 
# 
# From -- ./inp_files/70198.got.cif
#   From: 2010.06.25/outbox.cif.g09.slc.cpg/sg10_36_cif.got.tgz:70198.got - 2010.06.27 22:07:45.
