data_PCOD8066373
_publ_section_title
;
Structure prediction by ZEFSAII (Michael W. Deem and Ramdas Pophale) SiO2 
 PCOD8066373
Probable space group: P 2/M
;
_chemical_formula_sum "Si O2"
_cell_formula_units_Z 32
_cell_length_a 12.128211
_cell_length_b 8.718719
_cell_length_c 15.254451
_cell_angle_alpha 90.000000
_cell_angle_beta 89.663978
_cell_angle_gamma 90.000000
_cell_volume 1613.015491
_symmetry_space_group_name_H-M "P 2/M"
_symmetry_group_IT_number 10
_symmetry_cell_setting 'monoclinic'
loop_
_space_group_symop_operation_xyz
x,y,z
-x,y,-z
-x,-y,-z
x,-y,z
loop_
_atom_site_type_symbol
_atom_site_label
_atom_site_fract_x
_atom_site_fract_y
_atom_site_fract_z
Si Si1 0.021902 0.180960 0.900041
Si Si2 0.046971 0.325975 0.596258
Si Si3 0.511747 0.678291 0.399814
Si Si4 0.252434 0.171263 0.843592
Si Si5 0.516296 0.816964 0.098922
Si Si6 0.882332 0.318716 0.748805
Si Si7 0.359404 0.818622 0.254508
Si Si8 0.265184 0.170768 0.640125
O O1 0.143198 0.252701 0.881611
O O2 0.931141 0.261912 0.840495
O O3 0.017730 0.000000 0.879900
O O4 0.000000 0.220325 0.000000
O O5 0.078464 0.500000 0.621493
O O6 0.156195 0.224292 0.591007
O O7 0.000000 0.316566 0.500000
O O8 0.958960 0.262024 0.667648
O O9 0.500000 0.731033 0.500000
O O10 0.484050 0.500000 0.387527
O O11 0.429514 0.774853 0.339711
O O12 0.637383 0.709668 0.374219
O O13 0.366438 0.253995 0.870231
O O14 0.236107 0.167500 0.741169
O O15 0.257225 0.000000 0.883341
O O16 0.421016 0.757982 0.165671
O O17 0.518242 0.000000 0.103790
O O18 0.500000 0.757570 0.000000
O O19 0.873178 0.500000 0.749074
O O20 0.760578 0.253105 0.737383
O O21 0.347792 0.000000 0.251281
O O22 0.298548 0.000000 0.607362
#
# Coordination Sequence:
#
# PCOD8066373 Si02
#       8
#     4   4   4   4   4   4   4   4
#     4  10  21  37  62  91 119 157 206 254 301 356
#     4  10  23  42  62  85 118 162 205 242 296 370
#     4  11  25  43  63  87 121 164 204 243 299 367
#     4   9  17  33  56  86 120 149 190 249 300 344
#     4   9  18  33  58  89 119 153 192 238 296 353
#     4  11  24  41  60  85 124 165 200 245 305 368
#     4  11  23  40  63  90 121 156 202 255 302 353
#     4  11  21  38  64  92 121 150 197 260 304 345
#
# _framework density 19.838619999999999
#
# number of rings (size 3 to 8) (size 9 to 14) (size 15 to 20)
#    0.000    1.750    2.500    1.500    3.500    2.000 
#    0.000    0.000    0.000    1.500    0.000    0.000 
#    0.000    0.000    0.000    0.000    0.000    0.000 
#
# Total GULP energy -396780.421538 kJ/mol
# GULP energy per Si atom -12399.388173 kJ/mol
# Density = 1.979347 g / cm^3
# Si number density = 19.838620 Si / 1000 Ang^3
#
#
#
# Elastic Constant Matrix: (Units=GPa)
#
#
# Indices 1 2 3 4 5 6 
#
# 1 147.4737 24.3578 45.7838 0.0000 1.3229 0.0000
# 2 24.3578 43.4363 25.8174 0.0000 1.4091 0.0000
# 3 45.7838 25.8174 109.3340 0.0000 1.6172 0.0000
# 4 0.0000 0.0000 0.0000 22.8144 0.0000 1.8988
# 5 1.3229 1.4091 1.6172 0.0000 31.0648 0.0000
# 6 0.0000 0.0000 0.0000 1.8988 0.0000 33.0062
#
#
#
# Elastic Compliance Matrix: (Units=1/GPa)
#
#
# Indices 1 2 3 4 5 6 
#
# 1 0.008105 -0.002938 -0.002699 0.000000 -0.000071 0.000000
# 2 -0.002938 0.027871 -0.005338 0.000000 -0.000861 0.000000
# 3 -0.002699 -0.005338 0.011541 0.000000 -0.000244 0.000000
# 4 0.000000 0.000000 0.000000 0.044043 0.000000 -0.002534
# 5 -0.000071 -0.000861 -0.000244 0.000000 0.032246 0.000000
# 6 0.000000 0.000000 0.000000 -0.002534 0.000000 0.030443
#
#
# Mechanical properties :
#
#
# Convention : Reuss Voigt Hill
#
# Bulk Modulus (GPa) = 39.11553 54.68464 46.90008
# Shear Modulus (GPa) = 27.06799 30.99607 29.03203
#
# Velocity S-wave (km/s) = 3.69780 3.95702 3.82960
# Velocity P-wave (km/s) = 6.16371 6.96433 6.57622
#
# Compressibility (1/GPa) = 0.02556529
#
# Stress axis : x y z
#
# Youngs Moduli (GPa) = 123.38457 35.87998 86.65087
#
# Poissons Ratio (x) = 0.10543 0.23387
# Poissons Ratio (y) = 0.36255 0.46254
# Poissons Ratio (z) = 0.33301 0.19153
#
# Static dielectric constant tensor:
#      x y z
#    x 3.803050 0.000000 -0.081550 
#    y 0.000000 3.456020 0.000000 
#    z -0.081550 0.000000 3.638290 
# 
# 
# High freq. dielectric constant tensor:
#      x y z
#    x 1.791060 0.000000 -0.000880 
#    y 0.000000 1.746220 0.000000 
#    z -0.000880 0.000000 1.781640 
# 
# From -- ./inp_files/63832.got.cif
#   From: 2010.06.25/outbox.cif.g09.slc.cpg/sg10_32_cif.got.tgz:63832.got - 2010.06.27 22:07:45.
