data_PCOD8066387
_publ_section_title
;
Structure prediction by ZEFSAII (Michael W. Deem and Ramdas Pophale) SiO2 
 PCOD8066387
Probable space group: P 2/M
;
_chemical_formula_sum "Si O2"
_cell_formula_units_Z 32
_cell_length_a 20.669837
_cell_length_b 8.921479
_cell_length_c 26.158806
_cell_angle_alpha 90.000000
_cell_angle_beta 21.614144
_cell_angle_gamma 90.000000
_cell_volume 1776.876706
_symmetry_space_group_name_H-M "P 2/M"
_symmetry_group_IT_number 10
_symmetry_cell_setting 'monoclinic'
loop_
_space_group_symop_operation_xyz
x,y,z
-x,y,-z
-x,-y,-z
x,-y,z
loop_
_atom_site_type_symbol
_atom_site_label
_atom_site_fract_x
_atom_site_fract_y
_atom_site_fract_z
Si Si1 0.453869 0.323854 0.220352
Si Si2 0.447084 0.676615 0.962791
Si Si3 0.087129 0.820976 0.833932
Si Si4 0.716899 0.324284 0.117140
Si Si5 0.645428 0.820826 0.276073
Si Si6 0.216270 0.322278 0.222754
Si Si7 0.638546 0.837805 0.442758
Si Si8 0.922799 0.177452 0.502308
O O1 0.412060 0.500000 0.248520
O O2 0.557761 0.271317 0.092667
O O3 0.576433 0.281372 0.177525
O O4 0.273659 0.236260 0.359370
O O5 0.449966 0.500000 0.965687
O O6 0.629270 0.734587 0.853138
O O7 0.276343 0.729880 0.121117
O O8 0.184335 0.775516 0.815314
O O9 0.194246 0.755059 0.705763
O O10 0.074127 0.000000 0.840454
O O11 0.899284 0.748582 0.968083
O O12 0.743090 0.500000 0.103252
O O13 0.649981 0.257806 0.218899
O O14 0.465594 0.756569 0.434590
O O15 0.638436 0.000000 0.275273
O O16 0.185251 0.500000 0.248694
O O17 0.037590 0.241469 0.371012
O O18 0.500000 0.865532 0.500000
O O19 0.701841 0.000000 0.416525
O O20 0.000000 0.232671 0.500000
O O21 0.922155 0.000000 0.499048
#
# Coordination Sequence:
#
# PCOD8066387 Si02
#       8
#     4   4   4   4   4   4   4   4
#     4  10  21  38  55  70  98 140 178 209 249 304
#     4   8  15  30  54  79  97 123 170 213 242 290
#     4   9  17  32  55  78  99 131 175 214 254 305
#     4  11  23  34  47  73 106 139 172 210 256 301
#     4   9  17  32  55  78 101 134 173 213 254 300
#     4   9  16  30  56  82  99 125 167 209 248 293
#     4   7  12  26  50  77  98 121 164 214 250 291
#     4  11  22  34  51  80 109 131 160 204 256 305
#
# _framework density 18.009128
#
# number of rings (size 3 to 8) (size 9 to 14) (size 15 to 20)
#    0.000    2.750    1.250    3.375    0.000    3.500 
#    0.000    3.750    0.000    6.750    0.000    0.000 
#    0.000    0.000    0.000    0.000    0.000    0.000 
#
# Total GULP energy -396484.360930 kJ/mol
# GULP energy per Si atom -12390.136279 kJ/mol
# Density = 1.796814 g / cm^3
# Si number density = 18.009128 Si / 1000 Ang^3
#
#
#
# Elastic Constant Matrix: (Units=GPa)
#
#
# Indices 1 2 3 4 5 6 
#
# 1 301.5785 10.4114 -6.5851 0.0000 137.7723 0.0000
# 2 10.4114 45.8541 58.7908 0.0000 -16.6573 0.0000
# 3 -6.5851 58.7908 205.0710 0.0000 -32.7176 0.0000
# 4 0.0000 0.0000 0.0000 11.0303 0.0000 -4.7698
# 5 137.7723 -16.6573 -32.7176 0.0000 107.8442 0.0000
# 6 0.0000 0.0000 0.0000 -4.7698 0.0000 18.9718
#
#
#
# Elastic Compliance Matrix: (Units=1/GPa)
#
#
# Indices 1 2 3 4 5 6 
#
# 1 0.009781 -0.007553 0.000315 0.000000 -0.013567 0.000000
# 2 -0.007553 0.040941 -0.009911 0.000000 0.012966 0.000000
# 3 0.000315 -0.009911 0.007797 0.000000 0.000432 0.000000
# 4 0.000000 0.000000 0.000000 0.101718 0.000000 0.025574
# 5 -0.013567 0.012966 0.000432 0.000000 0.028738 0.000000
# 6 0.000000 0.000000 0.000000 0.025574 0.000000 0.059140
#
#
# Mechanical properties :
#
#
# Convention : Reuss Voigt Hill
#
# Bulk Modulus (GPa) = 41.28755 75.30419 58.29587
# Shear Modulus (GPa) = 17.21250 60.22836 38.72043
#
# Velocity S-wave (km/s) = 3.09490 5.78929 4.64189
# Velocity P-wave (km/s) = 5.97887 9.30554 7.82112
#
# Compressibility (1/GPa) = 0.02422038
#
# Stress axis : x y z
#
# Youngs Moduli (GPa) = 102.23450 24.42564 128.25872
#
# Poissons Ratio (x) = 0.18449 -0.04040
# Poissons Ratio (y) = 0.77220 1.27116
# Poissons Ratio (z) = -0.03220 0.24208
#
# Static dielectric constant tensor:
#      x y z
#    x 3.707940 0.000000 1.247380 
#    y 0.000000 3.009520 0.000000 
#    z 1.247380 0.000000 5.976720 
# 
# 
# High freq. dielectric constant tensor:
#      x y z
#    x 1.678340 0.000000 0.024320 
#    y 0.000000 1.665770 0.000000 
#    z 0.024320 0.000000 1.712590 
# 
# From -- ./inp_files/93659.got.cif
#   From: 2010.06.25/outbox.cif.g09.slc.cpg/sg10_47_cif.got.tgz:93659.got - 2010.06.27 22:07:45.
