data_PCOD8066268
_publ_section_title
;
Structure prediction by ZEFSAII (Michael W. Deem and Ramdas Pophale) SiO2 
 PCOD8066268
Probable space group: P 2/M
;
_chemical_formula_sum "Si O2"
_cell_formula_units_Z 28
_cell_length_a 12.514520
_cell_length_b 8.891101
_cell_length_c 14.467753
_cell_angle_alpha 90.000000
_cell_angle_beta 60.498457
_cell_angle_gamma 90.000000
_cell_volume 1401.073712
_symmetry_space_group_name_H-M "P 2/M"
_symmetry_group_IT_number 10
_symmetry_cell_setting 'monoclinic'
loop_
_space_group_symop_operation_xyz
x,y,z
-x,y,-z
-x,-y,-z
x,-y,z
loop_
_atom_site_type_symbol
_atom_site_label
_atom_site_fract_x
_atom_site_fract_y
_atom_site_fract_z
Si Si1 0.461665 0.321632 0.115443
Si Si2 0.480580 0.830497 0.400453
Si Si3 0.098218 0.174949 0.879540
Si Si4 0.796957 0.822964 0.516260
Si Si5 0.041614 0.674647 0.709772
Si Si6 0.199752 0.674829 0.295637
Si Si7 0.350807 0.676054 0.807678
O O1 0.451965 0.500000 0.113446
O O2 0.329046 0.258400 0.203668
O O3 0.565537 0.270471 0.142683
O O4 0.500000 0.253595 0.000000
O O5 0.500000 0.824294 0.500000
O O6 0.344755 0.776134 0.432609
O O7 0.577618 0.715493 0.316318
O O8 0.503752 0.000000 0.353713
O O9 0.060448 0.259725 0.802974
O O10 0.225552 0.233278 0.866100
O O11 0.109050 0.000000 0.851373
O O12 0.000000 0.209148 0.000000
O O13 0.869395 0.752507 0.400733
O O14 0.845358 0.760838 0.593391
O O15 0.816490 0.000000 0.503994
O O16 0.075184 0.500000 0.697720
O O17 0.900454 0.701406 0.741320
O O18 0.212045 0.500000 0.316254
O O19 0.322115 0.500000 0.822913
#
# Coordination Sequence:
#
# PCOD8066268 Si02
#       7
#     4   4   4   4   4   4   4
#     4   9  19  36  61  92 124 159 198 249 312 363
#     4  10  21  37  58  84 120 165 204 246 302 362
#     4  11  26  46  65  87 124 167 204 251 311 371
#     4  11  22  37  60  90 128 169 207 250 305 373
#     4  11  24  40  64  93 123 162 211 262 307 361
#     4  10  21  39  62  91 127 163 204 257 310 363
#     4  11  22  38  66  95 121 156 203 257 303 361
#
# _framework density 19.984672
#
# number of rings (size 3 to 8) (size 9 to 14) (size 15 to 20)
#    0.000    1.571    1.429    3.000    2.000    6.000 
#    0.000    0.000    0.000    2.143    0.000    0.000 
#    0.000    0.000    0.000    0.000    0.000    0.000 
#
# Total GULP energy -347335.256955 kJ/mol
# GULP energy per Si atom -12404.830606 kJ/mol
# Density = 1.993919 g / cm^3
# Si number density = 19.984672 Si / 1000 Ang^3
#
#
#
# Elastic Constant Matrix: (Units=GPa)
#
#
# Indices 1 2 3 4 5 6 
#
# 1 119.7494 43.7889 54.3938 0.0000 -10.5594 0.0000
# 2 43.7889 72.1006 53.2223 0.0000 -9.3407 0.0000
# 3 54.3938 53.2223 119.2884 0.0000 -6.2546 0.0000
# 4 0.0000 0.0000 0.0000 35.7913 0.0000 -10.8614
# 5 -10.5594 -9.3407 -6.2546 0.0000 27.3822 0.0000
# 6 0.0000 0.0000 0.0000 -10.8614 0.0000 32.9981
#
#
#
# Elastic Compliance Matrix: (Units=1/GPa)
#
#
# Indices 1 2 3 4 5 6 
#
# 1 0.011616 -0.004385 -0.003223 0.000000 0.002248 0.000000
# 2 -0.004385 0.023037 -0.008052 0.000000 0.004328 0.000000
# 3 -0.003223 -0.008052 0.013396 0.000000 -0.000929 0.000000
# 4 0.000000 0.000000 0.000000 0.031040 0.000000 0.010217
# 5 0.002248 0.004328 -0.000929 0.000000 0.038651 0.000000
# 6 0.000000 0.000000 0.000000 0.010217 0.000000 0.033668
#
#
# Mechanical properties :
#
#
# Convention : Reuss Voigt Hill
#
# Bulk Modulus (GPa) = 59.77052 68.21651 63.99352
# Shear Modulus (GPa) = 26.55282 29.88321 28.21801
#
# Velocity S-wave (km/s) = 3.64903 3.87111 3.76171
# Velocity P-wave (km/s) = 6.90847 7.36133 7.13850
#
# Compressibility (1/GPa) = 0.01673066
#
# Stress axis : x y z
#
# Youngs Moduli (GPa) = 86.08680 43.40854 74.64779
#
# Poissons Ratio (x) = 0.19034 0.24056
# Poissons Ratio (y) = 0.37748 0.60106
# Poissons Ratio (z) = 0.27742 0.34952
#
# Static dielectric constant tensor:
#      x y z
#    x 4.098970 0.000000 0.234400 
#    y 0.000000 3.590050 0.000000 
#    z 0.234400 0.000000 4.008990 
# 
# 
# High freq. dielectric constant tensor:
#      x y z
#    x 1.796970 0.000000 -0.000730 
#    y 0.000000 1.770170 0.000000 
#    z -0.000730 0.000000 1.787530 
# 
# From -- ./inp_files/63681.got.cif
#   From: 2010.06.25/outbox.cif.g09.slc.cpg/sg10_32_cif.got.tgz:63681.got - 2010.06.27 22:07:45.
