data_PCOD8066269
_publ_section_title
;
Structure prediction by ZEFSAII (Michael W. Deem and Ramdas Pophale) SiO2 
 PCOD8066269
Probable space group: P 2/M
;
_chemical_formula_sum "Si O2"
_cell_formula_units_Z 28
_cell_length_a 13.426325
_cell_length_b 8.861172
_cell_length_c 12.542144
_cell_angle_alpha 90.000000
_cell_angle_beta 111.843248
_cell_angle_gamma 90.000000
_cell_volume 1385.045765
_symmetry_space_group_name_H-M "P 2/M"
_symmetry_group_IT_number 10
_symmetry_cell_setting 'monoclinic'
loop_
_space_group_symop_operation_xyz
x,y,z
-x,y,-z
-x,-y,-z
x,-y,z
loop_
_atom_site_type_symbol
_atom_site_label
_atom_site_fract_x
_atom_site_fract_y
_atom_site_fract_z
Si Si1 0.286352 0.825996 0.275098
Si Si2 0.717155 0.827016 0.485285
Si Si3 0.110280 0.321824 0.595553
Si Si4 0.489174 0.674178 0.671452
Si Si5 0.586250 0.327291 0.122127
Si Si6 0.193299 0.177270 0.831692
Si Si7 0.880435 0.179352 0.967672
O O1 0.240983 0.809681 0.377024
O O2 0.391492 0.726386 0.305342
O O3 0.314798 0.000000 0.261032
O O4 0.195921 0.763091 0.158343
O O5 0.789456 0.729608 0.435137
O O6 0.594780 0.769400 0.431907
O O7 0.722022 0.000000 0.449620
O O8 0.115290 0.500000 0.606228
O O9 0.114168 0.253866 0.715302
O O10 0.000000 0.264331 0.500000
O O11 0.477063 0.500000 0.634698
O O12 0.468054 0.702035 0.786865
O O13 0.625557 0.500000 0.125524
O O14 0.685238 0.216194 0.148299
O O15 0.500000 0.282930 0.000000
O O16 0.165323 0.238937 0.938114
O O17 0.175646 0.000000 0.817902
O O18 0.884115 0.000000 0.967283
O O19 0.000000 0.245692 0.000000
#
# Coordination Sequence:
#
# PCOD8066269 Si02
#       7
#     4   4   4   4   4   4   4
#     4  10  22  39  61  89 123 161 202 252 300 353
#     4  11  23  39  63  93 122 157 203 252 301 357
#     4  11  25  43  63  88 123 163 200 248 308 366
#     4  11  22  37  59  87 123 165 201 244 302 362
#     4  10  21  37  58  84 121 166 203 244 299 356
#     4  11  22  37  64  94 119 155 202 252 300 355
#     4   9  20  39  62  89 122 158 198 248 304 355
#
# _framework density 20.215938000000001
#
# number of rings (size 3 to 8) (size 9 to 14) (size 15 to 20)
#    0.000    1.571    1.429    3.000    2.000    4.857 
#    0.000    0.714    0.000    2.143    0.000    0.000 
#    0.000    0.000    0.000    0.000    0.000    0.000 
#
# Total GULP energy -347346.649218 kJ/mol
# GULP energy per Si atom -12405.237472 kJ/mol
# Density = 2.016993 g / cm^3
# Si number density = 20.215938 Si / 1000 Ang^3
#
#
#
# Elastic Constant Matrix: (Units=GPa)
#
#
# Indices 1 2 3 4 5 6 
#
# 1 61.3338 9.8452 26.9652 0.0000 7.5413 0.0000
# 2 9.8452 56.2009 32.5090 0.0000 -0.7416 0.0000
# 3 26.9652 32.5090 154.9011 0.0000 7.8020 0.0000
# 4 0.0000 0.0000 0.0000 14.9693 0.0000 -11.5294
# 5 7.5413 -0.7416 7.8020 0.0000 35.9864 0.0000
# 6 0.0000 0.0000 0.0000 -11.5294 0.0000 4.7141
#
#
#
# Elastic Compliance Matrix: (Units=1/GPa)
#
#
# Indices 1 2 3 4 5 6 
#
# 1 0.018137 -0.001695 -0.002637 0.000000 -0.003264 0.000000
# 2 -0.001695 0.020476 -0.004086 0.000000 0.001663 0.000000
# 3 -0.002637 -0.004086 0.007834 0.000000 -0.001230 0.000000
# 4 0.000000 0.000000 0.000000 -0.075597 0.000000 -0.184888
# 5 -0.003264 0.001663 -0.001230 0.000000 0.028773 0.000000
# 6 0.000000 0.000000 0.000000 -0.184888 0.000000 -0.240052
#
#
# Mechanical properties :
#
#
# Convention : Reuss Voigt Hill
#
# Bulk Modulus (GPa) = 33.77119 45.67497 39.72308
# Shear Modulus (GPa) = -23.39478 24.67506 0.64014
#
# Velocity S-wave (km/s) = -3.40552 3.49746 0.56333
# Velocity P-wave (km/s) = 1.13052 6.24117 4.48499
#
# Compressibility (1/GPa) = 0.02961104
#
# Stress axis : x y z
#
# Youngs Moduli (GPa) = 55.13577 48.83849 127.64404
#
# Poissons Ratio (x) = 0.08277 0.33662
# Poissons Ratio (y) = 0.09345 0.52155
# Poissons Ratio (z) = 0.14540 0.19955
#
# Static dielectric constant tensor:
#      x y z
#    x 3.622850 0.000000 0.017770 
#    y 0.000000 3.517210 0.000000 
#    z 0.017770 0.000000 4.212790 
# 
# 
# High freq. dielectric constant tensor:
#      x y z
#    x 1.789080 0.000000 -0.001960 
#    y 0.000000 1.776910 0.000000 
#    z -0.001960 0.000000 1.812050 
# 
# From -- ./inp_files/50066.got.cif
#   From: 2010.06.25/outbox.cif.g09.slc.cpg/sg10_26_cif.got.tgz:50066.got - 2010.06.27 22:07:45.
