data_PCOD8066704
_publ_section_title
;
Structure prediction by ZEFSAII (Michael W. Deem and Ramdas Pophale) SiO2 
 PCOD8066704
Probable space group: P 2/M
;
_chemical_formula_sum "Si O2"
_cell_formula_units_Z 16
_cell_length_a 11.864443
_cell_length_b 11.425538
_cell_length_c 9.346548
_cell_angle_alpha 90.000000
_cell_angle_beta 140.844487
_cell_angle_gamma 90.000000
_cell_volume 800.016022
_symmetry_space_group_name_H-M "P 2/M"
_symmetry_group_IT_number 10
_symmetry_cell_setting 'monoclinic'
loop_
_space_group_symop_operation_xyz
x,y,z
-x,y,-z
-x,-y,-z
x,-y,z
loop_
_atom_site_type_symbol
_atom_site_label
_atom_site_fract_x
_atom_site_fract_y
_atom_site_fract_z
Si Si1 0.167970 0.248674 0.319364
Si Si2 0.591515 0.000000 0.813485
Si Si3 0.225180 0.000000 0.287985
Si Si4 0.511402 0.245497 0.846788
Si Si5 0.198945 0.637107 0.052681
O O1 0.314249 0.257400 0.587232
O O2 0.246733 0.306984 0.253072
O O3 0.118759 0.113965 0.236141
O O4 0.987252 0.311865 0.191789
O O5 0.418995 0.000000 0.545821
O O6 0.759212 0.000000 0.869936
O O7 0.593225 0.884920 0.913813
O O8 0.642138 0.336982 0.899703
O O9 0.500000 0.280769 0.000000
O O10 0.176352 0.500000 0.050577
#
# Coordination Sequence:
#
# PCOD8066704 Si02
#       5
#     4   2   2   4   4
#     4  10  21  39  62  91 118 147 195 249 290 345
#     4   9  17  35  59  90 121 147 188 238 291 353
#     4   9  16  32  64  92 113 147 188 243 300 340
#     4  11  23  39  61  88 122 159 189 233 297 355
#     4  11  24  40  61  87 114 155 204 247 287 333
#
# _framework density 19.999599
#
# number of rings (size 3 to 8) (size 9 to 14) (size 15 to 20)
#    0.000    1.750    2.500    2.625    0.000    7.500 
#    0.000    1.250    0.000    6.000    0.000    0.000 
#    0.000    0.000    0.000    0.000    0.000    0.000 
#
# Total GULP energy -198418.741378 kJ/mol
# GULP energy per Si atom -12401.171336 kJ/mol
# Density = 1.995408 g / cm^3
# Si number density = 19.999599 Si / 1000 Ang^3
#
#
#
# Elastic Constant Matrix: (Units=GPa)
#
#
# Indices 1 2 3 4 5 6 
#
# 1 65.7643 21.0521 49.3446 0.0000 -10.1323 0.0000
# 2 21.0521 147.2524 34.5825 0.0000 0.6473 0.0000
# 3 49.3446 34.5825 121.0247 0.0000 -7.6850 0.0000
# 4 0.0000 0.0000 0.0000 54.9126 0.0000 -23.8087
# 5 -10.1323 0.6473 -7.6850 0.0000 21.6120 0.0000
# 6 0.0000 0.0000 0.0000 -23.8087 0.0000 46.3046
#
#
#
# Elastic Compliance Matrix: (Units=1/GPa)
#
#
# Indices 1 2 3 4 5 6 
#
# 1 0.023326 -0.001344 -0.008624 0.000000 0.007909 0.000000
# 2 -0.001344 0.007377 -0.001651 0.000000 -0.001438 0.000000
# 3 -0.008624 -0.001651 0.012274 0.000000 0.000371 0.000000
# 4 0.000000 0.000000 0.000000 0.023435 0.000000 0.012050
# 5 0.007909 -0.001438 0.000371 0.000000 0.050154 0.000000
# 6 0.000000 0.000000 0.000000 0.012050 0.000000 0.027792
#
#
# Mechanical properties :
#
#
# Convention : Reuss Voigt Hill
#
# Bulk Modulus (GPa) = 50.66314 60.44442 55.55378
# Shear Modulus (GPa) = 28.70650 39.83666 34.27158
#
# Velocity S-wave (km/s) = 3.79272 4.46788 4.14407
# Velocity P-wave (km/s) = 6.67583 7.54350 7.12289
#
# Compressibility (1/GPa) = 0.01973822
#
# Stress axis : x y z
#
# Youngs Moduli (GPa) = 42.87150 135.54958 81.47022
#
# Poissons Ratio (x) = 0.18220 0.70260
# Poissons Ratio (y) = 0.05763 0.13454
# Poissons Ratio (z) = 0.36973 0.22384
#
# Static dielectric constant tensor:
#      x y z
#    x 3.436590 0.000000 0.110750 
#    y 0.000000 3.818590 0.000000 
#    z 0.110750 0.000000 3.465440 
# 
# 
# High freq. dielectric constant tensor:
#      x y z
#    x 1.767570 0.000000 0.015290 
#    y 0.000000 1.791120 0.000000 
#    z 0.015290 0.000000 1.771420 
# 
# From -- ./inp_files/16986.got.cif
#   From: 2010.06.25/outbox.cif.g09.slc.cpg/sg10_9_cif.got.tgz:16986.got - 2010.06.27 22:07:45.
