data_PCOD8066430
_publ_section_title
;
Structure prediction by ZEFSAII (Michael W. Deem and Ramdas Pophale) SiO2 
 PCOD8066430
Probable space group: P 2/M
;
_chemical_formula_sum "Si O2"
_cell_formula_units_Z 32
_cell_length_a 14.099302
_cell_length_b 9.007965
_cell_length_c 14.506565
_cell_angle_alpha 90.000000
_cell_angle_beta 55.695078
_cell_angle_gamma 90.000000
_cell_volume 1521.931706
_symmetry_space_group_name_H-M "P 2/M"
_symmetry_group_IT_number 10
_symmetry_cell_setting 'monoclinic'
loop_
_space_group_symop_operation_xyz
x,y,z
-x,y,-z
-x,-y,-z
x,-y,z
loop_
_atom_site_type_symbol
_atom_site_label
_atom_site_fract_x
_atom_site_fract_y
_atom_site_fract_z
Si Si1 0.159678 0.175572 0.144875
Si Si2 0.724282 0.324880 0.762726
Si Si3 0.560768 0.326033 0.688649
Si Si4 0.125212 0.175519 0.956363
Si Si5 0.316218 0.332472 0.565312
Si Si6 0.347671 0.824761 0.728857
Si Si7 0.933183 0.668457 0.337481
Si Si8 0.125211 0.159925 0.455248
O O1 0.267754 0.253207 0.138953
O O2 0.034040 0.226667 0.247618
O O3 0.168579 0.000000 0.154485
O O4 0.167095 0.224733 0.034688
O O5 0.737394 0.500000 0.764353
O O6 0.615039 0.282620 0.758807
O O7 0.833808 0.252128 0.655115
O O8 0.536168 0.500000 0.698501
O O9 0.647252 0.277782 0.557977
O O10 0.441915 0.238809 0.747467
O O11 0.222003 0.229678 0.831529
O O12 0.113273 0.000000 0.959668
O O13 0.000000 0.245836 0.000000
O O14 0.361267 0.500000 0.552532
O O15 0.376573 0.232920 0.610349
O O16 0.180197 0.325648 0.664160
O O17 0.356029 0.000000 0.725255
O O18 0.979319 0.500000 0.323639
O O19 0.873159 0.726320 0.462484
O O20 0.000000 0.108998 0.500000
O O21 0.191028 0.000000 0.436880
#
# Coordination Sequence:
#
# PCOD8066430 Si02
#       8
#     4   4   4   4   4   4   4   4
#     4  11  22  37  59  88 119 155 197 248 301 347
#     4  11  22  38  58  82 117 161 200 238 289 351
#     4  10  22  41  60  82 118 163 196 231 293 357
#     4   9  20  41  65  87 118 154 188 235 300 357
#     4  10  21  38  58  84 119 161 198 233 291 357
#     4  11  23  39  62  91 114 147 198 250 298 346
#     4  11  21  34  54  83 119 159 197 236 286 349
#     4  11  21  32  50  80 117 157 197 239 289 342
#
# _framework density 21.02591
#
# number of rings (size 3 to 8) (size 9 to 14) (size 15 to 20)
#    0.000    1.500    2.500    3.000    0.000    5.500 
#    0.000    3.125    0.000    8.250    0.000    0.000 
#    0.000    0.000    0.000    0.000    0.000    0.000 
#
# Total GULP energy -396528.411661 kJ/mol
# GULP energy per Si atom -12391.512864 kJ/mol
# Density = 2.097805 g / cm^3
# Si number density = 21.025910 Si / 1000 Ang^3
#
#
#
# Elastic Constant Matrix: (Units=GPa)
#
#
# Indices 1 2 3 4 5 6 
#
# 1 130.6478 48.5029 41.1583 0.0000 10.4274 0.0000
# 2 48.5029 85.8933 25.9214 0.0000 12.4780 0.0000
# 3 41.1583 25.9214 72.7009 0.0000 13.0806 0.0000
# 4 0.0000 0.0000 0.0000 15.1330 0.0000 6.0872
# 5 10.4274 12.4780 13.0806 0.0000 34.6640 0.0000
# 6 0.0000 0.0000 0.0000 6.0872 0.0000 32.1504
#
#
#
# Elastic Compliance Matrix: (Units=1/GPa)
#
#
# Indices 1 2 3 4 5 6 
#
# 1 0.010821 -0.004791 -0.004444 0.000000 0.000146 0.000000
# 2 -0.004791 0.015497 -0.002220 0.000000 -0.003300 0.000000
# 3 -0.004444 -0.002220 0.017893 0.000000 -0.004616 0.000000
# 4 0.000000 0.000000 0.000000 0.071529 0.000000 -0.013543
# 5 0.000146 -0.003300 -0.004616 0.000000 0.031734 0.000000
# 6 0.000000 0.000000 0.000000 -0.013543 0.000000 0.033668
#
#
# Mechanical properties :
#
#
# Convention : Reuss Voigt Hill
#
# Bulk Modulus (GPa) = 46.94445 57.82302 52.38373
# Shear Modulus (GPa) = 23.67973 27.96677 25.82325
#
# Velocity S-wave (km/s) = 3.35956 3.65102 3.50832
# Velocity P-wave (km/s) = 6.11754 6.73304 6.43265
#
# Compressibility (1/GPa) = 0.02130177
#
# Stress axis : x y z
#
# Youngs Moduli (GPa) = 92.41189 64.52990 55.88752
#
# Poissons Ratio (x) = 0.30913 0.24839
# Poissons Ratio (y) = 0.44270 0.12404
# Poissons Ratio (z) = 0.41072 0.14323
#
# Static dielectric constant tensor:
#      x y z
#    x 4.061280 0.000000 0.200720 
#    y 0.000000 3.644520 0.000000 
#    z 0.200720 0.000000 3.702310 
# 
# 
# High freq. dielectric constant tensor:
#      x y z
#    x 1.834240 0.000000 0.013180 
#    y 0.000000 1.818950 0.000000 
#    z 0.013180 0.000000 1.797830 
# 
# From -- ./inp_files/66469.got.cif
#   From: 2010.06.25/outbox.cif.g09.slc.cpg/sg10_34_cif.got.tgz:66469.got - 2010.06.27 22:07:45.
