data_PCOD8066332
_publ_section_title
;
Structure prediction by ZEFSAII (Michael W. Deem and Ramdas Pophale) SiO2 
 PCOD8066332
Probable space group: P 2/M
;
_chemical_formula_sum "Si O2"
_cell_formula_units_Z 20
_cell_length_a 7.642167
_cell_length_b 8.855119
_cell_length_c 18.758881
_cell_angle_alpha 90.000000
_cell_angle_beta 52.550666
_cell_angle_gamma 90.000000
_cell_volume 1007.810606
_symmetry_space_group_name_H-M "P 2/M"
_symmetry_group_IT_number 10
_symmetry_cell_setting 'monoclinic'
loop_
_space_group_symop_operation_xyz
x,y,z
-x,y,-z
-x,-y,-z
x,-y,z
loop_
_atom_site_type_symbol
_atom_site_label
_atom_site_fract_x
_atom_site_fract_y
_atom_site_fract_z
Si Si1 0.188912 0.333025 0.903923
Si Si2 0.858571 0.680325 0.714894
Si Si3 0.469271 0.177164 0.724634
Si Si4 0.324595 0.824165 0.603331
Si Si5 0.592395 0.665632 0.907095
O O1 0.109442 0.500000 0.897801
O O2 0.249118 0.229978 0.821423
O O3 0.404362 0.351717 0.896388
O O4 0.000000 0.256684 0.000000
O O5 0.840857 0.500000 0.717128
O O6 0.693680 0.744503 0.695715
O O7 0.791118 0.740776 0.812034
O O8 0.105155 0.732295 0.638763
O O9 0.430505 0.222754 0.652398
O O10 0.498595 0.000000 0.727905
O O11 0.500000 0.781047 0.500000
O O12 0.263452 0.000000 0.617356
O O13 0.670047 0.500000 0.915342
O O14 0.500000 0.756747 0.000000
#
# Coordination Sequence:
#
# PCOD8066332 Si02
#       5
#     4   4   4   4   4
#     4   9  18  31  51  79 111 149 190 232 279 336
#     4  10  21  37  60  87 117 150 189 243 291 338
#     4  10  21  38  59  82 116 155 191 237 287 345
#     4  10  23  42  62  84 112 153 199 238 289 351
#     4   8  15  28  47  75 107 142 182 220 270 330
#
# _framework density 19.844998
#
# number of rings (size 3 to 8) (size 9 to 14) (size 15 to 20)
#    0.000    2.600    0.000    2.400    2.800    3.200 
#    0.000    4.000    0.000    3.000    0.000    0.000 
#    0.000    0.000    0.000    0.000    0.000    0.000 
#
# Total GULP energy -247810.226418 kJ/mol
# GULP energy per Si atom -12390.511321 kJ/mol
# Density = 1.979983 g / cm^3
# Si number density = 19.844998 Si / 1000 Ang^3
#
#
#
# Elastic Constant Matrix: (Units=GPa)
#
#
# Indices 1 2 3 4 5 6 
#
# 1 94.6682 43.6562 75.8796 0.0000 3.1453 0.0000
# 2 43.6562 64.8191 49.8176 0.0000 0.0501 0.0000
# 3 75.8796 49.8176 178.4684 0.0000 4.9014 0.0000
# 4 0.0000 0.0000 0.0000 36.6259 0.0000 -0.5233
# 5 3.1453 0.0501 4.9014 0.0000 35.4458 0.0000
# 6 0.0000 0.0000 0.0000 -0.5233 0.0000 21.0569
#
#
#
# Elastic Compliance Matrix: (Units=1/GPa)
#
#
# Indices 1 2 3 4 5 6 
#
# 1 0.019081 -0.008446 -0.005731 0.000000 -0.000889 0.000000
# 2 -0.008446 0.023399 -0.002971 0.000000 0.001127 0.000000
# 3 -0.005731 -0.002971 0.008889 0.000000 -0.000716 0.000000
# 4 0.000000 0.000000 0.000000 0.027313 0.000000 0.000679
# 5 -0.000889 0.001127 -0.000716 0.000000 0.028388 0.000000
# 6 0.000000 0.000000 0.000000 0.000679 0.000000 0.047507
#
#
# Mechanical properties :
#
#
# Convention : Reuss Voigt Hill
#
# Bulk Modulus (GPa) = 58.57434 75.18471 66.87953
# Shear Modulus (GPa) = 25.69840 29.86588 27.78214
#
# Velocity S-wave (km/s) = 3.60245 3.88359 3.74566
# Velocity P-wave (km/s) = 6.84716 7.62088 7.24436
#
# Compressibility (1/GPa) = 0.01707232
#
# Stress axis : x y z
#
# Youngs Moduli (GPa) = 52.40830 42.73680 112.50048
#
# Poissons Ratio (x) = 0.36096 0.64469
# Poissons Ratio (y) = 0.44265 0.33429
# Poissons Ratio (z) = 0.30033 0.12699
#
# Static dielectric constant tensor:
#      x y z
#    x 3.466770 0.000000 0.036100 
#    y 0.000000 3.467880 0.000000 
#    z 0.036100 0.000000 4.225360 
# 
# 
# High freq. dielectric constant tensor:
#      x y z
#    x 1.771290 0.000000 -0.000210 
#    y 0.000000 1.740990 0.000000 
#    z -0.000210 0.000000 1.788560 
# 
# From -- ./inp_files/26779.got.cif
#   From: 2010.06.25/outbox.cif.g09.slc.cpg/sg10_14_cif.got.tgz:26779.got - 2010.06.27 22:07:45.
