data_PCOD8066097
_publ_section_title
;
Structure prediction by ZEFSAII (Michael W. Deem and Ramdas Pophale) SiO2 
 PCOD8066097
Probable space group: P 2/M
;
_chemical_formula_sum "Si O2"
_cell_formula_units_Z 28
_cell_length_a 26.904158
_cell_length_b 8.969556
_cell_length_c 9.565611
_cell_angle_alpha 90.000000
_cell_angle_beta 141.276326
_cell_angle_gamma 90.000000
_cell_volume 1444.027805
_symmetry_space_group_name_H-M "P 2/M"
_symmetry_group_IT_number 10
_symmetry_cell_setting 'monoclinic'
loop_
_space_group_symop_operation_xyz
x,y,z
-x,y,-z
-x,-y,-z
x,-y,z
loop_
_atom_site_type_symbol
_atom_site_label
_atom_site_fract_x
_atom_site_fract_y
_atom_site_fract_z
Si Si1 0.516036 0.832299 0.371582
Si Si2 0.228656 0.827190 0.510912
Si Si3 0.199692 0.827790 0.129492
Si Si4 0.929339 0.672019 0.737484
Si Si5 0.980276 0.170173 0.295752
Si Si6 0.328036 0.674912 0.232421
Si Si7 0.641001 0.324704 0.017710
O O1 0.500000 0.830123 0.500000
O O2 0.599464 0.751547 0.525094
O O3 0.444789 0.746747 0.138002
O O4 0.520842 0.000000 0.323421
O O5 0.236686 0.801667 0.363104
O O6 0.144277 0.770778 0.378434
O O7 0.236636 0.000000 0.568224
O O8 0.298249 0.735632 0.735520
O O9 0.245885 0.730580 0.117015
O O10 0.204770 0.000000 0.094974
O O11 0.108800 0.773156 0.929454
O O12 0.903293 0.500000 0.673253
O O13 0.958009 0.724630 0.648701
O O14 0.000000 0.699878 0.000000
O O15 0.000000 0.185283 0.500000
O O16 0.989807 0.000000 0.264289
O O17 0.336921 0.500000 0.272211
O O18 0.328451 0.718896 0.069908
O O19 0.632438 0.500000 0.015483
#
# Coordination Sequence:
#
# PCOD8066097 Si02
#       7
#     4   4   4   4   4   4   4
#     4   9  17  33  58  86 115 150 191 232 278 334
#     4  11  23  39  60  83 113 153 195 238 283 335
#     4  10  22  39  57  82 116 151 192 238 285 338
#     4  11  23  39  60  85 114 151 191 234 287 343
#     4  10  22  40  61  86 114 150 193 239 287 338
#     4  10  21  36  58  86 118 153 186 231 289 340
#     4  10  21  37  58  88 120 149 188 235 284 340
#
# _framework density 19.390207
#
# number of rings (size 3 to 8) (size 9 to 14) (size 15 to 20)
#    0.000    1.857    1.429    2.143    2.000    6.000 
#    0.000    0.714    0.000    4.286    0.000    0.000 
#    0.000    0.000    0.000    0.000    0.000    0.000 
#
# Total GULP energy -347336.524609 kJ/mol
# GULP energy per Si atom -12404.875879 kJ/mol
# Density = 1.934607 g / cm^3
# Si number density = 19.390207 Si / 1000 Ang^3
#
#
#
# Elastic Constant Matrix: (Units=GPa)
#
#
# Indices 1 2 3 4 5 6 
#
# 1 44.2228 19.9162 6.5793 0.0000 -2.1102 0.0000
# 2 19.9162 78.7112 31.5010 0.0000 -2.0673 0.0000
# 3 6.5793 31.5010 83.6155 0.0000 2.4154 0.0000
# 4 0.0000 0.0000 0.0000 31.0727 0.0000 4.1717
# 5 -2.1102 -2.0673 2.4154 0.0000 19.8676 0.0000
# 6 0.0000 0.0000 0.0000 4.1717 0.0000 31.1137
#
#
#
# Elastic Compliance Matrix: (Units=1/GPa)
#
#
# Indices 1 2 3 4 5 6 
#
# 1 0.025616 -0.006594 0.000411 0.000000 0.001985 0.000000
# 2 -0.006594 0.016759 -0.005845 0.000000 0.001754 0.000000
# 3 0.000411 -0.005845 0.014195 0.000000 -0.002290 0.000000
# 4 0.000000 0.000000 0.000000 0.032773 0.000000 -0.004394
# 5 0.001985 0.001754 -0.002290 0.000000 0.051005 0.000000
# 6 0.000000 0.000000 0.000000 -0.004394 0.000000 0.032729
#
#
# Mechanical properties :
#
#
# Convention : Reuss Voigt Hill
#
# Bulk Modulus (GPa) = 30.75618 35.83803 33.29711
# Shear Modulus (GPa) = 24.04181 26.31434 25.17808
#
# Velocity S-wave (km/s) = 3.52503 3.68787 3.60737
# Velocity P-wave (km/s) = 5.69772 6.05446 5.87880
#
# Compressibility (1/GPa) = 0.03251379
#
# Stress axis : x y z
#
# Youngs Moduli (GPa) = 39.03812 59.67087 70.44499
#
# Poissons Ratio (x) = 0.39347 -0.02897
# Poissons Ratio (y) = 0.25742 0.41178
# Poissons Ratio (z) = -0.01606 0.34880
#
# Static dielectric constant tensor:
#      x y z
#    x 3.426480 0.000000 0.142470 
#    y 0.000000 3.623640 0.000000 
#    z 0.142470 0.000000 3.630720 
# 
# 
# High freq. dielectric constant tensor:
#      x y z
#    x 1.745040 0.000000 0.011460 
#    y 0.000000 1.763090 0.000000 
#    z 0.011460 0.000000 1.758660 
# 
# From -- ./inp_files/31612.got.cif
#   From: 2010.06.25/outbox.cif.g09.slc.cpg/sg10_16_cif.got.tgz:31612.got - 2010.06.27 22:07:45.
