data_PCOD8066084
_publ_section_title
;
Structure prediction by ZEFSAII (Michael W. Deem and Ramdas Pophale) SiO2 
 PCOD8066084
Probable space group: P 2/M
;
_chemical_formula_sum "Si O2"
_cell_formula_units_Z 28
_cell_length_a 13.951172
_cell_length_b 8.592117
_cell_length_c 18.956643
_cell_angle_alpha 90.000000
_cell_angle_beta 144.051101
_cell_angle_gamma 90.000000
_cell_volume 1334.004717
_symmetry_space_group_name_H-M "P 2/M"
_symmetry_group_IT_number 10
_symmetry_cell_setting 'monoclinic'
loop_
_space_group_symop_operation_xyz
x,y,z
-x,y,-z
-x,-y,-z
x,-y,z
loop_
_atom_site_type_symbol
_atom_site_label
_atom_site_fract_x
_atom_site_fract_y
_atom_site_fract_z
Si Si1 0.454662 0.320872 0.693294
Si Si2 0.412238 0.318527 0.376700
Si Si3 0.329905 0.181786 0.929569
Si Si4 0.928322 0.818690 0.807640
Si Si5 0.123450 0.818760 0.512322
Si Si6 0.001741 0.319578 0.703221
Si Si7 0.741343 0.681079 0.966219
O O1 0.409716 0.500000 0.680006
O O2 0.468663 0.285274 0.618222
O O3 0.312115 0.217252 0.644320
O O4 0.629348 0.280603 0.832218
O O5 0.500000 0.258136 0.500000
O O6 0.369290 0.500000 0.357552
O O7 0.245514 0.226356 0.263701
O O8 0.327373 0.216962 0.010697
O O9 0.301091 0.000000 0.898671
O O10 0.500000 0.239967 0.000000
O O11 0.191330 0.277269 0.805599
O O12 0.929655 0.776026 0.725767
O O13 0.959897 0.000000 0.835499
O O14 0.070737 0.729225 0.935757
O O15 0.000000 0.762659 0.500000
O O16 0.092812 0.720822 0.423915
O O17 0.097315 0.000000 0.481935
O O18 0.978212 0.500000 0.706314
O O19 0.735056 0.500000 0.982893
#
# Coordination Sequence:
#
# PCOD8066084 Si02
#       7
#     4   4   4   4   4   4   4
#     4  10  23  41  62  91 123 159 205 256 303 357
#     4  10  21  39  64  91 121 159 203 251 306 361
#     4  10  21  36  57  84 116 153 197 249 303 359
#     4  11  22  38  62  91 123 158 201 249 304 364
#     4  11  25  42  61  87 122 162 200 246 307 364
#     4  11  22  38  61  86 116 154 200 249 297 355
#     4  10  21  38  59  86 122 160 203 250 302 360
#
# _framework density 20.989432999999998
#
# number of rings (size 3 to 8) (size 9 to 14) (size 15 to 20)
#    0.000    1.571    0.000    6.429    2.000    6.000 
#    0.000    2.857    0.000    0.000    0.000    0.000 
#    0.000    0.000    0.000    0.000    0.000    0.000 
#
# Total GULP energy -347318.026896 kJ/mol
# GULP energy per Si atom -12404.215246 kJ/mol
# Density = 2.094166 g / cm^3
# Si number density = 20.989433 Si / 1000 Ang^3
#
#
#
# Elastic Constant Matrix: (Units=GPa)
#
#
# Indices 1 2 3 4 5 6 
#
# 1 77.6470 19.4803 42.9524 0.0000 18.5242 0.0000
# 2 19.4803 62.1935 25.1906 0.0000 7.5217 0.0000
# 3 42.9524 25.1906 111.8916 0.0000 3.8253 0.0000
# 4 0.0000 0.0000 0.0000 30.0731 0.0000 8.0119
# 5 18.5242 7.5217 3.8253 0.0000 37.3696 0.0000
# 6 0.0000 0.0000 0.0000 8.0119 0.0000 24.6107
#
#
#
# Elastic Compliance Matrix: (Units=1/GPa)
#
#
# Indices 1 2 3 4 5 6 
#
# 1 0.019040 -0.002326 -0.006501 0.000000 -0.008304 0.000000
# 2 -0.002326 0.018357 -0.003164 0.000000 -0.002218 0.000000
# 3 -0.006501 -0.003164 0.012056 0.000000 0.002626 0.000000
# 4 0.000000 0.000000 0.000000 0.036410 0.000000 -0.011853
# 5 -0.008304 -0.002218 0.002626 0.000000 0.031054 0.000000
# 6 0.000000 0.000000 0.000000 -0.011853 0.000000 0.044491
#
#
# Mechanical properties :
#
#
# Convention : Reuss Voigt Hill
#
# Bulk Modulus (GPa) = 39.26247 47.44208 43.35228
# Shear Modulus (GPa) = 25.78898 29.35127 27.57012
#
# Velocity S-wave (km/s) = 3.50903 3.74355 3.62819
# Velocity P-wave (km/s) = 5.92994 6.42942 6.18473
#
# Compressibility (1/GPa) = 0.02546962
#
# Stress axis : x y z
#
# Youngs Moduli (GPa) = 52.52112 54.47446 82.94958
#
# Poissons Ratio (x) = 0.12671 0.53929
# Poissons Ratio (y) = 0.12217 0.26246
# Poissons Ratio (z) = 0.34146 0.17236
#
# Static dielectric constant tensor:
#      x y z
#    x 3.691520 0.000000 0.120270 
#    y 0.000000 3.734850 0.000000 
#    z 0.120270 0.000000 3.942210 
# 
# 
# High freq. dielectric constant tensor:
#      x y z
#    x 1.814610 0.000000 0.009920 
#    y 0.000000 1.820890 0.000000 
#    z 0.009920 0.000000 1.833120 
# 
# From -- ./inp_files/84963.got.cif
#   From: 2010.06.25/outbox.cif.g09.slc.cpg/sg10_43_cif.got.tgz:84963.got - 2010.06.27 22:07:45.
