data_PCOD8066745
_publ_section_title
;
Structure prediction by ZEFSAII (Michael W. Deem and Ramdas Pophale) SiO2 
 PCOD8066745
Probable space group: P 2/M
;
_chemical_formula_sum "Si O2"
_cell_formula_units_Z 32
_cell_length_a 12.781553
_cell_length_b 9.108411
_cell_length_c 28.436576
_cell_angle_alpha 90.000000
_cell_angle_beta 150.596320
_cell_angle_gamma 90.000000
_cell_volume 1625.359372
_symmetry_space_group_name_H-M "P 2/M"
_symmetry_group_IT_number 10
_symmetry_cell_setting 'monoclinic'
loop_
_space_group_symop_operation_xyz
x,y,z
-x,y,-z
-x,-y,-z
x,-y,z
loop_
_atom_site_type_symbol
_atom_site_label
_atom_site_fract_x
_atom_site_fract_y
_atom_site_fract_z
Si Si1 0.603450 0.328332 0.405159
Si Si2 0.490775 0.326652 0.942462
Si Si3 0.137622 0.667648 0.098428
Si Si4 0.015574 0.827687 0.606355
Si Si5 0.909503 0.830725 0.088066
Si Si6 0.612174 0.666874 0.299451
Si Si7 0.910063 0.830526 0.257175
Si Si8 0.205394 0.833040 0.289263
O O1 0.626642 0.500000 0.422957
O O2 0.811509 0.250296 0.505574
O O3 0.577327 0.290660 0.340129
O O4 0.398215 0.274630 0.353445
O O5 0.499849 0.500000 0.941180
O O6 0.279005 0.270876 0.834814
O O7 0.500000 0.274616 0.000000
O O8 0.693882 0.259544 0.995584
O O9 0.085711 0.500000 0.092702
O O10 0.387559 0.684373 0.184547
O O11 0.085213 0.775090 0.120469
O O12 0.000000 0.716978 0.000000
O O13 0.223403 0.776791 0.659736
O O14 0.035695 0.784716 0.668672
O O15 0.989234 0.000000 0.589031
O O16 0.003012 0.803602 0.176514
O O17 0.858959 0.000000 0.058996
O O18 0.697947 0.500000 0.328771
O O19 0.122880 0.803087 0.309758
O O20 0.838021 0.000000 0.225186
O O21 0.287065 0.000000 0.315233
#
# Coordination Sequence:
#
# PCOD8066745 Si02
#       8
#     4   4   4   4   4   4   4   4
#     4  11  23  41  66  91 119 156 202 255 309 365
#     4  11  23  37  59  89 121 159 202 246 293 353
#     4  10  22  40  61  89 126 164 198 243 305 363
#     4  11  25  42  63  90 122 159 203 254 306 363
#     4  11  22  37  61  89 121 161 203 249 297 358
#     4  10  22  41  63  89 124 162 200 247 304 366
#     4  10  23  43  62  88 126 165 202 247 306 364
#     4  10  21  39  64  90 121 160 202 248 301 360
#
# _framework density 19.687954999999999
#
# number of rings (size 3 to 8) (size 9 to 14) (size 15 to 20)
#    0.000    1.500    2.500    1.875    1.750    6.250 
#    0.000    2.500    0.000    0.000    0.000    0.000 
#    0.000    0.000    0.000    0.000    0.000    0.000 
#
# Total GULP energy -396983.741581 kJ/mol
# GULP energy per Si atom -12405.741924 kJ/mol
# Density = 1.964314 g / cm^3
# Si number density = 19.687955 Si / 1000 Ang^3
#
#
#
# Elastic Constant Matrix: (Units=GPa)
#
#
# Indices 1 2 3 4 5 6 
#
# 1 89.2634 44.6017 49.2747 0.0000 10.2539 0.0000
# 2 44.6017 84.8480 59.7680 0.0000 1.8860 0.0000
# 3 49.2747 59.7680 124.4292 0.0000 1.6229 0.0000
# 4 0.0000 0.0000 0.0000 31.3372 0.0000 10.0669
# 5 10.2539 1.8860 1.6229 0.0000 28.8751 0.0000
# 6 0.0000 0.0000 0.0000 10.0669 0.0000 28.1286
#
#
#
# Elastic Compliance Matrix: (Units=1/GPa)
#
#
# Indices 1 2 3 4 5 6 
#
# 1 0.016946 -0.006212 -0.003656 0.000000 -0.005407 0.000000
# 2 -0.006212 0.020104 -0.007213 0.000000 0.001298 0.000000
# 3 -0.003656 -0.007213 0.012936 0.000000 0.001043 0.000000
# 4 0.000000 0.000000 0.000000 0.036056 0.000000 -0.012904
# 5 -0.005407 0.001298 0.001043 0.000000 0.036408 0.000000
# 6 0.000000 0.000000 0.000000 -0.012904 0.000000 0.040169
#
#
# Mechanical properties :
#
#
# Convention : Reuss Voigt Hill
#
# Bulk Modulus (GPa) = 63.20382 67.31439 65.25911
# Shear Modulus (GPa) = 24.74539 27.32794 26.03666
#
# Velocity S-wave (km/s) = 3.54910 3.72970 3.64052
# Velocity P-wave (km/s) = 6.99766 7.26722 7.13371
#
# Compressibility (1/GPa) = 0.01582183
#
# Stress axis : x y z
#
# Youngs Moduli (GPa) = 59.01003 49.74199 77.30449
#
# Poissons Ratio (x) = 0.30902 0.28265
# Poissons Ratio (y) = 0.36659 0.55763
# Poissons Ratio (z) = 0.21576 0.35881
#
# Static dielectric constant tensor:
#      x y z
#    x 3.678390 0.000000 -0.023830 
#    y 0.000000 3.583930 0.000000 
#    z -0.023830 0.000000 3.603570 
# 
# 
# High freq. dielectric constant tensor:
#      x y z
#    x 1.770960 0.000000 0.003420 
#    y 0.000000 1.770650 0.000000 
#    z 0.003420 0.000000 1.773600 
# 
# From -- ./inp_files/95053.got.cif
#   From: 2010.06.25/outbox.cif.g09.slc.cpg/sg10_48_cif.got.tgz:95053.got - 2010.06.27 22:07:45.
