data_PCOD8066359
_publ_section_title
;
Structure prediction by ZEFSAII (Michael W. Deem and Ramdas Pophale) SiO2 
 PCOD8066359
Probable space group: P 2/M
;
_chemical_formula_sum "Si O2"
_cell_formula_units_Z 28
_cell_length_a 11.858315
_cell_length_b 8.929808
_cell_length_c 15.227173
_cell_angle_alpha 90.000000
_cell_angle_beta 119.208124
_cell_angle_gamma 90.000000
_cell_volume 1407.425587
_symmetry_space_group_name_H-M "P 2/M"
_symmetry_group_IT_number 10
_symmetry_cell_setting 'monoclinic'
loop_
_space_group_symop_operation_xyz
x,y,z
-x,y,-z
-x,-y,-z
x,-y,z
loop_
_atom_site_type_symbol
_atom_site_label
_atom_site_fract_x
_atom_site_fract_y
_atom_site_fract_z
Si Si1 0.086249 0.677724 0.113730
Si Si2 0.880156 0.176956 0.512807
Si Si3 0.623818 0.322998 0.811329
Si Si4 0.629561 0.167325 0.995103
Si Si5 0.741053 0.329995 0.190991
Si Si6 0.033337 0.668906 0.287534
Si Si7 0.627981 0.822865 0.313462
O O1 0.076454 0.500000 0.104431
O O2 0.234632 0.731859 0.164394
O O3 0.035863 0.735582 0.189344
O O4 0.000000 0.744804 0.000000
O O5 0.880340 0.235992 0.612571
O O6 0.743339 0.229899 0.420894
O O7 0.000000 0.240276 0.500000
O O8 0.889613 0.000000 0.518963
O O9 0.611087 0.500000 0.801013
O O10 0.508919 0.250077 0.708406
O O11 0.601001 0.266826 0.900413
O O12 0.734640 0.255802 0.092474
O O13 0.679188 0.000000 0.989556
O O14 0.500000 0.155550 0.000000
O O15 0.687353 0.500000 0.169092
O O16 0.660039 0.231727 0.227872
O O17 0.890555 0.327904 0.273484
O O18 0.088124 0.500000 0.305922
O O19 0.612213 0.000000 0.305648
#
# Coordination Sequence:
#
# PCOD8066359 Si02
#       7
#     4   4   4   4   4   4   4
#     4   9  19  39  63  87 118 154 192 239 295 346
#     4  10  21  38  59  84 118 160 198 237 294 354
#     4  11  22  37  60  85 114 152 196 244 291 348
#     4  11  22  34  51  78 115 154 187 229 287 349
#     4  11  21  33  55  86 115 147 190 238 289 347
#     4  10  21  37  61  90 117 149 195 248 295 343
#     4  11  22  37  56  81 118 155 188 235 294 349
#
# _framework density 19.894480000000001
#
# number of rings (size 3 to 8) (size 9 to 14) (size 15 to 20)
#    0.000    1.571    2.857    2.571    0.000    4.857 
#    0.000    2.143    0.000    7.286    0.000    0.000 
#    0.000    0.000    0.000    0.000    0.000    0.000 
#
# Total GULP energy -347143.164374 kJ/mol
# GULP energy per Si atom -12397.970156 kJ/mol
# Density = 1.984920 g / cm^3
# Si number density = 19.894480 Si / 1000 Ang^3
#
#
#
# Elastic Constant Matrix: (Units=GPa)
#
#
# Indices 1 2 3 4 5 6 
#
# 1 99.7176 23.4192 46.6746 0.0000 15.9153 0.0000
# 2 23.4192 54.0129 29.7074 0.0000 15.9181 0.0000
# 3 46.6746 29.7074 135.8824 0.0000 14.6460 0.0000
# 4 0.0000 0.0000 0.0000 27.8343 0.0000 11.9508
# 5 15.9153 15.9181 14.6460 0.0000 34.8406 0.0000
# 6 0.0000 0.0000 0.0000 11.9508 0.0000 11.5176
#
#
#
# Elastic Compliance Matrix: (Units=1/GPa)
#
#
# Indices 1 2 3 4 5 6 
#
# 1 0.012787 -0.002714 -0.003460 0.000000 -0.003147 0.000000
# 2 -0.002714 0.024019 -0.003425 0.000000 -0.008294 0.000000
# 3 -0.003460 -0.003425 0.009383 0.000000 -0.000799 0.000000
# 4 0.000000 0.000000 0.000000 0.064792 0.000000 -0.067229
# 5 -0.003147 -0.008294 -0.000799 0.000000 0.034265 0.000000
# 6 0.000000 0.000000 0.000000 -0.067229 0.000000 0.156581
#
#
# Mechanical properties :
#
#
# Convention : Reuss Voigt Hill
#
# Bulk Modulus (GPa) = 37.04880 54.35724 45.70302
# Shear Modulus (GPa) = 15.15050 27.49262 21.32156
#
# Velocity S-wave (km/s) = 2.76260 3.72145 3.27728
# Velocity P-wave (km/s) = 5.37020 6.77109 6.11092
#
# Compressibility (1/GPa) = 0.02699143
#
# Stress axis : x y z
#
# Youngs Moduli (GPa) = 78.20177 41.63368 106.58003
#
# Poissons Ratio (x) = 0.11300 0.36875
# Poissons Ratio (y) = 0.21225 0.36503
# Poissons Ratio (z) = 0.27056 0.14259
#
# Static dielectric constant tensor:
#      x y z
#    x 3.685230 0.000000 0.236100 
#    y 0.000000 3.595290 0.000000 
#    z 0.236100 0.000000 3.784180 
# 
# 
# High freq. dielectric constant tensor:
#      x y z
#    x 1.763090 0.000000 0.017200 
#    y 0.000000 1.763310 0.000000 
#    z 0.017200 0.000000 1.778170 
# 
# From -- ./inp_files/49632.got.cif
#   From: 2010.06.25/outbox.cif.g09.slc.cpg/sg10_25_cif.got.tgz:49632.got - 2010.06.27 22:07:45.
