data_PCOD8066988
_publ_section_title
;
Structure prediction by ZEFSAII (Michael W. Deem and Ramdas Pophale) SiO2 
 PCOD8066988
Probable space group: P 2/M
;
_chemical_formula_sum "Si O2"
_cell_formula_units_Z 28
_cell_length_a 14.796351
_cell_length_b 11.404532
_cell_length_c 9.573638
_cell_angle_alpha 90.000000
_cell_angle_beta 70.420341
_cell_angle_gamma 90.000000
_cell_volume 1522.093586
_symmetry_space_group_name_H-M "P 2/M"
_symmetry_group_IT_number 10
_symmetry_cell_setting 'monoclinic'
loop_
_space_group_symop_operation_xyz
x,y,z
-x,y,-z
-x,-y,-z
x,-y,z
loop_
_atom_site_type_symbol
_atom_site_label
_atom_site_fract_x
_atom_site_fract_y
_atom_site_fract_z
Si Si1 0.703724 0.637347 0.163899
Si Si2 0.087090 0.639836 0.362233
Si Si3 0.598045 0.000000 0.531330
Si Si4 0.598980 0.000000 0.866375
Si Si5 0.913949 0.638115 0.951550
Si Si6 0.386777 0.252468 0.530025
Si Si7 0.387354 0.754315 0.037203
Si Si8 0.705157 0.634181 0.675347
O O1 0.682550 0.500000 0.146178
O O2 0.678170 0.668020 0.336135
O O3 0.813977 0.669065 0.077747
O O4 0.636172 0.725322 0.110886
O O5 0.084178 0.500000 0.356122
O O6 0.081887 0.691379 0.207343
O O7 0.185231 0.680345 0.386725
O O8 0.000000 0.690013 0.500000
O O9 0.500000 0.000000 0.500000
O O10 0.583465 0.000000 0.707179
O O11 0.650731 0.117679 0.450816
O O12 0.653155 0.118563 0.889665
O O13 0.500000 0.000000 0.000000
O O14 0.927681 0.500000 0.933857
O O15 0.000000 0.692552 0.000000
O O16 0.500000 0.264773 0.500000
O O17 0.367213 0.295753 0.384504
O O18 0.333414 0.651186 0.148025
O O19 0.500000 0.747450 0.000000
O O20 0.701047 0.500000 0.634295
#
# Coordination Sequence:
#
# PCOD8066988 Si02
#       8
#     4   4   2   2   4   4   4   4
#     4  11  23  37  54  85 120 150 186 224 280 350
#     4   9  18  32  52  78 108 144 185 227 275 329
#     4  10  22  40  58  78 107 144 199 249 272 310
#     4  10  22  38  60  82 101 142 204 246 275 315
#     4   9  18  33  52  76 109 145 183 229 275 327
#     4  11  24  38  56  79 115 154 192 232 274 327
#     4  11  22  36  57  80 112 148 190 236 273 323
#     4  11  21  35  54  82 117 150 183 226 282 345
#
# _framework density 18.395716
#
# number of rings (size 3 to 8) (size 9 to 14) (size 15 to 20)
#    0.000    1.714    2.857    1.714    8.000    3.429 
#    0.000    0.000    0.000    0.000    0.000    6.000 
#    0.000    0.000    0.000    0.000    0.000    0.000 
#
# Total GULP energy -347073.799526 kJ/mol
# GULP energy per Si atom -12395.492840 kJ/mol
# Density = 1.835385 g / cm^3
# Si number density = 18.395716 Si / 1000 Ang^3
#
#
#
# Elastic Constant Matrix: (Units=GPa)
#
#
# Indices 1 2 3 4 5 6 
#
# 1 98.1042 37.6878 27.1745 0.0000 -3.6093 0.0000
# 2 37.6878 75.7549 23.1308 0.0000 3.7750 0.0000
# 3 27.1745 23.1308 86.4208 0.0000 -8.4064 0.0000
# 4 0.0000 0.0000 0.0000 25.5766 0.0000 4.6263
# 5 -3.6093 3.7750 -8.4064 0.0000 33.4264 0.0000
# 6 0.0000 0.0000 0.0000 4.6263 0.0000 3.1346
#
#
#
# Elastic Compliance Matrix: (Units=1/GPa)
#
#
# Indices 1 2 3 4 5 6 
#
# 1 0.013183 -0.005892 -0.002424 0.000000 0.001479 0.000000
# 2 -0.005892 0.017242 -0.003089 0.000000 -0.003360 0.000000
# 3 -0.002424 -0.003089 0.013499 0.000000 0.003482 0.000000
# 4 0.000000 0.000000 0.000000 0.053337 0.000000 -0.078719
# 5 0.001479 -0.003360 0.003482 0.000000 0.031331 0.000000
# 6 0.000000 0.000000 0.000000 -0.078719 0.000000 0.435196
#
#
# Mechanical properties :
#
#
# Convention : Reuss Voigt Hill
#
# Bulk Modulus (GPa) = 47.36325 48.47399 47.91862
# Shear Modulus (GPa) = 8.42265 23.91332 16.16799
#
# Velocity S-wave (km/s) = 2.14209 3.60938 2.96784
# Velocity P-wave (km/s) = 5.64985 6.61650 6.15219
#
# Compressibility (1/GPa) = 0.02111342
#
# Stress axis : x y z
#
# Youngs Moduli (GPa) = 75.85763 57.99688 74.07869
#
# Poissons Ratio (x) = 0.34170 0.17959
# Poissons Ratio (y) = 0.44693 0.22884
# Poissons Ratio (z) = 0.18391 0.17916
#
# Static dielectric constant tensor:
#      x y z
#    x 3.405550 0.000000 0.083280 
#    y 0.000000 3.625570 0.000000 
#    z 0.083280 0.000000 3.489660 
# 
# 
# High freq. dielectric constant tensor:
#      x y z
#    x 1.705770 0.000000 0.011290 
#    y 0.000000 1.683300 0.000000 
#    z 0.011290 0.000000 1.725420 
# 
# From -- ./inp_files/28280.got.cif
#   From: 2010.06.25/outbox.cif.g09.slc.cpg/sg10_15_cif.got.tgz:28280.got - 2010.06.27 22:07:45.
