data_PCOD8066251
_publ_section_title
;
Structure prediction by ZEFSAII (Michael W. Deem and Ramdas Pophale) SiO2 
 PCOD8066251
Probable space group: P 2/M
;
_chemical_formula_sum "Si O2"
_cell_formula_units_Z 28
_cell_length_a 31.855999
_cell_length_b 9.093607
_cell_length_c 14.009151
_cell_angle_alpha 90.000000
_cell_angle_beta 157.930026
_cell_angle_gamma 90.000000
_cell_volume 1524.842932
_symmetry_space_group_name_H-M "P 2/M"
_symmetry_group_IT_number 10
_symmetry_cell_setting 'monoclinic'
loop_
_space_group_symop_operation_xyz
x,y,z
-x,y,-z
-x,-y,-z
x,-y,z
loop_
_atom_site_type_symbol
_atom_site_label
_atom_site_fract_x
_atom_site_fract_y
_atom_site_fract_z
Si Si1 0.620632 0.326342 0.219370
Si Si2 0.351904 0.831114 0.919379
Si Si3 0.586228 0.167547 0.488722
Si Si4 0.825825 0.169599 0.298702
Si Si5 0.736318 0.167411 0.625516
Si Si6 0.917664 0.171404 0.155532
Si Si7 0.764912 0.326106 0.981947
O O1 0.622769 0.500000 0.223379
O O2 0.648803 0.271495 0.173645
O O3 0.716597 0.269844 0.492929
O O4 0.500000 0.266710 0.000000
O O5 0.238840 0.801837 0.739138
O O6 0.361767 0.000000 0.906418
O O7 0.455669 0.792430 0.207762
O O8 0.636288 0.191794 0.489189
O O9 0.645860 0.273470 0.689976
O O10 0.605792 0.000000 0.563842
O O11 0.953873 0.212915 0.587580
O O12 0.814713 0.000000 0.242910
O O13 0.773879 0.273234 0.109120
O O14 0.740386 0.000000 0.598037
O O15 0.852881 0.212580 0.921533
O O16 0.899117 0.000000 0.139986
O O17 0.868290 0.260794 0.140295
O O18 0.770705 0.500000 0.989447
#
# Coordination Sequence:
#
# PCOD8066251 Si02
#       7
#     4   4   4   4   4   4   4
#     4  11  22  34  53  82 113 142 173 215 271 327
#     4  10  21  37  58  81 106 142 184 224 267 319
#     4   9  18  34  55  80 108 139 180 226 269 313
#     4  10  21  38  58  79 107 143 183 226 270 314
#     4   9  17  32  56  81 105 136 178 225 267 310
#     4   9  19  37  59  82 107 139 182 229 268 309
#     4  11  22  34  54  82 111 144 182 221 268 322
#
# _framework density 18.362548
#
# number of rings (size 3 to 8) (size 9 to 14) (size 15 to 20)
#    0.000    2.143    1.429    3.000    0.000    6.857 
#    0.000    3.571    0.000    4.286    0.000    0.000 
#    0.000    0.000    0.000    0.000    0.000    0.000 
#
# Total GULP energy -347292.657311 kJ/mol
# GULP energy per Si atom -12403.309190 kJ/mol
# Density = 1.832075 g / cm^3
# Si number density = 18.362548 Si / 1000 Ang^3
#
#
#
# Elastic Constant Matrix: (Units=GPa)
#
#
# Indices 1 2 3 4 5 6 
#
# 1 79.7860 42.4728 41.8933 0.0000 -8.5722 0.0000
# 2 42.4728 81.8175 33.7645 0.0000 -13.3567 0.0000
# 3 41.8933 33.7645 75.2149 0.0000 -9.6954 0.0000
# 4 0.0000 0.0000 0.0000 2.6247 0.0000 2.9776
# 5 -8.5722 -13.3567 -9.6954 0.0000 24.7465 0.0000
# 6 0.0000 0.0000 0.0000 2.9776 0.0000 16.0435
#
#
#
# Elastic Compliance Matrix: (Units=1/GPa)
#
#
# Indices 1 2 3 4 5 6 
#
# 1 0.020812 -0.007392 -0.008276 0.000000 -0.000023 0.000000
# 2 -0.007392 0.018446 -0.003381 0.000000 0.006071 0.000000
# 3 -0.008276 -0.003381 0.019819 0.000000 0.003073 0.000000
# 4 0.000000 0.000000 0.000000 0.482596 0.000000 -0.089567
# 5 -0.000023 0.006071 0.003073 0.000000 0.044882 0.000000
# 6 0.000000 0.000000 0.000000 -0.089567 0.000000 0.078953
#
#
# Mechanical properties :
#
#
# Convention : Reuss Voigt Hill
#
# Bulk Modulus (GPa) = 47.66869 52.56440 50.11654
# Shear Modulus (GPa) = 7.03632 16.59548 11.81590
#
# Velocity S-wave (km/s) = 1.95964 3.00953 2.53944
# Velocity P-wave (km/s) = 5.58000 6.38470 5.99586
#
# Compressibility (1/GPa) = 0.02097813
#
# Stress axis : x y z
#
# Youngs Moduli (GPa) = 48.04980 54.21271 50.45709
#
# Poissons Ratio (x) = 0.40074 0.41760
# Poissons Ratio (y) = 0.35518 0.17058
# Poissons Ratio (z) = 0.39768 0.18328
#
# Static dielectric constant tensor:
#      x y z
#    x 3.157350 0.000000 0.044130 
#    y 0.000000 3.253820 0.000000 
#    z 0.044130 0.000000 3.557620 
# 
# 
# High freq. dielectric constant tensor:
#      x y z
#    x 1.694630 0.000000 -0.004650 
#    y 0.000000 1.702150 0.000000 
#    z -0.004650 0.000000 1.720350 
# 
# From -- ./inp_files/57512.got.cif
#   From: 2010.06.25/outbox.cif.g09.slc.cpg/sg10_29_cif.got.tgz:57512.got - 2010.06.27 22:07:45.
