data_PCOD8066619
_publ_section_title
;
Structure prediction by ZEFSAII (Michael W. Deem and Ramdas Pophale) SiO2 
 PCOD8066619
Probable space group: P 2/M
;
_chemical_formula_sum "Si O2"
_cell_formula_units_Z 32
_cell_length_a 14.930268
_cell_length_b 8.961476
_cell_length_c 25.483205
_cell_angle_alpha 90.000000
_cell_angle_beta 29.135014
_cell_angle_gamma 90.000000
_cell_volume 1660.020887
_symmetry_space_group_name_H-M "P 2/M"
_symmetry_group_IT_number 10
_symmetry_cell_setting 'monoclinic'
loop_
_space_group_symop_operation_xyz
x,y,z
-x,y,-z
-x,-y,-z
x,-y,z
loop_
_atom_site_type_symbol
_atom_site_label
_atom_site_fract_x
_atom_site_fract_y
_atom_site_fract_z
Si Si1 0.972860 0.175213 0.791070
Si Si2 0.809602 0.671256 0.073261
Si Si3 0.620260 0.175863 0.388153
Si Si4 0.278251 0.330941 0.999264
Si Si5 0.982484 0.326377 0.677974
Si Si6 0.626360 0.675430 0.568620
Si Si7 0.327916 0.325369 0.243206
Si Si8 0.440673 0.176445 0.289354
O O1 0.171780 0.232174 0.709052
O O2 0.813742 0.220783 0.912477
O O3 0.922687 0.240794 0.760438
O O4 0.977027 0.000000 0.783250
O O5 0.765741 0.500000 0.111208
O O6 0.652581 0.775291 0.177284
O O7 0.825267 0.688221 0.002915
O O8 0.000000 0.726999 0.000000
O O9 0.500000 0.221819 0.500000
O O10 0.547172 0.260807 0.374338
O O11 0.608903 0.000000 0.383293
O O12 0.259439 0.500000 0.029633
O O13 0.491624 0.286406 0.883353
O O14 0.956593 0.500000 0.702354
O O15 0.850511 0.276564 0.697995
O O16 0.190658 0.285418 0.557314
O O17 0.601069 0.500000 0.589883
O O18 0.647449 0.753579 0.613743
O O19 0.329386 0.500000 0.257033
O O20 0.325531 0.234288 0.298466
O O21 0.426968 0.000000 0.299294
#
# Coordination Sequence:
#
# PCOD8066619 Si02
#       8
#     4   4   4   4   4   4   4   4
#     4  11  23  37  57  85 120 155 189 234 288 348
#     4   9  19  37  59  84 113 150 196 241 285 336
#     4  10  21  39  58  80 117 158 190 232 291 348
#     4   9  19  36  58  83 114 150 190 236 284 338
#     4  10  22  40  63  87 111 147 199 247 289 339
#     4  11  23  38  60  88 116 151 196 244 287 341
#     4   9  20  42  65  84 112 151 194 244 292 338
#     4  11  23  38  58  86 120 154 189 234 290 351
#
# _framework density 19.276865999999998
#
# number of rings (size 3 to 8) (size 9 to 14) (size 15 to 20)
#    0.000    2.000    1.250    2.625    1.750    5.500 
#    0.000    5.000    0.000    0.000    0.000    0.000 
#    0.000    0.000    0.000    0.000    0.000    0.000 
#
# Total GULP energy -396955.529103 kJ/mol
# GULP energy per Si atom -12404.860284 kJ/mol
# Density = 1.923299 g / cm^3
# Si number density = 19.276866 Si / 1000 Ang^3
#
#
#
# Elastic Constant Matrix: (Units=GPa)
#
#
# Indices 1 2 3 4 5 6 
#
# 1 108.1898 46.1669 29.5823 0.0000 -2.0928 0.0000
# 2 46.1669 74.2424 34.1114 0.0000 8.3699 0.0000
# 3 29.5823 34.1114 50.4431 0.0000 16.4131 0.0000
# 4 0.0000 0.0000 0.0000 26.5828 0.0000 3.3119
# 5 -2.0928 8.3699 16.4131 0.0000 30.2424 0.0000
# 6 0.0000 0.0000 0.0000 3.3119 0.0000 29.6598
#
#
#
# Elastic Compliance Matrix: (Units=1/GPa)
#
#
# Indices 1 2 3 4 5 6 
#
# 1 0.013668 -0.006684 -0.005350 0.000000 0.005699 0.000000
# 2 -0.006684 0.022924 -0.011376 0.000000 -0.000633 0.000000
# 3 -0.005350 -0.011376 0.036132 0.000000 -0.016831 0.000000
# 4 0.000000 0.000000 0.000000 0.038149 0.000000 -0.004260
# 5 0.005699 -0.000633 -0.016831 0.000000 0.042770 0.000000
# 6 0.000000 0.000000 0.000000 -0.004260 0.000000 0.034191
#
#
# Mechanical properties :
#
#
# Convention : Reuss Voigt Hill
#
# Bulk Modulus (GPa) = 38.60598 50.28850 44.44724
# Shear Modulus (GPa) = 20.55159 25.49798 23.02478
#
# Velocity S-wave (km/s) = 3.26870 3.64087 3.45980
# Velocity P-wave (km/s) = 5.85803 6.61957 6.25041
#
# Compressibility (1/GPa) = 0.02590272
#
# Stress axis : x y z
#
# Youngs Moduli (GPa) = 73.16187 43.62249 27.67650
#
# Poissons Ratio (x) = 0.29156 0.14808
# Poissons Ratio (y) = 0.48899 0.31486
# Poissons Ratio (z) = 0.39145 0.49627
#
# Static dielectric constant tensor:
#      x y z
#    x 3.600720 0.000000 -0.082750 
#    y 0.000000 3.390800 0.000000 
#    z -0.082750 0.000000 3.476230 
# 
# 
# High freq. dielectric constant tensor:
#      x y z
#    x 1.758750 0.000000 0.000510 
#    y 0.000000 1.743760 0.000000 
#    z 0.000510 0.000000 1.749020 
# 
# From -- ./inp_files/66577.got.cif
#   From: 2010.06.25/outbox.cif.g09.slc.cpg/sg10_34_cif.got.tgz:66577.got - 2010.06.27 22:07:45.
