data_PCOD8066849
_publ_section_title
;
Structure prediction by ZEFSAII (Michael W. Deem and Ramdas Pophale) SiO2 
 PCOD8066849
Probable space group: P 2/M
;
_chemical_formula_sum "Si O2"
_cell_formula_units_Z 28
_cell_length_a 22.066122
_cell_length_b 8.820204
_cell_length_c 16.402603
_cell_angle_alpha 90.000000
_cell_angle_beta 25.549327
_cell_angle_gamma 90.000000
_cell_volume 1376.844147
_symmetry_space_group_name_H-M "P 2/M"
_symmetry_group_IT_number 10
_symmetry_cell_setting 'monoclinic'
loop_
_space_group_symop_operation_xyz
x,y,z
-x,y,-z
-x,-y,-z
x,-y,z
loop_
_atom_site_type_symbol
_atom_site_label
_atom_site_fract_x
_atom_site_fract_y
_atom_site_fract_z
Si Si1 0.802642 0.674857 0.615792
Si Si2 0.086901 0.823838 0.280085
Si Si3 0.799149 0.326541 0.433430
Si Si4 0.892907 0.326637 0.912393
Si Si5 0.345182 0.674047 0.048557
Si Si6 0.585556 0.675304 0.320357
Si Si7 0.461395 0.823006 0.311373
O O1 0.852486 0.500000 0.557751
O O2 0.767656 0.720220 0.565474
O O3 0.665912 0.698624 0.839662
O O4 0.928687 0.779297 0.497164
O O5 0.110404 0.792678 0.156330
O O6 0.193712 0.718614 0.198633
O O7 0.114348 0.000000 0.265682
O O8 0.757127 0.500000 0.469574
O O9 0.701781 0.226394 0.492449
O O10 0.963381 0.297788 0.210988
O O11 0.897142 0.500000 0.873392
O O12 0.752073 0.301853 0.136601
O O13 0.378214 0.500000 0.987067
O O14 0.467399 0.773928 0.860323
O O15 0.500000 0.747285 0.500000
O O16 0.546026 0.500000 0.359370
O O17 0.544231 0.752496 0.286208
O O18 0.471789 0.000000 0.308738
#
# Coordination Sequence:
#
# PCOD8066849 Si02
#       7
#     4   4   4   4   4   4   4
#     4   9  20  36  55  79 109 154 205 246 286 333
#     4  11  20  30  50  82 118 153 191 239 293 346
#     4   9  19  38  60  82 113 156 201 240 281 338
#     4   9  18  36  62  87 114 152 195 237 284 343
#     4  11  21  35  55  78 111 154 201 248 288 337
#     4  10  21  40  68  96 117 144 187 239 291 346
#     4  12  25  39  57  86 120 156 191 235 299 354
#
# _framework density 20.336361
#
# number of rings (size 3 to 8) (size 9 to 14) (size 15 to 20)
#    0.000    1.857    1.429    4.286    0.000    6.000 
#    0.000    3.571    0.000    4.286    0.000    0.000 
#    0.000    0.000    0.000    0.000    0.000    0.000 
#
# Total GULP energy -347129.657670 kJ/mol
# GULP energy per Si atom -12397.487774 kJ/mol
# Density = 2.029007 g / cm^3
# Si number density = 20.336361 Si / 1000 Ang^3
#
#
#
# Elastic Constant Matrix: (Units=GPa)
#
#
# Indices 1 2 3 4 5 6 
#
# 1 51.5588 20.6289 41.9955 0.0000 -19.6495 0.0000
# 2 20.6289 64.8117 29.8197 0.0000 -5.9342 0.0000
# 3 41.9955 29.8197 137.7013 0.0000 -4.8535 0.0000
# 4 0.0000 0.0000 0.0000 13.0614 0.0000 -0.4050
# 5 -19.6495 -5.9342 -4.8535 0.0000 23.5339 0.0000
# 6 0.0000 0.0000 0.0000 -0.4050 0.0000 8.9063
#
#
#
# Elastic Compliance Matrix: (Units=1/GPa)
#
#
# Indices 1 2 3 4 5 6 
#
# 1 0.042414 -0.005724 -0.010575 0.000000 0.031789 0.000000
# 2 -0.005724 0.018214 -0.002221 0.000000 -0.000644 0.000000
# 3 -0.010575 -0.002221 0.010715 0.000000 -0.007180 0.000000
# 4 0.000000 0.000000 0.000000 0.076670 0.000000 0.003487
# 5 0.031789 -0.000644 -0.007180 0.000000 0.067391 0.000000
# 6 0.000000 0.000000 0.000000 0.003487 0.000000 0.112438
#
#
# Mechanical properties :
#
#
# Convention : Reuss Voigt Hill
#
# Bulk Modulus (GPa) = 29.15214 48.77331 38.96273
# Shear Modulus (GPa) = 13.28663 19.87551 16.58107
#
# Velocity S-wave (km/s) = 2.55883 3.12963 2.85852
# Velocity P-wave (km/s) = 4.80586 6.09055 5.48594
#
# Compressibility (1/GPa) = 0.03430279
#
# Stress axis : x y z
#
# Youngs Moduli (GPa) = 23.57692 54.90223 93.32435
#
# Poissons Ratio (x) = 0.31424 0.98694
# Poissons Ratio (y) = 0.13495 0.20732
# Poissons Ratio (z) = 0.24933 0.12196
#
# Static dielectric constant tensor:
#      x y z
#    x 3.473720 0.000000 -0.081680 
#    y 0.000000 3.515740 0.000000 
#    z -0.081680 0.000000 3.887570 
# 
# 
# High freq. dielectric constant tensor:
#      x y z
#    x 1.769140 0.000000 -0.014630 
#    y 0.000000 1.780380 0.000000 
#    z -0.014630 0.000000 1.797390 
# 
# From -- ./inp_files/70171.got.cif
#   From: 2010.06.25/outbox.cif.g09.slc.cpg/sg10_36_cif.got.tgz:70171.got - 2010.06.27 22:07:45.
