data_PCOD8066951
_publ_section_title
;
Structure prediction by ZEFSAII (Michael W. Deem and Ramdas Pophale) SiO2 
 PCOD8066951
Probable space group: P 2/M
;
_chemical_formula_sum "Si O2"
_cell_formula_units_Z 28
_cell_length_a 12.686639
_cell_length_b 9.761711
_cell_length_c 12.467837
_cell_angle_alpha 90.000000
_cell_angle_beta 104.255542
_cell_angle_gamma 90.000000
_cell_volume 1496.512087
_symmetry_space_group_name_H-M "P 2/M"
_symmetry_group_IT_number 10
_symmetry_cell_setting 'monoclinic'
loop_
_space_group_symop_operation_xyz
x,y,z
-x,y,-z
-x,-y,-z
x,-y,z
loop_
_atom_site_type_symbol
_atom_site_label
_atom_site_fract_x
_atom_site_fract_y
_atom_site_fract_z
Si Si1 0.427570 0.348956 0.388221
Si Si2 0.015069 0.662938 0.322441
Si Si3 0.942264 0.840477 0.874351
Si Si4 0.841371 0.659515 0.451343
Si Si5 0.373232 0.350539 0.708676
Si Si6 0.491080 0.157535 0.877745
Si Si7 0.305119 0.155379 0.219408
O O1 0.500000 0.280634 0.500000
O O2 0.382649 0.500000 0.412730
O O3 0.507833 0.367493 0.309549
O O4 0.327920 0.252360 0.328317
O O5 0.019583 0.500000 0.297726
O O6 0.013490 0.746655 0.211078
O O7 0.115219 0.716376 0.423440
O O8 0.907717 0.706800 0.362440
O O9 0.813625 0.813386 0.857345
O O10 0.965793 0.000000 0.853954
O O11 0.000000 0.797317 0.000000
O O12 0.862082 0.500000 0.466946
O O13 0.714949 0.699572 0.402139
O O14 0.335557 0.500000 0.744471
O O15 0.387242 0.238496 0.804385
O O16 0.606776 0.184552 0.850623
O O17 0.457554 0.000000 0.862947
O O18 0.500000 0.210812 0.000000
O O19 0.314198 0.000000 0.263053
#
# Coordination Sequence:
#
# PCOD8066951 Si02
#       7
#     4   4   4   4   4   4   4
#     4   9  18  30  48  76 103 128 161 199 243 297
#     4   9  18  34  56  77 100 133 175 216 260 313
#     4  10  22  38  53  73 105 142 178 218 266 310
#     4   8  16  32  53  78 105 133 164 211 269 314
#     4   9  17  30  48  72 102 129 158 198 249 304
#     4   9  18  33  51  71  97 130 169 207 246 296
#     4   9  19  35  51  70 100 135 167 204 252 302
#
# _framework density 18.710173000000001
#
# number of rings (size 3 to 8) (size 9 to 14) (size 15 to 20)
#    0.000    3.000    0.000    0.857    2.000    2.571 
#    0.000    4.286    0.000    0.000    0.000    0.000 
#    0.000    0.000    0.000    0.000    0.000    0.000 
#
# Total GULP energy -346933.910968 kJ/mol
# GULP energy per Si atom -12390.496820 kJ/mol
# Density = 1.866759 g / cm^3
# Si number density = 18.710173 Si / 1000 Ang^3
#
#
#
# Elastic Constant Matrix: (Units=GPa)
#
#
# Indices 1 2 3 4 5 6 
#
# 1 54.4466 28.1763 30.4763 0.0000 19.7112 0.0000
# 2 28.1763 66.1445 62.8537 0.0000 10.5113 0.0000
# 3 30.4763 62.8537 140.6067 0.0000 18.3985 0.0000
# 4 0.0000 0.0000 0.0000 33.4985 0.0000 3.6101
# 5 19.7112 10.5113 18.3985 0.0000 33.9861 0.0000
# 6 0.0000 0.0000 0.0000 3.6101 0.0000 19.2213
#
#
#
# Elastic Compliance Matrix: (Units=1/GPa)
#
#
# Indices 1 2 3 4 5 6 
#
# 1 0.028359 -0.010042 0.000095 0.000000 -0.013393 0.000000
# 2 -0.010042 0.029954 -0.011584 0.000000 0.002831 0.000000
# 3 0.000095 -0.011584 0.012708 0.000000 -0.003352 0.000000
# 4 0.000000 0.000000 0.000000 0.030469 0.000000 -0.005723
# 5 -0.013393 0.002831 -0.003352 0.000000 0.038131 0.000000
# 6 0.000000 0.000000 0.000000 -0.005723 0.000000 0.053100
#
#
# Mechanical properties :
#
#
# Convention : Reuss Voigt Hill
#
# Bulk Modulus (GPa) = 35.76678 56.02338 45.89508
# Shear Modulus (GPa) = 20.39966 26.65396 23.52681
#
# Velocity S-wave (km/s) = 3.30555 3.77844 3.54988
# Velocity P-wave (km/s) = 5.80746 7.00309 6.43311
#
# Compressibility (1/GPa) = 0.02795890
#
# Stress axis : x y z
#
# Youngs Moduli (GPa) = 35.26204 33.38496 78.68941
#
# Poissons Ratio (x) = 0.33525 -0.00745
# Poissons Ratio (y) = 0.35410 0.91151
# Poissons Ratio (z) = -0.00334 0.38672
#
# Static dielectric constant tensor:
#      x y z
#    x 3.390550 0.000000 0.134450 
#    y 0.000000 3.484870 0.000000 
#    z 0.134450 0.000000 3.453730 
# 
# 
# High freq. dielectric constant tensor:
#      x y z
#    x 1.721540 0.000000 0.009380 
#    y 0.000000 1.705210 0.000000 
#    z 0.009380 0.000000 1.723460 
# 
# From -- ./inp_files/49315.got.cif
#   From: 2010.06.25/outbox.cif.g09.slc.cpg/sg10_25_cif.got.tgz:49315.got - 2010.06.27 22:07:45.
