data_PCOD8066921
_publ_section_title
;
Structure prediction by ZEFSAII (Michael W. Deem and Ramdas Pophale) SiO2 
 PCOD8066921
Probable space group: P 2/M
;
_chemical_formula_sum "Si O2"
_cell_formula_units_Z 20
_cell_length_a 5.126359
_cell_length_b 13.283429
_cell_length_c 15.003198
_cell_angle_alpha 90.000000
_cell_angle_beta 98.282929
_cell_angle_gamma 90.000000
_cell_volume 1010.995053
_symmetry_space_group_name_H-M "P 2/M"
_symmetry_group_IT_number 10
_symmetry_cell_setting 'monoclinic'
loop_
_space_group_symop_operation_xyz
x,y,z
-x,y,-z
-x,-y,-z
x,-y,z
loop_
_atom_site_type_symbol
_atom_site_label
_atom_site_fract_x
_atom_site_fract_y
_atom_site_fract_z
Si Si1 0.355115 0.886331 0.079017
Si Si2 0.446396 0.615893 0.893259
Si Si3 0.924100 0.265900 0.841517
Si Si4 0.209279 0.884947 0.746936
Si Si5 0.270955 0.118109 0.548385
O O1 0.091535 0.820755 0.082444
O O2 0.551218 0.873473 0.172316
O O3 0.263450 0.000000 0.058807
O O4 0.500000 0.841696 0.000000
O O5 0.464625 0.500000 0.866712
O O6 0.643942 0.675713 0.836552
O O7 0.150069 0.652826 0.864581
O O8 0.500000 0.631598 0.000000
O O9 0.978934 0.197535 0.755917
O O10 0.319621 0.859618 0.654715
O O11 0.094363 0.000000 0.745056
O O12 0.500000 0.168235 0.500000
O O13 0.000000 0.166994 0.500000
O O14 0.264569 0.000000 0.529230
#
# Coordination Sequence:
#
# PCOD8066921 Si02
#       5
#     4   4   4   4   4
#     4  10  22  37  54  82 121 164 200 227 268 333
#     4  11  25  41  59  80 107 147 199 252 296 340
#     4  12  22  38  59  82 112 149 196 233 291 334
#     4  10  22  36  56  87 123 158 195 235 279 335
#     4   9  19  34  54  78 110 153 194 232 280 332
#
# _framework density 19.782491
#
# number of rings (size 3 to 8) (size 9 to 14) (size 15 to 20)
#    0.000    1.600    2.000    2.400    5.600    1.600 
#    0.000    3.000    0.000    1.800    0.000    0.000 
#    0.000   16.000    0.000    0.000    0.000    0.000 
#
# Total GULP energy -247797.694576 kJ/mol
# GULP energy per Si atom -12389.884729 kJ/mol
# Density = 1.973746 g / cm^3
# Si number density = 19.782491 Si / 1000 Ang^3
#
#
#
# Elastic Constant Matrix: (Units=GPa)
#
#
# Indices 1 2 3 4 5 6 
#
# 1 117.4336 30.2184 45.7102 0.0000 -28.0748 0.0000
# 2 30.2184 109.2154 18.7618 0.0000 -24.5415 0.0000
# 3 45.7102 18.7618 125.4744 0.0000 -18.4847 0.0000
# 4 0.0000 0.0000 0.0000 159.7592 0.0000 226.1635
# 5 -28.0748 -24.5415 -18.4847 0.0000 33.2745 0.0000
# 6 0.0000 0.0000 0.0000 226.1635 0.0000 400.1052
#
#
#
# Elastic Compliance Matrix: (Units=1/GPa)
#
#
# Indices 1 2 3 4 5 6 
#
# 1 0.011745 -0.001056 -0.003023 0.000000 0.007452 0.000000
# 2 -0.001056 0.011098 -0.000218 0.000000 0.007173 0.000000
# 3 -0.003023 -0.000218 0.009480 0.000000 0.002555 0.000000
# 4 0.000000 0.000000 0.000000 0.031330 0.000000 -0.017710
# 5 0.007452 0.007173 0.002555 0.000000 0.043050 0.000000
# 6 0.000000 0.000000 0.000000 -0.017710 0.000000 0.012510
#
#
# Mechanical properties :
#
#
# Convention : Reuss Voigt Hill
#
# Bulk Modulus (GPa) = 42.14289 60.16714 51.15502
# Shear Modulus (GPa) = 36.84132 135.78997 86.31564
#
# Velocity S-wave (km/s) = 4.32014 8.29400 6.61264
# Velocity P-wave (km/s) = 6.79957 11.05446 9.17702
#
# Compressibility (1/GPa) = 0.02372879
#
# Stress axis : x y z
#
# Youngs Moduli (GPa) = 85.13969 90.10905 105.48455
#
# Poissons Ratio (x) = 0.09516 0.31890
# Poissons Ratio (y) = 0.08991 0.02299
# Poissons Ratio (z) = 0.25739 0.01964
#
# Static dielectric constant tensor:
#      x y z
#    x 3.801690 0.000000 -0.301500 
#    y 0.000000 3.701040 0.000000 
#    z -0.301500 0.000000 3.459520 
# 
# 
# High freq. dielectric constant tensor:
#      x y z
#    x 1.784630 0.000000 -0.023420 
#    y 0.000000 1.747830 0.000000 
#    z -0.023420 0.000000 1.744420 
# 
# From -- ./inp_files/39064.got.cif
#   From: 2010.06.25/outbox.cif.g09.slc.cpg/sg10_20_cif.got.tgz:39064.got - 2010.06.27 22:07:45.
