data_PCOD8066798
_publ_section_title
;
Structure prediction by ZEFSAII (Michael W. Deem and Ramdas Pophale) SiO2 
 PCOD8066798
Probable space group: P 2/M
;
_chemical_formula_sum "Si O2"
_cell_formula_units_Z 28
_cell_length_a 14.372959
_cell_length_b 13.258655
_cell_length_c 7.584941
_cell_angle_alpha 90.000000
_cell_angle_beta 66.198441
_cell_angle_gamma 90.000000
_cell_volume 1322.496715
_symmetry_space_group_name_H-M "P 2/M"
_symmetry_group_IT_number 10
_symmetry_cell_setting 'monoclinic'
loop_
_space_group_symop_operation_xyz
x,y,z
-x,y,-z
-x,-y,-z
x,-y,z
loop_
_atom_site_type_symbol
_atom_site_label
_atom_site_fract_x
_atom_site_fract_y
_atom_site_fract_z
Si Si1 0.525927 0.115206 0.778174
Si Si2 0.756110 0.608562 0.025923
Si Si3 0.155878 0.389050 0.658923
Si Si4 0.044970 0.308195 0.280784
Si Si5 0.732175 0.201558 0.512930
Si Si6 0.841263 0.888005 0.752466
Si Si7 0.313366 0.817694 0.848454
O O1 0.614298 0.192163 0.655398
O O2 0.426138 0.138196 0.738203
O O3 0.561257 0.000000 0.717930
O O4 0.500000 0.134683 0.000000
O O5 0.707081 0.500000 0.005961
O O6 0.793321 0.597068 0.194046
O O7 0.677995 0.702463 0.082944
O O8 0.852424 0.630471 0.828816
O O9 0.145683 0.500000 0.577136
O O10 0.227425 0.315866 0.484724
O O11 0.046235 0.336173 0.782691
O O12 0.069037 0.188520 0.260961
O O13 0.000000 0.344850 0.500000
O O14 0.800407 0.130694 0.585243
O O15 0.744463 0.174754 0.295710
O O16 0.887489 0.000000 0.723436
O O17 0.748070 0.882360 0.961511
#
# Coordination Sequence:
#
# PCOD8066798 Si02
#       7
#     4   4   4   4   4   4   4
#     4  11  22  38  62  88 118 156 195 240 291 344
#     4   9  20  38  62  87 116 154 192 242 297 345
#     4  10  21  40  62  85 116 154 198 242 293 348
#     4  11  21  36  55  87 116 151 195 244 285 349
#     4  11  22  40  61  88 119 153 198 244 290 345
#     4  11  23  40  58  84 121 158 196 245 294 343
#     4  10  22  39  63  88 120 152 197 242 289 352
#
# _framework density 21.172075
#
# number of rings (size 3 to 8) (size 9 to 14) (size 15 to 20)
#    0.000    1.571    2.857    2.143    0.000    5.429 
#    0.000    0.714    0.000    7.714    0.000    0.000 
#    0.000    0.000    0.000    0.000    0.000    0.000 
#
# Total GULP energy -347068.260765 kJ/mol
# GULP energy per Si atom -12395.295027 kJ/mol
# Density = 2.112389 g / cm^3
# Si number density = 21.172075 Si / 1000 Ang^3
#
#
#
# Elastic Constant Matrix: (Units=GPa)
#
#
# Indices 1 2 3 4 5 6 
#
# 1 63.9741 38.4638 6.3113 0.0000 -15.4070 0.0000
# 2 38.4638 153.3439 46.0866 0.0000 -0.2330 0.0000
# 3 6.3113 46.0866 76.8156 0.0000 -15.4755 0.0000
# 4 0.0000 0.0000 0.0000 23.7945 0.0000 -0.7538
# 5 -15.4070 -0.2330 -15.4755 0.0000 17.6071 0.0000
# 6 0.0000 0.0000 0.0000 -0.7538 0.0000 31.8988
#
#
#
# Elastic Compliance Matrix: (Units=1/GPa)
#
#
# Indices 1 2 3 4 5 6 
#
# 1 0.029502 -0.010693 0.011136 0.000000 0.035462 0.000000
# 2 -0.010693 0.012206 -0.010083 0.000000 -0.018057 0.000000
# 3 0.011136 -0.010083 0.024411 0.000000 0.031067 0.000000
# 4 0.000000 0.000000 0.000000 0.042058 0.000000 0.000994
# 5 0.035462 -0.018057 0.031067 0.000000 0.114893 0.000000
# 6 0.000000 0.000000 0.000000 0.000994 0.000000 0.031373
#
#
# Mechanical properties :
#
#
# Convention : Reuss Voigt Hill
#
# Bulk Modulus (GPa) = 21.34938 52.87298 37.11118
# Shear Modulus (GPa) = 17.28093 28.21153 22.74623
#
# Velocity S-wave (km/s) = 2.86004 3.65429 3.28128
# Velocity P-wave (km/s) = 4.58390 6.54464 5.64997
#
# Compressibility (1/GPa) = 0.04683976
#
# Stress axis : x y z
#
# Youngs Moduli (GPa) = 33.89590 81.92496 40.96465
#
# Poissons Ratio (x) = 0.87602 -0.45617
# Poissons Ratio (y) = 0.36245 0.41303
# Poissons Ratio (z) = -0.37745 0.82602
#
# Static dielectric constant tensor:
#      x y z
#    x 3.876830 0.000000 0.005850 
#    y 0.000000 1.139720 0.000000 
#    z 0.005850 0.000000 3.930740 
# 
# 
# High freq. dielectric constant tensor:
#      x y z
#    x 1.809450 0.000000 0.010960 
#    y 0.000000 1.833170 0.000000 
#    z 0.010960 0.000000 1.833020 
# 
# From -- ./inp_files/28464.got.cif
#   From: 2010.06.25/outbox.cif.g09.slc.cpg/sg10_15_cif.got.tgz:28464.got - 2010.06.27 22:07:45.
