data_PCOD8066548
_publ_section_title
;
Structure prediction by ZEFSAII (Michael W. Deem and Ramdas Pophale) SiO2 
 PCOD8066548
Probable space group: P 2/M
;
_chemical_formula_sum "Si O2"
_cell_formula_units_Z 14
_cell_length_a 14.746669
_cell_length_b 11.077490
_cell_length_c 12.793859
_cell_angle_alpha 90.000000
_cell_angle_beta 19.393785
_cell_angle_gamma 90.000000
_cell_volume 693.987862
_symmetry_space_group_name_H-M "P 2/M"
_symmetry_group_IT_number 10
_symmetry_cell_setting 'monoclinic'
loop_
_space_group_symop_operation_xyz
x,y,z
-x,y,-z
-x,-y,-z
x,-y,z
loop_
_atom_site_type_symbol
_atom_site_label
_atom_site_fract_x
_atom_site_fract_y
_atom_site_fract_z
Si Si1 0.704657 0.000000 0.371464
Si Si2 0.718967 0.137747 0.852136
Si Si3 0.485017 0.762666 0.312790
Si Si4 0.955915 0.639298 0.927425
O O1 0.500000 0.000000 0.500000
O O2 0.661097 0.884875 0.492134
O O3 0.000000 0.000000 0.000000
O O4 0.000000 0.188530 0.500000
O O5 0.755132 0.000000 0.851986
O O6 0.500000 0.147293 0.000000
O O7 0.638524 0.220585 0.036721
O O8 0.241476 0.666769 0.558772
O O9 0.703779 0.717770 0.159827
O O10 0.877871 0.500000 0.997362
O O11 0.000000 0.674304 0.000000
#
# Coordination Sequence:
#
# PCOD8066548 Si02
#       4
#     2   4   4   4
#     4  12  24  36  56  92 128 154 184 242 317 368
#     4  10  21  38  61  89 121 157 202 246 299 368
#     4  12  22  40  63  90 124 159 200 253 307 359
#     4  11  24  41  63  88 121 167 212 245 288 361
#
# _framework density 20.173262999999999
#
# number of rings (size 3 to 8) (size 9 to 14) (size 15 to 20)
#    0.000    0.857    1.429    7.714    0.000    2.286 
#    0.000    0.000    0.000   17.143    0.000    0.000 
#    0.000    0.000    0.000    0.000    0.000    0.000 
#
# Total GULP energy -173689.622529 kJ/mol
# GULP energy per Si atom -12406.401609 kJ/mol
# Density = 2.012735 g / cm^3
# Si number density = 20.173263 Si / 1000 Ang^3
#
#
#
# Elastic Constant Matrix: (Units=GPa)
#
#
# Indices 1 2 3 4 5 6 
#
# 1 71.4023 43.3311 46.9179 0.0000 -5.1011 0.0000
# 2 43.3311 82.3363 49.2733 0.0000 5.3466 0.0000
# 3 46.9179 49.2733 174.4538 0.0000 -3.7572 0.0000
# 4 0.0000 0.0000 0.0000 31.7679 0.0000 -2.8053
# 5 -5.1011 5.3466 -3.7572 0.0000 44.7784 0.0000
# 6 0.0000 0.0000 0.0000 -2.8053 0.0000 21.9432
#
#
#
# Elastic Compliance Matrix: (Units=1/GPa)
#
#
# Indices 1 2 3 4 5 6 
#
# 1 0.022483 -0.010214 -0.003086 0.000000 0.003522 0.000000
# 2 -0.010214 0.019455 -0.002828 0.000000 -0.003724 0.000000
# 3 -0.003086 -0.002828 0.007374 0.000000 0.000605 0.000000
# 4 0.000000 0.000000 0.000000 0.031838 0.000000 0.004070
# 5 0.003522 -0.003724 0.000605 0.000000 0.023229 0.000000
# 6 0.000000 0.000000 0.000000 0.004070 0.000000 0.046093
#
#
# Mechanical properties :
#
#
# Convention : Reuss Voigt Hill
#
# Bulk Modulus (GPa) = 58.63156 67.47078 63.05117
# Shear Modulus (GPa) = 26.53754 32.27592 29.40673
#
# Velocity S-wave (km/s) = 3.63089 4.00426 3.82214
# Velocity P-wave (km/s) = 6.83410 7.40925 7.12748
#
# Compressibility (1/GPa) = 0.01705566
#
# Stress axis : x y z
#
# Youngs Moduli (GPa) = 44.47807 51.40076 135.61345
#
# Poissons Ratio (x) = 0.52501 0.41848
# Poissons Ratio (y) = 0.45430 0.38353
# Poissons Ratio (z) = 0.13725 0.14537
#
# Static dielectric constant tensor:
#      x y z
#    x 3.529170 0.000000 -0.056500 
#    y 0.000000 3.742800 0.000000 
#    z -0.056500 0.000000 3.872290 
# 
# 
# High freq. dielectric constant tensor:
#      x y z
#    x 1.786170 0.000000 -0.011130 
#    y 0.000000 1.775940 0.000000 
#    z -0.011130 0.000000 1.810600 
# 
# From -- ./inp_files/6040.got.cif
#   From: 2010.06.25/outbox.cif.g09.slc.cpg/sg10_4_cif.got.tgz:6040.got - 2010.06.27 22:07:45.
