data_PCOD8066138
_publ_section_title
;
Structure prediction by ZEFSAII (Michael W. Deem and Ramdas Pophale) SiO2 
 PCOD8066138
Probable space group: P 2/M
;
_chemical_formula_sum "Si O2"
_cell_formula_units_Z 28
_cell_length_a 9.305883
_cell_length_b 17.407667
_cell_length_c 15.077695
_cell_angle_alpha 90.000000
_cell_angle_beta 144.107501
_cell_angle_gamma 90.000000
_cell_volume 1431.950631
_symmetry_space_group_name_H-M "P 2/M"
_symmetry_group_IT_number 10
_symmetry_cell_setting 'monoclinic'
loop_
_space_group_symop_operation_xyz
x,y,z
-x,y,-z
-x,-y,-z
x,-y,z
loop_
_atom_site_type_symbol
_atom_site_label
_atom_site_fract_x
_atom_site_fract_y
_atom_site_fract_z
Si Si1 0.227541 0.128899 0.047837
Si Si2 0.898335 0.298519 0.357083
Si Si3 0.772457 0.128907 0.320300
Si Si4 0.780876 0.243802 0.640438
Si Si5 0.101697 0.701480 0.958761
Si Si6 0.500038 0.583842 0.102092
Si Si7 0.980079 0.084776 0.240038
O O1 0.500001 0.101507 0.218826
O O2 0.250859 0.220357 0.049604
O O3 0.186703 0.091782 0.931141
O O4 0.000000 0.106189 0.000000
O O5 0.749125 0.220367 0.298764
O O6 0.737737 0.367649 0.242620
O O7 0.000000 0.329287 0.500000
O O8 0.111063 0.281642 0.393390
O O9 0.813306 0.091807 0.244439
O O10 0.000000 0.106189 0.500000
O O11 0.500000 0.263862 0.500000
O O12 0.889003 0.281682 0.782329
O O13 0.816169 0.151463 0.658105
O O14 0.262369 0.632348 0.004984
O O15 0.000000 0.670734 0.000000
O O16 0.500063 0.500000 0.150743
O O17 0.500000 0.566748 0.000000
O O18 0.103472 0.000000 0.301747
#
# Coordination Sequence:
#
# PCOD8066138 Si02
#       7
#     4   4   4   4   4   4   4
#     4  10  21  37  61  88 117 156 207 251 295 353
#     4  10  21  36  62  87 117 154 201 245 292 347
#     4  10  21  37  61  88 117 156 207 251 295 353
#     4  10  22  39  60  89 118 151 200 247 296 355
#     4  10  21  36  62  87 117 154 201 245 292 347
#     4  11  22  38  62  89 121 159 198 244 296 347
#     4  10  23  39  58  86 120 157 195 246 304 361
#
# _framework density 19.553747000000001
#
# number of rings (size 3 to 8) (size 9 to 14) (size 15 to 20)
#    0.000    1.857    2.857    0.429    2.000    9.429 
#    0.000    0.000    0.000    0.857    0.000    0.000 
#    0.000    0.000    0.000    0.000    0.000    0.000 
#
# Total GULP energy -346983.338745 kJ/mol
# GULP energy per Si atom -12392.262098 kJ/mol
# Density = 1.950924 g / cm^3
# Si number density = 19.553747 Si / 1000 Ang^3
#
#
#
# Elastic Constant Matrix: (Units=GPa)
#
#
# Indices 1 2 3 4 5 6 
#
# 1 129.8163 38.3706 87.4770 0.0000 2.4506 0.0000
# 2 38.3706 122.7799 40.5084 0.0000 3.6148 0.0000
# 3 87.4770 40.5084 138.1600 0.0000 11.7004 0.0000
# 4 0.0000 0.0000 0.0000 5.1256 0.0000 -3.2524
# 5 2.4506 3.6148 11.7004 0.0000 37.8272 0.0000
# 6 0.0000 0.0000 0.0000 -3.2524 0.0000 6.9986
#
#
#
# Elastic Compliance Matrix: (Units=1/GPa)
#
#
# Indices 1 2 3 4 5 6 
#
# 1 0.013832 -0.001590 -0.008450 0.000000 0.001869 0.000000
# 2 -0.001590 0.009200 -0.001669 0.000000 -0.000260 0.000000
# 3 -0.008450 -0.001669 0.013368 0.000000 -0.003428 0.000000
# 4 0.000000 0.000000 0.000000 0.276689 0.000000 0.128583
# 5 0.001869 -0.000260 -0.003428 0.000000 0.027400 0.000000
# 6 0.000000 0.000000 0.000000 0.128583 0.000000 0.202640
#
#
# Mechanical properties :
#
#
# Convention : Reuss Voigt Hill
#
# Bulk Modulus (GPa) = 77.02806 80.38538 78.70672
# Shear Modulus (GPa) = 8.75852 24.95030 16.85441
#
# Velocity S-wave (km/s) = 2.11871 3.57597 2.93909
# Velocity P-wave (km/s) = 6.74268 7.63212 7.20115
#
# Compressibility (1/GPa) = 0.01298228
#
# Stress axis : x y z
#
# Youngs Moduli (GPa) = 72.29718 108.69905 74.80740
#
# Poissons Ratio (x) = 0.17281 0.63211
# Poissons Ratio (y) = 0.11494 0.12483
# Poissons Ratio (z) = 0.61090 0.18139
#
# Static dielectric constant tensor:
#      x y z
#    x 3.519860 0.000000 -0.104450 
#    y 0.000000 3.496300 0.000000 
#    z -0.104450 0.000000 3.458750 
# 
# 
# High freq. dielectric constant tensor:
#      x y z
#    x 1.764480 0.000000 -0.008360 
#    y 0.000000 1.749900 0.000000 
#    z -0.008360 0.000000 1.759630 
# 
# From -- ./inp_files/62356.got.cif
#   From: 2010.06.25/outbox.cif.g09.slc.cpg/sg10_32_cif.got.tgz:62356.got - 2010.06.27 22:07:45.
