data_PCOD8066940
_publ_section_title
;
Structure prediction by ZEFSAII (Michael W. Deem and Ramdas Pophale) SiO2 
 PCOD8066940
Probable space group: P 2/M
;
_chemical_formula_sum "Si O2"
_cell_formula_units_Z 20
_cell_length_a 21.043432
_cell_length_b 7.582111
_cell_length_c 14.837251
_cell_angle_alpha 90.000000
_cell_angle_beta 156.849315
_cell_angle_gamma 90.000000
_cell_volume 930.720237
_symmetry_space_group_name_H-M "P 2/M"
_symmetry_group_IT_number 10
_symmetry_cell_setting 'monoclinic'
loop_
_space_group_symop_operation_xyz
x,y,z
-x,y,-z
-x,-y,-z
x,-y,z
loop_
_atom_site_type_symbol
_atom_site_label
_atom_site_fract_x
_atom_site_fract_y
_atom_site_fract_z
Si Si1 0.006882 0.794226 0.263037
Si Si2 0.732424 0.500000 0.377032
Si Si3 0.265085 0.804076 0.952790
Si Si4 0.375164 0.500000 0.967885
Si Si5 0.139448 0.793448 0.117709
Si Si6 0.513048 0.698734 0.417181
O O1 0.167716 0.676907 0.471851
O O2 0.058086 0.000000 0.326627
O O3 0.900917 0.749805 0.213296
O O4 0.898159 0.744697 0.034824
O O5 0.684754 0.500000 0.211217
O O6 0.570690 0.500000 0.227608
O O7 0.410521 0.813401 0.214200
O O8 0.246872 0.000000 0.887660
O O9 0.303506 0.672197 0.922340
O O10 0.298695 0.697761 0.362177
O O11 0.163715 0.000000 0.162006
O O12 0.000000 0.720098 0.000000
O O13 0.500000 0.782347 0.500000
O O14 0.443826 0.500000 0.323881
#
# Coordination Sequence:
#
# PCOD8066940 Si02
#       6
#     4   2   4   2   4   4
#     4  10  23  42  67  99 128 169 217 259 318 380
#     4  11  27  47  71  87 131 162 202 284 332 387
#     4  11  23  41  68  97 132 170 215 266 314 381
#     4  11  27  49  65  99 119 163 218 261 344 393
#     4  10  22  37  56  89 131 170 208 248 301 368
#     4  11  22  35  59  94 132 173 213 251 302 369
#
# _framework density 21.488734999999998
#
# number of rings (size 3 to 8) (size 9 to 14) (size 15 to 20)
#    0.000    1.400    3.000    1.200    4.200    4.400 
#    0.000    4.000    0.000    0.000    0.000    0.000 
#    0.000    0.000    0.000    0.000    0.000    0.000 
#
# Total GULP energy -248063.385226 kJ/mol
# GULP energy per Si atom -12403.169261 kJ/mol
# Density = 2.143983 g / cm^3
# Si number density = 21.488735 Si / 1000 Ang^3
#
#
#
# Elastic Constant Matrix: (Units=GPa)
#
#
# Indices 1 2 3 4 5 6 
#
# 1 77.1531 33.1790 -6.5349 0.0000 17.8032 0.0000
# 2 33.1790 101.1304 21.3485 0.0000 10.7915 0.0000
# 3 -6.5349 21.3485 61.6770 0.0000 14.7458 0.0000
# 4 0.0000 0.0000 0.0000 22.7764 0.0000 -1.4586
# 5 17.8032 10.7915 14.7458 0.0000 36.8521 0.0000
# 6 0.0000 0.0000 0.0000 -1.4586 0.0000 13.0380
#
#
#
# Elastic Compliance Matrix: (Units=1/GPa)
#
#
# Indices 1 2 3 4 5 6 
#
# 1 0.018493 -0.006406 0.006484 0.000000 -0.009653 0.000000
# 2 -0.006406 0.012998 -0.005538 0.000000 0.001504 0.000000
# 3 0.006484 -0.005538 0.021207 0.000000 -0.009997 0.000000
# 4 0.000000 0.000000 0.000000 0.044222 0.000000 0.004947
# 5 -0.009653 0.001504 -0.009997 0.000000 0.035358 0.000000
# 6 0.000000 0.000000 0.000000 0.004947 0.000000 0.077252
#
#
# Mechanical properties :
#
#
# Convention : Reuss Voigt Hill
#
# Bulk Modulus (GPa) = 23.93472 37.32729 30.63101
# Shear Modulus (GPa) = 21.33328 27.33116 24.33222
#
# Velocity S-wave (km/s) = 3.15424 3.57022 3.36865
# Velocity P-wave (km/s) = 4.94247 5.86546 5.42364
#
# Compressibility (1/GPa) = 0.04178031
#
# Stress axis : x y z
#
# Youngs Moduli (GPa) = 54.07557 76.93291 47.15350
#
# Poissons Ratio (x) = 0.49283 -0.30576
# Poissons Ratio (y) = 0.34640 0.26111
# Poissons Ratio (z) = -0.35065 0.42602
#
# Static dielectric constant tensor:
#      x y z
#    x 3.930960 0.000000 0.180770 
#    y 0.000000 3.845030 0.000000 
#    z 0.180770 0.000000 3.827950 
# 
# 
# High freq. dielectric constant tensor:
#      x y z
#    x 1.842110 0.000000 0.011490 
#    y 0.000000 1.847640 0.000000 
#    z 0.011490 0.000000 1.839880 
# 
# From -- ./inp_files/26810.got.cif
#   From: 2010.06.25/outbox.cif.g09.slc.cpg/sg10_14_cif.got.tgz:26810.got - 2010.06.27 22:07:45.
