data_PCOD8066661
_publ_section_title
;
Structure prediction by ZEFSAII (Michael W. Deem and Ramdas Pophale) SiO2 
 PCOD8066661
Probable space group: P 2/M
;
_chemical_formula_sum "Si O2"
_cell_formula_units_Z 28
_cell_length_a 8.970932
_cell_length_b 13.853606
_cell_length_c 22.468864
_cell_angle_alpha 90.000000
_cell_angle_beta 151.037555
_cell_angle_gamma 90.000000
_cell_volume 1352.193364
_symmetry_space_group_name_H-M "P 2/M"
_symmetry_group_IT_number 10
_symmetry_cell_setting 'monoclinic'
loop_
_space_group_symop_operation_xyz
x,y,z
-x,y,-z
-x,-y,-z
x,-y,z
loop_
_atom_site_type_symbol
_atom_site_label
_atom_site_fract_x
_atom_site_fract_y
_atom_site_fract_z
Si Si1 0.798649 0.733163 0.987410
Si Si2 0.868329 0.243706 0.297279
Si Si3 0.163680 0.389504 0.199542
Si Si4 0.828768 0.888668 0.089580
Si Si5 0.891256 0.889109 0.529530
Si Si6 0.827059 0.390370 0.382180
Si Si7 0.265032 0.219981 0.324091
O O1 0.439827 0.739057 0.847786
O O2 0.904277 0.832482 0.055252
O O3 0.000000 0.716079 0.000000
O O4 0.868246 0.646216 0.058262
O O5 0.935862 0.336708 0.361153
O O6 0.843197 0.149612 0.332344
O O7 0.153109 0.229908 0.352452
O O8 0.110192 0.500000 0.201374
O O9 0.460548 0.380685 0.260832
O O10 0.216600 0.323508 0.275822
O O11 0.078865 0.864974 0.226636
O O12 0.840085 0.000000 0.077144
O O13 0.500000 0.855988 0.000000
O O14 0.614224 0.815410 0.445101
O O15 0.000000 0.880190 0.500000
O O16 0.809207 0.000000 0.516172
O O17 0.935498 0.500000 0.412384
O O18 0.000000 0.345220 0.500000
#
# Coordination Sequence:
#
# PCOD8066661 Si02
#       7
#     4   4   4   4   4   4   4
#     4  11  23  39  61  92 127 165 210 264 308 372
#     4  12  23  39  63  93 126 163 210 262 319 367
#     4  10  22  40  64  92 130 175 212 258 317 379
#     4  10  21  39  61  86 123 165 204 253 314 374
#     4  11  26  45  67  94 125 166 212 261 321 384
#     4  10  21  39  63  91 124 167 216 261 316 375
#     4  11  23  41  65  93 128 163 209 261 316 380
#
# _framework density 20.707097999999998
#
# number of rings (size 3 to 8) (size 9 to 14) (size 15 to 20)
#    0.000    1.286    2.857    3.000    2.000    4.000 
#    0.000    0.714    0.000    4.286    0.000    0.000 
#    0.000    0.000    0.000    0.000    0.000    0.000 
#
# Total GULP energy -347258.882096 kJ/mol
# GULP energy per Si atom -12402.102932 kJ/mol
# Density = 2.065997 g / cm^3
# Si number density = 20.707098 Si / 1000 Ang^3
#
#
#
# Elastic Constant Matrix: (Units=GPa)
#
#
# Indices 1 2 3 4 5 6 
#
# 1 91.8481 43.0608 24.3858 0.0000 -15.8068 0.0000
# 2 43.0608 125.2317 44.6777 0.0000 -15.2380 0.0000
# 3 24.3858 44.6777 114.8708 0.0000 -7.4678 0.0000
# 4 0.0000 0.0000 0.0000 25.9152 0.0000 4.7566
# 5 -15.8068 -15.2380 -7.4678 0.0000 34.6419 0.0000
# 6 0.0000 0.0000 0.0000 4.7566 0.0000 20.6253
#
#
#
# Elastic Compliance Matrix: (Units=1/GPa)
#
#
# Indices 1 2 3 4 5 6 
#
# 1 0.013712 -0.003772 -0.001161 0.000000 0.004347 0.000000
# 2 -0.003772 0.010708 -0.003215 0.000000 0.002296 0.000000
# 3 -0.001161 -0.003215 0.010219 0.000000 0.000259 0.000000
# 4 0.000000 0.000000 0.000000 0.040293 0.000000 -0.009292
# 5 0.004347 0.002296 0.000259 0.000000 0.031916 0.000000
# 6 0.000000 0.000000 0.000000 -0.009292 0.000000 0.050627
#
#
# Mechanical properties :
#
#
# Convention : Reuss Voigt Hill
#
# Bulk Modulus (GPa) = 54.51380 61.79989 58.15685
# Shear Modulus (GPa) = 27.79518 30.89157 29.34337
#
# Velocity S-wave (km/s) = 3.66772 3.86662 3.76848
# Velocity P-wave (km/s) = 6.65729 7.06002 6.86161
#
# Compressibility (1/GPa) = 0.01834398
#
# Stress axis : x y z
#
# Youngs Moduli (GPa) = 72.92718 93.38416 97.85459
#
# Poissons Ratio (x) = 0.35221 0.11365
# Poissons Ratio (y) = 0.27505 0.31460
# Poissons Ratio (z) = 0.08470 0.30023
#
# Static dielectric constant tensor:
#      x y z
#    x 3.650120 0.000000 -0.088190 
#    y 0.000000 3.790310 0.000000 
#    z -0.088190 0.000000 4.014490 
# 
# 
# High freq. dielectric constant tensor:
#      x y z
#    x 1.803480 0.000000 -0.007690 
#    y 0.000000 1.812710 0.000000 
#    z -0.007690 0.000000 1.822730 
# 
# From -- ./inp_files/25420.got.cif
#   From: 2010.06.25/outbox.cif.g09.slc.cpg/sg10_13_cif.got.tgz:25420.got - 2010.06.27 22:07:45.
