data_PCOD8066412
_publ_section_title
;
Structure prediction by ZEFSAII (Michael W. Deem and Ramdas Pophale) SiO2 
 PCOD8066412
Probable space group: P 2/M
;
_chemical_formula_sum "Si O2"
_cell_formula_units_Z 28
_cell_length_a 14.820503
_cell_length_b 13.702158
_cell_length_c 9.447944
_cell_angle_alpha 90.000000
_cell_angle_beta 132.453799
_cell_angle_gamma 90.000000
_cell_volume 1415.600628
_symmetry_space_group_name_H-M "P 2/M"
_symmetry_group_IT_number 10
_symmetry_cell_setting 'monoclinic'
loop_
_space_group_symop_operation_xyz
x,y,z
-x,y,-z
-x,-y,-z
x,-y,z
loop_
_atom_site_type_symbol
_atom_site_label
_atom_site_fract_x
_atom_site_fract_y
_atom_site_fract_z
Si Si1 0.873920 0.608224 0.329768
Si Si2 0.625524 0.208498 0.098517
Si Si3 0.247920 0.740762 0.028626
Si Si4 0.038017 0.887410 0.887147
Si Si5 0.335955 0.609063 0.686336
Si Si6 0.358659 0.388865 0.384816
Si Si7 0.118935 0.888177 0.539480
O O1 0.900552 0.500000 0.300755
O O2 0.801448 0.605789 0.400348
O O3 0.000000 0.663130 0.500000
O O4 0.806568 0.660697 0.132497
O O5 0.594575 0.310720 0.146020
O O6 0.755440 0.168956 0.295509
O O7 0.500000 0.146411 0.000000
O O8 0.636713 0.217111 0.939334
O O9 0.285665 0.688924 0.213219
O O10 0.153781 0.827472 0.955509
O O11 0.917211 0.874820 0.662696
O O12 0.080192 0.000000 0.935100
O O13 0.000000 0.848527 0.000000
O O14 0.396213 0.500000 0.765498
O O15 0.333907 0.640052 0.520414
O O16 0.500000 0.378341 0.500000
O O17 0.314717 0.500000 0.307405
O O18 0.000000 0.850370 0.500000
O O19 0.144909 0.000000 0.607939
#
# Coordination Sequence:
#
# PCOD8066412 Si02
#       7
#     4   4   4   4   4   4   4
#     4   9  19  34  53  81 117 150 187 237 291 341
#     4  11  23  36  59  92 121 152 195 242 292 345
#     4  11  22  34  60  86 114 153 195 243 288 346
#     4  10  23  41  62  88 114 150 195 240 291 352
#     4   9  20  36  55  78 115 157 194 233 279 340
#     4  10  21  38  57  80 114 155 197 237 283 344
#     4  10  21  41  66  87 115 153 194 241 292 350
#
# _framework density 19.779588
#
# number of rings (size 3 to 8) (size 9 to 14) (size 15 to 20)
#    0.000    2.000    1.429    1.286    6.000    1.143 
#    0.000    0.000    0.000    4.714    0.000    0.000 
#    0.000    0.000    0.000    0.000    0.000    0.000 
#
# Total GULP energy -346930.289896 kJ/mol
# GULP energy per Si atom -12390.367496 kJ/mol
# Density = 1.973457 g / cm^3
# Si number density = 19.779588 Si / 1000 Ang^3
#
#
#
# Elastic Constant Matrix: (Units=GPa)
#
#
# Indices 1 2 3 4 5 6 
#
# 1 132.2639 37.7090 63.3165 0.0000 -3.6498 0.0000
# 2 37.7090 74.2822 28.1286 0.0000 -2.5904 0.0000
# 3 63.3165 28.1286 80.3751 0.0000 -6.4273 0.0000
# 4 0.0000 0.0000 0.0000 19.6241 0.0000 -13.3463
# 5 -3.6498 -2.5904 -6.4273 0.0000 43.7332 0.0000
# 6 0.0000 0.0000 0.0000 -13.3463 0.0000 46.5668
#
#
#
# Elastic Compliance Matrix: (Units=1/GPa)
#
#
# Indices 1 2 3 4 5 6 
#
# 1 0.012726 -0.003073 -0.008984 0.000000 -0.000440 0.000000
# 2 -0.003073 0.016262 -0.003252 0.000000 0.000229 0.000000
# 3 -0.008984 -0.003252 0.020827 0.000000 0.002118 0.000000
# 4 0.000000 0.000000 0.000000 0.063295 0.000000 0.018141
# 5 -0.000440 0.000229 0.002118 0.000000 0.023154 0.000000
# 6 0.000000 0.000000 0.000000 0.018141 0.000000 0.026674
#
#
# Mechanical properties :
#
#
# Convention : Reuss Voigt Hill
#
# Bulk Modulus (GPa) = 52.09677 60.58103 56.33890
# Shear Modulus (GPa) = 25.00572 32.50263 28.75418
#
# Velocity S-wave (km/s) = 3.55944 4.05809 3.81692
# Velocity P-wave (km/s) = 6.57941 7.25617 6.92606
#
# Compressibility (1/GPa) = 0.01919505
#
# Stress axis : x y z
#
# Youngs Moduli (GPa) = 78.58112 61.49441 48.01527
#
# Poissons Ratio (x) = 0.18899 0.43139
# Poissons Ratio (y) = 0.24151 0.15613
# Poissons Ratio (z) = 0.70601 0.19996
#
# Static dielectric constant tensor:
#      x y z
#    x 4.116050 0.000000 -0.283750 
#    y 0.000000 3.680090 0.000000 
#    z -0.283750 0.000000 3.646250 
# 
# 
# High freq. dielectric constant tensor:
#      x y z
#    x 1.780060 0.000000 -0.005910 
#    y 0.000000 1.768360 0.000000 
#    z -0.005910 0.000000 1.761900 
# 
# From -- ./inp_files/29598.got.cif
#   From: 2010.06.25/outbox.cif.g09.slc.cpg/sg10_15_cif.got.tgz:29598.got - 2010.06.27 22:07:45.
