data_PCOD8066207
_publ_section_title
;
Structure prediction by ZEFSAII (Michael W. Deem and Ramdas Pophale) SiO2 
 PCOD8066207
Probable space group: P 2/M
;
_chemical_formula_sum "Si O2"
_cell_formula_units_Z 22
_cell_length_a 11.061536
_cell_length_b 18.661503
_cell_length_c 5.420076
_cell_angle_alpha 90.000000
_cell_angle_beta 74.903163
_cell_angle_gamma 90.000000
_cell_volume 1080.224113
_symmetry_space_group_name_H-M "P 2/M"
_symmetry_group_IT_number 10
_symmetry_cell_setting 'monoclinic'
loop_
_space_group_symop_operation_xyz
x,y,z
-x,y,-z
-x,-y,-z
x,-y,z
loop_
_atom_site_type_symbol
_atom_site_label
_atom_site_fract_x
_atom_site_fract_y
_atom_site_fract_z
Si Si1 0.000000 0.857438 0.000000
Si Si2 0.848068 0.922612 0.470121
Si Si3 0.757359 0.814263 0.905561
Si Si4 0.648517 0.580514 0.419160
Si Si5 0.648884 0.340817 0.918295
Si Si6 0.389787 0.078483 0.735150
O O1 0.020123 0.907053 0.744229
O O2 0.872914 0.810286 0.040281
O O3 0.813806 0.853276 0.641776
O O4 0.741259 0.931548 0.325864
O O5 0.858690 0.000000 0.604425
O O6 0.713791 0.735588 0.862456
O O7 0.634149 0.860146 0.049358
O O8 0.500000 0.578592 0.500000
O O9 0.702804 0.500000 0.380813
O O10 0.694745 0.616522 0.650186
O O11 0.694959 0.621459 0.147439
O O12 0.500000 0.332354 0.000000
O O13 0.500000 0.106669 0.500000
O O14 0.427882 0.000000 0.827566
#
# Coordination Sequence:
#
# PCOD8066207 Si02
#       6
#     2   4   4   4   4   4
#     4  10  23  40  54  76 107 150 204 256 307 348
#     4  10  21  37  57  78 105 146 204 260 303 347
#     4  11  23  35  56  80 115 150 197 246 306 350
#     4   9  18  36  59  88 124 159 191 228 281 353
#     4  10  22  34  58  92 125 157 191 235 293 356
#     4   9  20  35  52  76 111 154 195 238 297 363
#
# _framework density 20.366143999999998
#
# number of rings (size 3 to 8) (size 9 to 14) (size 15 to 20)
#    0.000    2.182    0.000    1.909    7.636    5.818 
#    0.000    2.727    0.000    0.000    0.000    3.818 
#    0.000    0.000    0.000    0.000    0.000    0.000 
#
# Total GULP energy -272607.744342 kJ/mol
# GULP energy per Si atom -12391.261106 kJ/mol
# Density = 2.031979 g / cm^3
# Si number density = 20.366144 Si / 1000 Ang^3
#
#
#
# Elastic Constant Matrix: (Units=GPa)
#
#
# Indices 1 2 3 4 5 6 
#
# 1 38.5715 32.6841 27.2537 0.0000 -12.0293 0.0000
# 2 32.6841 184.4442 87.6182 0.0000 2.3464 0.0000
# 3 27.2537 87.6182 151.8617 0.0000 -1.6648 0.0000
# 4 0.0000 0.0000 0.0000 31.4612 0.0000 3.8088
# 5 -12.0293 2.3464 -1.6648 0.0000 29.9434 0.0000
# 6 0.0000 0.0000 0.0000 3.8088 0.0000 30.2375
#
#
#
# Elastic Compliance Matrix: (Units=1/GPa)
#
#
# Indices 1 2 3 4 5 6 
#
# 1 0.037614 -0.005143 -0.003615 0.000000 0.015313 0.000000
# 2 -0.005143 0.008192 -0.003836 0.000000 -0.002921 0.000000
# 3 -0.003615 -0.003836 0.009440 0.000000 -0.000627 0.000000
# 4 0.000000 0.000000 0.000000 0.032277 0.000000 -0.004066
# 5 0.015313 -0.002921 -0.000627 0.000000 0.039742 0.000000
# 6 0.000000 0.000000 0.000000 -0.004066 0.000000 0.033584
#
#
# Mechanical properties :
#
#
# Convention : Reuss Voigt Hill
#
# Bulk Modulus (GPa) = 33.26852 74.44328 53.85590
# Shear Modulus (GPa) = 25.50296 33.48318 29.49307
#
# Velocity S-wave (km/s) = 3.54252 4.05910 3.80957
# Velocity P-wave (km/s) = 5.75354 7.65508 6.77139
#
# Compressibility (1/GPa) = 0.03005845
#
# Stress axis : x y z
#
# Youngs Moduli (GPa) = 26.58614 122.06639 105.93278
#
# Poissons Ratio (x) = 0.62774 0.38298
# Poissons Ratio (y) = 0.13672 0.40633
# Poissons Ratio (z) = 0.09612 0.46821
#
# Static dielectric constant tensor:
#      x y z
#    x 3.700740 0.000000 0.102590 
#    y 0.000000 3.733330 0.000000 
#    z 0.102590 0.000000 3.802770 
# 
# 
# High freq. dielectric constant tensor:
#      x y z
#    x 1.780930 0.000000 0.008810 
#    y 0.000000 1.782300 0.000000 
#    z 0.008810 0.000000 1.800480 
# 
# From -- ./inp_files/7166.got.cif
#   From: 2010.06.25/outbox.cif.g09.slc.cpg/sg10_4_cif.got.tgz:7166.got - 2010.06.27 22:07:45.
