data_PCOD8066058
_publ_section_title
;
Structure prediction by ZEFSAII (Michael W. Deem and Ramdas Pophale) SiO2 
 PCOD8066058
Probable space group: P 2/M
;
_chemical_formula_sum "Si O2"
_cell_formula_units_Z 32
_cell_length_a 19.508151
_cell_length_b 8.832389
_cell_length_c 25.144616
_cell_angle_alpha 90.000000
_cell_angle_beta 21.583754
_cell_angle_gamma 90.000000
_cell_volume 1593.760053
_symmetry_space_group_name_H-M "P 2/M"
_symmetry_group_IT_number 10
_symmetry_cell_setting 'monoclinic'
loop_
_space_group_symop_operation_xyz
x,y,z
-x,y,-z
-x,-y,-z
x,-y,z
loop_
_atom_site_type_symbol
_atom_site_label
_atom_site_fract_x
_atom_site_fract_y
_atom_site_fract_z
Si Si1 0.996645 0.674577 0.441870
Si Si2 0.384872 0.678312 0.829505
Si Si3 0.654105 0.177145 0.031844
Si Si4 0.067949 0.820463 0.707527
Si Si5 0.712686 0.820388 0.347846
Si Si6 0.417605 0.672404 0.116175
Si Si7 0.251117 0.820697 0.467285
Si Si8 0.007991 0.321451 0.933399
O O1 0.932928 0.500000 0.486980
O O2 0.197798 0.698265 0.270879
O O3 0.000000 0.734998 0.500000
O O4 0.849219 0.768606 0.514231
O O5 0.407652 0.500000 0.807723
O O6 0.540095 0.756274 0.680730
O O7 0.415067 0.729316 0.867908
O O8 0.182306 0.733534 0.956828
O O9 0.856797 0.236345 0.867360
O O10 0.657288 0.000000 0.043365
O O11 0.505660 0.209315 0.093245
O O12 0.192234 0.758146 0.666681
O O13 0.144576 0.756805 0.596252
O O14 0.075396 0.000000 0.701292
O O15 0.500000 0.763314 0.500000
O O16 0.817555 0.756390 0.220806
O O17 0.723834 0.000000 0.337320
O O18 0.463739 0.500000 0.100243
O O19 0.500000 0.712089 0.000000
O O20 0.259429 0.000000 0.461831
O O21 0.034446 0.500000 0.909720
O O22 0.000000 0.268004 0.000000
#
# Coordination Sequence:
#
# PCOD8066058 Si02
#       8
#     4   4   4   4   4   4   4   4
#     4  10  21  38  57  79 113 154 194 241 293 346
#     4  11  23  40  60  85 118 157 199 243 295 352
#     4  11  21  37  62  87 116 155 197 247 298 350
#     4   9  20  38  57  86 124 153 191 244 293 345
#     4  10  21  39  64  91 121 159 198 238 289 349
#     4  10  21  36  56  84 118 154 194 240 291 353
#     4  11  23  38  60  88 119 155 196 246 297 350
#     4  10  23  42  62  88 123 158 197 247 295 346
#
# _framework density 20.078306000000001
#
# number of rings (size 3 to 8) (size 9 to 14) (size 15 to 20)
#    0.000    1.750    1.250    2.625    1.750    3.000 
#    0.000    3.125    0.000    0.000    0.000    0.000 
#    0.000    0.000    0.000    0.000    0.000    0.000 
#
# Total GULP energy -396966.662789 kJ/mol
# GULP energy per Si atom -12405.208212 kJ/mol
# Density = 2.003261 g / cm^3
# Si number density = 20.078306 Si / 1000 Ang^3
#
#
#
# Elastic Constant Matrix: (Units=GPa)
#
#
# Indices 1 2 3 4 5 6 
#
# 1 99.1213 23.8715 34.9903 0.0000 6.0498 0.0000
# 2 23.8715 45.8108 26.8442 0.0000 -0.0820 0.0000
# 3 34.9903 26.8442 112.9411 0.0000 12.1013 0.0000
# 4 0.0000 0.0000 0.0000 22.5641 0.0000 6.8049
# 5 6.0498 -0.0820 12.1013 0.0000 38.9551 0.0000
# 6 0.0000 0.0000 0.0000 6.8049 0.0000 9.6760
#
#
#
# Elastic Compliance Matrix: (Units=1/GPa)
#
#
# Indices 1 2 3 4 5 6 
#
# 1 0.012221 -0.004906 -0.002499 0.000000 -0.001132 0.000000
# 2 -0.004906 0.027481 -0.005275 0.000000 0.002459 0.000000
# 3 -0.002499 -0.005275 0.011215 0.000000 -0.003107 0.000000
# 4 0.000000 0.000000 0.000000 0.056248 0.000000 -0.039558
# 5 -0.001132 0.002459 -0.003107 0.000000 0.026817 0.000000
# 6 0.000000 0.000000 0.000000 -0.039558 0.000000 0.131170
#
#
# Mechanical properties :
#
#
# Convention : Reuss Voigt Hill
#
# Bulk Modulus (GPa) = 39.12830 47.69836 43.41333
# Shear Modulus (GPa) = 16.72063 25.71685 21.21874
#
# Velocity S-wave (km/s) = 2.88891 3.58275 3.25437
# Velocity P-wave (km/s) = 5.53696 6.39707 5.98249
#
# Compressibility (1/GPa) = 0.02555695
#
# Stress axis : x y z
#
# Youngs Moduli (GPa) = 81.82347 36.38871 89.16558
#
# Poissons Ratio (x) = 0.17853 0.22282
# Poissons Ratio (y) = 0.40144 0.47037
# Poissons Ratio (z) = 0.20447 0.19196
#
# Static dielectric constant tensor:
#      x y z
#    x 3.883640 0.000000 0.038030 
#    y 0.000000 3.391610 0.000000 
#    z 0.038030 0.000000 3.899460 
# 
# 
# High freq. dielectric constant tensor:
#      x y z
#    x 1.789980 0.000000 0.002910 
#    y 0.000000 1.764510 0.000000 
#    z 0.002910 0.000000 1.802370 
# 
# From -- ./inp_files/93588.got.cif
#   From: 2010.06.25/outbox.cif.g09.slc.cpg/sg10_47_cif.got.tgz:93588.got - 2010.06.27 22:07:45.
