data_PCOD8066527
_publ_section_title
;
Structure prediction by ZEFSAII (Michael W. Deem and Ramdas Pophale) SiO2 
 PCOD8066527
Probable space group: P 2/M
;
_chemical_formula_sum "Si O2"
_cell_formula_units_Z 28
_cell_length_a 31.310303
_cell_length_b 8.641593
_cell_length_c 31.310243
_cell_angle_alpha 90.000000
_cell_angle_beta 9.523225
_cell_angle_gamma 90.000000
_cell_volume 1401.610771
_symmetry_space_group_name_H-M "P 2/M"
_symmetry_group_IT_number 10
_symmetry_cell_setting 'monoclinic'
loop_
_space_group_symop_operation_xyz
x,y,z
-x,y,-z
-x,-y,-z
x,-y,z
loop_
_atom_site_type_symbol
_atom_site_label
_atom_site_fract_x
_atom_site_fract_y
_atom_site_fract_z
Si Si1 0.831510 0.316335 0.331525
Si Si2 0.309458 0.180945 0.809464
Si Si3 0.025044 0.180844 0.524972
Si Si4 0.595766 0.684208 0.095336
Si Si5 0.736212 0.321404 0.236187
Si Si6 0.546961 0.683517 0.046896
Si Si7 0.879952 0.315801 0.380380
O O1 0.830639 0.500000 0.330690
O O2 0.569449 0.255927 0.570034
O O3 0.855877 0.254884 0.355868
O O4 0.070009 0.255933 0.069470
O O5 0.284259 0.211504 0.784202
O O6 0.313944 0.000000 0.813989
O O7 0.000000 0.218337 0.500000
O O8 0.785217 0.255817 0.785082
O O9 0.029796 0.000000 0.529677
O O10 0.285165 0.255824 0.285127
O O11 0.596180 0.500000 0.095751
O O12 0.571278 0.745432 0.071253
O O13 0.858001 0.750061 0.857355
O O14 0.358015 0.750066 0.357400
O O15 0.500000 0.282379 0.500000
O O16 0.728784 0.500000 0.228632
O O17 0.000000 0.282307 0.000000
O O18 0.546325 0.500000 0.046222
O O19 0.880363 0.500000 0.380799
#
# Coordination Sequence:
#
# PCOD8066527 Si02
#       7
#     4   4   4   4   4   4   4
#     4  11  22  39  64  89 115 156 207 246 280 338
#     4  12  25  40  60  89 126 160 191 240 302 353
#     4  11  24  41  59  81 116 159 196 235 289 352
#     4   9  17  31  53  85 117 142 181 240 297 338
#     4  10  21  38  61  87 115 150 195 244 288 339
#     4  11  22  37  62  91 117 148 191 246 296 344
#     4   9  17  31  55  84 112 146 191 239 282 335
#
# _framework density 19.977014
#
# number of rings (size 3 to 8) (size 9 to 14) (size 15 to 20)
#    0.000    1.571    0.000    5.571    0.000    9.143 
#    0.000    0.000    0.000   17.143    0.000    0.000 
#    0.000    0.000    0.000    0.000    0.000    0.000 
#
# Total GULP energy -347332.525473 kJ/mol
# GULP energy per Si atom -12404.733053 kJ/mol
# Density = 1.993155 g / cm^3
# Si number density = 19.977014 Si / 1000 Ang^3
#
#
#
# Elastic Constant Matrix: (Units=GPa)
#
#
# Indices 1 2 3 4 5 6 
#
# 1 163.2891 55.6779 95.5474 0.0000 -1.5651 0.0000
# 2 55.6779 70.2736 46.6547 0.0000 0.7862 0.0000
# 3 95.5474 46.6547 216.7959 0.0000 -3.2082 0.0000
# 4 0.0000 0.0000 0.0000 18.1057 0.0000 -2.2605
# 5 -1.5651 0.7862 -3.2082 0.0000 42.7444 0.0000
# 6 0.0000 0.0000 0.0000 -2.2605 0.0000 -7.5282
#
#
#
# Elastic Compliance Matrix: (Units=1/GPa)
#
#
# Indices 1 2 3 4 5 6 
#
# 1 0.009932 -0.005796 -0.003127 0.000000 0.000236 0.000000
# 2 -0.005796 0.019999 -0.001760 0.000000 -0.000712 0.000000
# 3 -0.003127 -0.001760 0.006375 0.000000 0.000396 0.000000
# 4 0.000000 0.000000 0.000000 0.053236 0.000000 -0.015985
# 5 0.000236 -0.000712 0.000396 0.000000 0.023446 0.000000
# 6 0.000000 0.000000 0.000000 -0.015985 0.000000 -0.128034
#
#
# Mechanical properties :
#
#
# Convention : Reuss Voigt Hill
#
# Bulk Modulus (GPa) = 66.92968 94.01317 80.47143
# Shear Modulus (GPa) = 442.50728 27.49629 235.00179
#
# Velocity S-wave (km/s) = 14.89930 3.71401 10.85778
# Velocity P-wave (km/s) = 18.15383 8.09658 14.05554
#
# Compressibility (1/GPa) = 0.01494105
#
# Stress axis : x y z
#
# Youngs Moduli (GPa) = 100.68246 50.00323 156.85937
#
# Poissons Ratio (x) = 0.28983 0.49043
# Poissons Ratio (y) = 0.58358 0.27603
# Poissons Ratio (z) = 0.31479 0.08799
#
# Static dielectric constant tensor:
#      x y z
#    x 3.913630 0.000000 0.006810 
#    y 0.000000 3.420440 0.000000 
#    z 0.006810 0.000000 3.835860 
# 
# 
# High freq. dielectric constant tensor:
#      x y z
#    x 1.800010 0.000000 -0.000420 
#    y 0.000000 1.755080 0.000000 
#    z -0.000420 0.000000 1.804700 
# 
# From -- ./inp_files/95982.got.cif
#   From: 2010.06.25/outbox.cif.g09.slc.cpg/sg10_48_cif.got.tgz:95982.got - 2010.06.27 22:07:45.
