data_PCOD8066892
_publ_section_title
;
Structure prediction by ZEFSAII (Michael W. Deem and Ramdas Pophale) SiO2 
 PCOD8066892
Probable space group: P 2/M
;
_chemical_formula_sum "Si O2"
_cell_formula_units_Z 28
_cell_length_a 28.894125
_cell_length_b 8.861695
_cell_length_c 9.658999
_cell_angle_alpha 90.000000
_cell_angle_beta 146.434070
_cell_angle_gamma 90.000000
_cell_volume 1367.420376
_symmetry_space_group_name_H-M "P 2/M"
_symmetry_group_IT_number 10
_symmetry_cell_setting 'monoclinic'
loop_
_space_group_symop_operation_xyz
x,y,z
-x,y,-z
-x,-y,-z
x,-y,z
loop_
_atom_site_type_symbol
_atom_site_label
_atom_site_fract_x
_atom_site_fract_y
_atom_site_fract_z
Si Si1 0.313122 0.328385 0.548997
Si Si2 0.555996 0.327552 0.358306
Si Si3 0.137403 0.323593 0.986919
Si Si4 0.615381 0.175798 0.021877
Si Si5 0.855886 0.823563 0.283351
Si Si6 0.992935 0.823713 0.141296
Si Si7 0.319625 0.322897 0.089152
O O1 0.303189 0.500000 0.577609
O O2 0.397635 0.311748 0.672006
O O3 0.233964 0.283210 0.258237
O O4 0.318644 0.217571 0.693622
O O5 0.525910 0.500000 0.306994
O O6 0.477670 0.216282 0.160847
O O7 0.618825 0.275406 0.634595
O O8 0.123715 0.500000 0.933785
O O9 0.111030 0.245662 0.777887
O O10 0.082637 0.266109 0.977790
O O11 0.636148 0.273956 0.940602
O O12 0.622730 0.000000 0.005382
O O13 0.921272 0.783641 0.566878
O O14 0.847067 0.000000 0.238827
O O15 0.767886 0.759140 0.111482
O O16 0.972085 0.000000 0.099001
O O17 0.000000 0.770781 0.000000
O O18 0.302193 0.500000 0.047276
#
# Coordination Sequence:
#
# PCOD8066892 Si02
#       7
#     4   4   4   4   4   4   4
#     4  10  22  42  64  90 123 165 212 258 311 372
#     4  10  21  42  66  88 120 165 213 258 313 372
#     4  11  23  42  67  96 125 164 215 259 305 368
#     4  12  26  39  58  93 130 165 208 260 318 370
#     4  11  23  41  66  95 128 167 208 255 313 371
#     4  10  24  44  65  94 132 168 202 250 315 376
#     4  11  23  42  66  92 124 166 213 260 311 369
#
# _framework density 20.476513000000001
#
# number of rings (size 3 to 8) (size 9 to 14) (size 15 to 20)
#    0.000    1.286    1.429    3.857    2.000    9.429 
#    0.000    0.000    0.000    0.000    0.000    0.000 
#    0.000    0.000    0.000    0.000    0.000    0.000 
#
# Total GULP energy -347390.507180 kJ/mol
# GULP energy per Si atom -12406.803828 kJ/mol
# Density = 2.042991 g / cm^3
# Si number density = 20.476513 Si / 1000 Ang^3
#
#
#
# Elastic Constant Matrix: (Units=GPa)
#
#
# Indices 1 2 3 4 5 6 
#
# 1 -52.9777 74.6667 -6.4375 0.0000 71.8413 0.0000
# 2 74.6667 49.4939 60.5364 0.0000 -18.4134 0.0000
# 3 -6.4375 60.5364 85.1443 0.0000 16.3629 0.0000
# 4 0.0000 0.0000 0.0000 25.3862 0.0000 2.8870
# 5 71.8413 -18.4134 16.3629 0.0000 -7.9367 0.0000
# 6 0.0000 0.0000 0.0000 2.8870 0.0000 39.0075
#
#
#
# Elastic Compliance Matrix: (Units=1/GPa)
#
#
# Indices 1 2 3 4 5 6 
#
# 1 0.003736 0.005053 -0.005412 0.000000 0.010938 0.000000
# 2 0.005053 0.018206 -0.009479 0.000000 -0.016045 0.000000
# 3 -0.005412 -0.009479 0.016662 0.000000 0.007353 0.000000
# 4 0.000000 0.000000 0.000000 0.039726 0.000000 -0.002940
# 5 0.010938 -0.016045 0.007353 0.000000 0.025402 0.000000
# 6 0.000000 0.000000 0.000000 -0.002940 0.000000 0.025854
#
#
# Mechanical properties :
#
#
# Convention : Reuss Voigt Hill
#
# Bulk Modulus (GPa) = 52.83260 37.68795 45.26028
# Shear Modulus (GPa) = 32.13981 8.15107 20.14544
#
# Velocity S-wave (km/s) = 3.96611 1.99733 3.14001
# Velocity P-wave (km/s) = 6.84331 4.87489 5.94119
#
# Compressibility (1/GPa) = 0.01892771
#
# Stress axis : x y z
#
# Youngs Moduli (GPa) = 267.65916 54.92678 60.01829
#
# Poissons Ratio (x) = -0.27752 0.32482
# Poissons Ratio (y) = -1.35238 0.56889
# Poissons Ratio (z) = 1.44857 0.52063
#
# Static dielectric constant tensor:
#      x y z
#    x 3.765200 0.000000 -0.066790 
#    y 0.000000 3.668900 0.000000 
#    z -0.066790 0.000000 3.851190 
# 
# 
# High freq. dielectric constant tensor:
#      x y z
#    x 1.809710 0.000000 -0.003670 
#    y 0.000000 1.797600 0.000000 
#    z -0.003670 0.000000 1.814470 
# 
# From -- ./inp_files/34182.got.cif
#   From: 2010.06.25/outbox.cif.g09.slc.cpg/sg10_18_cif.got.tgz:34182.got - 2010.06.27 22:07:45.
