data_PCOD8066102
_publ_section_title
;
Structure prediction by ZEFSAII (Michael W. Deem and Ramdas Pophale) SiO2 
 PCOD8066102
Probable space group: P 2/M
;
_chemical_formula_sum "Si O2"
_cell_formula_units_Z 24
_cell_length_a 16.598853
_cell_length_b 11.601172
_cell_length_c 10.556159
_cell_angle_alpha 90.000000
_cell_angle_beta 38.804029
_cell_angle_gamma 90.000000
_cell_volume 1273.845861
_symmetry_space_group_name_H-M "P 2/M"
_symmetry_group_IT_number 10
_symmetry_cell_setting 'monoclinic'
loop_
_space_group_symop_operation_xyz
x,y,z
-x,y,-z
-x,-y,-z
x,-y,z
loop_
_atom_site_type_symbol
_atom_site_label
_atom_site_fract_x
_atom_site_fract_y
_atom_site_fract_z
Si Si1 0.384061 0.000000 0.496863
Si Si2 0.686838 0.633903 0.128568
Si Si3 0.383008 0.630583 0.064858
Si Si4 0.908857 0.199671 0.805069
Si Si5 0.887196 0.000000 0.034166
Si Si6 0.639827 0.000000 0.768373
Si Si7 0.821941 0.803026 0.637472
Si Si8 0.500000 0.203644 0.500000
O O1 0.371219 0.000000 0.365737
O O2 0.460655 0.117390 0.435216
O O3 0.247436 0.000000 0.731240
O O4 0.696492 0.500000 0.160336
O O5 0.600604 0.643889 0.106814
O O6 0.617585 0.713106 0.317718
O O7 0.831682 0.682705 0.931597
O O8 0.376031 0.500000 0.117119
O O9 0.500000 0.690508 0.000000
O O10 0.245767 0.680213 0.271554
O O11 0.860282 0.149652 0.729806
O O12 0.060589 0.219784 0.601959
O O13 0.891892 0.111283 0.939801
O O14 0.000000 0.000000 0.000000
O O15 0.718853 0.110893 0.709236
O O16 0.500000 0.000000 0.000000
#
# Coordination Sequence:
#
# PCOD8066102 Si02
#       8
#     2   4   4   4   2   2   4   2
#     4  11  26  39  58  90 114 156 193 242 293 355
#     4  10  21  38  63  87 115 158 201 246 294 347
#     4   9  19  35  57  87 119 155 195 242 298 345
#     4  10  21  38  60  86 118 157 199 243 287 352
#     4  12  22  40  61  81 118 158 194 238 294 353
#     4  12  26  37  59  93 121 148 193 240 305 366
#     4  10  21  36  58  87 120 155 194 244 297 345
#     4  11  23  40  60  84 121 153 202 240 290 353
#
# _framework density 18.840584
#
# number of rings (size 3 to 8) (size 9 to 14) (size 15 to 20)
#    0.000    1.667    1.667    2.750    7.000    2.000 
#    0.000    3.333    0.000    0.500    0.000    0.000 
#    0.000    0.000    0.000    0.000    0.000    0.000 
#
# Total GULP energy -297490.704817 kJ/mol
# GULP energy per Si atom -12395.446034 kJ/mol
# Density = 1.879770 g / cm^3
# Si number density = 18.840584 Si / 1000 Ang^3
#
#
#
# Elastic Constant Matrix: (Units=GPa)
#
#
# Indices 1 2 3 4 5 6 
#
# 1 91.5186 40.5758 38.1165 0.0000 -2.9026 0.0000
# 2 40.5758 115.5848 53.5104 0.0000 -1.0690 0.0000
# 3 38.1165 53.5104 139.7433 0.0000 -5.9824 0.0000
# 4 0.0000 0.0000 0.0000 25.6042 0.0000 -1.9992
# 5 -2.9026 -1.0690 -5.9824 0.0000 30.6489 0.0000
# 6 0.0000 0.0000 0.0000 -1.9992 0.0000 22.9750
#
#
#
# Elastic Compliance Matrix: (Units=1/GPa)
#
#
# Indices 1 2 3 4 5 6 
#
# 1 0.013525 -0.003704 -0.002240 0.000000 0.000714 0.000000
# 2 -0.003704 0.011536 -0.003433 0.000000 -0.000619 0.000000
# 3 -0.002240 -0.003433 0.009144 0.000000 0.001453 0.000000
# 4 0.000000 0.000000 0.000000 0.039323 0.000000 0.003422
# 5 0.000714 -0.000619 0.001453 0.000000 0.032957 0.000000
# 6 0.000000 0.000000 0.000000 0.003422 0.000000 0.043823
#
#
# Mechanical properties :
#
#
# Convention : Reuss Voigt Hill
#
# Bulk Modulus (GPa) = 64.72854 67.91688 66.32271
# Shear Modulus (GPa) = 28.70050 30.15522 29.42786
#
# Velocity S-wave (km/s) = 3.90723 4.00502 3.95643
# Velocity P-wave (km/s) = 7.40174 7.58376 7.49330
#
# Compressibility (1/GPa) = 0.01544914
#
# Stress axis : x y z
#
# Youngs Moduli (GPa) = 73.93924 86.68684 109.36282
#
# Poissons Ratio (x) = 0.32110 0.24497
# Poissons Ratio (y) = 0.27388 0.37549
# Poissons Ratio (z) = 0.16562 0.29763
#
# Static dielectric constant tensor:
#      x y z
#    x 3.626650 0.000000 -0.114570 
#    y 0.000000 3.529800 0.000000 
#    z -0.114570 0.000000 3.517480 
# 
# 
# High freq. dielectric constant tensor:
#      x y z
#    x 1.730590 0.000000 -0.005530 
#    y 0.000000 1.733920 0.000000 
#    z -0.005530 0.000000 1.739170 
# 
# From -- ./inp_files/53630.got.cif
#   From: 2010.06.25/outbox.cif.g09.slc.cpg/sg10_27_cif.got.tgz:53630.got - 2010.06.27 22:07:45.
