data_PCOD8066706
_publ_section_title
;
Structure prediction by ZEFSAII (Michael W. Deem and Ramdas Pophale) SiO2 
 PCOD8066706
Probable space group: P 2/M
;
_chemical_formula_sum "Si O2"
_cell_formula_units_Z 28
_cell_length_a 19.623732
_cell_length_b 7.944666
_cell_length_c 13.987252
_cell_angle_alpha 90.000000
_cell_angle_beta 143.895838
_cell_angle_gamma 90.000000
_cell_volume 1284.969915
_symmetry_space_group_name_H-M "P 2/M"
_symmetry_group_IT_number 10
_symmetry_cell_setting 'monoclinic'
loop_
_space_group_symop_operation_xyz
x,y,z
-x,y,-z
-x,-y,-z
x,-y,z
loop_
_atom_site_type_symbol
_atom_site_label
_atom_site_fract_x
_atom_site_fract_y
_atom_site_fract_z
Si Si1 0.534831 0.190128 0.141532
Si Si2 0.385835 0.308974 0.419338
Si Si3 0.039618 0.805495 0.264709
Si Si4 0.293843 0.190209 0.955460
Si Si5 0.293698 0.806540 0.512481
Si Si6 0.788088 0.808017 0.927138
Si Si7 0.962557 0.500000 0.599405
Si Si8 0.812032 0.500000 0.265387
O O1 0.640808 0.279116 0.321123
O O2 0.570192 0.000000 0.153695
O O3 0.500000 0.280255 0.000000
O O4 0.431736 0.190726 0.102190
O O5 0.500000 0.226664 0.500000
O O6 0.413003 0.500000 0.476322
O O7 0.359591 0.218591 0.488449
O O8 0.276393 0.302382 0.224623
O O9 0.159272 0.751308 0.348032
O O10 0.022403 0.675167 0.329427
O O11 0.044444 0.000000 0.307286
O O12 0.926525 0.784836 0.069153
O O13 0.252806 0.327018 0.832315
O O14 0.245830 0.000000 0.879848
O O15 0.253129 0.249514 0.014238
O O16 0.298477 0.000000 0.542933
O O17 0.751278 0.000000 0.868253
O O18 0.836528 0.500000 0.406696
O O19 0.064742 0.500000 0.641880
#
# Coordination Sequence:
#
# PCOD8066706 Si02
#       8
#     4   4   4   4   4   4   2   2
#     4   9  19  37  63  91 121 165 210 256 318 374
#     4  11  25  41  62  94 129 164 205 261 319 376
#     4  10  23  42  66  94 127 168 211 260 318 379
#     4  10  21  39  62  91 126 162 211 266 315 377
#     4  10  22  42  64  90 126 164 211 264 312 379
#     4  10  21  40  66  92 120 163 210 255 317 378
#     4  11  24  40  61  90 133 172 213 264 313 378
#     4  11  24  38  60  96 124 170 222 260 318 374
#
# _framework density 21.790393000000002
#
# number of rings (size 3 to 8) (size 9 to 14) (size 15 to 20)
#    0.000    1.857    1.429    1.286    5.000    3.429 
#    1.286    4.643    0.000    0.000    0.000    0.000 
#    0.000    0.000    0.000    0.000    0.000    0.000 
#
# Total GULP energy -346921.912731 kJ/mol
# GULP energy per Si atom -12390.068312 kJ/mol
# Density = 2.174080 g / cm^3
# Si number density = 21.790393 Si / 1000 Ang^3
#
#
#
# Elastic Constant Matrix: (Units=GPa)
#
#
# Indices 1 2 3 4 5 6 
#
# 1 86.4169 -5.0670 58.2952 0.0000 15.8495 0.0000
# 2 -5.0670 62.0074 27.2051 0.0000 -0.8506 0.0000
# 3 58.2952 27.2051 158.2752 0.0000 0.3570 0.0000
# 4 0.0000 0.0000 0.0000 22.6211 0.0000 -4.7601
# 5 15.8495 -0.8506 0.3570 0.0000 31.7869 0.0000
# 6 0.0000 0.0000 0.0000 -4.7601 0.0000 26.8511
#
#
#
# Elastic Compliance Matrix: (Units=1/GPa)
#
#
# Indices 1 2 3 4 5 6 
#
# 1 0.018714 0.004780 -0.007694 0.000000 -0.009117 0.000000
# 2 0.004780 0.018671 -0.004966 0.000000 -0.001828 0.000000
# 3 -0.007694 -0.004966 0.009997 0.000000 0.003591 0.000000
# 4 0.000000 0.000000 0.000000 0.045920 0.000000 0.008141
# 5 -0.009117 -0.001828 0.003591 0.000000 0.035916 0.000000
# 6 0.000000 0.000000 0.000000 0.008141 0.000000 0.038686
#
#
# Mechanical properties :
#
#
# Convention : Reuss Voigt Hill
#
# Bulk Modulus (GPa) = 31.62214 51.95181 41.78698
# Shear Modulus (GPa) = 25.74608 31.33623 28.54116
#
# Velocity S-wave (km/s) = 3.44107 3.79631 3.62305
# Velocity P-wave (km/s) = 5.50740 6.56577 6.05974
#
# Compressibility (1/GPa) = 0.03162341
#
# Stress axis : x y z
#
# Youngs Moduli (GPa) = 53.43528 53.55837 100.02751
#
# Poissons Ratio (x) = -0.25599 0.76959
# Poissons Ratio (y) = -0.25541 0.49670
# Poissons Ratio (z) = 0.41112 0.26595
#
# Static dielectric constant tensor:
#      x y z
#    x 3.924150 0.000000 0.285940 
#    y 0.000000 3.804960 0.000000 
#    z 0.285940 0.000000 4.283760 
# 
# 
# High freq. dielectric constant tensor:
#      x y z
#    x 1.848580 0.000000 0.012980 
#    y 0.000000 1.840440 0.000000 
#    z 0.012980 0.000000 1.864730 
# 
# From -- ./inp_files/70359.got.cif
#   From: 2010.06.25/outbox.cif.g09.slc.cpg/sg10_36_cif.got.tgz:70359.got - 2010.06.27 22:07:45.
