data_PCOD8066613
_publ_section_title
;
Structure prediction by ZEFSAII (Michael W. Deem and Ramdas Pophale) SiO2 
 PCOD8066613
Probable space group: P 2/M
;
_chemical_formula_sum "Si O2"
_cell_formula_units_Z 28
_cell_length_a 16.707137
_cell_length_b 10.592447
_cell_length_c 9.890419
_cell_angle_alpha 90.000000
_cell_angle_beta 52.600426
_cell_angle_gamma 90.000000
_cell_volume 1390.473515
_symmetry_space_group_name_H-M "P 2/M"
_symmetry_group_IT_number 10
_symmetry_cell_setting 'monoclinic'
loop_
_space_group_symop_operation_xyz
x,y,z
-x,y,-z
-x,-y,-z
x,-y,z
loop_
_atom_site_type_symbol
_atom_site_label
_atom_site_fract_x
_atom_site_fract_y
_atom_site_fract_z
Si Si1 0.435368 0.000000 0.281139
Si Si2 0.630660 0.358972 0.137801
Si Si3 0.095140 0.144396 0.808592
Si Si4 0.407678 0.730430 0.338043
Si Si5 0.739194 0.354741 0.294525
Si Si6 0.092627 0.856533 0.501486
Si Si7 0.635305 0.000000 0.951684
Si Si8 0.713869 0.743542 0.801226
O O1 0.387023 0.123068 0.400896
O O2 0.556907 0.000000 0.157497
O O3 0.412324 0.000000 0.147035
O O4 0.598014 0.500000 0.205936
O O5 0.527571 0.284886 0.216324
O O6 0.691728 0.305845 0.203123
O O7 0.703297 0.359133 0.931102
O O8 0.176616 0.252645 0.754181
O O9 0.059185 0.159698 0.690744
O O10 0.135602 0.000000 0.791073
O O11 0.000000 0.171722 0.000000
O O12 0.348731 0.642423 0.502440
O O13 0.369737 0.708077 0.224470
O O14 0.780869 0.500000 0.241611
O O15 0.177732 0.752044 0.381676
O O16 0.000000 0.825945 0.500000
O O17 0.132761 0.000000 0.436450
O O18 0.700369 0.126091 0.897427
#
# Coordination Sequence:
#
# PCOD8066613 Si02
#       8
#     2   4   4   4   4   4   2   4
#     4   9  18  30  56  87 122 156 200 254 311 352
#     4  11  25  41  57  85 128 169 210 258 302 364
#     4  10  23  45  70  97 125 158 208 262 311 370
#     4  11  21  38  63  90 123 166 213 255 307 369
#     4  11  25  44  64  88 127 175 209 249 318 376
#     4  10  21  38  65  97 127 157 194 254 323 374
#     4   9  16  32  52  86 121 158 191 241 315 372
#     4  11  20  36  62  90 122 160 205 255 307 370
#
# _framework density 20.137024
#
# number of rings (size 3 to 8) (size 9 to 14) (size 15 to 20)
#    0.000    1.571    3.571    1.286    3.000    3.143 
#    2.571    0.714    0.000    0.857    0.000    0.000 
#    0.000    0.000    0.000    0.000    0.000    0.000 
#
# Total GULP energy -347043.895092 kJ/mol
# GULP energy per Si atom -12394.424825 kJ/mol
# Density = 2.009119 g / cm^3
# Si number density = 20.137024 Si / 1000 Ang^3
#
#
#
# Elastic Constant Matrix: (Units=GPa)
#
#
# Indices 1 2 3 4 5 6 
#
# 1 120.2868 44.7378 48.7505 0.0000 16.2055 0.0000
# 2 44.7378 76.4453 29.3935 0.0000 5.1104 0.0000
# 3 48.7505 29.3935 112.6982 0.0000 5.9769 0.0000
# 4 0.0000 0.0000 0.0000 28.7002 0.0000 0.5813
# 5 16.2055 5.1104 5.9769 0.0000 31.6146 0.0000
# 6 0.0000 0.0000 0.0000 0.5813 0.0000 25.2147
#
#
#
# Elastic Compliance Matrix: (Units=1/GPa)
#
#
# Indices 1 2 3 4 5 6 
#
# 1 0.012549 -0.005594 -0.003714 0.000000 -0.004826 0.000000
# 2 -0.005594 0.017118 -0.002071 0.000000 0.000492 0.000000
# 3 -0.003714 -0.002071 0.011012 0.000000 0.000157 0.000000
# 4 0.000000 0.000000 0.000000 0.034859 0.000000 -0.000804
# 5 -0.004826 0.000492 0.000157 0.000000 0.033996 0.000000
# 6 0.000000 0.000000 0.000000 -0.000804 0.000000 0.039678
#
#
# Mechanical properties :
#
#
# Convention : Reuss Voigt Hill
#
# Bulk Modulus (GPa) = 55.79637 61.68822 58.74230
# Shear Modulus (GPa) = 28.09893 29.54246 28.82070
#
# Velocity S-wave (km/s) = 3.73954 3.83439 3.78726
# Velocity P-wave (km/s) = 6.81279 7.09254 6.95407
#
# Compressibility (1/GPa) = 0.01792231
#
# Stress axis : x y z
#
# Youngs Moduli (GPa) = 79.68672 58.41723 90.81370
#
# Poissons Ratio (x) = 0.32676 0.33725
# Poissons Ratio (y) = 0.44573 0.18809
# Poissons Ratio (z) = 0.29592 0.12099
#
# Static dielectric constant tensor:
#      x y z
#    x 3.480350 0.000000 0.090420 
#    y 0.000000 3.810650 0.000000 
#    z 0.090420 0.000000 3.671450 
# 
# 
# High freq. dielectric constant tensor:
#      x y z
#    x 1.768310 0.000000 0.005810 
#    y 0.000000 1.781500 0.000000 
#    z 0.005810 0.000000 1.787600 
# 
# From -- ./inp_files/28520.got.cif
#   From: 2010.06.25/outbox.cif.g09.slc.cpg/sg10_15_cif.got.tgz:28520.got - 2010.06.27 22:07:45.
