data_PCOD8066250
_publ_section_title
;
Structure prediction by ZEFSAII (Michael W. Deem and Ramdas Pophale) SiO2 
 PCOD8066250
Probable space group: P 2/M
;
_chemical_formula_sum "Si O2"
_cell_formula_units_Z 28
_cell_length_a 13.940671
_cell_length_b 9.649427
_cell_length_c 18.883793
_cell_angle_alpha 90.000000
_cell_angle_beta 35.598324
_cell_angle_gamma 90.000000
_cell_volume 1478.670557
_symmetry_space_group_name_H-M "P 2/M"
_symmetry_group_IT_number 10
_symmetry_cell_setting 'monoclinic'
loop_
_space_group_symop_operation_xyz
x,y,z
-x,y,-z
-x,-y,-z
x,-y,z
loop_
_atom_site_type_symbol
_atom_site_label
_atom_site_fract_x
_atom_site_fract_y
_atom_site_fract_z
Si Si1 0.508912 0.160222 0.685103
Si Si2 0.993406 0.656602 0.281339
Si Si3 0.158319 0.835863 0.942230
Si Si4 0.599525 0.158993 0.791495
Si Si5 0.375651 0.661606 0.512821
Si Si6 0.764724 0.162179 0.949869
Si Si7 0.094852 0.341182 0.374284
O O1 0.316837 0.202250 0.800495
O O2 0.580958 0.189767 0.719391
O O3 0.595724 0.255121 0.575890
O O4 0.533682 0.000000 0.649266
O O5 0.045793 0.500000 0.231027
O O6 0.137481 0.757447 0.169216
O O7 0.978368 0.673998 0.375441
O O8 0.815805 0.689953 0.352071
O O9 0.144013 0.000000 0.956638
O O10 0.169905 0.778289 0.014669
O O11 0.000000 0.768115 0.000000
O O12 0.739441 0.255769 0.739603
O O13 0.650698 0.000000 0.772486
O O14 0.431151 0.189988 0.935470
O O15 0.500000 0.713053 0.500000
O O16 0.405224 0.500000 0.479428
O O17 0.801543 0.000000 0.918618
O O18 0.145326 0.500000 0.357758
O O19 0.000000 0.281433 0.500000
#
# Coordination Sequence:
#
# PCOD8066250 Si02
#       7
#     4   4   4   4   4   4   4
#     4   9  18  33  54  80 105 133 176 222 263 315
#     4  10  22  38  54  77 110 142 179 227 269 318
#     4   8  15  29  51  77 104 135 172 217 262 307
#     4   9  19  36  56  82 113 140 173 222 274 319
#     4  10  22  38  54  74 107 147 179 218 274 323
#     4   9  19  35  55  80 110 143 178 217 268 325
#     4  10  21  37  58  81 105 142 188 224 264 320
#
# _framework density 18.935929000000002
#
# number of rings (size 3 to 8) (size 9 to 14) (size 15 to 20)
#    0.000    2.714    0.000    2.571    2.000    4.571 
#    0.000    5.000    0.000    0.857    0.000    0.000 
#    0.000    0.000    0.000    0.000    0.000    0.000 
#
# Total GULP energy -347140.547336 kJ/mol
# GULP energy per Si atom -12397.876691 kJ/mol
# Density = 1.889283 g / cm^3
# Si number density = 18.935929 Si / 1000 Ang^3
#
#
#
# Elastic Constant Matrix: (Units=GPa)
#
#
# Indices 1 2 3 4 5 6 
#
# 1 73.0852 31.4807 38.7889 0.0000 -15.7565 0.0000
# 2 31.4807 58.6066 49.4481 0.0000 -2.4480 0.0000
# 3 38.7889 49.4481 102.7925 0.0000 -1.5573 0.0000
# 4 0.0000 0.0000 0.0000 30.5013 0.0000 -2.4777
# 5 -15.7565 -2.4480 -1.5573 0.0000 33.7085 0.0000
# 6 0.0000 0.0000 0.0000 -2.4777 0.0000 21.1004
#
#
#
# Elastic Compliance Matrix: (Units=1/GPa)
#
#
# Indices 1 2 3 4 5 6 
#
# 1 0.021083 -0.007318 -0.004297 0.000000 0.009125 0.000000
# 2 -0.007318 0.031330 -0.012336 0.000000 -0.001715 0.000000
# 3 -0.004297 -0.012336 0.017252 0.000000 -0.002107 0.000000
# 4 0.000000 0.000000 0.000000 0.033101 0.000000 0.003887
# 5 0.009125 -0.001715 -0.002107 0.000000 0.033709 0.000000
# 6 0.000000 0.000000 0.000000 0.003887 0.000000 0.047849
#
#
# Mechanical properties :
#
#
# Convention : Reuss Voigt Hill
#
# Bulk Modulus (GPa) = 45.94909 52.65775 49.30342
# Shear Modulus (GPa) = 20.87852 24.71316 22.79584
#
# Velocity S-wave (km/s) = 3.32413 3.61653 3.47340
# Velocity P-wave (km/s) = 6.24911 6.73111 6.49458
#
# Compressibility (1/GPa) = 0.02176322
#
# Stress axis : x y z
#
# Youngs Moduli (GPa) = 47.43257 31.91798 57.96401
#
# Poissons Ratio (x) = 0.23357 0.24907
# Poissons Ratio (y) = 0.34711 0.71504
# Poissons Ratio (z) = 0.20382 0.39374
#
# Static dielectric constant tensor:
#      x y z
#    x 3.629630 0.000000 -0.179430 
#    y 0.000000 3.214210 0.000000 
#    z -0.179430 0.000000 3.396430 
# 
# 
# High freq. dielectric constant tensor:
#      x y z
#    x 1.739230 0.000000 -0.006940 
#    y 0.000000 1.714160 0.000000 
#    z -0.006940 0.000000 1.735280 
# 
# From -- ./inp_files/68582.got.cif
#   From: 2010.06.25/outbox.cif.g09.slc.cpg/sg10_35_cif.got.tgz:68582.got - 2010.06.27 22:07:45.
