data_PCOD8066851
_publ_section_title
;
Structure prediction by ZEFSAII (Michael W. Deem and Ramdas Pophale) SiO2 
 PCOD8066851
Probable space group: P 2/M
;
_chemical_formula_sum "Si O2"
_cell_formula_units_Z 32
_cell_length_a 18.640855
_cell_length_b 13.720952
_cell_length_c 12.252200
_cell_angle_alpha 90.000000
_cell_angle_beta 28.636527
_cell_angle_gamma 90.000000
_cell_volume 1501.853676
_symmetry_space_group_name_H-M "P 2/M"
_symmetry_group_IT_number 10
_symmetry_cell_setting 'monoclinic'
loop_
_space_group_symop_operation_xyz
x,y,z
-x,y,-z
-x,-y,-z
x,-y,z
loop_
_atom_site_type_symbol
_atom_site_label
_atom_site_fract_x
_atom_site_fract_y
_atom_site_fract_z
Si Si1 0.330792 0.894294 0.217634
Si Si2 0.380613 0.614041 0.363230
Si Si3 0.787979 0.305365 0.603182
Si Si4 0.901400 0.389802 0.882375
Si Si5 0.831246 0.720577 0.189676
Si Si6 0.396520 0.890729 0.537053
Si Si7 0.291275 0.314471 0.040457
Si Si8 0.672935 0.896188 0.029982
O O1 0.227908 0.809714 0.405436
O O2 0.304748 0.000000 0.310738
O O3 0.500000 0.857813 0.000000
O O4 0.297141 0.906673 0.136535
O O5 0.403482 0.500000 0.352775
O O6 0.337580 0.633340 0.294377
O O7 0.244505 0.654370 0.616951
O O8 0.530913 0.670185 0.196335
O O9 0.769680 0.326153 0.755733
O O10 0.952044 0.332499 0.347535
O O11 0.944336 0.500000 0.855553
O O12 0.787411 0.392245 0.932439
O O13 0.822651 0.339940 0.089868
O O14 0.746193 0.822160 0.286356
O O15 0.000000 0.743704 0.000000
O O16 0.500000 0.855328 0.500000
O O17 0.496554 0.888489 0.293678
O O18 0.336701 0.000000 0.639767
O O19 0.251444 0.207407 0.039861
O O20 0.734403 0.000000 0.001251
#
# Coordination Sequence:
#
# PCOD8066851 Si02
#       8
#     4   4   4   4   4   4   4   4
#     4   9  18  33  59  94 128 163 204 252 315 382
#     4  12  25  42  66  93 124 171 225 278 327 381
#     4  11  23  41  65  95 132 170 211 265 333 399
#     4  12  27  45  65  89 128 180 221 269 332 387
#     4  12  26  44  66  93 132 172 219 270 322 391
#     4  10  21  40  68  99 130 168 211 261 325 388
#     4  11  23  42  67  99 129 159 221 280 327 389
#     4   9  17  34  61  90 123 160 197 247 316 388
#
# _framework density 21.307003000000002
#
# number of rings (size 3 to 8) (size 9 to 14) (size 15 to 20)
#    0.000    1.250    2.500    4.125    0.000    3.750 
#    0.000    2.500    0.000    3.000    0.000    0.000 
#    0.000    0.000    0.000    0.000    0.000    0.000 
#
# Total GULP energy -396629.996788 kJ/mol
# GULP energy per Si atom -12394.687400 kJ/mol
# Density = 2.125851 g / cm^3
# Si number density = 21.307003 Si / 1000 Ang^3
#
#
#
# Elastic Constant Matrix: (Units=GPa)
#
#
# Indices 1 2 3 4 5 6 
#
# 1 80.3229 31.0749 16.1743 0.0000 -4.5238 0.0000
# 2 31.0749 133.8832 37.0120 0.0000 10.4652 0.0000
# 3 16.1743 37.0120 71.4662 0.0000 5.7613 0.0000
# 4 0.0000 0.0000 0.0000 32.4034 0.0000 0.4849
# 5 -4.5238 10.4652 5.7613 0.0000 24.4312 0.0000
# 6 0.0000 0.0000 0.0000 0.4849 0.0000 27.7784
#
#
#
# Elastic Compliance Matrix: (Units=1/GPa)
#
#
# Indices 1 2 3 4 5 6 
#
# 1 0.014307 -0.003121 -0.001980 0.000000 0.004453 0.000000
# 2 -0.003121 0.009579 -0.003952 0.000000 -0.003749 0.000000
# 3 -0.001980 -0.003952 0.016698 0.000000 -0.002611 0.000000
# 4 0.000000 0.000000 0.000000 0.030869 0.000000 -0.000539
# 5 0.004453 -0.003749 -0.002611 0.000000 0.043978 0.000000
# 6 0.000000 0.000000 0.000000 -0.000539 0.000000 0.036009
#
#
# Mechanical properties :
#
#
# Convention : Reuss Voigt Hill
#
# Bulk Modulus (GPa) = 44.49145 50.46608 47.47877
# Shear Modulus (GPa) = 28.24214 30.35000 29.29607
#
# Velocity S-wave (km/s) = 3.64467 3.77824 3.71205
# Velocity P-wave (km/s) = 6.21595 6.53988 6.37997
#
# Compressibility (1/GPa) = 0.02247623
#
# Stress axis : x y z
#
# Youngs Moduli (GPa) = 69.89636 104.39070 59.88623
#
# Poissons Ratio (x) = 0.32583 0.11860
# Poissons Ratio (y) = 0.21817 0.23670
# Poissons Ratio (z) = 0.13842 0.41260
#
# Static dielectric constant tensor:
#      x y z
#    x 3.494120 0.000000 0.208290 
#    y 0.000000 4.523140 0.000000 
#    z 0.208290 0.000000 3.698970 
# 
# 
# High freq. dielectric constant tensor:
#      x y z
#    x 1.826650 0.000000 0.014310 
#    y 0.000000 1.856090 0.000000 
#    z 0.014310 0.000000 1.822650 
# 
# From -- ./inp_files/54027.got.cif
#   From: 2010.06.25/outbox.cif.g09.slc.cpg/sg10_28_cif.got.tgz:54027.got - 2010.06.27 22:07:45.
