data_PCOD8066512
_publ_section_title
;
Structure prediction by ZEFSAII (Michael W. Deem and Ramdas Pophale) SiO2 
 PCOD8066512
Probable space group: P 2/M
;
_chemical_formula_sum "Si O2"
_cell_formula_units_Z 32
_cell_length_a 12.978120
_cell_length_b 19.393919
_cell_length_c 8.604849
_cell_angle_alpha 90.000000
_cell_angle_beta 48.786297
_cell_angle_gamma 90.000000
_cell_volume 1629.247481
_symmetry_space_group_name_H-M "P 2/M"
_symmetry_group_IT_number 10
_symmetry_cell_setting 'monoclinic'
loop_
_space_group_symop_operation_xyz
x,y,z
-x,y,-z
-x,-y,-z
x,-y,z
loop_
_atom_site_type_symbol
_atom_site_label
_atom_site_fract_x
_atom_site_fract_y
_atom_site_fract_z
Si Si1 0.412876 0.848818 0.936345
Si Si2 0.679335 0.195230 0.496199
Si Si3 0.357755 0.343904 0.558648
Si Si4 0.617379 0.576686 0.772009
Si Si5 0.139181 0.625551 0.297757
Si Si6 0.133503 0.419778 0.965069
Si Si7 0.652002 0.925438 0.293508
Si Si8 0.159339 0.217225 0.360737
O O1 0.523251 0.805967 0.721122
O O2 0.352259 0.908589 0.886700
O O3 0.500000 0.876201 0.000000
O O4 0.274452 0.808429 0.123073
O O5 0.696622 0.265680 0.381564
O O6 0.717221 0.133775 0.338334
O O7 0.793334 0.191908 0.516847
O O8 0.500000 0.350330 0.500000
O O9 0.371379 0.365425 0.367693
O O10 0.260312 0.399061 0.734735
O O11 0.587785 0.500000 0.733977
O O12 0.750114 0.572812 0.747709
O O13 0.500000 0.603897 0.000000
O O14 0.163422 0.700949 0.343757
O O15 0.000000 0.594022 0.500000
O O16 0.136108 0.627434 0.114869
O O17 0.141744 0.500000 0.001832
O O18 0.000000 0.402154 0.000000
O O19 0.500000 0.935606 0.500000
O O20 0.728479 0.000000 0.236838
O O21 0.000000 0.190975 0.500000
#
# Coordination Sequence:
#
# PCOD8066512 Si02
#       8
#     4   4   4   4   4   4   4   4
#     4   9  19  35  60  90 126 158 198 246 296 346
#     4  10  21  38  60  93 119 157 198 244 305 353
#     4  12  24  38  60  87 121 155 197 252 307 362
#     4  11  24  39  58  85 116 157 201 246 303 360
#     4  11  23  40  62  84 111 153 203 249 301 359
#     4  11  26  43  60  85 119 158 200 253 313 364
#     4   9  18  35  61  94 127 160 201 245 292 353
#     4  10  22  38  60  90 119 152 197 252 297 352
#
# _framework density 19.640968999999998
#
# number of rings (size 3 to 8) (size 9 to 14) (size 15 to 20)
#    0.000    1.625    1.250    3.375    7.000    4.250 
#    0.000    2.500    0.000    2.250    0.000    0.000 
#    0.000    0.000    0.000    0.000    0.000    0.000 
#
# Total GULP energy -396592.125602 kJ/mol
# GULP energy per Si atom -12393.503925 kJ/mol
# Density = 1.959627 g / cm^3
# Si number density = 19.640969 Si / 1000 Ang^3
#
#
#
# Elastic Constant Matrix: (Units=GPa)
#
#
# Indices 1 2 3 4 5 6 
#
# 1 126.8553 41.5286 42.5331 0.0000 2.8659 0.0000
# 2 41.5286 79.8362 19.9222 0.0000 11.0118 0.0000
# 3 42.5331 19.9222 83.6391 0.0000 -0.8639 0.0000
# 4 0.0000 0.0000 0.0000 -139.6916 0.0000 26.3201
# 5 2.8659 11.0118 -0.8639 0.0000 38.1283 0.0000
# 6 0.0000 0.0000 0.0000 26.3201 0.0000 25.4860
#
#
#
# Elastic Compliance Matrix: (Units=1/GPa)
#
#
# Indices 1 2 3 4 5 6 
#
# 1 0.010864 -0.004604 -0.004424 0.000000 0.000413 0.000000
# 2 -0.004604 0.015881 -0.001485 0.000000 -0.004274 0.000000
# 3 -0.004424 -0.001485 0.014571 0.000000 0.001092 0.000000
# 4 0.000000 0.000000 0.000000 -0.005993 0.000000 0.006189
# 5 0.000413 -0.004274 0.001092 0.000000 0.027455 0.000000
# 6 0.000000 0.000000 0.000000 0.006189 0.000000 0.032846
#
#
# Mechanical properties :
#
#
# Convention : Reuss Voigt Hill
#
# Bulk Modulus (GPa) = 49.28809 55.36650 52.32730
# Shear Modulus (GPa) = 40.51376 -2.79235 18.86070
#
# Velocity S-wave (km/s) = 4.54664 -1.19364 3.10219
# Velocity P-wave (km/s) = 7.26028 5.13330 6.28738
#
# Compressibility (1/GPa) = 0.02028888
#
# Stress axis : x y z
#
# Youngs Moduli (GPa) = 92.04500 62.96874 68.63003
#
# Poissons Ratio (x) = 0.28993 0.30361
# Poissons Ratio (y) = 0.42381 0.10194
# Poissons Ratio (z) = 0.40719 0.09353
#
# Static dielectric constant tensor:
#      x y z
#    x 3.781000 0.000000 0.057220 
#    y 0.000000 3.668690 0.000000 
#    z 0.057220 0.000000 3.706930 
# 
# 
# High freq. dielectric constant tensor:
#      x y z
#    x 1.773970 0.000000 0.011190 
#    y 0.000000 1.751700 0.000000 
#    z 0.011190 0.000000 1.762040 
# 
# From -- ./inp_files/26059.got.cif
#   From: 2010.06.25/outbox.cif.g09.slc.cpg/sg10_14_cif.got.tgz:26059.got - 2010.06.27 22:07:45.
