data_PCOD8066093
_publ_section_title
;
Structure prediction by ZEFSAII (Michael W. Deem and Ramdas Pophale) SiO2 
 PCOD8066093
Probable space group: P 2/M
;
_chemical_formula_sum "Si O2"
_cell_formula_units_Z 24
_cell_length_a 9.555651
_cell_length_b 11.544973
_cell_length_c 24.852420
_cell_angle_alpha 90.000000
_cell_angle_beta 27.973402
_cell_angle_gamma 90.000000
_cell_volume 1286.032051
_symmetry_space_group_name_H-M "P 2/M"
_symmetry_group_IT_number 10
_symmetry_cell_setting 'monoclinic'
loop_
_space_group_symop_operation_xyz
x,y,z
-x,y,-z
-x,-y,-z
x,-y,z
loop_
_atom_site_type_symbol
_atom_site_label
_atom_site_fract_x
_atom_site_fract_y
_atom_site_fract_z
Si Si1 0.741784 0.636961 0.335325
Si Si2 0.841870 0.370493 0.898685
Si Si3 0.963222 0.000000 0.319576
Si Si4 0.602917 0.000000 0.551651
Si Si5 0.256294 0.362320 0.952880
Si Si6 0.867521 0.756005 0.713640
Si Si7 0.154352 0.760124 0.503835
O O1 0.777482 0.500000 0.330949
O O2 0.405156 0.666321 0.433636
O O3 0.958625 0.689502 0.214969
O O4 0.842163 0.697428 0.356960
O O5 0.969937 0.500000 0.860509
O O6 0.500000 0.371159 0.000000
O O7 0.857560 0.309623 0.951633
O O8 0.757479 0.000000 0.441707
O O9 0.753621 0.000000 0.337578
O O10 0.169466 0.113885 0.250760
O O11 0.697083 0.113312 0.553190
O O12 0.298853 0.500000 0.942383
O O13 0.570886 0.312876 0.827835
O O14 0.000000 0.323355 0.000000
O O15 0.912235 0.757307 0.634041
O O16 0.000000 0.725153 0.500000
#
# Coordination Sequence:
#
# PCOD8066093 Si02
#       7
#     4   4   2   2   4   4   4
#     4  11  22  36  57  83 115 151 186 230 282 336
#     4   9  17  33  55  79 105 143 190 227 262 321
#     4   9  18  34  61  84 103 142 195 237 270 323
#     4   9  17  38  60  79 106 144 196 232 268 334
#     4  10  21  36  58  84 112 149 189 228 275 336
#     4  11  21  38  60  83 111 148 192 233 278 333
#     4  11  24  37  56  85 116 148 183 234 288 335
#
# _framework density 18.662054999999999
#
# number of rings (size 3 to 8) (size 9 to 14) (size 15 to 20)
#    0.000    1.833    3.333    1.250    2.333    2.333 
#    0.000    0.417    0.000    3.000    0.000    0.000 
#    0.000    0.000    0.000    0.000    0.000    0.000 
#
# Total GULP energy -297533.852395 kJ/mol
# GULP energy per Si atom -12397.243850 kJ/mol
# Density = 1.861958 g / cm^3
# Si number density = 18.662055 Si / 1000 Ang^3
#
#
#
# Elastic Constant Matrix: (Units=GPa)
#
#
# Indices 1 2 3 4 5 6 
#
# 1 132.0511 26.1373 23.2774 0.0000 3.8183 0.0000
# 2 26.1373 68.4956 9.5147 0.0000 -0.0852 0.0000
# 3 23.2774 9.5147 47.9008 0.0000 3.1549 0.0000
# 4 0.0000 0.0000 0.0000 17.4903 0.0000 -4.2609
# 5 3.8183 -0.0852 3.1549 0.0000 31.0279 0.0000
# 6 0.0000 0.0000 0.0000 -4.2609 0.0000 21.0525
#
#
#
# Elastic Compliance Matrix: (Units=1/GPa)
#
#
# Indices 1 2 3 4 5 6 
#
# 1 0.008804 -0.002851 -0.003665 0.000000 -0.000719 0.000000
# 2 -0.002851 0.015941 -0.001819 0.000000 0.000580 0.000000
# 3 -0.003665 -0.001819 0.023144 0.000000 -0.001907 0.000000
# 4 0.000000 0.000000 0.000000 0.060140 0.000000 0.012172
# 5 -0.000719 0.000580 -0.001907 0.000000 0.032513 0.000000
# 6 0.000000 0.000000 0.000000 0.012172 0.000000 0.049964
#
#
# Mechanical properties :
#
#
# Convention : Reuss Voigt Hill
#
# Bulk Modulus (GPa) = 32.03144 40.70069 36.36607
# Shear Modulus (GPa) = 22.97983 26.54866 24.76425
#
# Velocity S-wave (km/s) = 3.51289 3.77583 3.64673
# Velocity P-wave (km/s) = 5.80130 6.39264 6.10414
#
# Compressibility (1/GPa) = 0.03121932
#
# Stress axis : x y z
#
# Youngs Moduli (GPa) = 113.58520 62.73159 43.20732
#
# Poissons Ratio (x) = 0.17887 0.15834
# Poissons Ratio (y) = 0.32387 0.07859
# Poissons Ratio (z) = 0.41624 0.11411
#
# Static dielectric constant tensor:
#      x y z
#    x 3.623860 0.000000 0.136270 
#    y 0.000000 3.400360 0.000000 
#    z 0.136270 0.000000 3.275600 
# 
# 
# High freq. dielectric constant tensor:
#      x y z
#    x 1.731720 0.000000 0.004490 
#    y 0.000000 1.704200 0.000000 
#    z 0.004490 0.000000 1.713590 
# 
# From -- ./inp_files/42040.got.cif
#   From: 2010.06.25/outbox.cif.g09.slc.cpg/sg10_22_cif.got.tgz:42040.got - 2010.06.27 22:07:45.
