data_PCOD8066240
_publ_section_title
;
Structure prediction by ZEFSAII (Michael W. Deem and Ramdas Pophale) SiO2 
 PCOD8066240
Probable space group: P 2/M
;
_chemical_formula_sum "Si O2"
_cell_formula_units_Z 32
_cell_length_a 28.650980
_cell_length_b 9.025940
_cell_length_c 11.661253
_cell_angle_alpha 90.000000
_cell_angle_beta 31.197615
_cell_angle_gamma 90.000000
_cell_volume 1562.067130
_symmetry_space_group_name_H-M "P 2/M"
_symmetry_group_IT_number 10
_symmetry_cell_setting 'monoclinic'
loop_
_space_group_symop_operation_xyz
x,y,z
-x,y,-z
-x,-y,-z
x,-y,z
loop_
_atom_site_type_symbol
_atom_site_label
_atom_site_fract_x
_atom_site_fract_y
_atom_site_fract_z
Si Si1 0.225320 0.671567 0.020982
Si Si2 0.843066 0.670494 0.589621
Si Si3 0.664508 0.330853 0.578192
Si Si4 0.337149 0.668909 0.153091
Si Si5 0.003291 0.175328 0.123442
Si Si6 0.409699 0.168594 0.630852
Si Si7 0.180881 0.175470 0.883558
Si Si8 0.482339 0.832725 0.230519
O O1 0.236711 0.500000 0.964887
O O2 0.159631 0.692513 0.267799
O O3 0.323876 0.734071 0.845738
O O4 0.177419 0.755952 0.017479
O O5 0.859665 0.500000 0.521445
O O6 0.748469 0.725787 0.737230
O O7 0.921384 0.766712 0.370804
O O8 0.670727 0.500000 0.522497
O O9 0.687911 0.316129 0.661443
O O10 0.731407 0.229146 0.366565
O O11 0.563394 0.269545 0.770564
O O12 0.361932 0.500000 0.069365
O O13 0.419435 0.772619 0.944384
O O14 0.997163 0.000000 0.133952
O O15 0.000000 0.237925 0.000000
O O16 0.094738 0.229233 0.992123
O O17 0.500000 0.233791 0.500000
O O18 0.419285 0.173985 0.474244
O O19 0.394168 0.000000 0.705981
O O20 0.184884 0.000000 0.887716
O O21 0.491218 0.000000 0.165929
#
# Coordination Sequence:
#
# PCOD8066240 Si02
#       8
#     4   4   4   4   4   4   4   4
#     4  11  23  39  61  89 121 160 204 249 299 357
#     4  10  23  42  63  90 122 157 200 248 298 355
#     4  11  22  37  59  86 118 158 201 247 301 361
#     4  10  22  39  58  84 120 159 200 248 302 358
#     4  10  23  43  67  95 123 155 198 247 304 367
#     4  10  21  37  57  83 118 161 207 253 299 351
#     4  11  23  40  63  90 122 158 199 251 306 364
#     4  11  22  35  55  85 119 158 203 248 297 356
#
# _framework density 20.485676000000002
#
# number of rings (size 3 to 8) (size 9 to 14) (size 15 to 20)
#    0.000    1.500    1.250    3.375    0.000    6.500 
#    0.000    2.500    0.000    0.000    0.000    0.000 
#    0.000    0.000    0.000    0.000    0.000    0.000 
#
# Total GULP energy -396973.758806 kJ/mol
# GULP energy per Si atom -12405.429963 kJ/mol
# Density = 2.043905 g / cm^3
# Si number density = 20.485676 Si / 1000 Ang^3
#
#
#
# Elastic Constant Matrix: (Units=GPa)
#
#
# Indices 1 2 3 4 5 6 
#
# 1 115.6983 42.6794 34.2950 0.0000 -14.7312 0.0000
# 2 42.6794 76.1002 32.4288 0.0000 -3.6149 0.0000
# 3 34.2950 32.4288 93.3543 0.0000 -5.1562 0.0000
# 4 0.0000 0.0000 0.0000 36.2559 0.0000 11.4831
# 5 -14.7312 -3.6149 -5.1562 0.0000 30.2747 0.0000
# 6 0.0000 0.0000 0.0000 11.4831 0.0000 -192.2940
#
#
#
# Elastic Compliance Matrix: (Units=1/GPa)
#
#
# Indices 1 2 3 4 5 6 
#
# 1 0.011946 -0.005534 -0.002202 0.000000 0.004777 0.000000
# 2 -0.005534 0.018014 -0.004295 0.000000 -0.001273 0.000000
# 3 -0.002202 -0.004295 0.013048 0.000000 0.000638 0.000000
# 4 0.000000 0.000000 0.000000 0.027070 0.000000 0.001617
# 5 0.004777 -0.001273 0.000638 0.000000 0.035312 0.000000
# 6 0.000000 0.000000 0.000000 0.001617 0.000000 -0.005104
#
#
# Mechanical properties :
#
#
# Convention : Reuss Voigt Hill
#
# Bulk Modulus (GPa) = 52.78356 55.99546 54.38951
# Shear Modulus (GPa) = 38.26652 -13.43602 12.41525
#
# Velocity S-wave (km/s) = 4.32668 -2.56378 2.46447
# Velocity P-wave (km/s) = 7.12617 4.31617 5.89116
#
# Compressibility (1/GPa) = 0.01894529
#
# Stress axis : x y z
#
# Youngs Moduli (GPa) = 83.71308 55.51247 76.64000
#
# Poissons Ratio (x) = 0.30721 0.16877
# Poissons Ratio (y) = 0.46328 0.32916
# Poissons Ratio (z) = 0.18435 0.23842
#
# Static dielectric constant tensor:
#      x y z
#    x 4.007820 0.000000 -0.040000 
#    y 0.000000 3.697810 0.000000 
#    z -0.040000 0.000000 3.548700 
# 
# 
# High freq. dielectric constant tensor:
#      x y z
#    x 1.816060 0.000000 0.003080 
#    y 0.000000 1.799890 0.000000 
#    z 0.003080 0.000000 1.797840 
# 
# From -- ./inp_files/58148.got.cif
#   From: 2010.06.25/outbox.cif.g09.slc.cpg/sg10_30_cif.got.tgz:58148.got - 2010.06.27 22:07:45.
