data_PCOD8066175
_publ_section_title
;
Structure prediction by ZEFSAII (Michael W. Deem and Ramdas Pophale) SiO2 
 PCOD8066175
Probable space group: P 2/M
;
_chemical_formula_sum "Si O2"
_cell_formula_units_Z 32
_cell_length_a 31.508274
_cell_length_b 9.097627
_cell_length_c 12.708495
_cell_angle_alpha 90.000000
_cell_angle_beta 152.653999
_cell_angle_gamma 90.000000
_cell_volume 1673.411434
_symmetry_space_group_name_H-M "P 2/M"
_symmetry_group_IT_number 10
_symmetry_cell_setting 'monoclinic'
loop_
_space_group_symop_operation_xyz
x,y,z
-x,y,-z
-x,-y,-z
x,-y,z
loop_
_atom_site_type_symbol
_atom_site_label
_atom_site_fract_x
_atom_site_fract_y
_atom_site_fract_z
Si Si1 0.285394 0.828323 0.054954
Si Si2 0.640653 0.334533 0.412376
Si Si3 0.434021 0.828564 0.559254
Si Si4 0.380889 0.674717 0.074074
Si Si5 0.707583 0.325125 0.339670
Si Si6 0.149439 0.338351 0.057625
Si Si7 0.094097 0.671058 0.164509
Si Si8 0.098978 0.827251 0.746997
O O1 0.345299 0.796292 0.291391
O O2 0.316916 0.730062 0.027270
O O3 0.292063 0.000000 0.039485
O O4 0.180504 0.776648 0.847850
O O5 0.598949 0.500000 0.324886
O O6 0.579224 0.230735 0.351238
O O7 0.643797 0.274188 0.298639
O O8 0.743312 0.334391 0.681753
O O9 0.518900 0.745818 0.691230
O O10 0.456672 0.000000 0.615359
O O11 0.389081 0.500000 0.097218
O O12 0.337448 0.728615 0.867888
O O13 0.714328 0.500000 0.362093
O O14 0.812004 0.259438 0.578639
O O15 0.123319 0.500000 0.956009
O O16 0.123546 0.214085 0.919114
O O17 0.091805 0.304024 0.035033
O O18 0.093574 0.500000 0.193112
O O19 0.000000 0.747049 0.000000
O O20 0.000000 0.755199 0.500000
O O21 0.091790 0.000000 0.726427
#
# Coordination Sequence:
#
# PCOD8066175 Si02
#       8
#     4   4   4   4   4   4   4   4
#     4  10  22  40  57  76 108 147 184 226 275 325
#     4   9  17  33  57  80 106 140 179 223 270 324
#     4  11  22  37  58  81 107 144 187 228 273 326
#     4  11  23  37  56  82 112 146 182 225 274 329
#     4   8  17  33  50  75 111 145 175 216 276 328
#     4   9  17  30  52  80 106 134 175 227 269 310
#     4   8  14  27  50  78 107 140 175 213 265 327
#     4  10  21  37  56  78 107 146 183 218 272 332
#
# _framework density 19.122613999999999
#
# number of rings (size 3 to 8) (size 9 to 14) (size 15 to 20)
#    0.000    2.500    1.250    2.625    0.000    4.750 
#    0.000    5.000    0.000    1.875    0.000    0.000 
#    0.000    0.000    0.000    0.000    0.000    0.000 
#
# Total GULP energy -396700.327646 kJ/mol
# GULP energy per Si atom -12396.885239 kJ/mol
# Density = 1.907909 g / cm^3
# Si number density = 19.122614 Si / 1000 Ang^3
#
#
#
# Elastic Constant Matrix: (Units=GPa)
#
#
# Indices 1 2 3 4 5 6 
#
# 1 128.2937 48.5077 53.6919 0.0000 12.6863 0.0000
# 2 48.5077 46.0483 36.8779 0.0000 4.0740 0.0000
# 3 53.6919 36.8779 74.1722 0.0000 5.1758 0.0000
# 4 0.0000 0.0000 0.0000 10.5806 0.0000 7.0461
# 5 12.6863 4.0740 5.1758 0.0000 32.0734 0.0000
# 6 0.0000 0.0000 0.0000 7.0461 0.0000 18.8015
#
#
#
# Elastic Compliance Matrix: (Units=1/GPa)
#
#
# Indices 1 2 3 4 5 6 
#
# 1 0.014213 -0.010999 -0.004577 0.000000 -0.003486 0.000000
# 2 -0.010999 0.044688 -0.014326 0.000000 0.000986 0.000000
# 3 -0.004577 -0.014326 0.023934 0.000000 -0.000232 0.000000
# 4 0.000000 0.000000 0.000000 0.125944 0.000000 -0.047199
# 5 -0.003486 0.000986 -0.000232 0.000000 0.032470 0.000000
# 6 0.000000 0.000000 0.000000 -0.047199 0.000000 0.070876
#
#
# Mechanical properties :
#
#
# Convention : Reuss Voigt Hill
#
# Bulk Modulus (GPa) = 43.41619 58.51878 50.96749
# Shear Modulus (GPa) = 13.17156 19.58688 16.37922
#
# Velocity S-wave (km/s) = 2.62734 3.20391 2.92984
# Velocity P-wave (km/s) = 5.65308 6.65996 6.17707
#
# Compressibility (1/GPa) = 0.02303288
#
# Stress axis : x y z
#
# Youngs Moduli (GPa) = 70.35571 22.37748 41.78103
#
# Poissons Ratio (x) = 0.24612 0.19124
# Poissons Ratio (y) = 0.77381 0.59854
# Poissons Ratio (z) = 0.32203 0.32057
#
# Static dielectric constant tensor:
#      x y z
#    x 3.729010 0.000000 0.103190 
#    y 0.000000 3.227680 0.000000 
#    z 0.103190 0.000000 3.716390 
# 
# 
# High freq. dielectric constant tensor:
#      x y z
#    x 1.755360 0.000000 0.006240 
#    y 0.000000 1.709220 0.000000 
#    z 0.006240 0.000000 1.741540 
# 
# From -- ./inp_files/58304.got.cif
#   From: 2010.06.25/outbox.cif.g09.slc.cpg/sg10_30_cif.got.tgz:58304.got - 2010.06.27 22:07:45.
