data_PCOD8066107
_publ_section_title
;
Structure prediction by ZEFSAII (Michael W. Deem and Ramdas Pophale) SiO2 
 PCOD8066107
Probable space group: P 2/M
;
_chemical_formula_sum "Si O2"
_cell_formula_units_Z 28
_cell_length_a 10.999659
_cell_length_b 11.740562
_cell_length_c 20.707124
_cell_angle_alpha 90.000000
_cell_angle_beta 148.181374
_cell_angle_gamma 90.000000
_cell_volume 1409.904508
_symmetry_space_group_name_H-M "P 2/M"
_symmetry_group_IT_number 10
_symmetry_cell_setting 'monoclinic'
loop_
_space_group_symop_operation_xyz
x,y,z
-x,y,-z
-x,-y,-z
x,-y,z
loop_
_atom_site_type_symbol
_atom_site_label
_atom_site_fract_x
_atom_site_fract_y
_atom_site_fract_z
Si Si1 0.064440 0.500000 0.604702
Si Si2 0.858007 0.129840 0.542765
Si Si3 0.717264 0.739027 0.281220
Si Si4 0.523108 0.131136 0.935436
Si Si5 0.763602 0.500000 0.591927
Si Si6 0.458176 0.871296 0.266134
Si Si7 0.227793 0.742937 0.368859
Si Si8 0.953187 0.128978 0.833901
O O1 0.233008 0.605357 0.696658
O O2 0.000000 0.500000 0.500000
O O3 0.829441 0.500000 0.543586
O O4 0.609395 0.149655 0.398801
O O5 0.867560 0.172765 0.620256
O O6 0.050348 0.198379 0.589396
O O7 0.932572 0.000000 0.576071
O O8 0.646994 0.783464 0.178481
O O9 0.514447 0.776033 0.238537
O O10 0.454335 0.000000 0.890187
O O11 0.500000 0.159473 0.000000
O O12 0.783607 0.156083 0.030183
O O13 0.500000 0.500000 0.500000
O O14 0.877973 0.615707 0.670285
O O15 0.192160 0.856132 0.165987
O O16 0.501659 0.000000 0.258904
O O17 0.500000 0.737928 0.500000
O O18 0.148058 0.784989 0.263828
O O19 0.928623 0.000000 0.795934
#
# Coordination Sequence:
#
# PCOD8066107 Si02
#       8
#     2   4   4   4   2   4   4   4
#     4  12  26  44  68  93 130 175 219 270 325 383
#     4  11  20  32  56  88 122 154 194 252 323 385
#     4  12  24  40  61  87 122 167 214 257 318 379
#     4  10  22  41  64  91 125 166 211 260 316 386
#     4  10  24  40  61  89 123 170 219 256 311 376
#     4  10  21  36  58  91 125 160 205 260 324 390
#     4  11  20  35  58  86 126 160 207 258 321 372
#     4  10  21  37  61  94 127 164 207 261 328 387
#
# _framework density 19.859501999999999
#
# number of rings (size 3 to 8) (size 9 to 14) (size 15 to 20)
#    0.000    1.286    2.857    3.857    0.000    3.429 
#    0.000    3.214    0.000    0.857    0.000    0.000 
#    0.000    0.000    0.000    0.000    0.000    0.000 
#
# Total GULP energy -347117.984824 kJ/mol
# GULP energy per Si atom -12397.070887 kJ/mol
# Density = 1.981430 g / cm^3
# Si number density = 19.859502 Si / 1000 Ang^3
#
#
#
# Elastic Constant Matrix: (Units=GPa)
#
#
# Indices 1 2 3 4 5 6 
#
# 1 116.8624 41.5039 29.9052 0.0000 8.8742 0.0000
# 2 41.5039 137.9631 43.5832 0.0000 -5.1280 0.0000
# 3 29.9052 43.5832 66.5940 0.0000 2.0101 0.0000
# 4 0.0000 0.0000 0.0000 22.4011 0.0000 -6.2792
# 5 8.8742 -5.1280 2.0101 0.0000 32.9596 0.0000
# 6 0.0000 0.0000 0.0000 -6.2792 0.0000 13.9102
#
#
#
# Elastic Compliance Matrix: (Units=1/GPa)
#
#
# Indices 1 2 3 4 5 6 
#
# 1 0.010374 -0.002253 -0.003095 0.000000 -0.002955 0.000000
# 2 -0.002253 0.009733 -0.005432 0.000000 0.002452 0.000000
# 3 -0.003095 -0.005432 0.019999 0.000000 -0.001232 0.000000
# 4 0.000000 0.000000 0.000000 0.051107 0.000000 0.023070
# 5 -0.002955 0.002452 -0.001232 0.000000 0.031592 0.000000
# 6 0.000000 0.000000 0.000000 0.023070 0.000000 0.082304
#
#
# Mechanical properties :
#
#
# Convention : Reuss Voigt Hill
#
# Bulk Modulus (GPa) = 53.92204 61.26714 57.59459
# Shear Modulus (GPa) = 21.47294 27.61599 24.54447
#
# Velocity S-wave (km/s) = 3.29179 3.73308 3.51936
# Velocity P-wave (km/s) = 6.45434 7.03551 6.75118
#
# Compressibility (1/GPa) = 0.01854529
#
# Stress axis : x y z
#
# Youngs Moduli (GPa) = 96.39930 102.73972 50.00336
#
# Poissons Ratio (x) = 0.23146 0.15475
# Poissons Ratio (y) = 0.21717 0.27164
# Poissons Ratio (z) = 0.29834 0.55813
#
# Static dielectric constant tensor:
#      x y z
#    x 4.002070 0.000000 0.178360 
#    y 0.000000 3.734140 0.000000 
#    z 0.178360 0.000000 3.396390 
# 
# 
# High freq. dielectric constant tensor:
#      x y z
#    x 1.792170 0.000000 0.009510 
#    y 0.000000 1.764850 0.000000 
#    z 0.009510 0.000000 1.751830 
# 
# From -- ./inp_files/84015.got.cif
#   From: 2010.06.25/outbox.cif.g09.slc.cpg/sg10_43_cif.got.tgz:84015.got - 2010.06.27 22:07:45.
