data_PCOD8066658
_publ_section_title
;
Structure prediction by ZEFSAII (Michael W. Deem and Ramdas Pophale) SiO2 
 PCOD8066658
Probable space group: P 2/M
;
_chemical_formula_sum "Si O2"
_cell_formula_units_Z 28
_cell_length_a 15.922363
_cell_length_b 8.980345
_cell_length_c 20.159792
_cell_angle_alpha 90.000000
_cell_angle_beta 29.666808
_cell_angle_gamma 90.000000
_cell_volume 1426.765624
_symmetry_space_group_name_H-M "P 2/M"
_symmetry_group_IT_number 10
_symmetry_cell_setting 'monoclinic'
loop_
_space_group_symop_operation_xyz
x,y,z
-x,y,-z
-x,-y,-z
x,-y,z
loop_
_atom_site_type_symbol
_atom_site_label
_atom_site_fract_x
_atom_site_fract_y
_atom_site_fract_z
Si Si1 0.357709 0.174838 0.648350
Si Si2 0.887217 0.323460 0.392202
Si Si3 0.089500 0.171909 0.369027
Si Si4 0.562481 0.327886 0.883964
Si Si5 0.017312 0.174743 0.808050
Si Si6 0.318122 0.671875 0.932172
Si Si7 0.495535 0.674254 0.328998
O O1 0.500000 0.236062 0.500000
O O2 0.378972 0.249335 0.705086
O O3 0.174074 0.219803 0.747038
O O4 0.378301 0.000000 0.643589
O O5 0.894121 0.500000 0.384345
O O6 0.695019 0.263931 0.531108
O O7 0.995087 0.271393 0.380306
O O8 0.971928 0.259175 0.268569
O O9 0.282916 0.223366 0.242537
O O10 0.000000 0.199321 0.500000
O O11 0.082677 0.000000 0.352250
O O12 0.619474 0.500000 0.840312
O O13 0.409355 0.294144 0.938971
O O14 0.500000 0.286152 0.000000
O O15 0.014823 0.000000 0.795801
O O16 0.846918 0.225426 0.961839
O O17 0.262446 0.500000 0.965829
O O18 0.444981 0.714356 0.785724
O O19 0.500669 0.500000 0.338953
#
# Coordination Sequence:
#
# PCOD8066658 Si02
#       7
#     4   4   4   4   4   4   4
#     4  10  21  39  61  86 119 156 195 243 296 351
#     4  11  22  38  62  89 116 153 199 245 294 350
#     4  11  24  39  58  88 122 155 195 244 296 350
#     4  10  21  39  63  87 116 158 203 246 295 350
#     4  11  23  39  61  89 119 154 196 242 294 352
#     4  10  22  40  59  87 124 157 196 246 299 351
#     4  10  22  38  60  88 119 157 199 246 296 350
#
# _framework density 19.624807000000001
#
# number of rings (size 3 to 8) (size 9 to 14) (size 15 to 20)
#    0.000    1.571    1.429    3.000    0.000    7.429 
#    0.000    2.857    0.000    0.000    0.000    0.000 
#    0.000    0.000    0.000    0.000    0.000    0.000 
#
# Total GULP energy -347394.252416 kJ/mol
# GULP energy per Si atom -12406.937586 kJ/mol
# Density = 1.958014 g / cm^3
# Si number density = 19.624807 Si / 1000 Ang^3
#
#
#
# Elastic Constant Matrix: (Units=GPa)
#
#
# Indices 1 2 3 4 5 6 
#
# 1 97.3344 28.5777 28.9088 0.0000 -1.6697 0.0000
# 2 28.5777 53.0722 32.0143 0.0000 -3.5657 0.0000
# 3 28.9088 32.0143 96.6115 0.0000 -7.9627 0.0000
# 4 0.0000 0.0000 0.0000 44.5086 0.0000 -13.5884
# 5 -1.6697 -3.5657 -7.9627 0.0000 33.0266 0.0000
# 6 0.0000 0.0000 0.0000 -13.5884 0.0000 46.0526
#
#
#
# Elastic Compliance Matrix: (Units=1/GPa)
#
#
# Indices 1 2 3 4 5 6 
#
# 1 0.012477 -0.005592 -0.001916 0.000000 -0.000435 0.000000
# 2 -0.005592 0.026070 -0.006894 0.000000 0.000870 0.000000
# 3 -0.001916 -0.006894 0.013406 0.000000 0.002391 0.000000
# 4 0.000000 0.000000 0.000000 0.024692 0.000000 0.007286
# 5 -0.000435 0.000870 0.002391 0.000000 0.030927 0.000000
# 6 0.000000 0.000000 0.000000 0.007286 0.000000 0.023864
#
#
# Mechanical properties :
#
#
# Convention : Reuss Voigt Hill
#
# Bulk Modulus (GPa) = 43.19880 47.33552 45.26716
# Shear Modulus (GPa) = 29.76947 35.21872 32.49409
#
# Velocity S-wave (km/s) = 3.89900 4.24087 4.07353
# Velocity P-wave (km/s) = 6.50613 6.93921 6.72616
#
# Compressibility (1/GPa) = 0.02314879
#
# Stress axis : x y z
#
# Youngs Moduli (GPa) = 80.14501 38.35769 74.59494
#
# Poissons Ratio (x) = 0.21449 0.14296
# Poissons Ratio (y) = 0.44816 0.51426
# Poissons Ratio (z) = 0.15359 0.26444
#
# Static dielectric constant tensor:
#      x y z
#    x 3.576420 0.000000 -0.021970 
#    y 0.000000 3.514160 0.000000 
#    z -0.021970 0.000000 3.660020 
# 
# 
# High freq. dielectric constant tensor:
#      x y z
#    x 1.775790 0.000000 -0.001450 
#    y 0.000000 1.761640 0.000000 
#    z -0.001450 0.000000 1.773860 
# 
# From -- ./inp_files/66806.got.cif
#   From: 2010.06.25/outbox.cif.g09.slc.cpg/sg10_34_cif.got.tgz:66806.got - 2010.06.27 22:07:45.
