data_PCOD8066064
_publ_section_title
;
Structure prediction by ZEFSAII (Michael W. Deem and Ramdas Pophale) SiO2 
 PCOD8066064
Probable space group: P 2/M
;
_chemical_formula_sum "Si O2"
_cell_formula_units_Z 32
_cell_length_a 31.420396
_cell_length_b 8.744198
_cell_length_c 12.790199
_cell_angle_alpha 90.000000
_cell_angle_beta 152.485337
_cell_angle_gamma 90.000000
_cell_volume 1623.409103
_symmetry_space_group_name_H-M "P 2/M"
_symmetry_group_IT_number 10
_symmetry_cell_setting 'monoclinic'
loop_
_space_group_symop_operation_xyz
x,y,z
-x,y,-z
-x,-y,-z
x,-y,z
loop_
_atom_site_type_symbol
_atom_site_label
_atom_site_fract_x
_atom_site_fract_y
_atom_site_fract_z
Si Si1 0.129790 0.180288 0.455323
Si Si2 0.062685 0.318348 0.944456
Si Si3 0.400390 0.175107 0.310720
Si Si4 0.154295 0.676708 0.939786
Si Si5 0.218465 0.679324 0.448693
Si Si6 0.330859 0.830106 0.382357
Si Si7 0.788345 0.318142 0.157531
Si Si8 0.398810 0.176183 0.754591
O O1 0.195031 0.234037 0.504297
O O2 0.161519 0.251897 0.633302
O O3 0.026453 0.234610 0.204734
O O4 0.133778 0.000000 0.473503
O O5 0.047797 0.500000 0.916381
O O6 0.078615 0.261386 0.858199
O O7 0.149098 0.269958 0.204945
O O8 0.500000 0.245438 0.500000
O O9 0.396883 0.188590 0.427549
O O10 0.392418 0.000000 0.254514
O O11 0.318391 0.268643 0.076980
O O12 0.135888 0.500000 0.886300
O O13 0.158019 0.747332 0.830190
O O14 0.251929 0.703018 0.208183
O O15 0.211633 0.500000 0.454875
O O16 0.322179 0.723315 0.645086
O O17 0.392741 0.804180 0.617558
O O18 0.285269 0.000000 0.283271
O O19 0.793092 0.500000 0.170853
O O20 0.387186 0.000000 0.764630
O O21 0.500000 0.239842 0.000000
#
# Coordination Sequence:
#
# PCOD8066064 Si02
#       8
#     4   4   4   4   4   4   4   4
#     4  12  26  41  59  85 121 159 197 243 302 365
#     4  10  21  39  63  89 117 152 197 244 298 355
#     4   9  18  33  55  83 115 155 200 241 290 348
#     4   9  18  35  60  86 112 149 190 237 290 345
#     4  11  23  41  64  87 117 155 201 251 297 351
#     4   9  17  31  52  78 111 149 190 238 285 337
#     4  10  21  38  59  84 118 154 197 246 297 350
#     4  10  21  36  56  86 122 159 199 242 294 349
#
# _framework density 19.711607000000001
#
# number of rings (size 3 to 8) (size 9 to 14) (size 15 to 20)
#    0.000    2.000    1.250    2.250    0.000    5.500 
#    0.000    5.000    0.000    0.000    0.000    0.000 
#    0.000    0.000    0.000    0.000    0.000    0.000 
#
# Total GULP energy -396709.479045 kJ/mol
# GULP energy per Si atom -12397.171220 kJ/mol
# Density = 1.966674 g / cm^3
# Si number density = 19.711607 Si / 1000 Ang^3
#
#
#
# Elastic Constant Matrix: (Units=GPa)
#
#
# Indices 1 2 3 4 5 6 
#
# 1 107.5682 27.9031 48.8816 0.0000 0.5328 0.0000
# 2 27.9031 50.4273 27.0690 0.0000 -3.4133 0.0000
# 3 48.8816 27.0690 100.4571 0.0000 -0.5209 0.0000
# 4 0.0000 0.0000 0.0000 30.4874 0.0000 3.2864
# 5 0.5328 -3.4133 -0.5209 0.0000 33.0997 0.0000
# 6 0.0000 0.0000 0.0000 3.2864 0.0000 26.8379
#
#
#
# Elastic Compliance Matrix: (Units=1/GPa)
#
#
# Indices 1 2 3 4 5 6 
#
# 1 0.012716 -0.004399 -0.005006 0.000000 -0.000737 0.000000
# 2 -0.004399 0.024881 -0.004551 0.000000 0.002565 0.000000
# 3 -0.005006 -0.004551 0.013616 0.000000 -0.000174 0.000000
# 4 0.000000 0.000000 0.000000 0.033239 0.000000 -0.004070
# 5 -0.000737 0.002565 -0.000174 0.000000 0.030485 0.000000
# 6 0.000000 0.000000 0.000000 -0.004070 0.000000 0.037759
#
#
# Mechanical properties :
#
#
# Convention : Reuss Voigt Hill
#
# Bulk Modulus (GPa) = 42.91549 51.79554 47.35552
# Shear Modulus (GPa) = 26.54288 28.39161 27.46724
#
# Velocity S-wave (km/s) = 3.67353 3.79931 3.73695
# Velocity P-wave (km/s) = 6.30968 6.75130 6.53422
#
# Compressibility (1/GPa) = 0.02330161
#
# Stress axis : x y z
#
# Youngs Moduli (GPa) = 78.64112 40.19141 73.44482
#
# Poissons Ratio (x) = 0.17680 0.36766
# Poissons Ratio (y) = 0.34593 0.33422
# Poissons Ratio (z) = 0.39368 0.18290
#
# Static dielectric constant tensor:
#      x y z
#    x 3.901770 0.000000 -0.074600 
#    y 0.000000 3.530390 0.000000 
#    z -0.074600 0.000000 3.525940 
# 
# 
# High freq. dielectric constant tensor:
#      x y z
#    x 1.784130 0.000000 -0.004520 
#    y 0.000000 1.756460 0.000000 
#    z -0.004520 0.000000 1.759730 
# 
# From -- ./inp_files/58219.got.cif
#   From: 2010.06.25/outbox.cif.g09.slc.cpg/sg10_30_cif.got.tgz:58219.got - 2010.06.27 22:07:45.
