data_PCOD8066154
_publ_section_title
;
Structure prediction by ZEFSAII (Michael W. Deem and Ramdas Pophale) SiO2 
 PCOD8066154
Probable space group: P 2/M
;
_chemical_formula_sum "Si O2"
_cell_formula_units_Z 28
_cell_length_a 17.609983
_cell_length_b 9.323056
_cell_length_c 19.024771
_cell_angle_alpha 90.000000
_cell_angle_beta 31.986613
_cell_angle_gamma 90.000000
_cell_volume 1654.565424
_symmetry_space_group_name_H-M "P 2/M"
_symmetry_group_IT_number 10
_symmetry_cell_setting 'monoclinic'
loop_
_space_group_symop_operation_xyz
x,y,z
-x,y,-z
-x,-y,-z
x,-y,z
loop_
_atom_site_type_symbol
_atom_site_label
_atom_site_fract_x
_atom_site_fract_y
_atom_site_fract_z
Si Si1 0.576710 0.664655 0.225005
Si Si2 0.910031 0.169139 0.139115
Si Si3 0.111521 0.662811 0.075723
Si Si4 0.380739 0.334856 0.650234
Si Si5 0.481816 0.831683 0.177904
Si Si6 0.661817 0.159619 0.844656
Si Si7 0.739235 0.335495 0.904736
O O1 0.549351 0.500000 0.225640
O O2 0.739697 0.707759 0.078265
O O3 0.549774 0.693591 0.328076
O O4 0.463220 0.761583 0.269825
O O5 0.752493 0.232355 0.257340
O O6 0.898754 0.000000 0.156518
O O7 0.000000 0.214115 0.000000
O O8 0.986895 0.232563 0.147622
O O9 0.072425 0.500000 0.085170
O O10 0.123002 0.676014 0.151941
O O11 0.500000 0.294924 0.500000
O O12 0.330592 0.500000 0.683001
O O13 0.344251 0.805238 0.234546
O O14 0.513453 0.000000 0.160225
O O15 0.616658 0.754925 0.037742
O O16 0.765141 0.268892 0.806404
O O17 0.722767 0.000000 0.808736
O O18 0.500000 0.170348 0.000000
O O19 0.690813 0.500000 0.934371
#
# Coordination Sequence:
#
# PCOD8066154 Si02
#       7
#     4   4   4   4   4   4   4
#     4   9  17  29  45  66  89 116 155 197 235 277
#     4  11  22  33  49  74  98 124 161 200 240 286
#     4   9  17  29  45  65  90 122 157 196 236 277
#     4  10  21  37  55  72  94 127 162 199 246 292
#     4   9  16  24  36  55  82 117 153 186 226 277
#     4   8  14  23  33  50  79 116 151 182 223 275
#     4   9  16  24  36  57  83 114 151 190 231 272
#
# _framework density 16.922872999999999
#
# number of rings (size 3 to 8) (size 9 to 14) (size 15 to 20)
#    0.000    2.714    1.429    3.000    0.000    7.429 
#    0.000    0.000    0.000    0.000    0.000    0.000 
#    0.000    1.143    0.000   12.857    0.000    8.857 
#
# Total GULP energy -346995.977261 kJ/mol
# GULP energy per Si atom -12392.713474 kJ/mol
# Density = 1.688436 g / cm^3
# Si number density = 16.922873 Si / 1000 Ang^3
#
#
#
# Elastic Constant Matrix: (Units=GPa)
#
#
# Indices 1 2 3 4 5 6 
#
# 1 140.6939 76.5768 36.9525 0.0000 10.5816 0.0000
# 2 76.5768 104.0595 31.6306 0.0000 1.2199 0.0000
# 3 36.9525 31.6306 43.0616 0.0000 4.8247 0.0000
# 4 0.0000 0.0000 0.0000 10.2864 0.0000 -3.0252
# 5 10.5816 1.2199 4.8247 0.0000 11.1622 0.0000
# 6 0.0000 0.0000 0.0000 -3.0252 0.0000 28.5617
#
#
#
# Elastic Compliance Matrix: (Units=1/GPa)
#
#
# Indices 1 2 3 4 5 6 
#
# 1 0.013719 -0.008684 -0.004248 0.000000 -0.010220 0.000000
# 2 -0.008684 0.017948 -0.006761 0.000000 0.009194 0.000000
# 3 -0.004248 -0.006761 0.032894 0.000000 -0.009451 0.000000
# 4 0.000000 0.000000 0.000000 0.100341 0.000000 0.010628
# 5 -0.010220 0.009194 -0.009451 0.000000 0.102357 0.000000
# 6 0.000000 0.000000 0.000000 0.010628 0.000000 0.036138
#
#
# Mechanical properties :
#
#
# Convention : Reuss Voigt Hill
#
# Bulk Modulus (GPa) = 39.72630 64.23720 51.98175
# Shear Modulus (GPa) = 14.23787 19.51241 16.87514
#
# Velocity S-wave (km/s) = 2.90373 3.39930 3.16124
# Velocity P-wave (km/s) = 5.89645 7.31083 6.64139
#
# Compressibility (1/GPa) = 0.02517224
#
# Stress axis : x y z
#
# Youngs Moduli (GPa) = 72.89234 55.71593 30.40092
#
# Poissons Ratio (x) = 0.48386 0.12916
# Poissons Ratio (y) = 0.63303 0.20555
# Poissons Ratio (z) = 0.30968 0.37672
#
# Static dielectric constant tensor:
#      x y z
#    x 4.032170 0.000000 0.228240 
#    y 0.000000 3.313520 0.000000 
#    z 0.228240 0.000000 2.529970 
# 
# 
# High freq. dielectric constant tensor:
#      x y z
#    x 1.677760 0.000000 0.009830 
#    y 0.000000 1.661600 0.000000 
#    z 0.009830 0.000000 1.566130 
# 
# From -- ./inp_files/79257.got.cif
#   From: 2010.06.25/outbox.cif.g09.slc.cpg/sg10_40_cif.got.tgz:79257.got - 2010.06.27 22:07:45.
