data_PCOD8066538
_publ_section_title
;
Structure prediction by ZEFSAII (Michael W. Deem and Ramdas Pophale) SiO2 
 PCOD8066538
Probable space group: P 2/M
;
_chemical_formula_sum "Si O2"
_cell_formula_units_Z 26
_cell_length_a 12.770410
_cell_length_b 24.050246
_cell_length_c 9.342025
_cell_angle_alpha 90.000000
_cell_angle_beta 29.513422
_cell_angle_gamma 90.000000
_cell_volume 1413.461498
_symmetry_space_group_name_H-M "P 2/M"
_symmetry_group_IT_number 10
_symmetry_cell_setting 'monoclinic'
loop_
_space_group_symop_operation_xyz
x,y,z
-x,y,-z
-x,-y,-z
x,-y,z
loop_
_atom_site_type_symbol
_atom_site_label
_atom_site_fract_x
_atom_site_fract_y
_atom_site_fract_z
Si Si1 0.178054 0.838666 0.172629
Si Si2 0.416607 0.343818 0.258545
Si Si3 0.500000 0.109701 0.000000
Si Si4 0.043466 0.360209 0.109273
Si Si5 0.609346 0.563932 0.216914
Si Si6 0.066027 0.939946 0.585049
Si Si7 0.356030 0.263520 0.799690
O O1 0.000000 0.821587 0.500000
O O2 0.085319 0.889198 0.180991
O O3 0.394555 0.853654 0.999439
O O4 0.218998 0.787202 0.021590
O O5 0.479640 0.402825 0.251672
O O6 0.505163 0.291379 0.240620
O O7 0.162211 0.341550 0.557834
O O8 0.500000 0.339040 0.000000
O O9 0.317893 0.072944 0.294060
O O10 0.151083 0.412396 0.061847
O O11 0.202673 0.308729 0.912471
O O12 0.000000 0.379614 0.000000
O O13 0.500000 0.573227 0.500000
O O14 0.615100 0.500000 0.163898
O O15 0.000000 0.945608 0.500000
O O16 0.023890 0.000000 0.712306
O O17 0.500000 0.240218 0.500000
#
# Coordination Sequence:
#
# PCOD8066538 Si02
#       7
#     4   4   2   4   4   4   4
#     4   9  20  32  50  80 111 139 182 229 275 321
#     4  11  24  38  59  86 112 145 185 230 280 326
#     4   8  15  28  46  78 106 138 177 226 272 326
#     4  11  20  40  60  81 108 148 189 223 274 329
#     4  10  21  38  61  88 115 144 187 228 266 334
#     4   8  14  27  47  74 108 143 179 223 271 321
#     4  11  23  38  55  81 111 147 188 229 270 339
#
# _framework density 18.394559999999998
#
# number of rings (size 3 to 8) (size 9 to 14) (size 15 to 20)
#    0.000    2.462    3.077    1.154    3.231    4.923 
#    0.000    0.769    0.000    0.462    0.000    1.077 
#    0.000    0.000    0.000    0.000    0.000    0.000 
#
# Total GULP energy -322280.774158 kJ/mol
# GULP energy per Si atom -12395.414391 kJ/mol
# Density = 1.835269 g / cm^3
# Si number density = 18.394560 Si / 1000 Ang^3
#
#
#
# Elastic Constant Matrix: (Units=GPa)
#
#
# Indices 1 2 3 4 5 6 
#
# 1 56.2713 20.8056 30.7158 0.0000 -5.0450 0.0000
# 2 20.8056 128.0425 34.6003 0.0000 0.2707 0.0000
# 3 30.7158 34.6003 102.8057 0.0000 -4.8671 0.0000
# 4 0.0000 0.0000 0.0000 24.5820 0.0000 -6.7383
# 5 -5.0450 0.2707 -4.8671 0.0000 37.3921 0.0000
# 6 0.0000 0.0000 0.0000 -6.7383 0.0000 -5.6140
#
#
#
# Elastic Compliance Matrix: (Units=1/GPa)
#
#
# Indices 1 2 3 4 5 6 
#
# 1 0.021848 -0.002001 -0.005749 0.000000 0.002214 0.000000
# 2 -0.002001 0.008782 -0.002388 0.000000 -0.000644 0.000000
# 3 -0.005749 -0.002388 0.012288 0.000000 0.000841 0.000000
# 4 0.000000 0.000000 0.000000 0.030609 0.000000 -0.036739
# 5 0.002214 -0.000644 0.000841 0.000000 0.027156 0.000000
# 6 0.000000 0.000000 0.000000 -0.036739 0.000000 -0.134029
#
#
# Mechanical properties :
#
#
# Convention : Reuss Voigt Hill
#
# Bulk Modulus (GPa) = 44.16823 51.04032 47.60427
# Shear Modulus (GPa) = -905.63109 24.67188 -440.47960
#
# Velocity S-wave (km/s) = -22.21273 3.66629 -15.49134
# Velocity P-wave (km/s) = 25.17558 6.76240 17.14759
#
# Compressibility (1/GPa) = 0.02264071
#
# Stress axis : x y z
#
# Youngs Moduli (GPa) = 45.77154 113.87199 81.37744
#
# Poissons Ratio (x) = 0.22787 0.46786
# Poissons Ratio (y) = 0.09159 0.19435
# Poissons Ratio (z) = 0.26315 0.27195
#
# Static dielectric constant tensor:
#      x y z
#    x 3.465830 0.000000 -0.440000 
#    y 0.000000 3.845180 0.000000 
#    z -0.440000 0.000000 3.481570 
# 
# 
# High freq. dielectric constant tensor:
#      x y z
#    x 1.695620 0.000000 -0.029190 
#    y 0.000000 1.718100 0.000000 
#    z -0.029190 0.000000 1.705190 
# 
# From -- ./inp_files/26192.got.cif
#   From: 2010.06.25/outbox.cif.g09.slc.cpg/sg10_14_cif.got.tgz:26192.got - 2010.06.27 22:07:45.
