data_PCOD8066844
_publ_section_title
;
Structure prediction by ZEFSAII (Michael W. Deem and Ramdas Pophale) SiO2 
 PCOD8066844
Probable space group: P 2/M
;
_chemical_formula_sum "Si O2"
_cell_formula_units_Z 24
_cell_length_a 9.380388
_cell_length_b 8.717031
_cell_length_c 14.572781
_cell_angle_alpha 90.000000
_cell_angle_beta 98.054793
_cell_angle_gamma 90.000000
_cell_volume 1179.847928
_symmetry_space_group_name_H-M "P 2/M"
_symmetry_group_IT_number 10
_symmetry_cell_setting 'monoclinic'
loop_
_space_group_symop_operation_xyz
x,y,z
-x,y,-z
-x,-y,-z
x,-y,z
loop_
_atom_site_type_symbol
_atom_site_label
_atom_site_fract_x
_atom_site_fract_y
_atom_site_fract_z
Si Si1 0.393268 0.822673 0.906438
Si Si2 0.446807 0.322349 0.245124
Si Si3 0.853224 0.670745 0.540511
Si Si4 0.399688 0.170220 0.577970
Si Si5 0.149057 0.819019 0.261911
Si Si6 0.069922 0.181860 0.913377
O O1 0.450802 0.720731 0.829258
O O2 0.234426 0.761325 0.918725
O O3 0.386955 0.000000 0.875366
O O4 0.500000 0.798784 0.000000
O O5 0.405785 0.500000 0.237200
O O6 0.535252 0.289995 0.345128
O O7 0.301067 0.223751 0.229662
O O8 0.786692 0.500000 0.545117
O O9 0.755697 0.777020 0.468564
O O10 0.874465 0.738393 0.643352
O O11 0.000000 0.662235 0.500000
O O12 0.500000 0.164195 0.500000
O O13 0.387305 0.000000 0.621138
O O14 0.022260 0.763222 0.182665
O O15 0.145662 0.000000 0.277254
O O16 0.066245 0.000000 0.919878
O O17 0.000000 0.251757 0.000000
#
# Coordination Sequence:
#
# PCOD8066844 Si02
#       6
#     4   4   4   4   4   4
#     4  10  21  40  67  96 125 160 205 257 308 367
#     4  12  25  40  62  91 127 166 205 256 318 374
#     4  11  25  42  61  90 129 167 204 250 313 373
#     4  11  23  41  66  93 120 161 215 260 304 362
#     4  11  22  39  63  91 121 162 213 258 306 365
#     4   9  19  37  63  94 123 155 199 253 307 359
#
# _framework density 20.341605000000001
#
# number of rings (size 3 to 8) (size 9 to 14) (size 15 to 20)
#    0.000    1.333    1.667    4.000    2.333    5.000 
#    0.000    0.833    0.000    3.500    0.000    0.000 
#    0.000    0.000    0.000    0.000    0.000    0.000 
#
# Total GULP energy -297687.233688 kJ/mol
# GULP energy per Si atom -12403.634737 kJ/mol
# Density = 2.029531 g / cm^3
# Si number density = 20.341605 Si / 1000 Ang^3
#
#
#
# Elastic Constant Matrix: (Units=GPa)
#
#
# Indices 1 2 3 4 5 6 
#
# 1 131.9216 21.6238 60.0880 0.0000 5.3043 0.0000
# 2 21.6238 72.9237 28.9990 0.0000 -5.5233 0.0000
# 3 60.0880 28.9990 99.7239 0.0000 5.8036 0.0000
# 4 0.0000 0.0000 0.0000 -3.9995 0.0000 -3.7122
# 5 5.3043 -5.5233 5.8036 0.0000 38.7104 0.0000
# 6 0.0000 0.0000 0.0000 -3.7122 0.0000 28.1859
#
#
#
# Elastic Compliance Matrix: (Units=1/GPa)
#
#
# Indices 1 2 3 4 5 6 
#
# 1 0.010492 -0.000746 -0.006068 0.000000 -0.000634 0.000000
# 2 -0.000746 0.015892 -0.004347 0.000000 0.003022 0.000000
# 3 -0.006068 -0.004347 0.015067 0.000000 -0.002048 0.000000
# 4 0.000000 0.000000 0.000000 -0.222798 0.000000 -0.029344
# 5 -0.000634 0.003022 -0.002048 0.000000 0.026658 0.000000
# 6 0.000000 0.000000 0.000000 -0.029344 0.000000 0.031614
#
#
# Mechanical properties :
#
#
# Convention : Reuss Voigt Hill
#
# Bulk Modulus (GPa) = 52.27968 58.44342 55.36155
# Shear Modulus (GPa) = -52.97983 25.50327 -13.73828
#
# Velocity S-wave (km/s) = -5.10897 3.54467 -2.60162
# Velocity P-wave (km/s) = 3.00757 6.74880 4.27205
#
# Compressibility (1/GPa) = 0.01912789
#
# Stress axis : x y z
#
# Youngs Moduli (GPa) = 95.31139 62.92507 66.36901
#
# Poissons Ratio (x) = 0.04695 0.40272
# Poissons Ratio (y) = 0.07112 0.28854
# Poissons Ratio (z) = 0.57834 0.27357
#
# Static dielectric constant tensor:
#      x y z
#    x 3.837360 0.000000 0.039370 
#    y 0.000000 3.727730 0.000000 
#    z 0.039370 0.000000 3.723760 
# 
# 
# High freq. dielectric constant tensor:
#      x y z
#    x 1.806980 0.000000 0.001510 
#    y 0.000000 1.782910 0.000000 
#    z 0.001510 0.000000 1.806090 
# 
# From -- ./inp_files/60344.got.cif
#   From: 2010.06.25/outbox.cif.g09.slc.cpg/sg10_31_cif.got.tgz:60344.got - 2010.06.27 22:07:45.
