data_PCOD8066390
_publ_section_title
;
Structure prediction by ZEFSAII (Michael W. Deem and Ramdas Pophale) SiO2 
 PCOD8066390
Probable space group: P 2/M
;
_chemical_formula_sum "Si O2"
_cell_formula_units_Z 32
_cell_length_a 30.186790
_cell_length_b 9.025669
_cell_length_c 12.674408
_cell_angle_alpha 90.000000
_cell_angle_beta 153.289419
_cell_angle_gamma 90.000000
_cell_volume 1552.166229
_symmetry_space_group_name_H-M "P 2/M"
_symmetry_group_IT_number 10
_symmetry_cell_setting 'monoclinic'
loop_
_space_group_symop_operation_xyz
x,y,z
-x,y,-z
-x,-y,-z
x,-y,z
loop_
_atom_site_type_symbol
_atom_site_label
_atom_site_fract_x
_atom_site_fract_y
_atom_site_fract_z
Si Si1 0.292581 0.828484 0.898386
Si Si2 0.932482 0.326277 0.204619
Si Si3 0.185401 0.171180 0.218537
Si Si4 0.738986 0.168749 0.401513
Si Si5 0.506198 0.324709 0.630468
Si Si6 0.546529 0.659050 0.991227
Si Si7 0.613457 0.827408 0.465299
Si Si8 0.854937 0.674689 0.262173
O O1 0.228947 0.811658 0.653414
O O2 0.234133 0.760635 0.872402
O O3 0.313941 0.000000 0.967845
O O4 0.396945 0.743516 0.104977
O O5 0.925727 0.500000 0.177354
O O6 0.863207 0.277847 0.156350
O O7 0.044339 0.278726 0.465498
O O8 0.900682 0.255374 0.026265
O O9 0.179470 0.202521 0.333114
O O10 0.290046 0.224281 0.392916
O O11 0.169166 0.000000 0.160163
O O12 0.654887 0.285077 0.245573
O O13 0.701984 0.000000 0.341198
O O14 0.500000 0.261331 0.500000
O O15 0.512711 0.500000 0.644661
O O16 0.403589 0.269174 0.464987
O O17 0.547800 0.500000 0.928540
O O18 0.500000 0.612990 0.000000
O O19 0.484237 0.791365 0.808523
O O20 0.616802 0.000000 0.499865
O O21 0.835792 0.500000 0.231536
#
# Coordination Sequence:
#
# PCOD8066390 Si02
#       8
#     4   4   4   4   4   4   4   4
#     4  11  23  38  61  88 115 155 199 236 284 348
#     4   9  20  40  65  89 114 146 187 236 296 352
#     4  10  22  37  57  86 119 153 191 238 294 345
#     4  10  21  38  55  78 116 158 193 233 288 344
#     4  11  25  41  56  80 117 158 198 243 291 339
#     4  11  21  32  51  79 108 145 196 241 277 327
#     4  11  22  36  55  80 113 155 195 236 287 342
#     4   9  20  41  65  88 115 148 186 237 295 351
#
# _framework density 20.616350000000001
#
# number of rings (size 3 to 8) (size 9 to 14) (size 15 to 20)
#    0.000    1.750    2.500    2.250    1.750    4.500 
#    0.000    1.875    0.000    3.750    0.000    0.000 
#    0.000    0.000    0.000    0.000    0.000    0.000 
#
# Total GULP energy -396505.658975 kJ/mol
# GULP energy per Si atom -12390.801843 kJ/mol
# Density = 2.056943 g / cm^3
# Si number density = 20.616350 Si / 1000 Ang^3
#
#
#
# Elastic Constant Matrix: (Units=GPa)
#
#
# Indices 1 2 3 4 5 6 
#
# 1 59.0385 10.3506 2.1724 0.0000 -14.3650 0.0000
# 2 10.3506 59.1139 12.2175 0.0000 0.3986 0.0000
# 3 2.1724 12.2175 61.4146 0.0000 -23.8727 0.0000
# 4 0.0000 0.0000 0.0000 20.6631 0.0000 -20.9948
# 5 -14.3650 0.3986 -23.8727 0.0000 38.6843 0.0000
# 6 0.0000 0.0000 0.0000 -20.9948 0.0000 -12.0684
#
#
#
# Elastic Compliance Matrix: (Units=1/GPa)
#
#
# Indices 1 2 3 4 5 6 
#
# 1 0.019984 -0.004401 0.004040 0.000000 0.009960 0.000000
# 2 -0.004401 0.018896 -0.005676 0.000000 -0.005332 0.000000
# 3 0.004040 -0.005676 0.023516 0.000000 0.016071 0.000000
# 4 0.000000 0.000000 0.000000 0.017487 0.000000 -0.030421
# 5 0.009960 -0.005332 0.016071 0.000000 0.039521 0.000000
# 6 0.000000 0.000000 0.000000 -0.030421 0.000000 -0.029940
#
#
# Mechanical properties :
#
#
# Convention : Reuss Voigt Hill
#
# Bulk Modulus (GPa) = 19.87199 25.44979 22.66089
# Shear Modulus (GPa) = 42.26083 19.77759 31.01921
#
# Velocity S-wave (km/s) = 4.53246 3.10064 3.88312
# Velocity P-wave (km/s) = 6.08694 5.01896 5.57856
#
# Compressibility (1/GPa) = 0.05032209
#
# Stress axis : x y z
#
# Youngs Moduli (GPa) = 50.03903 52.92062 42.52427
#
# Poissons Ratio (x) = 0.23292 -0.17180
# Poissons Ratio (y) = 0.22024 0.24137
# Poissons Ratio (z) = -0.20216 0.30038
#
# Static dielectric constant tensor:
#      x y z
#    x 4.437310 0.000000 -0.392090 
#    y 0.000000 3.586820 0.000000 
#    z -0.392090 0.000000 3.670060 
# 
# 
# High freq. dielectric constant tensor:
#      x y z
#    x 1.808290 0.000000 -0.025140 
#    y 0.000000 1.807520 0.000000 
#    z -0.025140 0.000000 1.788270 
# 
# From -- ./inp_files/58336.got.cif
#   From: 2010.06.25/outbox.cif.g09.slc.cpg/sg10_30_cif.got.tgz:58336.got - 2010.06.27 22:07:45.
