data_PCOD8066712
_publ_section_title
;
Structure prediction by ZEFSAII (Michael W. Deem and Ramdas Pophale) SiO2 
 PCOD8066712
Probable space group: P 2/M
;
_chemical_formula_sum "Si O2"
_cell_formula_units_Z 22
_cell_length_a 9.164883
_cell_length_b 11.418795
_cell_length_c 13.454111
_cell_angle_alpha 90.000000
_cell_angle_beta 53.185395
_cell_angle_gamma 90.000000
_cell_volume 1127.213580
_symmetry_space_group_name_H-M "P 2/M"
_symmetry_group_IT_number 10
_symmetry_cell_setting 'monoclinic'
loop_
_space_group_symop_operation_xyz
x,y,z
-x,y,-z
-x,-y,-z
x,-y,z
loop_
_atom_site_type_symbol
_atom_site_label
_atom_site_fract_x
_atom_site_fract_y
_atom_site_fract_z
Si Si1 0.472661 0.000000 0.667043
Si Si2 0.647468 0.763759 0.372563
Si Si3 0.192092 0.366977 0.883151
Si Si4 0.933023 0.000000 0.134929
Si Si5 0.840388 0.000000 0.645096
Si Si6 0.964902 0.814669 0.749849
Si Si7 0.307486 0.633415 0.051178
O O1 0.467550 0.117391 0.602845
O O2 0.280942 0.000000 0.801206
O O3 0.643493 0.000000 0.673169
O O4 0.500000 0.690654 0.500000
O O5 0.709115 0.701921 0.245522
O O6 0.828188 0.782488 0.367207
O O7 0.158296 0.500000 0.859492
O O8 0.317568 0.361076 0.928191
O O9 0.000000 0.312600 0.000000
O O10 0.006622 0.112278 0.161783
O O11 0.000000 0.000000 0.000000
O O12 0.861782 0.884668 0.704978
O O13 0.000000 0.000000 0.500000
O O14 0.854052 0.700410 0.826864
O O15 0.289468 0.500000 0.095911
O O16 0.500000 0.690926 0.000000
#
# Coordination Sequence:
#
# PCOD8066712 Si02
#       7
#     2   4   4   2   2   4   4
#     4  10  23  36  59  81 117 156 193 230 290 349
#     4  11  22  38  61  88 119 155 194 241 291 348
#     4  10  21  39  63  88 115 154 197 240 292 344
#     4   9  21  35  56  86 119 149 187 246 291 338
#     4  11  23  41  58  81 117 157 194 238 289 353
#     4  10  22  37  59  86 116 154 196 238 294 347
#     4  10  22  39  61  86 119 154 191 240 295 349
#
# _framework density 19.517150999999998
#
# number of rings (size 3 to 8) (size 9 to 14) (size 15 to 20)
#    0.000    1.818    1.818    1.909    7.636    0.364 
#    0.000    1.818    0.000    0.545    0.000    0.000 
#    0.000    0.000    0.000    0.000    0.000    0.000 
#
# Total GULP energy -272548.843202 kJ/mol
# GULP energy per Si atom -12388.583782 kJ/mol
# Density = 1.947273 g / cm^3
# Si number density = 19.517151 Si / 1000 Ang^3
#
#
#
# Elastic Constant Matrix: (Units=GPa)
#
#
# Indices 1 2 3 4 5 6 
#
# 1 148.7673 31.9959 53.3082 0.0000 -22.6899 0.0000
# 2 31.9959 80.1157 51.6714 0.0000 -7.4811 0.0000
# 3 53.3082 51.6714 157.1792 0.0000 -5.3518 0.0000
# 4 0.0000 0.0000 0.0000 18.1488 0.0000 -0.2398
# 5 -22.6899 -7.4811 -5.3518 0.0000 25.0702 0.0000
# 6 0.0000 0.0000 0.0000 -0.2398 0.0000 24.0475
#
#
#
# Elastic Compliance Matrix: (Units=1/GPa)
#
#
# Indices 1 2 3 4 5 6 
#
# 1 0.008955 -0.001401 -0.002332 0.000000 0.007189 0.000000
# 2 -0.001401 0.016397 -0.004827 0.000000 0.002594 0.000000
# 3 -0.002332 -0.004827 0.008682 0.000000 -0.001697 0.000000
# 4 0.000000 0.000000 0.000000 0.055107 0.000000 0.000550
# 5 0.007189 0.002594 -0.001697 0.000000 0.046806 0.000000
# 6 0.000000 0.000000 0.000000 0.000550 0.000000 0.041590
#
#
# Mechanical properties :
#
#
# Convention : Reuss Voigt Hill
#
# Bulk Modulus (GPa) = 59.12080 73.33481 66.22780
# Shear Modulus (GPa) = 24.96310 30.05908 27.51109
#
# Velocity S-wave (km/s) = 3.58024 3.92872 3.75852
# Velocity P-wave (km/s) = 6.88827 7.63124 7.26926
#
# Compressibility (1/GPa) = 0.01691452
#
# Stress axis : x y z
#
# Youngs Moduli (GPa) = 111.66533 60.98714 115.18118
#
# Poissons Ratio (x) = 0.08546 0.26858
# Poissons Ratio (y) = 0.15647 0.55595
# Poissons Ratio (z) = 0.26038 0.29437
#
# Static dielectric constant tensor:
#      x y z
#    x 3.819000 0.000000 -0.156480 
#    y 0.000000 3.602730 0.000000 
#    z -0.156480 0.000000 3.506090 
# 
# 
# High freq. dielectric constant tensor:
#      x y z
#    x 1.768050 0.000000 -0.008090 
#    y 0.000000 1.750870 0.000000 
#    z -0.008090 0.000000 1.761280 
# 
# From -- ./inp_files/60630.got.cif
#   From: 2010.06.25/outbox.cif.g09.slc.cpg/sg10_31_cif.got.tgz:60630.got - 2010.06.27 22:07:45.
