data_PCOD8066200
_publ_section_title
;
Structure prediction by ZEFSAII (Michael W. Deem and Ramdas Pophale) SiO2 
 PCOD8066200
Probable space group: P 2/M
;
_chemical_formula_sum "Si O2"
_cell_formula_units_Z 32
_cell_length_a 26.130420
_cell_length_b 13.317270
_cell_length_c 9.821321
_cell_angle_alpha 90.000000
_cell_angle_beta 151.160968
_cell_angle_gamma 90.000000
_cell_volume 1648.520170
_symmetry_space_group_name_H-M "P 2/M"
_symmetry_group_IT_number 10
_symmetry_cell_setting 'monoclinic'
loop_
_space_group_symop_operation_xyz
x,y,z
-x,y,-z
-x,-y,-z
x,-y,z
loop_
_atom_site_type_symbol
_atom_site_label
_atom_site_fract_x
_atom_site_fract_y
_atom_site_fract_z
Si Si1 0.460951 0.244557 0.552961
Si Si2 0.641142 0.616848 0.094509
Si Si3 0.078828 0.114851 0.793314
Si Si4 0.845829 0.385813 0.394814
Si Si5 0.033851 0.248949 0.933586
Si Si6 0.260704 0.302952 0.416530
Si Si7 0.685094 0.883547 0.608527
Si Si8 0.275307 0.614106 0.149653
O O1 0.500000 0.200128 0.500000
O O2 0.414141 0.151350 0.530668
O O3 0.369901 0.323260 0.304431
O O4 0.548908 0.305498 0.841754
O O5 0.607983 0.500000 0.995367
O O6 0.742514 0.645893 0.240207
O O7 0.663587 0.634194 0.307518
O O8 0.053193 0.155648 0.881790
O O9 0.000000 0.167118 0.500000
O O10 0.048167 0.000000 0.730550
O O11 0.203690 0.130324 0.048221
O O12 0.874761 0.500000 0.496528
O O13 0.946289 0.321396 0.668227
O O14 0.825138 0.371695 0.184664
O O15 0.144064 0.308163 0.209825
O O16 0.000000 0.205461 0.000000
O O17 0.306459 0.188809 0.504831
O O18 0.249844 0.351496 0.242383
O O19 0.669350 0.000000 0.527786
O O20 0.313266 0.500000 0.239563
#
# Coordination Sequence:
#
# PCOD8066200 Si02
#       8
#     4   4   4   4   4   4   4   4
#     4  11  22  36  61  88 116 156 198 247 294 345
#     4  11  22  38  59  86 122 157 200 244 290 348
#     4   9  20  38  64  90 114 150 192 237 295 352
#     4  10  22  36  56  84 119 158 194 236 288 350
#     4  11  22  36  58  86 120 156 194 239 292 349
#     4  10  22  39  59  88 116 158 193 247 292 352
#     4   9  21  41  61  85 119 153 189 242 301 354
#     4  10  21  37  56  83 116 153 196 241 290 343
#
# _framework density 19.411349000000001
#
# number of rings (size 3 to 8) (size 9 to 14) (size 15 to 20)
#    0.000    1.875    2.500    0.750    5.250    4.250 
#    0.000    5.625    0.000    0.750    0.000    0.000 
#    0.000    0.000    0.000    0.000    0.000    0.000 
#
# Total GULP energy -396673.553236 kJ/mol
# GULP energy per Si atom -12396.048539 kJ/mol
# Density = 1.936717 g / cm^3
# Si number density = 19.411349 Si / 1000 Ang^3
#
#
#
# Elastic Constant Matrix: (Units=GPa)
#
#
# Indices 1 2 3 4 5 6 
#
# 1 110.7040 24.1902 39.7490 0.0000 -1.3704 0.0000
# 2 24.1902 80.0907 30.1259 0.0000 4.3927 0.0000
# 3 39.7490 30.1259 85.5643 0.0000 -2.1505 0.0000
# 4 0.0000 0.0000 0.0000 40.6715 0.0000 18.1971
# 5 -1.3704 4.3927 -2.1505 0.0000 34.0694 0.0000
# 6 0.0000 0.0000 0.0000 18.1971 0.0000 39.5474
#
#
#
# Elastic Compliance Matrix: (Units=1/GPa)
#
#
# Indices 1 2 3 4 5 6 
#
# 1 0.011025 -0.001645 -0.004533 0.000000 0.000369 0.000000
# 2 -0.001645 0.014801 -0.004504 0.000000 -0.002259 0.000000
# 3 -0.004533 -0.004504 0.015413 0.000000 0.001371 0.000000
# 4 0.000000 0.000000 0.000000 0.030961 0.000000 -0.014246
# 5 0.000369 -0.002259 0.001371 0.000000 0.029744 0.000000
# 6 0.000000 0.000000 0.000000 -0.014246 0.000000 0.031841
#
#
# Mechanical properties :
#
#
# Convention : Reuss Voigt Hill
#
# Bulk Modulus (GPa) = 50.31456 51.60991 50.96223
# Shear Modulus (GPa) = 30.90727 35.01059 32.95893
#
# Velocity S-wave (km/s) = 3.99460 4.25151 4.12505
# Velocity P-wave (km/s) = 6.87403 7.12360 6.99992
#
# Compressibility (1/GPa) = 0.01987496
#
# Stress axis : x y z
#
# Youngs Moduli (GPa) = 90.70491 67.56471 64.87979
#
# Poissons Ratio (x) = 0.11114 0.29411
# Poissons Ratio (y) = 0.14921 0.29220
# Poissons Ratio (z) = 0.41117 0.30429
#
# Static dielectric constant tensor:
#      x y z
#    x 3.652900 0.000000 0.048090 
#    y 0.000000 3.510580 0.000000 
#    z 0.048090 0.000000 3.698470 
# 
# 
# High freq. dielectric constant tensor:
#      x y z
#    x 1.755880 0.000000 0.001390 
#    y 0.000000 1.747020 0.000000 
#    z 0.001390 0.000000 1.759320 
# 
# From -- ./inp_files/36402.got.cif
#   From: 2010.06.25/outbox.cif.g09.slc.cpg/sg10_19_cif.got.tgz:36402.got - 2010.06.27 22:07:45.
