data_PCOD8066860
_publ_section_title
;
Structure prediction by ZEFSAII (Michael W. Deem and Ramdas Pophale) SiO2 
 PCOD8066860
Probable space group: P 2/M
;
_chemical_formula_sum "Si O2"
_cell_formula_units_Z 24
_cell_length_a 16.581454
_cell_length_b 8.963093
_cell_length_c 23.643366
_cell_angle_alpha 90.000000
_cell_angle_beta 19.687434
_cell_angle_gamma 90.000000
_cell_volume 1183.794590
_symmetry_space_group_name_H-M "P 2/M"
_symmetry_group_IT_number 10
_symmetry_cell_setting 'monoclinic'
loop_
_space_group_symop_operation_xyz
x,y,z
-x,y,-z
-x,-y,-z
x,-y,z
loop_
_atom_site_type_symbol
_atom_site_label
_atom_site_fract_x
_atom_site_fract_y
_atom_site_fract_z
Si Si1 0.935353 0.671681 0.791224
Si Si2 0.435114 0.175222 0.479324
Si Si3 0.845367 0.669099 0.722447
Si Si4 0.272850 0.326526 0.807093
Si Si5 0.494928 0.824877 0.871997
Si Si6 0.368075 0.327448 0.331845
O O1 0.967251 0.500000 0.787100
O O2 0.813889 0.688873 0.810160
O O3 0.192836 0.746384 0.620292
O O4 0.764599 0.749229 0.949841
O O5 0.500000 0.221075 0.500000
O O6 0.649871 0.230497 0.297856
O O7 0.401607 0.000000 0.494546
O O8 0.779902 0.500000 0.747439
O O9 0.667874 0.782197 0.809276
O O10 0.116195 0.707073 0.527193
O O11 0.311528 0.500000 0.767143
O O12 0.425873 0.280186 0.760690
O O13 0.000000 0.287450 0.000000
O O14 0.613976 0.772688 0.735376
O O15 0.457276 0.000000 0.896103
O O16 0.391222 0.500000 0.298952
#
# Coordination Sequence:
#
# PCOD8066860 Si02
#       6
#     4   4   4   4   4   4
#     4  11  23  43  68  92 121 164 214 260 307 362
#     4  11  25  43  64  95 132 165 200 250 316 377
#     4  10  21  41  66  90 120 161 214 263 309 364
#     4  10  22  42  68  97 123 160 214 258 301 365
#     4  12  26  39  58  94 132 166 206 252 313 377
#     4  10  21  41  64  91 125 164 210 260 307 360
#
# _framework density 20.273788
#
# number of rings (size 3 to 8) (size 9 to 14) (size 15 to 20)
#    0.000    1.333    1.667    3.500    2.333    8.333 
#    0.000    0.000    0.000    0.000    0.000    0.000 
#    0.000    0.000    0.000    0.000    0.000    0.000 
#
# Total GULP energy -297791.593886 kJ/mol
# GULP energy per Si atom -12407.983079 kJ/mol
# Density = 2.022764 g / cm^3
# Si number density = 20.273788 Si / 1000 Ang^3
#
#
#
# Elastic Constant Matrix: (Units=GPa)
#
#
# Indices 1 2 3 4 5 6 
#
# 1 74.2947 40.6613 15.6598 0.0000 -0.3371 0.0000
# 2 40.6613 98.2321 32.8153 0.0000 5.0936 0.0000
# 3 15.6598 32.8153 78.8943 0.0000 -4.0794 0.0000
# 4 0.0000 0.0000 0.0000 17.6537 0.0000 -0.2677
# 5 -0.3371 5.0936 -4.0794 0.0000 31.7164 0.0000
# 6 0.0000 0.0000 0.0000 -0.2677 0.0000 26.7412
#
#
#
# Elastic Compliance Matrix: (Units=1/GPa)
#
#
# Indices 1 2 3 4 5 6 
#
# 1 0.017472 -0.007157 -0.000425 0.000000 0.001280 0.000000
# 2 -0.007157 0.014962 -0.004964 0.000000 -0.003117 0.000000
# 3 -0.000425 -0.004964 0.014965 0.000000 0.002717 0.000000
# 4 0.000000 0.000000 0.000000 0.056654 0.000000 0.000567
# 5 0.001280 -0.003117 0.002717 0.000000 0.032393 0.000000
# 6 0.000000 0.000000 0.000000 0.000567 0.000000 0.037401
#
#
# Mechanical properties :
#
#
# Convention : Reuss Voigt Hill
#
# Bulk Modulus (GPa) = 44.82782 47.74376 46.28579
# Shear Modulus (GPa) = 24.22772 26.04123 25.13448
#
# Velocity S-wave (km/s) = 3.46067 3.58785 3.52483
# Velocity P-wave (km/s) = 6.17475 6.38468 6.28059
#
# Compressibility (1/GPa) = 0.02230757
#
# Stress axis : x y z
#
# Youngs Moduli (GPa) = 57.23402 66.83488 66.82336
#
# Poissons Ratio (x) = 0.47831 0.02841
# Poissons Ratio (y) = 0.40960 0.33172
# Poissons Ratio (z) = 0.02433 0.33177
#
# Static dielectric constant tensor:
#      x y z
#    x 3.669600 0.000000 0.013730 
#    y 0.000000 3.602110 0.000000 
#    z 0.013730 0.000000 3.777950 
# 
# 
# High freq. dielectric constant tensor:
#      x y z
#    x 1.796470 0.000000 0.000910 
#    y 0.000000 1.786290 0.000000 
#    z 0.000910 0.000000 1.809840 
# 
# From -- ./inp_files/90002.got.cif
#   From: 2010.06.25/outbox.cif.g09.slc.cpg/sg10_46_cif.got.tgz:90002.got - 2010.06.27 22:07:45.
