data_PCOD8066572
_publ_section_title
;
Structure prediction by ZEFSAII (Michael W. Deem and Ramdas Pophale) SiO2 
 PCOD8066572
Probable space group: P 2/M
;
_chemical_formula_sum "Si O2"
_cell_formula_units_Z 32
_cell_length_a 9.352700
_cell_length_b 22.531237
_cell_length_c 15.381650
_cell_angle_alpha 90.000000
_cell_angle_beta 29.447211
_cell_angle_gamma 90.000000
_cell_volume 1593.513671
_symmetry_space_group_name_H-M "P 2/M"
_symmetry_group_IT_number 10
_symmetry_cell_setting 'monoclinic'
loop_
_space_group_symop_operation_xyz
x,y,z
-x,y,-z
-x,-y,-z
x,-y,z
loop_
_atom_site_type_symbol
_atom_site_label
_atom_site_fract_x
_atom_site_fract_y
_atom_site_fract_z
Si Si1 0.673558 0.567111 0.666537
Si Si2 0.679204 0.152762 0.630888
Si Si3 0.118597 0.847899 0.028137
Si Si4 0.391215 0.069430 0.654170
Si Si5 0.352551 0.256850 0.490091
Si Si6 0.838076 0.353854 0.997894
Si Si7 0.799570 0.749136 0.884664
Si Si8 0.580043 0.388141 0.363573
O O1 0.655882 0.500000 0.712107
O O2 0.586663 0.567854 0.611841
O O3 0.000000 0.592326 0.500000
O O4 0.455698 0.609461 0.833434
O O5 0.630005 0.097692 0.592346
O O6 0.617722 0.212846 0.607731
O O7 0.000000 0.152902 0.500000
O O8 0.464002 0.144091 0.827890
O O9 0.061827 0.804206 0.137823
O O10 0.934471 0.906528 0.151705
O O11 0.000000 0.821461 0.000000
O O12 0.500000 0.084401 0.500000
O O13 0.381657 0.000000 0.676692
O O14 0.500000 0.230484 0.500000
O O15 0.503778 0.318909 0.384690
O O16 0.016198 0.269684 0.692319
O O17 0.744859 0.301427 0.984147
O O18 0.072978 0.396469 0.827636
O O19 0.000000 0.330980 0.000000
O O20 0.500000 0.768271 0.000000
O O21 0.500000 0.410119 0.500000
#
# Coordination Sequence:
#
# PCOD8066572 Si02
#       8
#     4   4   4   4   4   4   4   4
#     4  10  24  43  64  88 120 162 203 256 308 361
#     4  11  23  37  59  92 127 160 198 257 312 362
#     4  10  22  37  60  87 123 162 205 246 298 370
#     4  10  22  42  67  87 115 168 216 254 300 360
#     4  11  21  38  58  85 127 161 198 244 304 372
#     4  10  22  38  61  86 120 157 203 244 296 367
#     4  12  23  35  57  90 125 158 195 251 309 367
#     4  10  21  38  62  89 119 159 203 252 298 364
#
# _framework density 20.081409000000001
#
# number of rings (size 3 to 8) (size 9 to 14) (size 15 to 20)
#    0.000    1.500    2.500    3.750    5.250    5.500 
#    0.000    0.000    0.000    3.750    0.000    0.000 
#    0.000    0.000    0.000    0.000    0.000    0.000 
#
# Total GULP energy -396648.867752 kJ/mol
# GULP energy per Si atom -12395.277117 kJ/mol
# Density = 2.003570 g / cm^3
# Si number density = 20.081409 Si / 1000 Ang^3
#
#
#
# Elastic Constant Matrix: (Units=GPa)
#
#
# Indices 1 2 3 4 5 6 
#
# 1 58.3260 21.3541 32.8404 0.0000 -11.0104 0.0000
# 2 21.3541 74.5273 33.2788 0.0000 -3.7097 0.0000
# 3 32.8404 33.2788 142.0709 0.0000 -10.2885 0.0000
# 4 0.0000 0.0000 0.0000 27.9230 0.0000 -3.7400
# 5 -11.0104 -3.7097 -10.2885 0.0000 40.3417 0.0000
# 6 0.0000 0.0000 0.0000 -3.7400 0.0000 4.0210
#
#
#
# Elastic Compliance Matrix: (Units=1/GPa)
#
#
# Indices 1 2 3 4 5 6 
#
# 1 0.021659 -0.004345 -0.003657 0.000000 0.004579 0.000000
# 2 -0.004345 0.015867 -0.002743 0.000000 -0.000426 0.000000
# 3 -0.003657 -0.002743 0.008595 0.000000 0.000942 0.000000
# 4 0.000000 0.000000 0.000000 0.040909 0.000000 0.038051
# 5 0.004579 -0.000426 0.000942 0.000000 0.026239 0.000000
# 6 0.000000 0.000000 0.000000 0.038051 0.000000 0.284084
#
#
# Mechanical properties :
#
#
# Convention : Reuss Voigt Hill
#
# Bulk Modulus (GPa) = 40.60078 49.98565 45.29322
# Shear Modulus (GPa) = 11.70812 26.95388 19.33100
#
# Velocity S-wave (km/s) = 2.41723 3.66762 3.10600
# Velocity P-wave (km/s) = 5.29647 6.54834 5.95539
#
# Compressibility (1/GPa) = 0.02463007
#
# Stress axis : x y z
#
# Youngs Moduli (GPa) = 46.16925 63.02584 116.34838
#
# Poissons Ratio (x) = 0.27385 0.42552
# Poissons Ratio (y) = 0.20060 0.31916
# Poissons Ratio (z) = 0.16885 0.17289
#
# Static dielectric constant tensor:
#      x y z
#    x 3.686550 0.000000 0.030770 
#    y 0.000000 3.357920 0.000000 
#    z 0.030770 0.000000 4.311180 
# 
# 
# High freq. dielectric constant tensor:
#      x y z
#    x 1.777060 0.000000 0.003520 
#    y 0.000000 1.761760 0.000000 
#    z 0.003520 0.000000 1.809810 
# 
# From -- ./inp_files/62692.got.cif
#   From: 2010.06.25/outbox.cif.g09.slc.cpg/sg10_32_cif.got.tgz:62692.got - 2010.06.27 22:07:45.
