data_PCOD8066486
_publ_section_title
;
Structure prediction by ZEFSAII (Michael W. Deem and Ramdas Pophale) SiO2 
 PCOD8066486
Probable space group: P 2/M
;
_chemical_formula_sum "Si O2"
_cell_formula_units_Z 24
_cell_length_a 26.994965
_cell_length_b 8.418728
_cell_length_c 10.118870
_cell_angle_alpha 90.000000
_cell_angle_beta 147.273825
_cell_angle_gamma 90.000000
_cell_volume 1243.246219
_symmetry_space_group_name_H-M "P 2/M"
_symmetry_group_IT_number 10
_symmetry_cell_setting 'monoclinic'
loop_
_space_group_symop_operation_xyz
x,y,z
-x,y,-z
-x,-y,-z
x,-y,z
loop_
_atom_site_type_symbol
_atom_site_label
_atom_site_fract_x
_atom_site_fract_y
_atom_site_fract_z
Si Si1 0.552486 0.683788 0.483744
Si Si2 0.731947 0.814162 0.994784
Si Si3 0.554530 0.184209 0.996219
Si Si4 0.922967 0.813500 0.724737
Si Si5 0.071009 0.687041 0.548044
Si Si6 0.728984 0.316213 0.272123
O O1 0.500000 0.724097 0.500000
O O2 0.542377 0.500000 0.422455
O O3 0.508017 0.790675 0.271634
O O4 0.658536 0.729931 0.735769
O O5 0.829350 0.738075 0.177862
O O6 0.707820 0.785645 0.093895
O O7 0.733392 0.000000 0.968553
O O8 0.577433 0.000000 0.065292
O O9 0.500000 0.251242 0.000000
O O10 0.650916 0.277492 0.203795
O O11 0.954081 0.771638 0.646084
O O12 0.828837 0.725773 0.553430
O O13 0.905942 0.000000 0.697581
O O14 0.000000 0.755228 0.000000
O O15 0.067554 0.500000 0.516458
O O16 0.000000 0.743043 0.500000
O O17 0.725584 0.500000 0.224622
#
# Coordination Sequence:
#
# PCOD8066486 Si02
#       6
#     4   4   4   4   4   4
#     4  11  22  37  61  89 116 150 193 239 282 339
#     4  11  21  35  60  88 116 152 193 238 286 338
#     4  11  24  41  60  85 118 154 192 237 289 342
#     4  10  21  38  61  87 114 150 193 239 285 340
#     4  10  21  38  60  86 118 152 188 237 291 342
#     4  11  21  36  60  86 115 153 193 236 287 343
#
# _framework density 19.304302
#
# number of rings (size 3 to 8) (size 9 to 14) (size 15 to 20)
#    0.000    1.333    1.667    7.000    0.000    4.667 
#    3.000    0.000    0.000    0.000    0.000    0.000 
#    0.000    0.000    0.000    0.000    0.000    0.000 
#
# Total GULP energy -297726.562935 kJ/mol
# GULP energy per Si atom -12405.273456 kJ/mol
# Density = 1.926036 g / cm^3
# Si number density = 19.304302 Si / 1000 Ang^3
#
#
#
# Elastic Constant Matrix: (Units=GPa)
#
#
# Indices 1 2 3 4 5 6 
#
# 1 109.3270 15.0563 58.3192 0.0000 23.2224 0.0000
# 2 15.0563 41.7685 16.4226 0.0000 1.9833 0.0000
# 3 58.3192 16.4226 138.1253 0.0000 9.0688 0.0000
# 4 0.0000 0.0000 0.0000 18.8776 0.0000 7.5847
# 5 23.2224 1.9833 9.0688 0.0000 28.4141 0.0000
# 6 0.0000 0.0000 0.0000 7.5847 0.0000 25.2106
#
#
#
# Elastic Compliance Matrix: (Units=1/GPa)
#
#
# Indices 1 2 3 4 5 6 
#
# 1 0.014332 -0.002699 -0.005080 0.000000 -0.009904 0.000000
# 2 -0.002699 0.025642 -0.001978 0.000000 0.001047 0.000000
# 3 -0.005080 -0.001978 0.009538 0.000000 0.001246 0.000000
# 4 0.000000 0.000000 0.000000 0.060257 0.000000 -0.018128
# 5 -0.009904 0.001047 0.001246 0.000000 0.042817 0.000000
# 6 0.000000 0.000000 0.000000 -0.018128 0.000000 0.045120
#
#
# Mechanical properties :
#
#
# Convention : Reuss Voigt Hill
#
# Bulk Modulus (GPa) = 33.33476 52.09078 42.71277
# Shear Modulus (GPa) = 22.00512 27.79529 24.90021
#
# Velocity S-wave (km/s) = 3.37991 3.79865 3.59538
# Velocity P-wave (km/s) = 5.70415 6.80311 6.27772
#
# Compressibility (1/GPa) = 0.02999872
#
# Stress axis : x y z
#
# Youngs Moduli (GPa) = 69.77308 38.99804 104.84186
#
# Poissons Ratio (x) = 0.10524 0.53262
# Poissons Ratio (y) = 0.18829 0.20739
# Poissons Ratio (z) = 0.35446 0.07714
#
# Static dielectric constant tensor:
#      x y z
#    x 3.485420 0.000000 0.152720 
#    y 0.000000 3.537250 0.000000 
#    z 0.152720 0.000000 3.691930 
# 
# 
# High freq. dielectric constant tensor:
#      x y z
#    x 1.733960 0.000000 0.012570 
#    y 0.000000 1.765120 0.000000 
#    z 0.012570 0.000000 1.759930 
# 
# From -- ./inp_files/57324.got.cif
#   From: 2010.06.25/outbox.cif.g09.slc.cpg/sg10_29_cif.got.tgz:57324.got - 2010.06.27 22:07:45.
