data_PCOD8066868
_publ_section_title
;
Structure prediction by ZEFSAII (Michael W. Deem and Ramdas Pophale) SiO2 
 PCOD8066868
Probable space group: P 2/M
;
_chemical_formula_sum "Si O2"
_cell_formula_units_Z 28
_cell_length_a 16.865388
_cell_length_b 13.743246
_cell_length_c 8.364001
_cell_angle_alpha 90.000000
_cell_angle_beta 133.695572
_cell_angle_gamma 90.000000
_cell_volume 1401.684810
_symmetry_space_group_name_H-M "P 2/M"
_symmetry_group_IT_number 10
_symmetry_cell_setting 'monoclinic'
loop_
_space_group_symop_operation_xyz
x,y,z
-x,y,-z
-x,-y,-z
x,-y,z
loop_
_atom_site_type_symbol
_atom_site_label
_atom_site_fract_x
_atom_site_fract_y
_atom_site_fract_z
Si Si1 0.685085 0.721723 0.647331
Si Si2 0.875964 0.895918 0.383524
Si Si3 0.319100 0.890951 0.129645
Si Si4 0.885486 0.315705 0.430067
Si Si5 0.882474 0.610617 0.769498
Si Si6 0.319890 0.613707 0.036926
Si Si7 0.478832 0.238381 0.148668
O O1 0.700994 0.830278 0.737177
O O2 0.795314 0.685112 0.718383
O O3 0.652759 0.648631 0.745474
O O4 0.590517 0.726174 0.384866
O O5 0.857922 0.795031 0.454890
O O6 0.000000 0.899398 0.500000
O O7 0.851193 0.000000 0.440738
O O8 0.795976 0.889506 0.121247
O O9 0.418334 0.845895 0.164180
O O10 0.353917 0.000000 0.225086
O O11 0.884106 0.385625 0.579971
O O12 0.000000 0.318325 0.500000
O O13 0.802054 0.354328 0.180367
O O14 0.853885 0.500000 0.781110
O O15 0.000000 0.642461 0.000000
O O16 0.336997 0.500000 0.046542
O O17 0.402413 0.666145 0.029423
O O18 0.500000 0.198460 0.000000
#
# Coordination Sequence:
#
# PCOD8066868 Si02
#       7
#     4   4   4   4   4   4   4
#     4  11  23  40  62  87 123 159 202 257 307 364
#     4   9  18  34  62  92 118 151 195 244 302 360
#     4  10  21  41  66  91 121 161 205 252 306 365
#     4  11  21  37  63  90 120 161 205 251 300 362
#     4  11  25  41  60  90 127 166 205 250 306 360
#     4  11  22  38  60  86 116 158 208 255 308 359
#     4  11  24  40  59  88 121 159 203 251 307 368
#
# _framework density 19.975960000000001
#
# number of rings (size 3 to 8) (size 9 to 14) (size 15 to 20)
#    0.000    1.429    2.857    4.286    2.000    5.714 
#    0.000    0.714    0.000    0.857    0.000    0.000 
#    0.000    0.000    0.000    0.000    0.000    0.000 
#
# Total GULP energy -347098.110230 kJ/mol
# GULP energy per Si atom -12396.361080 kJ/mol
# Density = 1.993049 g / cm^3
# Si number density = 19.975960 Si / 1000 Ang^3
#
#
#
# Elastic Constant Matrix: (Units=GPa)
#
#
# Indices 1 2 3 4 5 6 
#
# 1 99.4821 45.7751 42.4100 0.0000 0.4694 0.0000
# 2 45.7751 159.3697 29.5806 0.0000 9.4174 0.0000
# 3 42.4100 29.5806 115.5649 0.0000 13.7936 0.0000
# 4 0.0000 0.0000 0.0000 -170.2400 0.0000 -136.8770
# 5 0.4694 9.4174 13.7936 0.0000 30.0292 0.0000
# 6 0.0000 0.0000 0.0000 -136.8770 0.0000 -77.0561
#
#
#
# Elastic Compliance Matrix: (Units=1/GPa)
#
#
# Indices 1 2 3 4 5 6 
#
# 1 0.013400 -0.003192 -0.004438 0.000000 0.002830 0.000000
# 2 -0.003192 0.007402 -0.000478 0.000000 -0.002052 0.000000
# 3 -0.004438 -0.000478 0.010980 0.000000 -0.004824 0.000000
# 4 0.000000 0.000000 0.000000 0.013718 0.000000 -0.024367
# 5 0.002830 -0.002052 -0.004824 0.000000 0.036116 0.000000
# 6 0.000000 0.000000 0.000000 -0.024367 0.000000 0.030306
#
#
# Mechanical properties :
#
#
# Convention : Reuss Voigt Hill
#
# Bulk Modulus (GPa) = 64.24989 67.77204 66.01097
# Shear Modulus (GPa) = 37.50194 -26.34332 5.57931
#
# Velocity S-wave (km/s) = 4.33754 -3.63540 1.67304
# Velocity P-wave (km/s) = 7.57094 4.04709 6.07034
#
# Compressibility (1/GPa) = 0.01556423
#
# Stress axis : x y z
#
# Youngs Moduli (GPa) = 74.62946 135.10602 91.07422
#
# Poissons Ratio (x) = 0.43128 0.40420
# Poissons Ratio (y) = 0.23823 0.04355
# Poissons Ratio (z) = 0.33121 0.06461
#
# Static dielectric constant tensor:
#      x y z
#    x 3.436680 0.000000 0.132300 
#    y 0.000000 4.141440 0.000000 
#    z 0.132300 0.000000 3.793270 
# 
# 
# High freq. dielectric constant tensor:
#      x y z
#    x 1.756530 0.000000 0.019640 
#    y 0.000000 1.793710 0.000000 
#    z 0.019640 0.000000 1.792310 
# 
# From -- ./inp_files/32853.got.cif
#   From: 2010.06.25/outbox.cif.g09.slc.cpg/sg10_17_cif.got.tgz:32853.got - 2010.06.27 22:07:45.
