data_PCOD8066782
_publ_section_title
;
Structure prediction by ZEFSAII (Michael W. Deem and Ramdas Pophale) SiO2 
 PCOD8066782
Probable space group: P 2/M
;
_chemical_formula_sum "Si O2"
_cell_formula_units_Z 28
_cell_length_a 5.251507
_cell_length_b 19.762766
_cell_length_c 12.796060
_cell_angle_alpha 90.000000
_cell_angle_beta 103.214265
_cell_angle_gamma 90.000000
_cell_volume 1292.866624
_symmetry_space_group_name_H-M "P 2/M"
_symmetry_group_IT_number 10
_symmetry_cell_setting 'monoclinic'
loop_
_space_group_symop_operation_xyz
x,y,z
-x,y,-z
-x,-y,-z
x,-y,z
loop_
_atom_site_type_symbol
_atom_site_label
_atom_site_fract_x
_atom_site_fract_y
_atom_site_fract_z
Si Si1 0.918421 0.576499 0.612996
Si Si2 0.790413 0.921337 0.566103
Si Si3 0.724640 0.423129 0.934304
Si Si4 0.613765 0.707269 0.614268
Si Si5 0.613596 0.787142 0.123863
Si Si6 0.158726 0.820772 0.244261
Si Si7 0.651945 0.653679 0.229764
O O1 0.827976 0.500000 0.631910
O O2 0.685899 0.629447 0.599818
O O3 0.000000 0.579600 0.500000
O O4 0.131120 0.597700 0.721905
O O5 0.500000 0.906599 0.500000
O O6 0.816027 0.885800 0.680355
O O7 0.000000 0.894071 0.500000
O O8 0.842184 0.000000 0.591393
O O9 0.777666 0.500000 0.906476
O O10 0.622772 0.384416 0.821885
O O11 0.500000 0.417235 0.000000
O O12 0.000000 0.391260 0.000000
O O13 0.500000 0.742613 0.500000
O O14 0.846799 0.753229 0.682267
O O15 0.376277 0.702716 0.673136
O O16 0.399828 0.813999 0.186779
O O17 0.696934 0.707312 0.140100
O O18 0.883031 0.828582 0.159779
O O19 0.500000 0.801137 0.000000
#
# Coordination Sequence:
#
# PCOD8066782 Si02
#       7
#     4   4   4   4   4   4   4
#     4  11  23  38  56  80 116 158 201 256 319 395
#     4  10  21  39  67 106 146 181 215 255 310 379
#     4  10  23  40  58  80 105 138 188 250 313 375
#     4  11  23  38  57  85 118 154 202 252 309 386
#     4  11  24  41  65  92 125 166 224 277 326 373
#     4  11  23  41  67  97 129 175 209 268 321 377
#     4  11  23  39  59  81 110 154 202 259 323 380
#
# _framework density 21.657299999999999
#
# number of rings (size 3 to 8) (size 9 to 14) (size 15 to 20)
#    0.000    1.286    2.857    2.571    2.000    5.429 
#    0.000    0.000    0.000    2.571    0.000    0.000 
#    0.000    0.000    0.000    0.000    0.000    0.000 
#
# Total GULP energy -347040.578283 kJ/mol
# GULP energy per Si atom -12394.306367 kJ/mol
# Density = 2.160801 g / cm^3
# Si number density = 21.657300 Si / 1000 Ang^3
#
#
#
# Elastic Constant Matrix: (Units=GPa)
#
#
# Indices 1 2 3 4 5 6 
#
# 1 116.3371 23.0143 39.5729 0.0000 13.3605 0.0000
# 2 23.0143 73.6613 37.1169 0.0000 0.3873 0.0000
# 3 39.5729 37.1169 128.6909 0.0000 18.2663 0.0000
# 4 0.0000 0.0000 0.0000 24.0480 0.0000 -1.1334
# 5 13.3605 0.3873 18.2663 0.0000 38.3498 0.0000
# 6 0.0000 0.0000 0.0000 -1.1334 0.0000 17.3163
#
#
#
# Elastic Compliance Matrix: (Units=1/GPa)
#
#
# Indices 1 2 3 4 5 6 
#
# 1 0.010008 -0.002034 -0.002144 0.000000 -0.002445 0.000000
# 2 -0.002034 0.016467 -0.004506 0.000000 0.002688 0.000000
# 3 -0.002144 -0.004506 0.010314 0.000000 -0.004120 0.000000
# 4 0.000000 0.000000 0.000000 0.041712 0.000000 0.002730
# 5 -0.002445 0.002688 -0.004120 0.000000 0.028863 0.000000
# 6 0.000000 0.000000 0.000000 0.002730 0.000000 0.057928
#
#
# Mechanical properties :
#
#
# Convention : Reuss Voigt Hill
#
# Bulk Modulus (GPa) = 51.48561 57.56637 54.52599
# Shear Modulus (GPa) = 26.43637 30.54182 28.48909
#
# Velocity S-wave (km/s) = 3.49760 3.75938 3.63085
# Velocity P-wave (km/s) = 6.33525 6.74405 6.54284
#
# Compressibility (1/GPa) = 0.01942290
#
# Stress axis : x y z
#
# Youngs Moduli (GPa) = 99.91918 60.72653 96.95395
#
# Poissons Ratio (x) = 0.12350 0.20786
# Poissons Ratio (y) = 0.20321 0.43684
# Poissons Ratio (z) = 0.21422 0.27361
#
# Static dielectric constant tensor:
#      x y z
#    x 3.819190 0.000000 0.084660 
#    y 0.000000 3.772320 0.000000 
#    z 0.084660 0.000000 4.199980 
# 
# 
# High freq. dielectric constant tensor:
#      x y z
#    x 1.851320 0.000000 0.007060 
#    y 0.000000 1.824040 0.000000 
#    z 0.007060 0.000000 1.863370 
# 
# From -- ./inp_files/39760.got.cif
#   From: 2010.06.25/outbox.cif.g09.slc.cpg/sg10_20_cif.got.tgz:39760.got - 2010.06.27 22:07:45.
