data_PCOD8066067
_publ_section_title
;
Structure prediction by ZEFSAII (Michael W. Deem and Ramdas Pophale) SiO2 
 PCOD8066067
Probable space group: P 2/M
;
_chemical_formula_sum "Si O2"
_cell_formula_units_Z 16
_cell_length_a 8.589601
_cell_length_b 7.934171
_cell_length_c 11.721786
_cell_angle_alpha 90.000000
_cell_angle_beta 90.938674
_cell_angle_gamma 90.000000
_cell_volume 798.748490
_symmetry_space_group_name_H-M "P 2/M"
_symmetry_group_IT_number 10
_symmetry_cell_setting 'monoclinic'
loop_
_space_group_symop_operation_xyz
x,y,z
-x,y,-z
-x,-y,-z
x,-y,z
loop_
_atom_site_type_symbol
_atom_site_label
_atom_site_fract_x
_atom_site_fract_y
_atom_site_fract_z
Si Si1 0.171146 0.303292 0.521174
Si Si2 0.150192 0.000000 0.154740
Si Si3 0.360143 0.183193 0.312956
Si Si4 0.327862 0.310108 0.759208
Si Si5 0.207248 0.000000 0.891189
O O1 0.164507 0.500000 0.497595
O O2 0.295197 0.229433 0.435324
O O3 0.225036 0.260103 0.648897
O O4 0.000000 0.222932 0.500000
O O5 0.218105 0.167469 0.219206
O O6 0.965254 0.000000 0.162256
O O7 0.208611 0.000000 0.026665
O O8 0.489580 0.313965 0.271893
O O9 0.442855 0.000000 0.324873
O O10 0.286061 0.500000 0.801424
O O11 0.295431 0.170921 0.855244
#
# Coordination Sequence:
#
# PCOD8066067 Si02
#       5
#     4   2   4   4   2
#     4  10  21  36  56  88 123 154 196 242 288 352
#     4   9  23  40  63  88 113 157 199 251 290 349
#     4  10  21  37  58  86 119 153 195 235 295 346
#     4  11  23  38  62  91 120 157 196 240 296 354
#     4  11  21  44  65  82 121 151 201 251 294 341
#
# _framework density 20.031336
#
# number of rings (size 3 to 8) (size 9 to 14) (size 15 to 20)
#    0.750    1.000    1.250    3.000    1.750    5.500 
#    0.000    7.500    0.000    0.000    0.000    0.000 
#    0.000    0.000    0.000    0.000    0.000    0.000 
#
# Total GULP energy -198349.718277 kJ/mol
# GULP energy per Si atom -12396.857392 kJ/mol
# Density = 1.998574 g / cm^3
# Si number density = 20.031336 Si / 1000 Ang^3
#
#
#
# Elastic Constant Matrix: (Units=GPa)
#
#
# Indices 1 2 3 4 5 6 
#
# 1 62.5154 8.2851 -5.2243 0.0000 -10.6590 0.0000
# 2 8.2851 77.6358 37.3952 0.0000 -11.0720 0.0000
# 3 -5.2243 37.3952 54.0873 0.0000 -14.3160 0.0000
# 4 0.0000 0.0000 0.0000 14.2090 0.0000 2.2156
# 5 -10.6590 -11.0720 -14.3160 0.0000 33.7209 0.0000
# 6 0.0000 0.0000 0.0000 2.2156 0.0000 28.9353
#
#
#
# Elastic Compliance Matrix: (Units=1/GPa)
#
#
# Indices 1 2 3 4 5 6 
#
# 1 0.018300 -0.004041 0.006468 0.000000 0.007204 0.000000
# 2 -0.004041 0.020222 -0.014592 0.000000 -0.000833 0.000000
# 3 0.006468 -0.014592 0.032080 0.000000 0.010873 0.000000
# 4 0.000000 0.000000 0.000000 0.071228 0.000000 -0.005454
# 5 0.007204 -0.000833 0.010873 0.000000 0.036275 0.000000
# 6 0.000000 0.000000 0.000000 -0.005454 0.000000 0.034977
#
#
# Mechanical properties :
#
#
# Convention : Reuss Voigt Hill
#
# Bulk Modulus (GPa) = 21.61092 30.57227 26.09160
# Shear Modulus (GPa) = 19.77568 25.62521 22.70045
#
# Velocity S-wave (km/s) = 3.14544 3.58055 3.37003
# Velocity P-wave (km/s) = 4.89936 5.69115 5.31003
#
# Compressibility (1/GPa) = 0.04627290
#
# Stress axis : x y z
#
# Youngs Moduli (GPa) = 54.64336 49.45196 31.17231
#
# Poissons Ratio (x) = 0.19985 -0.20164
# Poissons Ratio (y) = 0.22083 0.45486
# Poissons Ratio (z) = -0.35346 0.72159
#
# Static dielectric constant tensor:
#      x y z
#    x 3.685920 0.000000 0.045600 
#    y 0.000000 3.503330 0.000000 
#    z 0.045600 0.000000 3.431080 
# 
# 
# High freq. dielectric constant tensor:
#      x y z
#    x 1.790270 0.000000 -0.002240 
#    y 0.000000 1.772180 0.000000 
#    z -0.002240 0.000000 1.773290 
# 
# From -- ./inp_files/35541.got.cif
#   From: 2010.06.25/outbox.cif.g09.slc.cpg/sg10_18_cif.got.tgz:35541.got - 2010.06.27 22:07:45.
