data_PCOD8066188
_publ_section_title
;
Structure prediction by ZEFSAII (Michael W. Deem and Ramdas Pophale) SiO2 
 PCOD8066188
Probable space group: P 2/M
;
_chemical_formula_sum "Si O2"
_cell_formula_units_Z 32
_cell_length_a 28.807506
_cell_length_b 9.297379
_cell_length_c 11.924908
_cell_angle_alpha 90.000000
_cell_angle_beta 148.404951
_cell_angle_gamma 90.000000
_cell_volume 1673.323199
_symmetry_space_group_name_H-M "P 2/M"
_symmetry_group_IT_number 10
_symmetry_cell_setting 'monoclinic'
loop_
_space_group_symop_operation_xyz
x,y,z
-x,y,-z
-x,-y,-z
x,-y,z
loop_
_atom_site_type_symbol
_atom_site_label
_atom_site_fract_x
_atom_site_fract_y
_atom_site_fract_z
Si Si1 0.187210 0.834783 0.330297
Si Si2 0.908479 0.335033 0.261227
Si Si3 0.531248 0.334164 0.884425
Si Si4 0.232406 0.166091 0.892550
Si Si5 0.430741 0.169872 0.263824
Si Si6 0.639289 0.665892 0.324007
Si Si7 0.128236 0.162452 0.456035
Si Si8 0.048809 0.334494 0.904451
O O1 0.276943 0.762438 0.471506
O O2 0.182665 0.818402 0.454251
O O3 0.186329 0.000000 0.289910
O O4 0.102130 0.756856 0.104343
O O5 0.900990 0.500000 0.284232
O O6 0.823606 0.252285 0.131844
O O7 0.905869 0.317839 0.122776
O O8 0.000000 0.269778 0.500000
O O9 0.545346 0.500000 0.881399
O O10 0.545318 0.238614 0.805067
O O11 0.432418 0.308560 0.726605
O O12 0.600269 0.288313 0.123138
O O13 0.197227 0.196142 0.695818
O O14 0.224830 0.000000 0.909899
O O15 0.333723 0.219328 0.105141
O O16 0.500000 0.222256 0.500000
O O17 0.434098 0.000000 0.253031
O O18 0.668879 0.500000 0.381898
O O19 0.050501 0.276997 0.304963
O O20 0.089736 0.000000 0.386198
O O21 0.046278 0.500000 0.937437
#
# Coordination Sequence:
#
# PCOD8066188 Si02
#       8
#     4   4   4   4   4   4   4   4
#     4  11  23  37  55  83 118 151 187 229 280 341
#     4  10  21  39  59  82 111 143 188 241 285 334
#     4   9  19  37  61  85 112 148 190 235 284 339
#     4  10  21  37  60  86 112 149 193 236 288 341
#     4  10  22  39  57  83 120 155 192 240 287 337
#     4   9  19  37  59  85 115 146 185 235 286 337
#     4  10  21  37  56  80 112 147 187 235 283 337
#     4  11  23  38  57  81 112 149 188 234 285 336
#
# _framework density 19.123621
#
# number of rings (size 3 to 8) (size 9 to 14) (size 15 to 20)
#    0.000    2.000    1.250    2.625    0.000    7.500 
#    0.000    3.750    0.000    0.000    0.000    0.000 
#    0.000    0.000    0.000    0.000    0.000    0.000 
#
# Total GULP energy -396938.634869 kJ/mol
# GULP energy per Si atom -12404.332340 kJ/mol
# Density = 1.908009 g / cm^3
# Si number density = 19.123621 Si / 1000 Ang^3
#
#
#
# Elastic Constant Matrix: (Units=GPa)
#
#
# Indices 1 2 3 4 5 6 
#
# 1 82.3909 40.5955 33.0911 0.0000 16.4810 0.0000
# 2 40.5955 83.1248 43.8816 0.0000 13.9371 0.0000
# 3 33.0911 43.8816 102.9573 0.0000 23.4297 0.0000
# 4 0.0000 0.0000 0.0000 3.7770 0.0000 2.2042
# 5 16.4810 13.9371 23.4297 0.0000 25.8936 0.0000
# 6 0.0000 0.0000 0.0000 2.2042 0.0000 34.8941
#
#
#
# Elastic Compliance Matrix: (Units=1/GPa)
#
#
# Indices 1 2 3 4 5 6 
#
# 1 0.017176 -0.006683 -0.001263 0.000000 -0.006193 0.000000
# 2 -0.006683 0.018308 -0.005517 0.000000 -0.000609 0.000000
# 3 -0.001263 -0.005517 0.014622 0.000000 -0.009458 0.000000
# 4 0.000000 0.000000 0.000000 0.274895 0.000000 -0.017364
# 5 -0.006193 -0.000609 -0.009458 0.000000 0.051446 0.000000
# 6 0.000000 0.000000 0.000000 -0.017364 0.000000 0.029755
#
#
# Mechanical properties :
#
#
# Convention : Reuss Voigt Hill
#
# Bulk Modulus (GPa) = 43.13854 55.95657 49.54756
# Shear Modulus (GPa) = 11.34157 22.97326 17.15742
#
# Velocity S-wave (km/s) = 2.43794 3.46974 2.99855
# Velocity P-wave (km/s) = 5.52552 6.73618 6.16066
#
# Compressibility (1/GPa) = 0.02318113
#
# Stress axis : x y z
#
# Youngs Moduli (GPa) = 58.22008 54.61987 68.38946
#
# Poissons Ratio (x) = 0.36505 0.08636
# Poissons Ratio (y) = 0.38911 0.37728
# Poissons Ratio (z) = 0.07352 0.30132
#
# Static dielectric constant tensor:
#      x y z
#    x 3.421120 0.000000 0.012580 
#    y 0.000000 3.481410 0.000000 
#    z 0.012580 0.000000 3.572380 
# 
# 
# High freq. dielectric constant tensor:
#      x y z
#    x 1.747520 0.000000 0.001730 
#    y 0.000000 1.741960 0.000000 
#    z 0.001730 0.000000 1.747670 
# 
# From -- ./inp_files/58187.got.cif
#   From: 2010.06.25/outbox.cif.g09.slc.cpg/sg10_30_cif.got.tgz:58187.got - 2010.06.27 22:07:45.
