data_PCOD8066649
_publ_section_title
;
Structure prediction by ZEFSAII (Michael W. Deem and Ramdas Pophale) SiO2 
 PCOD8066649
Probable space group: P 2/M
;
_chemical_formula_sum "Si O2"
_cell_formula_units_Z 28
_cell_length_a 9.546759
_cell_length_b 8.851042
_cell_length_c 26.330924
_cell_angle_alpha 90.000000
_cell_angle_beta 138.015668
_cell_angle_gamma 90.000000
_cell_volume 1488.316928
_symmetry_space_group_name_H-M "P 2/M"
_symmetry_group_IT_number 10
_symmetry_cell_setting 'monoclinic'
loop_
_space_group_symop_operation_xyz
x,y,z
-x,y,-z
-x,-y,-z
x,-y,z
loop_
_atom_site_type_symbol
_atom_site_label
_atom_site_fract_x
_atom_site_fract_y
_atom_site_fract_z
Si Si1 0.363951 0.177263 0.011873
Si Si2 0.726009 0.176978 0.296403
Si Si3 0.446690 0.677984 0.408134
Si Si4 0.411828 0.325884 0.285503
Si Si5 0.833787 0.678749 0.576610
Si Si6 0.550213 0.321842 0.859231
Si Si7 0.924722 0.327852 0.886893
O O1 0.454250 0.262142 0.084977
O O2 0.383266 0.000000 0.026284
O O3 0.500000 0.228829 0.000000
O O4 0.122149 0.218540 0.938789
O O5 0.576466 0.220221 0.302222
O O6 0.648958 0.254083 0.223630
O O7 0.953960 0.231819 0.373606
O O8 0.724008 0.000000 0.287262
O O9 0.428115 0.500000 0.404939
O O10 0.394444 0.737942 0.337897
O O11 0.681236 0.722872 0.488642
O O12 0.273860 0.739795 0.400701
O O13 0.490227 0.500000 0.305077
O O14 0.187104 0.313561 0.197788
O O15 0.877677 0.500000 0.589922
O O16 0.523775 0.500000 0.851734
O O17 0.766384 0.276319 0.889056
O O18 0.998967 0.500000 0.916798
#
# Coordination Sequence:
#
# PCOD8066649 Si02
#       7
#     4   4   4   4   4   4   4
#     4  11  24  38  53  80 116 146 173 209 258 316
#     4  11  22  35  52  79 111 141 174 215 267 323
#     4   8  16  32  56  80 103 137 184 228 264 309
#     4   9  18  35  56  79 105 136 178 225 266 308
#     4   9  17  33  55  79 106 140 181 223 267 314
#     4  10  21  39  61  81 102 135 181 225 263 309
#     4   9  19  35  56  80 104 135 180 226 265 310
#
# _framework density 18.813196999999999
#
# number of rings (size 3 to 8) (size 9 to 14) (size 15 to 20)
#    0.000    2.429    0.000    4.286    0.000    7.429 
#    0.000    7.143    0.000    0.000    0.000    0.000 
#    0.000    0.000    0.000    0.000    0.000    0.000 
#
# Total GULP energy -347205.281241 kJ/mol
# GULP energy per Si atom -12400.188616 kJ/mol
# Density = 1.877038 g / cm^3
# Si number density = 18.813197 Si / 1000 Ang^3
#
#
#
# Elastic Constant Matrix: (Units=GPa)
#
#
# Indices 1 2 3 4 5 6 
#
# 1 49.6848 15.6123 14.2724 0.0000 -23.9824 0.0000
# 2 15.6123 62.0829 12.4030 0.0000 -4.0225 0.0000
# 3 14.2724 12.4030 52.3174 0.0000 -20.4795 0.0000
# 4 0.0000 0.0000 0.0000 -2.0545 0.0000 -4.8660
# 5 -23.9824 -4.0225 -20.4795 0.0000 37.8176 0.0000
# 6 0.0000 0.0000 0.0000 -4.8660 0.0000 21.2552
#
#
#
# Elastic Compliance Matrix: (Units=1/GPa)
#
#
# Indices 1 2 3 4 5 6 
#
# 1 0.031556 -0.006802 0.000703 0.000000 0.019669 0.000000
# 2 -0.006802 0.018381 -0.004347 0.000000 -0.004712 0.000000
# 3 0.000703 -0.004347 0.025312 0.000000 0.013691 0.000000
# 4 0.000000 0.000000 0.000000 -0.315605 0.000000 -0.072252
# 5 0.019669 -0.004712 0.013691 0.000000 0.045829 0.000000
# 6 0.000000 0.000000 0.000000 -0.072252 0.000000 0.030506
#
#
# Mechanical properties :
#
#
# Convention : Reuss Voigt Hill
#
# Bulk Modulus (GPa) = 18.39622 27.62894 23.01258
# Shear Modulus (GPa) = -39.99654 19.52348 -10.23653
#
# Velocity S-wave (km/s) = -4.61584 3.22491 -2.33516
# Velocity P-wave (km/s) = 4.31374 5.34645 2.23340
#
# Compressibility (1/GPa) = 0.05435900
#
# Stress axis : x y z
#
# Youngs Moduli (GPa) = 31.68951 54.40390 39.50696
#
# Poissons Ratio (x) = 0.37004 -0.02778
# Poissons Ratio (y) = 0.21554 0.17172
# Poissons Ratio (z) = -0.02229 0.23647
#
# Static dielectric constant tensor:
#      x y z
#    x 3.667180 0.000000 -0.269370 
#    y 0.000000 3.226390 0.000000 
#    z -0.269370 0.000000 3.659350 
# 
# 
# High freq. dielectric constant tensor:
#      x y z
#    x 1.725750 0.000000 -0.006820 
#    y 0.000000 1.712260 0.000000 
#    z -0.006820 0.000000 1.741490 
# 
# From -- ./inp_files/91892.got.cif
#   From: 2010.06.25/outbox.cif.g09.slc.cpg/sg10_46_cif.got.tgz:91892.got - 2010.06.27 22:07:45.
