data_PCOD8066417
_publ_section_title
;
Structure prediction by ZEFSAII (Michael W. Deem and Ramdas Pophale) SiO2 
 PCOD8066417
Probable space group: P 2/M
;
_chemical_formula_sum "Si O2"
_cell_formula_units_Z 32
_cell_length_a 23.281812
_cell_length_b 8.883413
_cell_length_c 17.289491
_cell_angle_alpha 90.000000
_cell_angle_beta 148.391281
_cell_angle_gamma 90.000000
_cell_volume 1874.156496
_symmetry_space_group_name_H-M "P 2/M"
_symmetry_group_IT_number 10
_symmetry_cell_setting 'monoclinic'
loop_
_space_group_symop_operation_xyz
x,y,z
-x,y,-z
-x,-y,-z
x,-y,z
loop_
_atom_site_type_symbol
_atom_site_label
_atom_site_fract_x
_atom_site_fract_y
_atom_site_fract_z
Si Si1 0.744858 0.323402 0.161681
Si Si2 0.919677 0.824142 0.259242
Si Si3 0.705104 0.176490 0.402729
Si Si4 0.816332 0.323812 0.663482
Si Si5 0.037938 0.175284 0.866889
Si Si6 0.143076 0.322756 0.549334
Si Si7 0.521426 0.175627 0.936552
Si Si8 0.872933 0.166400 0.875723
O O1 0.755191 0.500000 0.158354
O O2 0.807106 0.234648 0.165881
O O3 0.794758 0.276822 0.301383
O O4 0.618951 0.274180 0.013846
O O5 0.912599 0.789393 0.159927
O O6 0.019403 0.736236 0.413684
O O7 0.934663 0.000000 0.292962
O O8 0.718423 0.244218 0.503841
O O9 0.797684 0.245744 0.454361
O O10 0.584867 0.217344 0.235027
O O11 0.725555 0.000000 0.427846
O O12 0.801849 0.500000 0.639744
O O13 0.807715 0.278326 0.744196
O O14 0.930888 0.275346 0.757015
O O15 0.003741 0.000000 0.836433
O O16 0.131015 0.215908 0.038246
O O17 0.142478 0.500000 0.535464
O O18 0.551749 0.000000 0.966018
O O19 0.500000 0.223739 0.000000
O O20 0.822412 0.000000 0.806830
O O21 0.000000 0.166148 0.000000
#
# Coordination Sequence:
#
# PCOD8066417 Si02
#       8
#     4   4   4   4   4   4   4   4
#     4  11  24  38  53  74 105 138 172 216 264 309
#     4  11  22  35  54  76 103 140 180 214 250 302
#     4  11  21  34  54  76 101 135 173 214 259 305
#     4  11  20  29  46  74 106 135 167 208 252 307
#     4   9  18  32  49  71 100 137 173 208 251 301
#     4  11  22  35  51  75 105 137 172 212 260 308
#     4  10  21  38  58  77  97 128 176 223 258 303
#     4   8  15  29  47  67  98 135 169 204 247 302
#
# _framework density 17.074348000000001
#
# number of rings (size 3 to 8) (size 9 to 14) (size 15 to 20)
#    0.000    1.750    2.500    3.750    0.000    7.000 
#    0.000    0.000    0.000    0.000    0.000    0.875 
#    0.000    7.000    0.000    0.000    0.000    0.000 
#
# Total GULP energy -396858.311759 kJ/mol
# GULP energy per Si atom -12401.822242 kJ/mol
# Density = 1.703549 g / cm^3
# Si number density = 17.074348 Si / 1000 Ang^3
#
#
#
# Elastic Constant Matrix: (Units=GPa)
#
#
# Indices 1 2 3 4 5 6 
#
# 1 57.2247 30.3090 52.3542 0.0000 -6.5970 0.0000
# 2 30.3090 75.8022 47.3070 0.0000 -7.6768 0.0000
# 3 52.3542 47.3070 105.6167 0.0000 -14.3603 0.0000
# 4 0.0000 0.0000 0.0000 23.6526 0.0000 -0.0369
# 5 -6.5970 -7.6768 -14.3603 0.0000 27.3446 0.0000
# 6 0.0000 0.0000 0.0000 -0.0369 0.0000 18.7056
#
#
#
# Elastic Compliance Matrix: (Units=1/GPa)
#
#
# Indices 1 2 3 4 5 6 
#
# 1 0.032902 -0.004152 -0.014569 0.000000 -0.000879 0.000000
# 2 -0.004152 0.018855 -0.006250 0.000000 0.001010 0.000000
# 3 -0.014569 -0.006250 0.020217 0.000000 0.005347 0.000000
# 4 0.000000 0.000000 0.000000 0.042279 0.000000 0.000083
# 5 -0.000879 0.001010 0.005347 0.000000 0.039450 0.000000
# 6 0.000000 0.000000 0.000000 0.000083 0.000000 0.053460
#
#
# Mechanical properties :
#
#
# Convention : Reuss Voigt Hill
#
# Bulk Modulus (GPa) = 45.39043 55.39823 50.39433
# Shear Modulus (GPa) = 18.90720 21.18545 20.04632
#
# Velocity S-wave (km/s) = 3.33129 3.52629 3.43017
# Velocity P-wave (km/s) = 6.43726 7.00681 6.72806
#
# Compressibility (1/GPa) = 0.02203108
#
# Stress axis : x y z
#
# Youngs Moduli (GPa) = 30.39313 53.03571 49.46404
#
# Poissons Ratio (x) = 0.22022 0.72066
# Poissons Ratio (y) = 0.12620 0.30915
# Poissons Ratio (z) = 0.44281 0.33147
#
# Static dielectric constant tensor:
#      x y z
#    x 3.186200 0.000000 -0.375540 
#    y 0.000000 3.192700 0.000000 
#    z -0.375540 0.000000 3.291710 
# 
# 
# High freq. dielectric constant tensor:
#      x y z
#    x 1.638290 0.000000 -0.027450 
#    y 0.000000 1.666470 0.000000 
#    z -0.027450 0.000000 1.649190 
# 
# From -- ./inp_files/56464.got.cif
#   From: 2010.06.25/outbox.cif.g09.slc.cpg/sg10_29_cif.got.tgz:56464.got - 2010.06.27 22:07:45.
