data_PCOD8066181
_publ_section_title
;
Structure prediction by ZEFSAII (Michael W. Deem and Ramdas Pophale) SiO2 
 PCOD8066181
Probable space group: P 2/M
;
_chemical_formula_sum "Si O2"
_cell_formula_units_Z 28
_cell_length_a 26.022595
_cell_length_b 9.085861
_cell_length_c 9.528544
_cell_angle_alpha 90.000000
_cell_angle_beta 137.919174
_cell_angle_gamma 90.000000
_cell_volume 1509.849235
_symmetry_space_group_name_H-M "P 2/M"
_symmetry_group_IT_number 10
_symmetry_cell_setting 'monoclinic'
loop_
_space_group_symop_operation_xyz
x,y,z
-x,y,-z
-x,-y,-z
x,-y,z
loop_
_atom_site_type_symbol
_atom_site_label
_atom_site_fract_x
_atom_site_fract_y
_atom_site_fract_z
Si Si1 0.000396 0.169586 0.663475
Si Si2 0.878446 0.325211 0.900791
Si Si3 0.427591 0.330487 0.172839
Si Si4 0.721930 0.831580 0.630577
Si Si5 0.863828 0.170718 0.586982
Si Si6 0.306712 0.166102 0.746232
Si Si7 0.401427 0.328810 0.439060
O O1 0.915258 0.193756 0.553568
O O2 0.000000 0.214508 0.500000
O O3 0.026147 0.000000 0.735135
O O4 0.057432 0.276552 0.859437
O O5 0.876118 0.500000 0.886625
O O6 0.797952 0.265613 0.794047
O O7 0.898674 0.260667 0.788374
O O8 0.428345 0.500000 0.136735
O O9 0.393273 0.303875 0.256812
O O10 0.515010 0.272916 0.340918
O O11 0.375069 0.255576 0.951713
O O12 0.683891 0.819207 0.401147
O O13 0.662220 0.772142 0.621370
O O14 0.742892 0.000000 0.709048
O O15 0.777458 0.226094 0.378285
O O16 0.860339 0.000000 0.627491
O O17 0.315614 0.000000 0.816418
O O18 0.389119 0.500000 0.452600
#
# Coordination Sequence:
#
# PCOD8066181 Si02
#       7
#     4   4   4   4   4   4   4
#     4  10  21  37  57  81 110 144 180 217 261 313
#     4  11  22  36  56  81 108 139 177 220 266 317
#     4   9  19  35  54  76 107 144 177 213 263 319
#     4  10  21  37  56  79 106 138 177 220 266 315
#     4   9  19  37  57  77 106 143 179 217 262 313
#     4   9  19  34  52  77 106 136 178 225 263 306
#     4   9  19  36  54  76 107 142 179 217 261 315
#
# _framework density 18.544899000000001
#
# number of rings (size 3 to 8) (size 9 to 14) (size 15 to 20)
#    0.000    2.429    0.000    3.857    0.000    8.286 
#    0.000    5.714    0.000    0.000    0.000    0.000 
#    0.000    0.000    0.000    0.000    0.000    0.000 
#
# Total GULP energy -347225.524888 kJ/mol
# GULP energy per Si atom -12400.911603 kJ/mol
# Density = 1.850269 g / cm^3
# Si number density = 18.544899 Si / 1000 Ang^3
#
#
#
# Elastic Constant Matrix: (Units=GPa)
#
#
# Indices 1 2 3 4 5 6 
#
# 1 84.3628 22.9996 -8.5088 0.0000 -1.1916 0.0000
# 2 22.9996 68.8241 8.1640 0.0000 -0.4377 0.0000
# 3 -8.5088 8.1640 27.4399 0.0000 3.3948 0.0000
# 4 0.0000 0.0000 0.0000 36.2278 0.0000 0.7689
# 5 -1.1916 -0.4377 3.3948 0.0000 15.6663 0.0000
# 6 0.0000 0.0000 0.0000 0.7689 0.0000 32.8596
#
#
#
# Elastic Compliance Matrix: (Units=1/GPa)
#
#
# Indices 1 2 3 4 5 6 
#
# 1 0.013909 -0.005357 0.005954 0.000000 -0.000382 0.000000
# 2 -0.005357 0.017156 -0.006961 0.000000 0.001580 0.000000
# 3 0.005954 -0.006961 0.041440 0.000000 -0.008721 0.000000
# 4 0.000000 0.000000 0.000000 0.027617 0.000000 -0.000646
# 5 -0.000382 0.001580 -0.008721 0.000000 0.065736 0.000000
# 6 0.000000 0.000000 0.000000 -0.000646 0.000000 0.030448
#
#
# Mechanical properties :
#
#
# Convention : Reuss Voigt Hill
#
# Bulk Modulus (GPa) = 16.72878 25.10403 20.91641
# Shear Modulus (GPa) = 21.83806 27.48221 24.66013
#
# Velocity S-wave (km/s) = 3.43531 3.85376 3.65053
# Velocity P-wave (km/s) = 4.97749 5.77652 5.39183
#
# Compressibility (1/GPa) = 0.05977723
#
# Stress axis : x y z
#
# Youngs Moduli (GPa) = 71.89531 58.28967 24.13154
#
# Poissons Ratio (x) = 0.31225 -0.14368
# Poissons Ratio (y) = 0.38513 0.16797
# Poissons Ratio (z) = -0.42807 0.40574
#
# Static dielectric constant tensor:
#      x y z
#    x 3.449130 0.000000 0.097170 
#    y 0.000000 3.336160 0.000000 
#    z 0.097170 0.000000 3.370210 
# 
# 
# High freq. dielectric constant tensor:
#      x y z
#    x 1.725700 0.000000 0.006810 
#    y 0.000000 1.713930 0.000000 
#    z 0.006810 0.000000 1.715980 
# 
# From -- ./inp_files/37091.got.cif
#   From: 2010.06.25/outbox.cif.g09.slc.cpg/sg10_19_cif.got.tgz:37091.got - 2010.06.27 22:07:45.
