data_PCOD8066105
_publ_section_title
;
Structure prediction by ZEFSAII (Michael W. Deem and Ramdas Pophale) SiO2 
 PCOD8066105
Probable space group: P 2/M
;
_chemical_formula_sum "Si O2"
_cell_formula_units_Z 32
_cell_length_a 11.300369
_cell_length_b 14.042525
_cell_length_c 9.342196
_cell_angle_alpha 90.000000
_cell_angle_beta 94.925814
_cell_angle_gamma 90.000000
_cell_volume 1476.997844
_symmetry_space_group_name_H-M "P 2/M"
_symmetry_group_IT_number 10
_symmetry_cell_setting 'monoclinic'
loop_
_space_group_symop_operation_xyz
x,y,z
-x,y,-z
-x,-y,-z
x,-y,z
loop_
_atom_site_type_symbol
_atom_site_label
_atom_site_fract_x
_atom_site_fract_y
_atom_site_fract_z
Si Si1 0.278021 0.109179 0.326188
Si Si2 0.943002 0.260168 0.343016
Si Si3 0.659414 0.610775 0.939153
Si Si4 0.148071 0.609528 0.261697
Si Si5 0.425988 0.694000 0.787098
Si Si6 0.282234 0.709420 0.519044
Si Si7 0.972743 0.889869 0.837767
Si Si8 0.487994 0.102780 0.830674
O O1 0.295928 0.182632 0.459949
O O2 0.160174 0.137906 0.225626
O O3 0.384141 0.120647 0.226306
O O4 0.269808 0.000000 0.383542
O O5 0.812207 0.297982 0.359994
O O6 0.000000 0.234392 0.500000
O O7 0.024730 0.334543 0.263483
O O8 0.933410 0.163363 0.252931
O O9 0.624878 0.500000 0.927743
O O10 0.789989 0.628765 0.885880
O O11 0.561977 0.668436 0.836412
O O12 0.659417 0.644826 0.103875
O O13 0.115517 0.500000 0.278980
O O14 0.245735 0.637990 0.390240
O O15 0.397559 0.669086 0.617225
O O16 0.403899 0.808414 0.786580
O O17 0.998923 0.000000 0.823297
O O18 0.000000 0.855093 0.000000
O O19 0.436723 0.000000 0.770811
O O20 0.500000 0.098027 0.000000
#
# Coordination Sequence:
#
# PCOD8066105 Si02
#       8
#     4   4   4   4   4   4   4   4
#     4  10  21  39  60  87 128 164 201 251 300 358
#     4  10  21  39  58  88 125 160 200 246 305 366
#     4  10  22  42  64  88 120 159 201 256 318 364
#     4  10  22  41  65  87 118 160 202 251 310 368
#     4  11  22  38  62  90 123 161 202 253 302 364
#     4  11  24  38  60  93 121 163 205 245 305 361
#     4  10  21  37  62  90 118 158 204 252 300 353
#     4  10  21  36  58  88 121 162 203 245 299 354
#
# _framework density 21.665569000000001
#
# number of rings (size 3 to 8) (size 9 to 14) (size 15 to 20)
#    0.000    1.750    3.750    1.500    0.000    8.500 
#    0.000    3.750    0.000    1.875    0.000    0.000 
#    0.000    0.000    0.000    0.000    0.000    0.000 
#
# Total GULP energy -396604.985141 kJ/mol
# GULP energy per Si atom -12393.905786 kJ/mol
# Density = 2.161626 g / cm^3
# Si number density = 21.665569 Si / 1000 Ang^3
#
#
#
# Elastic Constant Matrix: (Units=GPa)
#
#
# Indices 1 2 3 4 5 6 
#
# 1 38.0976 24.6929 38.5252 0.0000 -19.3507 0.0000
# 2 24.6929 97.3790 37.9678 0.0000 -16.7202 0.0000
# 3 38.5252 37.9678 88.5051 0.0000 -8.7102 0.0000
# 4 0.0000 0.0000 0.0000 26.3088 0.0000 -6.3767
# 5 -19.3507 -16.7202 -8.7102 0.0000 42.9461 0.0000
# 6 0.0000 0.0000 0.0000 -6.3767 0.0000 69.1314
#
#
#
# Elastic Compliance Matrix: (Units=1/GPa)
#
#
# Indices 1 2 3 4 5 6 
#
# 1 0.064812 -0.002830 -0.024726 0.000000 0.023086 0.000000
# 2 -0.002830 0.013096 -0.004092 0.000000 0.002994 0.000000
# 3 -0.024726 -0.004092 0.023023 0.000000 -0.008064 0.000000
# 4 0.000000 0.000000 0.000000 0.038879 0.000000 0.003586
# 5 0.023086 0.002994 -0.008064 0.000000 0.033217 0.000000
# 6 0.000000 0.000000 0.000000 0.003586 0.000000 0.014796
#
#
# Mechanical properties :
#
#
# Convention : Reuss Voigt Hill
#
# Bulk Modulus (GPa) = 26.57005 47.37262 36.97134
# Shear Modulus (GPa) = 18.96348 35.86365 27.41356
#
# Velocity S-wave (km/s) = 2.96173 4.07299 3.56097
# Velocity P-wave (km/s) = 4.89756 6.63565 5.83172
#
# Compressibility (1/GPa) = 0.03763636
#
# Stress axis : x y z
#
# Youngs Moduli (GPa) = 15.42919 76.35845 43.43445
#
# Poissons Ratio (x) = 0.21612 1.07395
# Poissons Ratio (y) = 0.04367 0.17771
# Poissons Ratio (z) = 0.38150 0.31242
#
# Static dielectric constant tensor:
#      x y z
#    x 4.021860 0.000000 -0.168090 
#    y 0.000000 4.190260 0.000000 
#    z -0.168090 0.000000 3.940840 
# 
# 
# High freq. dielectric constant tensor:
#      x y z
#    x 1.834810 0.000000 -0.017230 
#    y 0.000000 1.859230 0.000000 
#    z -0.017230 0.000000 1.851860 
# 
# From -- ./inp_files/25328.got.cif
#   From: 2010.06.25/outbox.cif.g09.slc.cpg/sg10_13_cif.got.tgz:25328.got - 2010.06.27 22:07:45.
