data_PCOD8066039
_publ_section_title
;
Structure prediction by ZEFSAII (Michael W. Deem and Ramdas Pophale) SiO2 
 PCOD8066039
Probable space group: P 2/M
;
_chemical_formula_sum "Si O2"
_cell_formula_units_Z 28
_cell_length_a 9.301545
_cell_length_b 11.642922
_cell_length_c 14.817702
_cell_angle_alpha 90.000000
_cell_angle_beta 62.130915
_cell_angle_gamma 90.000000
_cell_volume 1418.596993
_symmetry_space_group_name_H-M "P 2/M"
_symmetry_group_IT_number 10
_symmetry_cell_setting 'monoclinic'
loop_
_space_group_symop_operation_xyz
x,y,z
-x,y,-z
-x,-y,-z
x,-y,z
loop_
_atom_site_type_symbol
_atom_site_label
_atom_site_fract_x
_atom_site_fract_y
_atom_site_fract_z
Si Si1 0.000248 0.000000 0.652158
Si Si2 0.947238 0.629121 0.914119
Si Si3 0.485322 0.797535 0.609918
Si Si4 0.273012 0.000000 0.419195
Si Si5 0.601397 0.634632 0.718875
Si Si6 0.971640 0.365534 0.608569
Si Si7 0.112517 0.781859 0.716889
Si Si8 0.402785 0.636983 0.944826
O O1 0.004175 0.109566 0.717576
O O2 0.835625 0.000000 0.640175
O O3 0.158166 0.000000 0.540873
O O4 0.947350 0.500000 0.868867
O O5 0.049580 0.718620 0.825289
O O6 0.772157 0.685368 0.979039
O O7 0.000000 0.614467 0.000000
O O8 0.500000 0.783972 0.500000
O O9 0.605344 0.892880 0.614954
O O10 0.543914 0.680678 0.639316
O O11 0.295514 0.822643 0.685101
O O12 0.582637 0.500000 0.716829
O O13 0.787082 0.665232 0.691126
O O14 0.481597 0.686948 0.830175
O O15 0.007087 0.500000 0.599446
O O16 0.000000 0.315123 0.500000
O O17 0.101317 0.307903 0.637362
O O18 0.400647 0.500000 0.938478
O O19 0.500000 0.684221 0.000000
#
# Coordination Sequence:
#
# PCOD8066039 Si02
#       8
#     2   4   4   2   4   4   4   4
#     4  11  25  42  68  87 112 153 207 254 304 355
#     4  10  21  38  60  89 125 162 198 241 297 361
#     4  12  23  38  59  86 121 156 196 245 293 358
#     4  11  24  45  64  84 114 156 204 255 293 358
#     4  10  21  36  56  87 125 163 201 244 299 356
#     4  10  21  36  55  86 128 167 203 245 298 362
#     4  12  23  37  62  91 119 158 202 251 304 360
#     4   9  17  32  55  81 111 152 201 246 285 337
#
# _framework density 19.737812000000002
#
# number of rings (size 3 to 8) (size 9 to 14) (size 15 to 20)
#    0.000    1.429    1.429    4.500    2.000    4.857 
#    0.000    0.357    0.000    0.857    0.000    6.000 
#    0.000    0.000    0.000    0.000    0.000    0.000 
#
# Total GULP energy -347031.472488 kJ/mol
# GULP energy per Si atom -12393.981160 kJ/mol
# Density = 1.969289 g / cm^3
# Si number density = 19.737812 Si / 1000 Ang^3
#
#
#
# Elastic Constant Matrix: (Units=GPa)
#
#
# Indices 1 2 3 4 5 6 
#
# 1 130.9542 43.6401 39.8502 0.0000 -12.1711 0.0000
# 2 43.6401 62.1605 53.5160 0.0000 1.7965 0.0000
# 3 39.8502 53.5160 109.4588 0.0000 -15.1718 0.0000
# 4 0.0000 0.0000 0.0000 20.1163 0.0000 5.6673
# 5 -12.1711 1.7965 -15.1718 0.0000 29.9415 0.0000
# 6 0.0000 0.0000 0.0000 5.6673 0.0000 27.3689
#
#
#
# Elastic Compliance Matrix: (Units=1/GPa)
#
#
# Indices 1 2 3 4 5 6 
#
# 1 0.010664 -0.008531 0.001033 0.000000 0.005370 0.000000
# 2 -0.008531 0.037178 -0.017059 0.000000 -0.014342 0.000000
# 3 0.001033 -0.017059 0.018607 0.000000 0.010872 0.000000
# 4 0.000000 0.000000 0.000000 0.052791 0.000000 -0.010931
# 5 0.005370 -0.014342 0.010872 0.000000 0.041951 0.000000
# 6 0.000000 0.000000 0.000000 -0.010931 0.000000 0.038801
#
#
# Mechanical properties :
#
#
# Convention : Reuss Voigt Hill
#
# Bulk Modulus (GPa) = 57.68786 64.06512 60.87649
# Shear Modulus (GPa) = 19.61676 26.52315 23.06996
#
# Velocity S-wave (km/s) = 3.15599 3.66973 3.42251
# Velocity P-wave (km/s) = 6.52464 7.10524 6.82112
#
# Compressibility (1/GPa) = 0.01733467
#
# Stress axis : x y z
#
# Youngs Moduli (GPa) = 93.77305 26.89778 53.74325
#
# Poissons Ratio (x) = 0.22947 -0.05552
# Poissons Ratio (y) = 0.80001 0.91679
# Poissons Ratio (z) = -0.09687 0.45884
#
# Static dielectric constant tensor:
#      x y z
#    x 3.850590 0.000000 -0.110810 
#    y 0.000000 3.431200 0.000000 
#    z -0.110810 0.000000 3.711190 
# 
# 
# High freq. dielectric constant tensor:
#      x y z
#    x 1.789540 0.000000 -0.000890 
#    y 0.000000 1.741740 0.000000 
#    z -0.000890 0.000000 1.767680 
# 
# From -- ./inp_files/28538.got.cif
#   From: 2010.06.25/outbox.cif.g09.slc.cpg/sg10_15_cif.got.tgz:28538.got - 2010.06.27 22:07:45.
