data_PCOD8066957
_publ_section_title
;
Structure prediction by ZEFSAII (Michael W. Deem and Ramdas Pophale) SiO2 
 PCOD8066957
Probable space group: P 2/M
;
_chemical_formula_sum "Si O2"
_cell_formula_units_Z 32
_cell_length_a 21.714540
_cell_length_b 8.933318
_cell_length_c 12.327584
_cell_angle_alpha 90.000000
_cell_angle_beta 46.469738
_cell_angle_gamma 90.000000
_cell_volume 1733.747367
_symmetry_space_group_name_H-M "P 2/M"
_symmetry_group_IT_number 10
_symmetry_cell_setting 'monoclinic'
loop_
_space_group_symop_operation_xyz
x,y,z
-x,y,-z
-x,-y,-z
x,-y,z
loop_
_atom_site_type_symbol
_atom_site_label
_atom_site_fract_x
_atom_site_fract_y
_atom_site_fract_z
Si Si1 0.733346 0.828087 0.850171
Si Si2 0.020488 0.327094 0.237314
Si Si3 0.282957 0.676360 0.454243
Si Si4 0.227705 0.677247 0.748403
Si Si5 0.075103 0.837397 0.832776
Si Si6 0.595527 0.322191 0.877775
Si Si7 0.145176 0.672625 0.451926
Si Si8 0.199976 0.172357 0.998716
O O1 0.649971 0.741239 0.911342
O O2 0.819963 0.765163 0.692278
O O3 0.738634 0.808081 0.973040
O O4 0.724434 0.000000 0.827610
O O5 0.041506 0.500000 0.188603
O O6 0.108769 0.241548 0.140368
O O7 0.959243 0.261988 0.221783
O O8 0.957440 0.309245 0.418153
O O9 0.284056 0.500000 0.460036
O O10 0.286280 0.734750 0.575458
O O11 0.363572 0.732640 0.286257
O O12 0.195394 0.727859 0.500744
O O13 0.231672 0.500000 0.757924
O O14 0.134063 0.730897 0.833266
O O15 0.249738 0.750983 0.837735
O O16 0.115521 0.000000 0.746809
O O17 0.000000 0.884904 0.000000
O O18 0.596830 0.500000 0.885705
O O19 0.500000 0.259186 0.000000
O O20 0.169920 0.500000 0.402212
O O21 0.183894 0.000000 0.988848
#
# Coordination Sequence:
#
# PCOD8066957 Si02
#       8
#     4   4   4   4   4   4   4   4
#     4  10  22  38  55  76 107 142 174 213 261 320
#     4  11  21  33  51  73  98 137 187 232 270 307
#     4   8  15  30  51  80 110 130 160 213 263 305
#     4  11  20  32  52  74 101 139 183 222 261 309
#     4  11  21  31  45  69 102 138 179 229 273 307
#     4   9  18  36  64  91 111 131 159 204 262 319
#     4   9  18  34  53  74 103 135 177 230 271 308
#     4  11  24  38  48  69 106 145 185 224 264 308
#
# _framework density 18.457129999999999
#
# number of rings (size 3 to 8) (size 9 to 14) (size 15 to 20)
#    0.000    2.000    2.500    2.625    0.000    4.250 
#    0.000    3.125    0.000    0.750    0.000    5.250 
#    0.000    0.000    0.000    0.000    0.000    0.000 
#
# Total GULP energy -396483.635204 kJ/mol
# GULP energy per Si atom -12390.113600 kJ/mol
# Density = 1.841512 g / cm^3
# Si number density = 18.457130 Si / 1000 Ang^3
#
#
#
# Elastic Constant Matrix: (Units=GPa)
#
#
# Indices 1 2 3 4 5 6 
#
# 1 66.5529 36.9423 55.3320 0.0000 8.9512 0.0000
# 2 36.9423 85.9134 39.8720 0.0000 5.7436 0.0000
# 3 55.3320 39.8720 117.3070 0.0000 1.8175 0.0000
# 4 0.0000 0.0000 0.0000 8.7501 0.0000 17.9631
# 5 8.9512 5.7436 1.8175 0.0000 28.3277 0.0000
# 6 0.0000 0.0000 0.0000 17.9631 0.0000 15.1460
#
#
#
# Elastic Compliance Matrix: (Units=1/GPa)
#
#
# Indices 1 2 3 4 5 6 
#
# 1 0.029198 -0.006814 -0.011346 0.000000 -0.007117 0.000000
# 2 -0.006814 0.015589 -0.002071 0.000000 -0.000875 0.000000
# 3 -0.011346 -0.002071 0.014533 0.000000 0.003073 0.000000
# 4 0.000000 0.000000 0.000000 -0.079655 0.000000 0.094470
# 5 -0.007117 -0.000875 0.003073 0.000000 0.037530 0.000000
# 6 0.000000 0.000000 0.000000 0.094470 0.000000 -0.046018
#
#
# Mechanical properties :
#
#
# Convention : Reuss Voigt Hill
#
# Bulk Modulus (GPa) = 53.02739 59.34065 56.18402
# Shear Modulus (GPa) = 278.92556 19.61990 149.27273
#
# Velocity S-wave (km/s) = 12.30645 3.26390 9.00283
# Velocity P-wave (km/s) = 15.18961 6.81355 11.77176
#
# Compressibility (1/GPa) = 0.01885818
#
# Stress axis : x y z
#
# Youngs Moduli (GPa) = 34.24883 64.14710 68.80961
#
# Poissons Ratio (x) = 0.43707 0.78072
# Poissons Ratio (y) = 0.23336 0.14252
# Poissons Ratio (z) = 0.38859 0.13287
#
# Static dielectric constant tensor:
#      x y z
#    x 3.120580 0.000000 0.171390 
#    y 0.000000 3.384910 0.000000 
#    z 0.171390 0.000000 3.756580 
# 
# 
# High freq. dielectric constant tensor:
#      x y z
#    x 1.680330 0.000000 0.019000 
#    y 0.000000 1.718160 0.000000 
#    z 0.019000 0.000000 1.714150 
# 
# From -- ./inp_files/55226.got.cif
#   From: 2010.06.25/outbox.cif.g09.slc.cpg/sg10_28_cif.got.tgz:55226.got - 2010.06.27 22:07:45.
