data_PCOD8066923
_publ_section_title
;
Structure prediction by ZEFSAII (Michael W. Deem and Ramdas Pophale) SiO2 
 PCOD8066923
Probable space group: P 2/M
;
_chemical_formula_sum "Si O2"
_cell_formula_units_Z 32
_cell_length_a 15.232178
_cell_length_b 22.325676
_cell_length_c 9.069040
_cell_angle_alpha 90.000000
_cell_angle_beta 32.099101
_cell_angle_gamma 90.000000
_cell_volume 1638.843441
_symmetry_space_group_name_H-M "P 2/M"
_symmetry_group_IT_number 10
_symmetry_cell_setting 'monoclinic'
loop_
_space_group_symop_operation_xyz
x,y,z
-x,y,-z
-x,-y,-z
x,-y,z
loop_
_atom_site_type_symbol
_atom_site_label
_atom_site_fract_x
_atom_site_fract_y
_atom_site_fract_z
Si Si1 0.363518 0.223160 0.072696
Si Si2 0.111336 0.781363 0.982403
Si Si3 0.997944 0.650468 0.827972
Si Si4 0.343617 0.930832 0.324962
Si Si5 0.926217 0.138799 0.451780
Si Si6 0.161241 0.432965 0.171625
Si Si7 0.328470 0.358490 0.171058
Si Si8 0.567853 0.840430 0.554123
O O1 0.413377 0.192239 0.849500
O O2 0.500000 0.206937 0.000000
O O3 0.189182 0.196986 0.369761
O O4 0.345522 0.293374 0.075038
O O5 0.073774 0.716443 0.106522
O O6 0.078000 0.836929 0.139361
O O7 0.300612 0.787460 0.662802
O O8 0.000000 0.790785 0.000000
O O9 0.873342 0.603588 0.929022
O O10 0.182497 0.642199 0.500521
O O11 0.000000 0.638359 0.000000
O O12 0.174835 0.915224 0.479092
O O13 0.354105 0.893319 0.460062
O O14 0.339662 0.000000 0.374680
O O15 0.500000 0.915501 0.000000
O O16 0.000000 0.114594 0.500000
O O17 0.217001 0.500000 0.048424
O O18 0.301514 0.402859 0.072514
O O19 0.000000 0.434181 0.500000
O O20 0.500000 0.378907 0.000000
O O21 0.500000 0.869402 0.500000
#
# Coordination Sequence:
#
# PCOD8066923 Si02
#       8
#     4   4   4   4   4   4   4   4
#     4  11  20  39  60  87 126 160 196 243 300 364
#     4  11  22  37  58  91 128 156 184 253 312 358
#     4  10  22  37  58  92 123 157 201 248 307 358
#     4  11  24  46  66  84 119 165 206 241 289 365
#     4  12  22  37  64  91 119 155 198 244 301 351
#     4   9  20  40  62  85 122 167 209 245 295 363
#     4  10  22  36  60  91 120 160 203 251 295 357
#     4  12  24  39  62  93 121 157 198 245 306 356
#
# _framework density 19.525963999999998
#
# number of rings (size 3 to 8) (size 9 to 14) (size 15 to 20)
#    0.000    1.250    5.000    0.750    8.750    1.000 
#    0.000    1.875    0.000    0.750    0.000    0.000 
#    0.000    0.000    0.000    0.000    0.000    0.000 
#
# Total GULP energy -396857.770493 kJ/mol
# GULP energy per Si atom -12401.805328 kJ/mol
# Density = 1.948152 g / cm^3
# Si number density = 19.525964 Si / 1000 Ang^3
#
#
#
# Elastic Constant Matrix: (Units=GPa)
#
#
# Indices 1 2 3 4 5 6 
#
# 1 137.0484 61.2030 25.8186 0.0000 4.3631 0.0000
# 2 61.2030 113.4269 35.4354 0.0000 3.2185 0.0000
# 3 25.8186 35.4354 61.3976 0.0000 3.2026 0.0000
# 4 0.0000 0.0000 0.0000-2748.9507 0.0000-1701.8679
# 5 4.3631 3.2185 3.2026 0.0000 30.8578 0.0000
# 6 0.0000 0.0000 0.0000-1701.8679 0.0000-1018.2657
#
#
#
# Elastic Compliance Matrix: (Units=1/GPa)
#
#
# Indices 1 2 3 4 5 6 
#
# 1 0.009713 -0.004826 -0.001260 0.000000 -0.000739 0.000000
# 2 -0.004826 0.013161 -0.005560 0.000000 -0.000113 0.000000
# 3 -0.001260 -0.005560 0.020096 0.000000 -0.001327 0.000000
# 4 0.000000 0.000000 0.000000 0.010477 0.000000 -0.017510
# 5 -0.000739 -0.000113 -0.001327 0.000000 0.032661 0.000000
# 6 0.000000 0.000000 0.000000 -0.017510 0.000000 0.028284
#
#
# Mechanical properties :
#
#
# Convention : Reuss Voigt Hill
#
# Bulk Modulus (GPa) = 50.82473 61.86522 56.34497
# Shear Modulus (GPa) = 34.66380 -734.64399 -349.99010
#
# Velocity S-wave (km/s) = 4.21796 -19.41794 -13.40271
# Velocity P-wave (km/s) = 7.05744 21.70229 14.51175
#
# Compressibility (1/GPa) = 0.01967546
#
# Stress axis : x y z
#
# Youngs Moduli (GPa) = 102.95526 75.98429 49.76206
#
# Poissons Ratio (x) = 0.36671 0.06272
# Poissons Ratio (y) = 0.49688 0.27669
# Poissons Ratio (z) = 0.12977 0.42249
#
# Static dielectric constant tensor:
#      x y z
#    x 3.513620 0.000000 0.327110 
#    y 0.000000 3.544570 0.000000 
#    z 0.327110 0.000000 2.623610 
# 
# 
# High freq. dielectric constant tensor:
#      x y z
#    x 1.770930 0.000000 -0.001570 
#    y 0.000000 1.747260 0.000000 
#    z -0.001570 0.000000 1.754900 
# 
# From -- ./inp_files/30564.got.cif
#   From: 2010.06.25/outbox.cif.g09.slc.cpg/sg10_16_cif.got.tgz:30564.got - 2010.06.27 22:07:45.
