data_PCOD8066474
_publ_section_title
;
Structure prediction by ZEFSAII (Michael W. Deem and Ramdas Pophale) SiO2 
 PCOD8066474
Probable space group: P 2/M
;
_chemical_formula_sum "Si O2"
_cell_formula_units_Z 32
_cell_length_a 24.636306
_cell_length_b 9.027221
_cell_length_c 14.917066
_cell_angle_alpha 90.000000
_cell_angle_beta 28.044707
_cell_angle_gamma 90.000000
_cell_volume 1559.764728
_symmetry_space_group_name_H-M "P 2/M"
_symmetry_group_IT_number 10
_symmetry_cell_setting 'monoclinic'
loop_
_space_group_symop_operation_xyz
x,y,z
-x,y,-z
-x,-y,-z
x,-y,z
loop_
_atom_site_type_symbol
_atom_site_label
_atom_site_fract_x
_atom_site_fract_y
_atom_site_fract_z
Si Si1 0.021084 0.832480 0.182954
Si Si2 0.221333 0.169095 0.767197
Si Si3 0.360548 0.676154 0.289166
Si Si4 0.691455 0.324340 0.017243
Si Si5 0.929368 0.826663 0.690832
Si Si6 0.854723 0.675111 0.291682
Si Si7 0.613761 0.324663 0.942382
Si Si8 0.519160 0.826983 0.575927
O O1 0.002501 0.793848 0.315521
O O2 0.951553 0.722941 0.220539
O O3 0.978796 0.000000 0.226740
O O4 0.156620 0.817500 0.957707
O O5 0.139523 0.256532 0.815890
O O6 0.352144 0.231134 0.585412
O O7 0.226703 0.000000 0.727527
O O8 0.359491 0.500000 0.292183
O O9 0.266126 0.737423 0.494416
O O10 0.330039 0.731306 0.232487
O O11 0.483934 0.740088 0.139730
O O12 0.693644 0.500000 0.026187
O O13 0.576953 0.264365 0.231277
O O14 0.809244 0.256746 0.881529
O O15 0.688640 0.272980 0.917324
O O16 0.000000 0.768590 0.500000
O O17 0.903398 0.000000 0.717717
O O18 0.862018 0.500000 0.271349
O O19 0.602660 0.500000 0.957329
O O20 0.500000 0.795763 0.500000
O O21 0.505211 0.000000 0.618447
#
# Coordination Sequence:
#
# PCOD8066474 Si02
#       8
#     4   4   4   4   4   4   4   4
#     4  10  22  41  61  81 111 154 202 245 292 353
#     4  10  21  38  60  84 115 157 200 241 288 349
#     4   8  15  29  48  73 108 148 185 220 269 338
#     4  11  22  35  58  90 120 149 187 240 300 357
#     4  10  23  43  64  85 114 157 205 250 295 350
#     4  11  22  34  56  87 118 152 193 243 297 348
#     4   8  15  29  49  74 108 148 183 219 274 342
#     4  10  21  39  63  87 115 157 203 244 291 352
#
# _framework density 20.515913999999999
#
# number of rings (size 3 to 8) (size 9 to 14) (size 15 to 20)
#    0.000    2.250    0.000    3.375    1.750    6.500 
#    0.000    1.250    0.000    0.000    0.000    5.250 
#    0.000    0.000    0.000    0.000    0.000    0.000 
#
# Total GULP energy -396614.153014 kJ/mol
# GULP energy per Si atom -12394.192282 kJ/mol
# Density = 2.046922 g / cm^3
# Si number density = 20.515914 Si / 1000 Ang^3
#
#
#
# Elastic Constant Matrix: (Units=GPa)
#
#
# Indices 1 2 3 4 5 6 
#
# 1 116.5790 38.8991 32.0019 0.0000 3.7196 0.0000
# 2 38.8991 57.1240 25.6473 0.0000 0.5031 0.0000
# 3 32.0019 25.6473 75.9724 0.0000 10.4140 0.0000
# 4 0.0000 0.0000 0.0000 25.1109 0.0000 -2.4797
# 5 3.7196 0.5031 10.4140 0.0000 32.5903 0.0000
# 6 0.0000 0.0000 0.0000 -2.4797 0.0000 21.9628
#
#
#
# Elastic Compliance Matrix: (Units=1/GPa)
#
#
# Indices 1 2 3 4 5 6 
#
# 1 0.011524 -0.006706 -0.002536 0.000000 -0.000402 0.000000
# 2 -0.006706 0.024660 -0.005807 0.000000 0.002240 0.000000
# 3 -0.002536 -0.005807 0.016879 0.000000 -0.005014 0.000000
# 4 0.000000 0.000000 0.000000 0.040272 0.000000 0.004547
# 5 -0.000402 0.002240 -0.005014 0.000000 0.032298 0.000000
# 6 0.000000 0.000000 0.000000 0.004547 0.000000 0.046045
#
#
# Mechanical properties :
#
#
# Convention : Reuss Voigt Hill
#
# Bulk Modulus (GPa) = 43.54358 49.19690 46.37024
# Shear Modulus (GPa) = 23.87443 26.14126 25.00785
#
# Velocity S-wave (km/s) = 3.41501 3.57346 3.49513
# Velocity P-wave (km/s) = 6.06796 6.40766 6.24012
#
# Compressibility (1/GPa) = 0.02296550
#
# Stress axis : x y z
#
# Youngs Moduli (GPa) = 86.77408 40.55219 59.24681
#
# Poissons Ratio (x) = 0.27192 0.15023
# Poissons Ratio (y) = 0.58187 0.34406
# Poissons Ratio (z) = 0.22002 0.23550
#
# Static dielectric constant tensor:
#      x y z
#    x 3.923580 0.000000 0.172210 
#    y 0.000000 3.335080 0.000000 
#    z 0.172210 0.000000 3.972220 
# 
# 
# High freq. dielectric constant tensor:
#      x y z
#    x 1.811670 0.000000 0.008150 
#    y 0.000000 1.768870 0.000000 
#    z 0.008150 0.000000 1.811790 
# 
# From -- ./inp_files/71549.got.cif
#   From: 2010.06.25/outbox.cif.g09.slc.cpg/sg10_36_cif.got.tgz:71549.got - 2010.06.27 22:07:45.
