data_PCOD8066422
_publ_section_title
;
Structure prediction by ZEFSAII (Michael W. Deem and Ramdas Pophale) SiO2 
 PCOD8066422
Probable space group: P 2/M
;
_chemical_formula_sum "Si O2"
_cell_formula_units_Z 28
_cell_length_a 13.074530
_cell_length_b 8.944937
_cell_length_c 14.304812
_cell_angle_alpha 90.000000
_cell_angle_beta 122.681031
_cell_angle_gamma 90.000000
_cell_volume 1408.112924
_symmetry_space_group_name_H-M "P 2/M"
_symmetry_group_IT_number 10
_symmetry_cell_setting 'monoclinic'
loop_
_space_group_symop_operation_xyz
x,y,z
-x,y,-z
-x,-y,-z
x,-y,z
loop_
_atom_site_type_symbol
_atom_site_label
_atom_site_fract_x
_atom_site_fract_y
_atom_site_fract_z
Si Si1 0.510508 0.674168 0.897404
Si Si2 0.791376 0.173777 0.549366
Si Si3 0.201734 0.676272 0.253912
Si Si4 0.280860 0.174299 0.114183
Si Si5 0.049557 0.829200 0.878490
Si Si6 0.273253 0.326163 0.664188
Si Si7 0.926369 0.830703 0.319826
O O1 0.541969 0.500000 0.901872
O O2 0.616962 0.770112 0.905484
O O3 0.385163 0.716614 0.785359
O O4 0.500000 0.720292 0.000000
O O5 0.754138 0.255820 0.626291
O O6 0.711117 0.238214 0.425350
O O7 0.932075 0.203695 0.594923
O O8 0.764020 0.000000 0.549193
O O9 0.213641 0.500000 0.264678
O O10 0.290003 0.738274 0.216536
O O11 0.063655 0.720805 0.161977
O O12 0.299322 0.000000 0.141731
O O13 0.149507 0.207984 0.004814
O O14 0.108310 0.805098 0.805479
O O15 0.001702 0.000000 0.863390
O O16 0.268704 0.500000 0.638728
O O17 0.149281 0.282368 0.654799
O O18 0.895773 0.000000 0.336051
#
# Coordination Sequence:
#
# PCOD8066422 Si02
#       7
#     4   4   4   4   4   4   4
#     4  10  23  42  60  82 115 150 185 230 280 328
#     4  10  21  38  58  81 113 149 186 231 280 332
#     4  11  22  36  57  85 116 148 184 229 281 336
#     4  11  22  37  59  84 112 150 193 233 275 328
#     4   9  19  35  55  83 118 151 186 230 277 328
#     4  11  22  35  55  83 113 147 188 233 280 331
#     4   9  18  33  54  81 113 149 185 225 277 332
#
# _framework density 19.884768999999999
#
# number of rings (size 3 to 8) (size 9 to 14) (size 15 to 20)
#    0.000    1.857    0.000    5.143    0.000    8.857 
#    0.000    0.714    0.000    4.286    0.000    0.000 
#    0.000    0.000    0.000    0.000    0.000    0.000 
#
# Total GULP energy -347342.764394 kJ/mol
# GULP energy per Si atom -12405.098728 kJ/mol
# Density = 1.983951 g / cm^3
# Si number density = 19.884769 Si / 1000 Ang^3
#
#
#
# Elastic Constant Matrix: (Units=GPa)
#
#
# Indices 1 2 3 4 5 6 
#
# 1 84.6991 55.7780 47.4300 0.0000 -24.6060 0.0000
# 2 55.7780 123.1637 69.4063 0.0000 -14.1838 0.0000
# 3 47.4300 69.4063 135.6975 0.0000 -26.8161 0.0000
# 4 0.0000 0.0000 0.0000 30.5686 0.0000 -3.5375
# 5 -24.6060 -14.1838 -26.8161 0.0000 23.7182 0.0000
# 6 0.0000 0.0000 0.0000 -3.5375 0.0000 33.2890
#
#
#
# Elastic Compliance Matrix: (Units=1/GPa)
#
#
# Indices 1 2 3 4 5 6 
#
# 1 0.022489 -0.007988 -0.000140 0.000000 0.018396 0.000000
# 2 -0.007988 0.014246 -0.005728 0.000000 -0.006244 0.000000
# 3 -0.000140 -0.005728 0.012417 0.000000 0.010468 0.000000
# 4 0.000000 0.000000 0.000000 0.033121 0.000000 0.003520
# 5 0.018396 -0.006244 0.010468 0.000000 0.069348 0.000000
# 6 0.000000 0.000000 0.000000 0.003520 0.000000 0.030414
#
#
# Mechanical properties :
#
#
# Convention : Reuss Voigt Hill
#
# Bulk Modulus (GPa) = 46.64112 76.53212 61.58662
# Shear Modulus (GPa) = 23.05294 28.91156 25.98225
#
# Velocity S-wave (km/s) = 3.40858 3.81721 3.61867
# Velocity P-wave (km/s) = 6.24483 7.61574 6.96410
#
# Compressibility (1/GPa) = 0.02144031
#
# Stress axis : x y z
#
# Youngs Moduli (GPa) = 44.46578 70.19661 80.53622
#
# Poissons Ratio (x) = 0.56070 0.01125
# Poissons Ratio (y) = 0.35517 0.46135
# Poissons Ratio (z) = 0.00621 0.40212
#
# Static dielectric constant tensor:
#      x y z
#    x 3.453280 0.000000 -0.168660 
#    y 0.000000 3.553450 0.000000 
#    z -0.168660 0.000000 3.831700 
# 
# 
# High freq. dielectric constant tensor:
#      x y z
#    x 1.762490 0.000000 -0.021320 
#    y 0.000000 1.777110 0.000000 
#    z -0.021320 0.000000 1.784070 
# 
# From -- ./inp_files/63903.got.cif
#   From: 2010.06.25/outbox.cif.g09.slc.cpg/sg10_32_cif.got.tgz:63903.got - 2010.06.27 22:07:45.
