data_PCOD8066229
_publ_section_title
;
Structure prediction by ZEFSAII (Michael W. Deem and Ramdas Pophale) SiO2 
 PCOD8066229
Probable space group: P 2/M
;
_chemical_formula_sum "Si O2"
_cell_formula_units_Z 28
_cell_length_a 14.065867
_cell_length_b 8.946330
_cell_length_c 14.275806
_cell_angle_alpha 90.000000
_cell_angle_beta 59.839763
_cell_angle_gamma 90.000000
_cell_volume 1553.242221
_symmetry_space_group_name_H-M "P 2/M"
_symmetry_group_IT_number 10
_symmetry_cell_setting 'monoclinic'
loop_
_space_group_symop_operation_xyz
x,y,z
-x,y,-z
-x,-y,-z
x,-y,z
loop_
_atom_site_type_symbol
_atom_site_label
_atom_site_fract_x
_atom_site_fract_y
_atom_site_fract_z
Si Si1 0.389169 0.325576 0.505116
Si Si2 0.328793 0.830474 0.843774
Si Si3 0.422335 0.169161 0.302297
Si Si4 0.229366 0.329480 0.053488
Si Si5 0.009176 0.175493 0.105176
Si Si6 0.595461 0.671316 0.884316
Si Si7 0.203294 0.674989 0.745072
O O1 0.500000 0.261732 0.500000
O O2 0.405465 0.500000 0.480045
O O3 0.364400 0.252244 0.417025
O O4 0.281587 0.288891 0.619066
O O5 0.448539 0.821188 0.739925
O O6 0.240519 0.770417 0.815079
O O7 0.296594 0.000000 0.886769
O O8 0.325638 0.724423 0.935799
O O9 0.394447 0.239561 0.216590
O O10 0.379977 0.000000 0.321020
O O11 0.195442 0.500000 0.048618
O O12 0.283696 0.315190 0.128883
O O13 0.125959 0.221779 0.090488
O O14 0.920412 0.267594 0.211149
O O15 0.991436 0.000000 0.128859
O O16 0.000000 0.219273 0.000000
O O17 0.565857 0.500000 0.876066
O O18 0.500000 0.737169 0.000000
O O19 0.205616 0.500000 0.767844
#
# Coordination Sequence:
#
# PCOD8066229 Si02
#       7
#     4   4   4   4   4   4   4
#     4  10  21  37  57  82 112 148 188 230 277 328
#     4  11  21  32  50  81 118 150 182 225 274 328
#     4  11  23  35  54  83 116 153 187 225 277 336
#     4  11  22  36  57  82 110 149 192 229 271 328
#     4  11  23  37  55  82 116 149 182 226 285 335
#     4  10  21  37  57  82 112 148 188 230 277 328
#     4  11  22  36  57  82 110 149 192 229 271 328
#
# _framework density 18.026807999999999
#
# number of rings (size 3 to 8) (size 9 to 14) (size 15 to 20)
#    0.000    1.286    4.286    2.143    0.000    4.571 
#    0.000    0.000    0.000    0.857    0.000    6.000 
#    0.000    0.000    0.000    0.000    0.000    0.000 
#
# Total GULP energy -347243.272080 kJ/mol
# GULP energy per Si atom -12401.545431 kJ/mol
# Density = 1.798578 g / cm^3
# Si number density = 18.026808 Si / 1000 Ang^3
#
#
#
# Elastic Constant Matrix: (Units=GPa)
#
#
# Indices 1 2 3 4 5 6 
#
# 1 73.8649 33.0922 36.8080 0.0000 -0.9291 0.0000
# 2 33.0922 77.4812 50.3219 0.0000 3.1900 0.0000
# 3 36.8080 50.3219 108.0446 0.0000 5.1911 0.0000
# 4 0.0000 0.0000 0.0000 16.4030 0.0000 -7.0036
# 5 -0.9291 3.1900 5.1911 0.0000 27.7172 0.0000
# 6 0.0000 0.0000 0.0000 -7.0036 0.0000 25.7263
#
#
#
# Elastic Compliance Matrix: (Units=1/GPa)
#
#
# Indices 1 2 3 4 5 6 
#
# 1 0.017760 -0.005268 -0.003688 0.000000 0.001892 0.000000
# 2 -0.005268 0.020074 -0.007503 0.000000 -0.001082 0.000000
# 3 -0.003688 -0.007503 0.014097 0.000000 -0.001900 0.000000
# 4 0.000000 0.000000 0.000000 0.068983 0.000000 0.018780
# 5 0.001892 -0.001082 -0.001900 0.000000 0.036623 0.000000
# 6 0.000000 0.000000 0.000000 0.018780 0.000000 0.043983
#
#
# Mechanical properties :
#
#
# Convention : Reuss Voigt Hill
#
# Bulk Modulus (GPa) = 52.59248 55.53720 54.06484
# Shear Modulus (GPa) = 20.76637 23.24721 22.00679
#
# Velocity S-wave (km/s) = 3.39775 3.59498 3.49776
# Velocity P-wave (km/s) = 6.68064 6.93591 6.80947
#
# Compressibility (1/GPa) = 0.01901412
#
# Stress axis : x y z
#
# Youngs Moduli (GPa) = 56.30701 49.81655 70.93524
#
# Poissons Ratio (x) = 0.26244 0.26158
# Poissons Ratio (y) = 0.29663 0.53220
# Poissons Ratio (z) = 0.20764 0.37376
#
# Static dielectric constant tensor:
#      x y z
#    x 3.214690 0.000000 -0.073360 
#    y 0.000000 3.386060 0.000000 
#    z -0.073360 0.000000 3.265860 
# 
# 
# High freq. dielectric constant tensor:
#      x y z
#    x 1.687030 0.000000 -0.002900 
#    y 0.000000 1.708590 0.000000 
#    z -0.002900 0.000000 1.682990 
# 
# From -- ./inp_files/49575.got.cif
#   From: 2010.06.25/outbox.cif.g09.slc.cpg/sg10_25_cif.got.tgz:49575.got - 2010.06.27 22:07:45.
