data_PCOD8066582
_publ_section_title
;
Structure prediction by ZEFSAII (Michael W. Deem and Ramdas Pophale) SiO2 
 PCOD8066582
Probable space group: P 2/M
;
_chemical_formula_sum "Si O2"
_cell_formula_units_Z 28
_cell_length_a 14.768009
_cell_length_b 9.091661
_cell_length_c 10.967701
_cell_angle_alpha 90.000000
_cell_angle_beta 66.467663
_cell_angle_gamma 90.000000
_cell_volume 1350.118572
_symmetry_space_group_name_H-M "P 2/M"
_symmetry_group_IT_number 10
_symmetry_cell_setting 'monoclinic'
loop_
_space_group_symop_operation_xyz
x,y,z
-x,y,-z
-x,-y,-z
x,-y,z
loop_
_atom_site_type_symbol
_atom_site_label
_atom_site_fract_x
_atom_site_fract_y
_atom_site_fract_z
Si Si1 0.452544 0.171045 0.153686
Si Si2 0.061707 0.331536 0.290415
Si Si3 0.461374 0.326884 0.652722
Si Si4 0.768983 0.169149 0.668386
Si Si5 0.235773 0.668143 0.797815
Si Si6 0.838161 0.333684 0.423884
Si Si7 0.910401 0.172654 0.969190
O O1 0.489796 0.253040 0.254655
O O2 0.334523 0.195146 0.207873
O O3 0.478585 0.000000 0.156146
O O4 0.500000 0.229749 0.000000
O O5 0.078784 0.500000 0.239647
O O6 0.147621 0.284620 0.335692
O O7 0.072068 0.216803 0.177204
O O8 0.952165 0.315112 0.405894
O O9 0.500000 0.269322 0.500000
O O10 0.481234 0.500000 0.653489
O O11 0.347169 0.284200 0.713777
O O12 0.764490 0.216590 0.528480
O O13 0.802462 0.000000 0.664462
O O14 0.229923 0.500000 0.841996
O O15 0.168778 0.698988 0.715716
O O16 0.193941 0.763771 0.930723
O O17 0.800826 0.500000 0.469989
O O18 0.904539 0.000000 0.983524
O O19 0.000000 0.238617 0.000000
#
# Coordination Sequence:
#
# PCOD8066582 Si02
#       7
#     4   4   4   4   4   4   4
#     4  10  24  45  64  87 125 168 210 259 317 375
#     4  11  23  39  62  88 120 161 203 246 299 362
#     4  10  22  41  67  97 126 158 207 266 316 368
#     4  11  24  40  61  88 121 160 203 253 305 359
#     4  10  21  38  62  91 123 160 201 248 304 362
#     4  10  21  39  62  89 123 162 199 242 299 364
#     4  11  23  38  58  87 123 161 200 247 300 356
#
# _framework density 20.738918000000002
#
# number of rings (size 3 to 8) (size 9 to 14) (size 15 to 20)
#    0.000    1.571    1.429    2.571    2.000    7.429 
#    0.000    0.000    0.000    0.000    0.000    0.000 
#    0.000    0.000    0.000    0.000    0.000    0.000 
#
# Total GULP energy -347148.249345 kJ/mol
# GULP energy per Si atom -12398.151762 kJ/mol
# Density = 2.069172 g / cm^3
# Si number density = 20.738918 Si / 1000 Ang^3
#
#
#
# Elastic Constant Matrix: (Units=GPa)
#
#
# Indices 1 2 3 4 5 6 
#
# 1 82.5243 34.9541 31.2292 0.0000 -5.5057 0.0000
# 2 34.9541 52.2974 43.3476 0.0000 -12.1121 0.0000
# 3 31.2292 43.3476 128.2982 0.0000 -12.0435 0.0000
# 4 0.0000 0.0000 0.0000 34.8773 0.0000 3.5437
# 5 -5.5057 -12.1121 -12.0435 0.0000 32.7565 0.0000
# 6 0.0000 0.0000 0.0000 3.5437 0.0000 32.7317
#
#
#
# Elastic Compliance Matrix: (Units=1/GPa)
#
#
# Indices 1 2 3 4 5 6 
#
# 1 0.016985 -0.011329 -0.000448 0.000000 -0.001499 0.000000
# 2 -0.011329 0.035641 -0.008520 0.000000 0.008142 0.000000
# 3 -0.000448 -0.008520 0.010854 0.000000 0.000765 0.000000
# 4 0.000000 0.000000 0.000000 0.028991 0.000000 -0.003139
# 5 -0.001499 0.008142 0.000765 0.000000 0.033568 0.000000
# 6 0.000000 0.000000 0.000000 -0.003139 0.000000 0.030891
#
#
# Mechanical properties :
#
#
# Convention : Reuss Voigt Hill
#
# Bulk Modulus (GPa) = 43.69196 53.57576 48.63386
# Shear Modulus (GPa) = 24.37215 30.31235 27.34225
#
# Velocity S-wave (km/s) = 3.43182 3.82726 3.63492
# Velocity P-wave (km/s) = 6.06767 6.73944 6.41236
#
# Compressibility (1/GPa) = 0.02288751
#
# Stress axis : x y z
#
# Youngs Moduli (GPa) = 58.87395 28.05765 92.13450
#
# Poissons Ratio (x) = 0.31786 0.04123
# Poissons Ratio (y) = 0.66697 0.78499
# Poissons Ratio (z) = 0.02635 0.23905
#
# Static dielectric constant tensor:
#      x y z
#    x 3.938280 0.000000 0.065170 
#    y 0.000000 3.638530 0.000000 
#    z 0.065170 0.000000 3.913880 
# 
# 
# High freq. dielectric constant tensor:
#      x y z
#    x 1.812900 0.000000 -0.002530 
#    y 0.000000 1.803450 0.000000 
#    z -0.002530 0.000000 1.825060 
# 
# From -- ./inp_files/49580.got.cif
#   From: 2010.06.25/outbox.cif.g09.slc.cpg/sg10_25_cif.got.tgz:49580.got - 2010.06.27 22:07:45.
