data_PCOD8066629
_publ_section_title
;
Structure prediction by ZEFSAII (Michael W. Deem and Ramdas Pophale) SiO2 
 PCOD8066629
Probable space group: P 2/M
;
_chemical_formula_sum "Si O2"
_cell_formula_units_Z 28
_cell_length_a 26.886999
_cell_length_b 9.148713
_cell_length_c 8.017958
_cell_angle_alpha 90.000000
_cell_angle_beta 40.674155
_cell_angle_gamma 90.000000
_cell_volume 1285.438752
_symmetry_space_group_name_H-M "P 2/M"
_symmetry_group_IT_number 10
_symmetry_cell_setting 'monoclinic'
loop_
_space_group_symop_operation_xyz
x,y,z
-x,y,-z
-x,-y,-z
x,-y,z
loop_
_atom_site_type_symbol
_atom_site_label
_atom_site_fract_x
_atom_site_fract_y
_atom_site_fract_z
Si Si1 0.568134 0.660100 0.543444
Si Si2 0.324248 0.341812 0.007061
Si Si3 0.170473 0.325763 0.875570
Si Si4 0.837036 0.331151 0.723117
Si Si5 0.321776 0.163243 0.535204
Si Si6 0.090146 0.168282 0.774448
Si Si7 0.417861 0.159663 0.982392
O O1 0.565902 0.500000 0.636464
O O2 0.591148 0.643242 0.291890
O O3 0.642897 0.752822 0.400099
O O4 0.488564 0.735947 0.775671
O O5 0.306315 0.500000 0.136705
O O6 0.337738 0.216645 0.108324
O O7 0.253479 0.302974 0.066797
O O8 0.174454 0.500000 0.842872
O O9 0.253226 0.256633 0.631767
O O10 0.116162 0.258358 0.871775
O O11 0.142475 0.286659 0.136661
O O12 0.859203 0.500000 0.637231
O O13 0.880345 0.234754 0.475460
O O14 0.292900 0.000000 0.655578
O O15 0.396926 0.151124 0.228365
O O16 0.118084 0.000000 0.717392
O O17 0.000000 0.177275 0.000000
O O18 0.437977 0.000000 0.858041
#
# Coordination Sequence:
#
# PCOD8066629 Si02
#       7
#     4   4   4   4   4   4   4
#     4  11  22  38  58  82 115 158 209 263 319 376
#     4  10  21  39  59  84 117 154 204 260 314 375
#     4  11  23  43  71 101 132 170 220 271 321 383
#     4  10  22  43  70  99 131 170 219 271 322 383
#     4  11  23  39  59  86 122 161 206 260 318 383
#     4  11  26  46  68 101 141 175 211 257 316 388
#     4  11  24  37  52  82 119 159 209 262 320 380
#
# _framework density 21.782446
#
# number of rings (size 3 to 8) (size 9 to 14) (size 15 to 20)
#    0.000    1.286    1.429    3.857    0.000   12.571 
#    0.000    2.857    0.000    0.000    0.000    0.000 
#    0.000    0.000    0.000    0.000    0.000    0.000 
#
# Total GULP energy -346913.563162 kJ/mol
# GULP energy per Si atom -12389.770113 kJ/mol
# Density = 2.173287 g / cm^3
# Si number density = 21.782446 Si / 1000 Ang^3
#
#
#
# Elastic Constant Matrix: (Units=GPa)
#
#
# Indices 1 2 3 4 5 6 
#
# 1 102.9690 65.1697 32.6070 0.0000 1.7148 0.0000
# 2 65.1697 167.9196 57.5917 0.0000 1.2544 0.0000
# 3 32.6070 57.5917 104.2399 0.0000 8.2689 0.0000
# 4 0.0000 0.0000 0.0000 31.0876 0.0000 -0.9099
# 5 1.7148 1.2544 8.2689 0.0000 27.3866 0.0000
# 6 0.0000 0.0000 0.0000 -0.9099 0.0000 38.5817
#
#
#
# Elastic Compliance Matrix: (Units=1/GPa)
#
#
# Indices 1 2 3 4 5 6 
#
# 1 0.013084 -0.004537 -0.001576 0.000000 -0.000136 0.000000
# 2 -0.004537 0.008943 -0.003598 0.000000 0.000961 0.000000
# 3 -0.001576 -0.003598 0.012349 0.000000 -0.003465 0.000000
# 4 0.000000 0.000000 0.000000 0.032189 0.000000 0.000759
# 5 -0.000136 0.000961 -0.003465 0.000000 0.037525 0.000000
# 6 0.000000 0.000000 0.000000 0.000759 0.000000 0.025937
#
#
# Mechanical properties :
#
#
# Convention : Reuss Voigt Hill
#
# Bulk Modulus (GPa) = 66.86543 76.20728 71.53636
# Shear Modulus (GPa) = 32.37672 34.06185 33.21928
#
# Velocity S-wave (km/s) = 3.85953 3.95869 3.90942
# Velocity P-wave (km/s) = 7.11511 7.48041 7.30005
#
# Compressibility (1/GPa) = 0.01495541
#
# Stress axis : x y z
#
# Youngs Moduli (GPa) = 76.42883 111.82355 80.97954
#
# Poissons Ratio (x) = 0.50729 0.12759
# Poissons Ratio (y) = 0.34672 0.29136
# Poissons Ratio (z) = 0.12042 0.40233
#
# Static dielectric constant tensor:
#      x y z
#    x 3.937560 0.000000 0.116590 
#    y 0.000000 4.318720 0.000000 
#    z 0.116590 0.000000 3.749960 
# 
# 
# High freq. dielectric constant tensor:
#      x y z
#    x 1.854240 0.000000 0.005120 
#    y 0.000000 1.868130 0.000000 
#    z 0.005120 0.000000 1.850230 
# 
# From -- ./inp_files/36896.got.cif
#   From: 2010.06.25/outbox.cif.g09.slc.cpg/sg10_19_cif.got.tgz:36896.got - 2010.06.27 22:07:45.
