data_PCOD8066349
_publ_section_title
;
Structure prediction by ZEFSAII (Michael W. Deem and Ramdas Pophale) SiO2 
 PCOD8066349
Probable space group: P 2/M
;
_chemical_formula_sum "Si O2"
_cell_formula_units_Z 28
_cell_length_a 14.939174
_cell_length_b 8.481805
_cell_length_c 11.016073
_cell_angle_alpha 90.000000
_cell_angle_beta 68.337517
_cell_angle_gamma 90.000000
_cell_volume 1297.276102
_symmetry_space_group_name_H-M "P 2/M"
_symmetry_group_IT_number 10
_symmetry_cell_setting 'monoclinic'
loop_
_space_group_symop_operation_xyz
x,y,z
-x,y,-z
-x,-y,-z
x,-y,z
loop_
_atom_site_type_symbol
_atom_site_label
_atom_site_fract_x
_atom_site_fract_y
_atom_site_fract_z
Si Si1 0.943135 0.184592 0.409529
Si Si2 0.741901 0.819072 0.171431
Si Si3 0.394682 0.675501 0.583388
Si Si4 0.394343 0.682356 0.941579
Si Si5 0.742088 0.674904 0.573078
Si Si6 0.586073 0.818429 0.811526
Si Si7 0.057485 0.314165 0.852443
O O1 0.831303 0.221270 0.484021
O O2 0.980350 0.252761 0.260324
O O3 0.000000 0.252042 0.500000
O O4 0.959876 0.000000 0.392170
O O5 0.653423 0.806345 0.308199
O O6 0.707237 0.725150 0.069862
O O7 0.832488 0.734847 0.186385
O O8 0.765478 0.000000 0.129951
O O9 0.500000 0.738509 0.500000
O O10 0.397754 0.500000 0.644491
O O11 0.336062 0.661823 0.490912
O O12 0.394279 0.500000 0.980377
O O13 0.490591 0.722001 0.812304
O O14 0.403926 0.797359 0.050145
O O15 0.779027 0.500000 0.590891
O O16 0.687718 0.755447 0.711570
O O17 0.572886 0.000000 0.782545
O O18 0.048298 0.500000 0.852649
O O19 0.000000 0.247649 0.000000
#
# Coordination Sequence:
#
# PCOD8066349 Si02
#       7
#     4   4   4   4   4   4   4
#     4  11  25  45  69  98 133 172 219 283 348 406
#     4  12  24  39  63  93 128 165 209 266 328 388
#     4  10  21  37  60  91 128 168 210 255 310 381
#     4  11  22  39  61  87 126 172 220 264 319 390
#     4  11  22  38  63  92 127 169 213 261 319 388
#     4  11  22  38  60  90 129 168 216 268 323 386
#     4  11  25  46  71  98 130 172 224 282 342 413
#
# _framework density 21.583687000000001
#
# number of rings (size 3 to 8) (size 9 to 14) (size 15 to 20)
#    0.000    1.000    1.429    6.857    0.000    5.429 
#    0.000    2.857    0.000    0.000    0.000    0.000 
#    0.000    0.000    0.000    0.000    0.000    0.000 
#
# Total GULP energy -347116.835839 kJ/mol
# GULP energy per Si atom -12397.029851 kJ/mol
# Density = 2.153456 g / cm^3
# Si number density = 21.583687 Si / 1000 Ang^3
#
#
#
# Elastic Constant Matrix: (Units=GPa)
#
#
# Indices 1 2 3 4 5 6 
#
# 1 105.7068 19.1416 35.8205 0.0000 11.5347 0.0000
# 2 19.1416 80.8446 25.8752 0.0000 7.8127 0.0000
# 3 35.8205 25.8752 100.1959 0.0000 1.3304 0.0000
# 4 0.0000 0.0000 0.0000 235.2948 0.0000 -108.1511
# 5 11.5347 7.8127 1.3304 0.0000 31.2492 0.0000
# 6 0.0000 0.0000 0.0000 -108.1511 0.0000 84.7822
#
#
#
# Elastic Compliance Matrix: (Units=1/GPa)
#
#
# Indices 1 2 3 4 5 6 
#
# 1 0.011330 -0.001134 -0.003708 0.000000 -0.003741 0.000000
# 2 -0.001134 0.013930 -0.003153 0.000000 -0.002930 0.000000
# 3 -0.003708 -0.003153 0.012099 0.000000 0.001642 0.000000
# 4 0.000000 0.000000 0.000000 0.010274 0.000000 0.013106
# 5 -0.003741 -0.002930 0.001642 0.000000 0.034044 0.000000
# 6 0.000000 0.000000 0.000000 0.013106 0.000000 0.028513
#
#
# Mechanical properties :
#
#
# Convention : Reuss Voigt Hill
#
# Bulk Modulus (GPa) = 46.79826 49.82464 48.31145
# Shear Modulus (GPa) = 37.50829 83.99257 60.75043
#
# Velocity S-wave (km/s) = 4.17322 6.24494 5.31108
# Velocity P-wave (km/s) = 6.70450 8.66796 7.74868
#
# Compressibility (1/GPa) = 0.02136832
#
# Stress axis : x y z
#
# Youngs Moduli (GPa) = 88.25932 71.78605 82.65469
#
# Poissons Ratio (x) = 0.08143 0.30648
# Poissons Ratio (y) = 0.10012 0.26061
# Poissons Ratio (z) = 0.32727 0.22634
#
# Static dielectric constant tensor:
#      x y z
#    x 3.970430 0.000000 0.125450 
#    y 0.000000 3.876480 0.000000 
#    z 0.125450 0.000000 3.944780 
# 
# 
# High freq. dielectric constant tensor:
#      x y z
#    x 1.849180 0.000000 0.005810 
#    y 0.000000 1.849380 0.000000 
#    z 0.005810 0.000000 1.847410 
# 
# From -- ./inp_files/49572.got.cif
#   From: 2010.06.25/outbox.cif.g09.slc.cpg/sg10_25_cif.got.tgz:49572.got - 2010.06.27 22:07:45.
