data_PCOD8066997
_publ_section_title
;
Structure prediction by ZEFSAII (Michael W. Deem and Ramdas Pophale) SiO2 
 PCOD8066997
Probable space group: P 2/M
;
_chemical_formula_sum "Si O2"
_cell_formula_units_Z 18
_cell_length_a 5.118885
_cell_length_b 8.325837
_cell_length_c 18.172215
_cell_angle_alpha 90.000000
_cell_angle_beta 88.712542
_cell_angle_gamma 90.000000
_cell_volume 774.286153
_symmetry_space_group_name_H-M "P 2/M"
_symmetry_group_IT_number 10
_symmetry_cell_setting 'monoclinic'
loop_
_space_group_symop_operation_xyz
x,y,z
-x,y,-z
-x,-y,-z
x,-y,z
loop_
_atom_site_type_symbol
_atom_site_label
_atom_site_fract_x
_atom_site_fract_y
_atom_site_fract_z
Si Si1 0.247412 0.808452 0.043083
Si Si2 0.271260 0.814190 0.208224
Si Si3 0.749367 0.000000 0.550791
Si Si4 0.431887 0.324251 0.415164
Si Si5 0.233005 0.680289 0.721595
O O1 0.238313 0.742563 0.126445
O O2 0.254215 0.000000 0.044099
O O3 0.500000 0.739464 0.000000
O O4 0.000000 0.742701 0.000000
O O5 0.067394 0.729649 0.264720
O O6 0.567536 0.789077 0.232887
O O7 0.203144 0.000000 0.208446
O O8 0.500000 0.000000 0.500000
O O9 0.746239 0.164999 0.599824
O O10 0.000000 0.000000 0.500000
O O11 0.500000 0.325999 0.500000
O O12 0.298996 0.500000 0.396476
O O13 0.696203 0.304747 0.365526
O O14 0.271919 0.500000 0.749434
#
# Coordination Sequence:
#
# PCOD8066997 Si02
#       5
#     4   4   2   4   4
#     4   9  17  32  57  89 122 156 202 256 307 364
#     4  11  23  39  65  96 125 163 211 264 314 374
#     4  10  22  38  60  90 118 152 200 262 316 364
#     4   9  21  42  65  90 124 169 217 264 320 381
#     4  11  24  42  63  89 128 172 207 259 324 384
#
# _framework density 23.247222000000001
#
# number of rings (size 3 to 8) (size 9 to 14) (size 15 to 20)
#    0.000    2.000    0.000    2.667    3.111    7.556 
#    0.000    6.667    0.000   13.333    0.000    0.000 
#    0.000    0.000    0.000    0.000    0.000    0.000 
#
# Total GULP energy -223103.819380 kJ/mol
# GULP energy per Si atom -12394.656632 kJ/mol
# Density = 2.319431 g / cm^3
# Si number density = 23.247222 Si / 1000 Ang^3
#
#
#
# Elastic Constant Matrix: (Units=GPa)
#
#
# Indices 1 2 3 4 5 6 
#
# 1 102.7533 15.6877 16.0389 0.0000 -22.2081 0.0000
# 2 15.6877 144.8930 24.1970 0.0000 -28.2601 0.0000
# 3 16.0389 24.1970 116.1338 0.0000 -15.8275 0.0000
# 4 0.0000 0.0000 0.0000 -12.8408 0.0000 2.6385
# 5 -22.2081 -28.2601 -15.8275 0.0000 45.0740 0.0000
# 6 0.0000 0.0000 0.0000 2.6385 0.0000 21.5006
#
#
#
# Elastic Compliance Matrix: (Units=1/GPa)
#
#
# Indices 1 2 3 4 5 6 
#
# 1 0.010966 -0.000061 -0.000809 0.000000 0.005080 0.000000
# 2 -0.000061 0.007979 -0.001025 0.000000 0.004612 0.000000
# 3 -0.000809 -0.001025 0.009236 0.000000 0.002202 0.000000
# 4 0.000000 0.000000 0.000000 -0.075961 0.000000 0.009322
# 5 0.005080 0.004612 0.002202 0.000000 0.028354 0.000000
# 6 0.000000 0.000000 0.000000 0.009322 0.000000 0.045366
#
#
# Mechanical properties :
#
#
# Convention : Reuss Voigt Hill
#
# Bulk Modulus (GPa) = 41.00185 52.84748 46.92467
# Shear Modulus (GPa) = 132.05997 31.27051 81.66524
#
# Velocity S-wave (km/s) = 7.54520 3.67158 5.93341
# Velocity P-wave (km/s) = 9.67380 6.38405 8.19569
#
# Compressibility (1/GPa) = 0.02438914
#
# Stress axis : x y z
#
# Youngs Moduli (GPa) = 91.19324 125.32681 108.26930
#
# Poissons Ratio (x) = 0.00768 0.08762
# Poissons Ratio (y) = 0.00559 0.11102
# Poissons Ratio (z) = 0.07380 0.12851
#
# Static dielectric constant tensor:
#      x y z
#    x 3.903490 0.000000 -0.209160 
#    y 0.000000 5.216190 0.000000 
#    z -0.209160 0.000000 4.336220 
# 
# 
# High freq. dielectric constant tensor:
#      x y z
#    x 1.902330 0.000000 -0.014120 
#    y 0.000000 1.914980 0.000000 
#    z -0.014120 0.000000 1.928360 
# 
# From -- ./inp_files/10400.got.cif
#   From: 2010.06.25/outbox.cif.g09.slc.cpg/sg10_6_cif.got.tgz:10400.got - 2010.06.27 22:07:45.
