data_PCOD8066437
_publ_section_title
;
Structure prediction by ZEFSAII (Michael W. Deem and Ramdas Pophale) SiO2 
 PCOD8066437
Probable space group: P 2/M
;
_chemical_formula_sum "Si O2"
_cell_formula_units_Z 16
_cell_length_a 12.878494
_cell_length_b 11.354915
_cell_length_c 14.797609
_cell_angle_alpha 90.000000
_cell_angle_beta 19.342414
_cell_angle_gamma 90.000000
_cell_volume 716.717225
_symmetry_space_group_name_H-M "P 2/M"
_symmetry_group_IT_number 10
_symmetry_cell_setting 'monoclinic'
loop_
_space_group_symop_operation_xyz
x,y,z
-x,y,-z
-x,-y,-z
x,-y,z
loop_
_atom_site_type_symbol
_atom_site_label
_atom_site_fract_x
_atom_site_fract_y
_atom_site_fract_z
Si Si1 0.590074 0.636947 0.030415
Si Si2 0.637432 0.500000 0.289393
Si Si3 0.190656 0.770567 0.507252
Si Si4 0.365078 0.755214 0.709804
Si Si5 0.866801 0.000000 0.706653
O O1 0.555366 0.500000 0.087628
O O2 0.952781 0.674641 0.746858
O O3 0.500000 0.656087 0.000000
O O4 0.357529 0.716365 0.281825
O O5 0.500000 0.500000 0.500000
O O6 0.556113 0.624682 0.310778
O O7 0.000000 0.500000 0.000000
O O8 0.446326 0.825816 0.368885
O O9 0.975839 0.882238 0.665654
O O10 0.500000 0.774377 0.500000
O O11 0.000000 0.786613 0.000000
O O12 0.000000 0.000000 0.500000
O O13 0.500000 0.000000 0.000000
#
# Coordination Sequence:
#
# PCOD8066437 Si02
#       5
#     4   2   4   4   2
#     4  11  24  41  64  97 134 168 211 273 339 400
#     4   8  16  30  50  76 113 160 197 244 294 352
#     4  12  24  42  68  95 130 175 223 262 335 383
#     4  10  21  38  58  90 131 168 215 263 312 385
#     4  12  26  46  72  96 126 168 226 280 321 386
#
# _framework density 22.324009
#
# number of rings (size 3 to 8) (size 9 to 14) (size 15 to 20)
#    0.000    1.250    0.000    6.750    3.500    2.000 
#    4.500    1.250    0.000    0.000    0.000    0.000 
#    0.000    0.000    0.000    0.000    0.000    0.000 
#
# Total GULP energy -198215.856441 kJ/mol
# GULP energy per Si atom -12388.491028 kJ/mol
# Density = 2.227320 g / cm^3
# Si number density = 22.324009 Si / 1000 Ang^3
#
#
#
# Elastic Constant Matrix: (Units=GPa)
#
#
# Indices 1 2 3 4 5 6 
#
# 1 111.2952 47.8276 67.3079 0.0000 -20.2587 0.0000
# 2 47.8276 90.4758 54.2623 0.0000 -5.8544 0.0000
# 3 67.3079 54.2623 200.8648 0.0000 -7.1217 0.0000
# 4 0.0000 0.0000 0.0000 32.9592 0.0000 -6.2094
# 5 -20.2587 -5.8544 -7.1217 0.0000 48.7931 0.0000
# 6 0.0000 0.0000 0.0000 -6.2094 0.0000 -1.8974
#
#
#
# Elastic Compliance Matrix: (Units=1/GPa)
#
#
# Indices 1 2 3 4 5 6 
#
# 1 0.013961 -0.005214 -0.003102 0.000000 0.004718 0.000000
# 2 -0.005214 0.015193 -0.002381 0.000000 -0.000690 0.000000
# 3 -0.003102 -0.002381 0.006640 0.000000 -0.000605 0.000000
# 4 0.000000 0.000000 0.000000 0.018769 0.000000 -0.061422
# 5 0.004718 -0.000690 -0.000605 0.000000 0.022283 0.000000
# 6 0.000000 0.000000 0.000000 -0.061422 0.000000 -0.326024
#
#
# Mechanical properties :
#
#
# Convention : Reuss Voigt Hill
#
# Bulk Modulus (GPa) = 69.45589 82.38126 75.91857
# Shear Modulus (GPa) = -22.42310 31.52019 4.54855
#
# Velocity S-wave (km/s) = -3.17273 3.76166 1.42896
# Velocity P-wave (km/s) = 4.21409 7.47325 6.06663
#
# Compressibility (1/GPa) = 0.01439763
#
# Stress axis : x y z
#
# Youngs Moduli (GPa) = 71.62920 65.82146 150.60448
#
# Poissons Ratio (x) = 0.34320 0.46722
# Poissons Ratio (y) = 0.37348 0.35865
# Poissons Ratio (z) = 0.22221 0.15675
#
# Static dielectric constant tensor:
#      x y z
#    x 3.660730 0.000000 -0.475600 
#    y 0.000000 4.148830 0.000000 
#    z -0.475600 0.000000 3.539390 
# 
# 
# High freq. dielectric constant tensor:
#      x y z
#    x 1.879150 0.000000 -0.002670 
#    y 0.000000 1.864330 0.000000 
#    z -0.002670 0.000000 1.906840 
# 
# From -- ./inp_files/64573.got.cif
#   From: 2010.06.25/outbox.cif.g09.slc.cpg/sg10_33_cif.got.tgz:64573.got - 2010.06.27 22:07:45.
