data_PCOD8066503
_publ_section_title
;
Structure prediction by ZEFSAII (Michael W. Deem and Ramdas Pophale) SiO2 
 PCOD8066503
Probable space group: P 2/M
;
_chemical_formula_sum "Si O2"
_cell_formula_units_Z 32
_cell_length_a 25.097448
_cell_length_b 14.653172
_cell_length_c 8.667280
_cell_angle_alpha 90.000000
_cell_angle_beta 149.820385
_cell_angle_gamma 90.000000
_cell_volume 1602.373120
_symmetry_space_group_name_H-M "P 2/M"
_symmetry_group_IT_number 10
_symmetry_cell_setting 'monoclinic'
loop_
_space_group_symop_operation_xyz
x,y,z
-x,y,-z
-x,-y,-z
x,-y,z
loop_
_atom_site_type_symbol
_atom_site_label
_atom_site_fract_x
_atom_site_fract_y
_atom_site_fract_z
Si Si1 0.617118 0.206115 0.354755
Si Si2 0.387926 0.786179 0.289691
Si Si3 0.802674 0.106176 0.326098
Si Si4 0.998941 0.210508 0.680986
Si Si5 0.936111 0.598374 0.495878
Si Si6 0.309798 0.598467 0.132153
Si Si7 0.379386 0.403767 0.648861
Si Si8 0.193351 0.105572 0.304745
O O1 0.613396 0.206247 0.529757
O O2 0.664481 0.304189 0.408669
O O3 0.692005 0.126145 0.480687
O O4 0.500000 0.186574 0.000000
O O5 0.500000 0.814373 0.500000
O O6 0.358480 0.683172 0.158571
O O7 0.304329 0.856283 0.013243
O O8 0.806190 0.128658 0.514761
O O9 0.904645 0.147353 0.500342
O O10 0.805421 0.000000 0.299628
O O11 0.000000 0.214269 0.500000
O O12 0.981738 0.314193 0.703792
O O13 0.109095 0.171053 0.014064
O O14 0.946960 0.500000 0.612512
O O15 0.000000 0.588592 0.500000
O O16 0.813964 0.617888 0.147746
O O17 0.324988 0.500000 0.083845
O O18 0.372534 0.593259 0.448319
O O19 0.325563 0.500000 0.577662
O O20 0.500000 0.405391 0.000000
O O21 0.164983 0.000000 0.202850
#
# Coordination Sequence:
#
# PCOD8066503 Si02
#       8
#     4   4   4   4   4   4   4   4
#     4  10  21  38  60  88 121 159 196 245 292 351
#     4  11  22  37  60  88 119 157 202 246 297 351
#     4  11  24  43  62  84 117 157 197 246 304 357
#     4  11  22  38  65  94 119 151 194 246 294 352
#     4   9  18  32  56  90 123 155 191 234 288 352
#     4   9  17  32  54  83 120 157 195 239 289 350
#     4   8  15  28  50  80 114 150 188 232 282 339
#     4  11  25  42  62  86 116 155 199 247 303 360
#
# _framework density 19.970379000000001
#
# number of rings (size 3 to 8) (size 9 to 14) (size 15 to 20)
#    0.000    2.000    1.250    2.250    5.250    4.250 
#    0.000    0.000    0.000    5.250    0.000    0.000 
#    0.000    0.000    0.000    0.000    0.000    0.000 
#
# Total GULP energy -396446.894269 kJ/mol
# GULP energy per Si atom -12388.965446 kJ/mol
# Density = 1.992493 g / cm^3
# Si number density = 19.970379 Si / 1000 Ang^3
#
#
#
# Elastic Constant Matrix: (Units=GPa)
#
#
# Indices 1 2 3 4 5 6 
#
# 1 69.2275 48.4097 35.8918 0.0000 7.4738 0.0000
# 2 48.4097 131.8401 72.0347 0.0000 -9.9126 0.0000
# 3 35.8918 72.0347 116.3353 0.0000 4.9451 0.0000
# 4 0.0000 0.0000 0.0000 24.0214 0.0000 -10.7045
# 5 7.4738 -9.9126 4.9451 0.0000 25.9259 0.0000
# 6 0.0000 0.0000 0.0000 -10.7045 0.0000 2.9164
#
#
#
# Elastic Compliance Matrix: (Units=1/GPa)
#
#
# Indices 1 2 3 4 5 6 
#
# 1 0.021635 -0.007826 -0.001449 0.000000 -0.008953 0.000000
# 2 -0.007826 0.015224 -0.007416 0.000000 0.009491 0.000000
# 3 -0.001449 -0.007416 0.013850 0.000000 -0.005059 0.000000
# 4 0.000000 0.000000 0.000000 -0.065489 0.000000 -0.240380
# 5 -0.008953 0.009491 -0.005059 0.000000 0.045746 0.000000
# 6 0.000000 0.000000 0.000000 -0.240380 0.000000 -0.539423
#
#
# Mechanical properties :
#
#
# Convention : Reuss Voigt Hill
#
# Bulk Modulus (GPa) = 57.70823 70.00839 63.85831
# Shear Modulus (GPa) = -10.65413 21.31049 5.32818
#
# Velocity S-wave (km/s) = -2.31226 3.27020 1.63519
# Velocity P-wave (km/s) = 4.67236 7.02789 5.96750
#
# Compressibility (1/GPa) = 0.01732855
#
# Stress axis : x y z
#
# Youngs Moduli (GPa) = 46.22114 65.68679 72.20437
#
# Poissons Ratio (x) = 0.51404 0.10460
# Poissons Ratio (y) = 0.36171 0.53544
# Poissons Ratio (z) = 0.06696 0.48711
#
# Static dielectric constant tensor:
#      x y z
#    x 3.283510 0.000000 0.019720 
#    y 0.000000 4.491940 0.000000 
#    z 0.019720 0.000000 3.848280 
# 
# 
# High freq. dielectric constant tensor:
#      x y z
#    x 1.738680 0.000000 0.006450 
#    y 0.000000 1.809710 0.000000 
#    z 0.006450 0.000000 1.786840 
# 
# From -- ./inp_files/36379.got.cif
#   From: 2010.06.25/outbox.cif.g09.slc.cpg/sg10_19_cif.got.tgz:36379.got - 2010.06.27 22:07:45.
