data_PCOD8066413
_publ_section_title
;
Structure prediction by ZEFSAII (Michael W. Deem and Ramdas Pophale) SiO2 
 PCOD8066413
Probable space group: P 2/M
;
_chemical_formula_sum "Si O2"
_cell_formula_units_Z 28
_cell_length_a 17.734469
_cell_length_b 15.083791
_cell_length_c 5.195804
_cell_angle_alpha 90.000000
_cell_angle_beta 74.633214
_cell_angle_gamma 90.000000
_cell_volume 1340.203462
_symmetry_space_group_name_H-M "P 2/M"
_symmetry_group_IT_number 10
_symmetry_cell_setting 'monoclinic'
loop_
_space_group_symop_operation_xyz
x,y,z
-x,y,-z
-x,-y,-z
x,-y,z
loop_
_atom_site_type_symbol
_atom_site_label
_atom_site_fract_x
_atom_site_fract_y
_atom_site_fract_z
Si Si1 0.774451 0.601347 0.136329
Si Si2 0.193780 0.825061 0.499466
Si Si3 0.591913 0.817283 0.895398
Si Si4 0.087463 0.727490 0.934360
Si Si5 0.297103 0.323500 0.278132
Si Si6 0.077806 0.903806 0.268962
Si Si7 0.668153 0.103252 0.333428
O O1 0.796140 0.500000 0.172586
O O2 0.855158 0.653201 0.998586
O O3 0.725714 0.639135 0.421402
O O4 0.719917 0.606505 0.932321
O O5 0.124633 0.754022 0.627732
O O6 0.250474 0.768529 0.262685
O O7 0.154147 0.905778 0.383865
O O8 0.242693 0.861470 0.700723
O O9 0.613835 0.713358 0.812353
O O10 0.619501 0.881168 0.639311
O O11 0.500000 0.825025 0.000000
O O12 0.629721 0.845327 0.132292
O O13 0.085110 0.822430 0.072433
O O14 0.000000 0.686928 0.000000
O O15 0.000000 0.890232 0.500000
O O16 0.075728 0.000000 0.128391
O O17 0.670148 0.000000 0.265356
#
# Coordination Sequence:
#
# PCOD8066413 Si02
#       7
#     4   4   4   4   4   4   4
#     4  11  23  41  68  96 123 161 206 259 322 388
#     4  10  21  38  57  80 119 167 213 259 308 362
#     4  11  23  41  65  91 124 168 208 250 318 386
#     4  11  22  38  58  83 124 163 208 266 320 365
#     4  10  21  41  65  91 123 158 203 250 311 380
#     4  11  22  35  54  83 118 165 216 261 313 362
#     4  11  24  38  58  91 127 169 220 269 309 359
#
# _framework density 20.892351000000001
#
# number of rings (size 3 to 8) (size 9 to 14) (size 15 to 20)
#    0.000    1.286    2.857    4.286    2.000    3.429 
#    0.000    0.000    0.000    5.571    0.000    0.000 
#    0.000    0.000    0.000    0.000    0.000    0.000 
#
# Total GULP energy -346970.366446 kJ/mol
# GULP energy per Si atom -12391.798802 kJ/mol
# Density = 2.084480 g / cm^3
# Si number density = 20.892351 Si / 1000 Ang^3
#
#
#
# Elastic Constant Matrix: (Units=GPa)
#
#
# Indices 1 2 3 4 5 6 
#
# 1 87.2517 15.4044 27.7048 0.0000 4.1895 0.0000
# 2 15.4044 104.9658 11.9721 0.0000 -0.4799 0.0000
# 3 27.7048 11.9721 86.7429 0.0000 10.4406 0.0000
# 4 0.0000 0.0000 0.0000 26.7626 0.0000 4.5200
# 5 4.1895 -0.4799 10.4406 0.0000 31.4343 0.0000
# 6 0.0000 0.0000 0.0000 4.5200 0.0000 18.5333
#
#
#
# Elastic Compliance Matrix: (Units=1/GPa)
#
#
# Indices 1 2 3 4 5 6 
#
# 1 0.012976 -0.001463 -0.003887 0.000000 -0.000461 0.000000
# 2 -0.001463 0.009856 -0.000973 0.000000 0.000669 0.000000
# 3 -0.003887 -0.000973 0.013378 0.000000 -0.003940 0.000000
# 4 0.000000 0.000000 0.000000 0.038971 0.000000 -0.009504
# 5 -0.000461 0.000669 -0.003940 0.000000 0.033193 0.000000
# 6 0.000000 0.000000 0.000000 -0.009504 0.000000 0.056275
#
#
# Mechanical properties :
#
#
# Convention : Reuss Voigt Hill
#
# Bulk Modulus (GPa) = 42.43961 43.23591 42.83776
# Shear Modulus (GPa) = 27.00519 30.27130 28.63824
#
# Velocity S-wave (km/s) = 3.59916 3.81059 3.70638
# Velocity P-wave (km/s) = 6.13429 6.33249 6.23417
#
# Compressibility (1/GPa) = 0.02356289
#
# Stress axis : x y z
#
# Youngs Moduli (GPa) = 77.06697 101.46391 74.74731
#
# Poissons Ratio (x) = 0.14845 0.29054
# Poissons Ratio (y) = 0.11275 0.07277
# Poissons Ratio (z) = 0.29955 0.09877
#
# Static dielectric constant tensor:
#      x y z
#    x 4.474350 0.000000 -0.373660 
#    y 0.000000 3.710830 0.000000 
#    z -0.373660 0.000000 3.904300 
# 
# 
# High freq. dielectric constant tensor:
#      x y z
#    x 1.813820 0.000000 -0.003620 
#    y 0.000000 1.800410 0.000000 
#    z -0.003620 0.000000 1.824460 
# 
# From -- ./inp_files/11269.got.cif
#   From: 2010.06.25/outbox.cif.g09.slc.cpg/sg10_6_cif.got.tgz:11269.got - 2010.06.27 22:07:45.
