data_PCOD8066014
_publ_section_title
;
Structure prediction by ZEFSAII (Michael W. Deem and Ramdas Pophale) SiO2 
 PCOD8066014
Probable space group: P 2/M
;
_chemical_formula_sum "Si O2"
_cell_formula_units_Z 24
_cell_length_a 19.233256
_cell_length_b 9.426161
_cell_length_c 7.052648
_cell_angle_alpha 90.000000
_cell_angle_beta 64.186160
_cell_angle_gamma 90.000000
_cell_volume 1151.026839
_symmetry_space_group_name_H-M "P 2/M"
_symmetry_group_IT_number 10
_symmetry_cell_setting 'monoclinic'
loop_
_space_group_symop_operation_xyz
x,y,z
-x,y,-z
-x,-y,-z
x,-y,z
loop_
_atom_site_type_symbol
_atom_site_label
_atom_site_fract_x
_atom_site_fract_y
_atom_site_fract_z
Si Si1 0.801123 0.662535 0.978437
Si Si2 0.171228 0.164811 0.431222
Si Si3 0.527514 0.657114 0.747902
Si Si4 0.659356 0.163066 0.693542
Si Si5 0.915555 0.335062 0.173668
Si Si6 0.636091 0.661688 0.092567
O O1 0.819236 0.500000 0.898456
O O2 0.821537 0.764024 0.781315
O O3 0.852922 0.709017 0.092078
O O4 0.709856 0.678939 0.144768
O O5 0.249977 0.183601 0.462303
O O6 0.101028 0.240990 0.622217
O O7 0.151617 0.000000 0.425445
O O8 0.557918 0.500000 0.665300
O O9 0.600121 0.760021 0.617790
O O10 0.449432 0.690289 0.713806
O O11 0.500000 0.670879 0.000000
O O12 0.635604 0.000000 0.723977
O O13 0.647802 0.226150 0.913950
O O14 0.909220 0.500000 0.236166
O O15 0.000000 0.295911 0.000000
O O16 0.635220 0.500000 0.010808
#
# Coordination Sequence:
#
# PCOD8066014 Si02
#       6
#     4   4   4   4   4   4
#     4   9  18  35  58  80 106 141 178 218 263 312
#     4  10  21  36  55  80 110 143 177 215 261 316
#     4   8  13  21  36  62  95 129 167 210 251 293
#     4   9  16  25  40  66  98 132 171 209 248 298
#     4  10  22  39  59  83 107 134 173 220 269 320
#     4   8  14  25  42  66  96 131 170 209 252 300
#
# _framework density 20.850946
#
# number of rings (size 3 to 8) (size 9 to 14) (size 15 to 20)
#    0.000    3.000    0.000    2.000    0.000    6.667 
#    0.000    3.333    0.000    1.000    0.000    7.000 
#    0.000    0.000    0.000    0.000    0.000    0.000 
#
# Total GULP energy -297355.082206 kJ/mol
# GULP energy per Si atom -12389.795092 kJ/mol
# Density = 2.080349 g / cm^3
# Si number density = 20.850946 Si / 1000 Ang^3
#
#
#
# Elastic Constant Matrix: (Units=GPa)
#
#
# Indices 1 2 3 4 5 6 
#
# 1 74.3083 14.3279 -0.1444 0.0000 -13.7172 0.0000
# 2 14.3279 91.5330 28.0118 0.0000 -10.2805 0.0000
# 3 -0.1444 28.0118 48.6856 0.0000 -18.4713 0.0000
# 4 0.0000 0.0000 0.0000 11.4990 0.0000 -6.4327
# 5 -13.7172 -10.2805 -18.4713 0.0000 19.8576 0.0000
# 6 0.0000 0.0000 0.0000 -6.4327 0.0000 20.8639
#
#
#
# Elastic Compliance Matrix: (Units=1/GPa)
#
#
# Indices 1 2 3 4 5 6 
#
# 1 0.017653 -0.003461 0.009257 0.000000 0.019013 0.000000
# 2 -0.003461 0.013940 -0.009581 0.000000 -0.004086 0.000000
# 3 0.009257 -0.009581 0.041145 0.000000 0.039707 0.000000
# 4 0.000000 0.000000 0.000000 0.105090 0.000000 0.032401
# 5 0.019013 -0.004086 0.039707 0.000000 0.098312 0.000000
# 6 0.000000 0.000000 0.000000 0.032401 0.000000 0.057919
#
#
# Mechanical properties :
#
#
# Convention : Reuss Voigt Hill
#
# Bulk Modulus (GPa) = 15.34490 33.21306 24.27898
# Shear Modulus (GPa) = 13.76084 21.93288 17.84686
#
# Velocity S-wave (km/s) = 2.57176 3.24680 2.92879
# Velocity P-wave (km/s) = 4.02417 5.47896 4.80692
#
# Compressibility (1/GPa) = 0.06516823
#
# Stress axis : x y z
#
# Youngs Moduli (GPa) = 56.64904 71.73678 24.30455
#
# Poissons Ratio (x) = 0.24826 -0.22499
# Poissons Ratio (y) = 0.19604 0.23286
# Poissons Ratio (z) = -0.52441 0.68730
#
# Static dielectric constant tensor:
#      x y z
#    x 4.243530 0.000000 -0.455900 
#    y 0.000000 3.690860 0.000000 
#    z -0.455900 0.000000 3.364660 
# 
# 
# High freq. dielectric constant tensor:
#      x y z
#    x 1.824500 0.000000 -0.024220 
#    y 0.000000 1.807970 0.000000 
#    z -0.024220 0.000000 1.784220 
# 
# From -- ./inp_files/33756.got.cif
#   From: 2010.06.25/outbox.cif.g09.slc.cpg/sg10_17_cif.got.tgz:33756.got - 2010.06.27 22:07:45.
