data_PCOD8066029
_publ_section_title
;
Structure prediction by ZEFSAII (Michael W. Deem and Ramdas Pophale) SiO2 
 PCOD8066029
Probable space group: P 2/M
;
_chemical_formula_sum "Si O2"
_cell_formula_units_Z 22
_cell_length_a 5.016850
_cell_length_b 24.357507
_cell_length_c 9.369625
_cell_angle_alpha 90.000000
_cell_angle_beta 73.467959
_cell_angle_gamma 90.000000
_cell_volume 1097.617725
_symmetry_space_group_name_H-M "P 2/M"
_symmetry_group_IT_number 10
_symmetry_cell_setting 'monoclinic'
loop_
_space_group_symop_operation_xyz
x,y,z
-x,y,-z
-x,-y,-z
x,-y,z
loop_
_atom_site_type_symbol
_atom_site_label
_atom_site_fract_x
_atom_site_fract_y
_atom_site_fract_z
Si Si1 0.906473 0.655824 0.675600
Si Si2 0.697978 0.000000 0.607309
Si Si3 0.810834 0.438585 0.900627
Si Si4 0.427364 0.100711 0.171358
Si Si5 0.399438 0.276366 0.673977
Si Si6 0.920348 0.171509 0.168208
O O1 0.818707 0.598627 0.758400
O O2 0.663335 0.702428 0.725986
O O3 0.000000 0.644363 0.500000
O O4 0.169083 0.676705 0.724410
O O5 0.500000 0.000000 0.500000
O O6 0.670269 0.052227 0.713191
O O7 0.000000 0.000000 0.500000
O O8 0.913295 0.500000 0.843549
O O9 0.500000 0.440249 0.000000
O O10 0.000000 0.414788 0.000000
O O11 0.716378 0.119896 0.194436
O O12 0.198872 0.150475 0.207009
O O13 0.500000 0.080324 0.000000
O O14 0.500000 0.267593 0.500000
O O15 0.254275 0.219638 0.734439
O O16 0.000000 0.193082 0.000000
#
# Coordination Sequence:
#
# PCOD8066029 Si02
#       6
#     4   2   4   4   4   4
#     4  10  21  37  56  81 113 150 190 228 279 342
#     4  12  25  40  61  92 118 146 192 238 281 334
#     4  10  21  37  57  83 113 146 188 238 288 334
#     4  10  22  41  61  83 116 153 187 229 282 336
#     4  10  21  36  55  82 115 148 184 232 283 330
#     4  10  21  37  59  85 111 147 193 231 273 335
#
# _framework density 20.043406000000001
#
# number of rings (size 3 to 8) (size 9 to 14) (size 15 to 20)
#    0.000    1.818    0.000    3.545    0.000    4.727 
#    0.000    3.636    0.000    6.545    0.000    0.000 
#    0.000    0.000    0.000    0.000    0.000    0.000 
#
# Total GULP energy -272690.953716 kJ/mol
# GULP energy per Si atom -12395.043351 kJ/mol
# Density = 1.999779 g / cm^3
# Si number density = 20.043406 Si / 1000 Ang^3
#
#
#
# Elastic Constant Matrix: (Units=GPa)
#
#
# Indices 1 2 3 4 5 6 
#
# 1 112.7322 19.7277 40.4831 0.0000 -8.2487 0.0000
# 2 19.7277 94.5708 61.4235 0.0000 -8.7554 0.0000
# 3 40.4831 61.4235 74.6409 0.0000 -11.0569 0.0000
# 4 0.0000 0.0000 0.0000 82.4769 0.0000 3.4014
# 5 -8.2487 -8.7554 -11.0569 0.0000 28.6058 0.0000
# 6 0.0000 0.0000 0.0000 3.4014 0.0000 41.3235
#
#
#
# Elastic Compliance Matrix: (Units=1/GPa)
#
#
# Indices 1 2 3 4 5 6 
#
# 1 0.011573 0.003564 -0.009073 0.000000 0.000921 0.000000
# 2 0.003564 0.023815 -0.021532 0.000000 -0.000006 0.000000
# 3 -0.009073 -0.021532 0.036779 0.000000 0.005010 0.000000
# 4 0.000000 0.000000 0.000000 0.012166 0.000000 -0.001001
# 5 0.000921 -0.000006 0.005010 0.000000 0.037158 0.000000
# 6 0.000000 0.000000 0.000000 -0.001001 0.000000 0.024282
#
#
# Mechanical properties :
#
#
# Convention : Reuss Voigt Hill
#
# Bulk Modulus (GPa) = 55.29309 58.35694 56.82502
# Shear Modulus (GPa) = 24.28572 41.16856 32.72714
#
# Velocity S-wave (km/s) = 3.48466 4.53699 4.04519
# Velocity P-wave (km/s) = 6.62096 7.52491 7.08736
#
# Compressibility (1/GPa) = 0.01808544
#
# Stress axis : x y z
#
# Youngs Moduli (GPa) = 86.41159 41.99074 27.18907
#
# Poissons Ratio (x) = -0.14967 0.24669
# Poissons Ratio (y) = -0.30799 0.58543
# Poissons Ratio (z) = 0.78404 0.90413
#
# Static dielectric constant tensor:
#      x y z
#    x 4.073110 0.000000 -0.144720 
#    y 0.000000 3.556560 0.000000 
#    z -0.144720 0.000000 3.649880 
# 
# 
# High freq. dielectric constant tensor:
#      x y z
#    x 1.806790 0.000000 -0.011610 
#    y 0.000000 1.777640 0.000000 
#    z -0.011610 0.000000 1.776360 
# 
# From -- ./inp_files/5201.got.cif
#   From: 2010.06.25/outbox.cif.g09.slc.cpg/sg10_3_cif.got.tgz:5201.got - 2010.06.27 22:07:45.
