data_PCOD8066279
_publ_section_title
;
Structure prediction by ZEFSAII (Michael W. Deem and Ramdas Pophale) SiO2 
 PCOD8066279
Probable space group: P 2/M
;
_chemical_formula_sum "Si O2"
_cell_formula_units_Z 28
_cell_length_a 19.981407
_cell_length_b 8.806187
_cell_length_c 13.515357
_cell_angle_alpha 90.000000
_cell_angle_beta 144.809185
_cell_angle_gamma 90.000000
_cell_volume 1370.538061
_symmetry_space_group_name_H-M "P 2/M"
_symmetry_group_IT_number 10
_symmetry_cell_setting 'monoclinic'
loop_
_space_group_symop_operation_xyz
x,y,z
-x,y,-z
-x,-y,-z
x,-y,z
loop_
_atom_site_type_symbol
_atom_site_label
_atom_site_fract_x
_atom_site_fract_y
_atom_site_fract_z
Si Si1 0.788708 0.677438 0.438876
Si Si2 0.397111 0.677959 0.940745
Si Si3 0.009374 0.177524 0.624094
Si Si4 0.122434 0.820067 0.111485
Si Si5 0.437033 0.679867 0.206948
Si Si6 0.214557 0.822891 0.013126
Si Si7 0.681678 0.180182 0.502082
O O1 0.787761 0.500000 0.462558
O O2 0.725885 0.713515 0.258660
O O3 0.718158 0.762376 0.438493
O O4 0.919118 0.736800 0.586063
O O5 0.419951 0.500000 0.976824
O O6 0.500000 0.752115 0.000000
O O7 0.401684 0.745826 0.056286
O O8 0.000000 0.237656 0.500000
O O9 0.979969 0.000000 0.593744
O O10 0.136474 0.212697 0.821901
O O11 0.145465 0.768225 0.026954
O O12 0.224525 0.759712 0.305596
O O13 0.116103 0.000000 0.110860
O O14 0.000000 0.749551 0.000000
O O15 0.449533 0.500000 0.224695
O O16 0.334725 0.731232 0.156362
O O17 0.558342 0.752486 0.386488
O O18 0.244541 0.000000 0.056138
O O19 0.673491 0.000000 0.490693
#
# Coordination Sequence:
#
# PCOD8066279 Si02
#       7
#     4   4   4   4   4   4   4
#     4  11  21  35  58  85 115 152 193 236 286 343
#     4   9  17  33  54  77 111 154 191 222 268 337
#     4  10  21  37  58  86 119 150 187 239 290 337
#     4   9  19  38  63  85 108 147 194 235 280 340
#     4  11  22  38  59  84 118 153 190 234 286 345
#     4  10  21  39  61  84 115 153 192 234 284 342
#     4  11  22  37  59  86 113 145 193 243 286 333
#
# _framework density 20.429932999999998
#
# number of rings (size 3 to 8) (size 9 to 14) (size 15 to 20)
#    0.000    1.857    1.429    3.000    0.000    3.714 
#    0.000    7.143    0.000    3.000    0.000    0.000 
#    0.000    0.000    0.000    0.000    0.000    0.000 
#
# Total GULP energy -347260.506055 kJ/mol
# GULP energy per Si atom -12402.160931 kJ/mol
# Density = 2.038343 g / cm^3
# Si number density = 20.429933 Si / 1000 Ang^3
#
#
#
# Elastic Constant Matrix: (Units=GPa)
#
#
# Indices 1 2 3 4 5 6 
#
# 1 119.1589 29.3029 63.7883 0.0000 12.5764 0.0000
# 2 29.3029 59.1950 42.8929 0.0000 7.2145 0.0000
# 3 63.7883 42.8929 144.8869 0.0000 11.0474 0.0000
# 4 0.0000 0.0000 0.0000 19.3035 0.0000 2.6775
# 5 12.5764 7.2145 11.0474 0.0000 41.1395 0.0000
# 6 0.0000 0.0000 0.0000 2.6775 0.0000 22.9767
#
#
#
# Elastic Compliance Matrix: (Units=1/GPa)
#
#
# Indices 1 2 3 4 5 6 
#
# 1 0.011419 -0.002393 -0.004170 0.000000 -0.001951 0.000000
# 2 -0.002393 0.022188 -0.005384 0.000000 -0.001714 0.000000
# 3 -0.004170 -0.005384 0.010375 0.000000 -0.000567 0.000000
# 4 0.000000 0.000000 0.000000 0.052655 0.000000 -0.006136
# 5 -0.001951 -0.001714 -0.000567 0.000000 0.025357 0.000000
# 6 0.000000 0.000000 0.000000 -0.006136 0.000000 0.044237
#
#
# Mechanical properties :
#
#
# Convention : Reuss Voigt Hill
#
# Bulk Modulus (GPa) = 49.78320 66.13436 57.95878
# Shear Modulus (GPa) = 25.40352 29.16771 27.28561
#
# Velocity S-wave (km/s) = 3.53008 3.78258 3.65851
# Velocity P-wave (km/s) = 6.40593 7.17766 6.80275
#
# Compressibility (1/GPa) = 0.02008710
#
# Stress axis : x y z
#
# Youngs Moduli (GPa) = 87.57373 45.06844 96.38427
#
# Poissons Ratio (x) = 0.10786 0.40193
# Poissons Ratio (y) = 0.20958 0.51898
# Poissons Ratio (z) = 0.36519 0.24267
#
# Static dielectric constant tensor:
#      x y z
#    x 3.750320 0.000000 -0.037470 
#    y 0.000000 3.350430 0.000000 
#    z -0.037470 0.000000 3.851860 
# 
# 
# High freq. dielectric constant tensor:
#      x y z
#    x 1.802990 0.000000 0.004880 
#    y 0.000000 1.767780 0.000000 
#    z 0.004880 0.000000 1.809800 
# 
# From -- ./inp_files/70271.got.cif
#   From: 2010.06.25/outbox.cif.g09.slc.cpg/sg10_36_cif.got.tgz:70271.got - 2010.06.27 22:07:45.
