data_PCOD8066900
_publ_section_title
;
Structure prediction by ZEFSAII (Michael W. Deem and Ramdas Pophale) SiO2 
 PCOD8066900
Probable space group: P 2/M
;
_chemical_formula_sum "Si O2"
_cell_formula_units_Z 14
_cell_length_a 5.299389
_cell_length_b 18.719100
_cell_length_c 5.395630
_cell_angle_alpha 90.000000
_cell_angle_beta 89.961855
_cell_angle_gamma 90.000000
_cell_volume 535.245258
_symmetry_space_group_name_H-M "P 2/M"
_symmetry_group_IT_number 10
_symmetry_cell_setting 'monoclinic'
loop_
_space_group_symop_operation_xyz
x,y,z
-x,y,-z
-x,-y,-z
x,-y,z
loop_
_atom_site_type_symbol
_atom_site_label
_atom_site_fract_x
_atom_site_fract_y
_atom_site_fract_z
Si Si1 0.749606 0.421491 0.339759
Si Si2 0.247987 0.272394 0.863967
Si Si3 0.500000 0.181846 0.500000
Si Si4 0.154165 0.081079 0.244650
O O1 0.500000 0.409394 0.500000
O O2 0.739162 0.500000 0.209957
O O3 0.762813 0.358645 0.140300
O O4 0.000000 0.415367 0.500000
O O5 0.272154 0.233666 0.596558
O O6 0.500000 0.248022 0.000000
O O7 0.000000 0.242953 0.000000
O O8 0.396962 0.132045 0.276406
O O9 0.000000 0.087950 0.500000
O O10 0.249241 0.000000 0.206618
O O11 0.000000 0.105450 0.000000
#
# Coordination Sequence:
#
# PCOD8066900 Si02
#       4
#     4   4   2   4
#     4  10  21  43  72 101 144 200 257 324 392 462
#     4  12  29  46  73 112 151 204 263 319 401 479
#     4  12  29  46  75 110 164 204 252 336 397 488
#     4  10  25  49  80 115 155 208 269 329 399 482
#
# _framework density 26.156230999999998
#
# number of rings (size 3 to 8) (size 9 to 14) (size 15 to 20)
#    0.000    1.143    1.429    2.143    8.000    1.143 
#    0.000    4.286    0.000    2.571    0.000    0.000 
#    0.000    0.000    0.000    0.000    0.000    0.000 
#
# Total GULP energy -173580.971754 kJ/mol
# GULP energy per Si atom -12398.640840 kJ/mol
# Density = 2.609670 g / cm^3
# Si number density = 26.156231 Si / 1000 Ang^3
#
#
#
# Elastic Constant Matrix: (Units=GPa)
#
#
# Indices 1 2 3 4 5 6 
#
# 1 186.5406 52.1571 56.4230 0.0000 -9.2437 0.0000
# 2 52.1571 177.8044 50.3608 0.0000 2.2408 0.0000
# 3 56.4230 50.3608 125.8370 0.0000 0.7969 0.0000
# 4 0.0000 0.0000 0.0000 -81.1045 0.0000 -32.2823
# 5 -9.2437 2.2408 0.7969 0.0000 50.3268 0.0000
# 6 0.0000 0.0000 0.0000 -32.2823 0.0000 7.5826
#
#
#
# Elastic Compliance Matrix: (Units=1/GPa)
#
#
# Indices 1 2 3 4 5 6 
#
# 1 0.006505 -0.001236 -0.002430 0.000000 0.001288 0.000000
# 2 -0.001236 0.006581 -0.002076 0.000000 -0.000487 0.000000
# 3 -0.002430 -0.002076 0.009871 0.000000 -0.000510 0.000000
# 4 0.000000 0.000000 0.000000 -0.004576 0.000000 -0.019481
# 5 0.001288 -0.000487 -0.000510 0.000000 0.020137 0.000000
# 6 0.000000 0.000000 0.000000 -0.019481 0.000000 0.048943
#
#
# Mechanical properties :
#
#
# Convention : Reuss Voigt Hill
#
# Bulk Modulus (GPa) = 87.17396 89.78487 88.47941
# Shear Modulus (GPa) = 48.65224 17.44371 33.04798
#
# Velocity S-wave (km/s) = 4.31752 2.58525 3.55841
# Velocity P-wave (km/s) = 7.63251 6.58121 7.12627
#
# Compressibility (1/GPa) = 0.01147132
#
# Stress axis : x y z
#
# Youngs Moduli (GPa) = 153.71996 151.95189 101.30969
#
# Poissons Ratio (x) = 0.18784 0.24621
# Poissons Ratio (y) = 0.19002 0.21036
# Poissons Ratio (z) = 0.37359 0.31552
#
# Static dielectric constant tensor:
#      x y z
#    x 4.708710 0.000000 0.035890 
#    y 0.000000 5.169020 0.000000 
#    z 0.035890 0.000000 4.433720 
# 
# 
# High freq. dielectric constant tensor:
#      x y z
#    x 2.051870 0.000000 -0.000480 
#    y 0.000000 2.081830 0.000000 
#    z -0.000480 0.000000 2.024480 
# 
# From -- ./inp_files/1270.got.cif
#   From: 2010.06.25/outbox.cif.g09.slc.cpg/sg10_1_cif.got.tgz:1270.got - 2010.06.27 22:07:45.
