data_PCOD8066443
_publ_section_title
;
Structure prediction by ZEFSAII (Michael W. Deem and Ramdas Pophale) SiO2 
 PCOD8066443
Probable space group: P 2/M
;
_chemical_formula_sum "Si O2"
_cell_formula_units_Z 32
_cell_length_a 14.180139
_cell_length_b 8.913015
_cell_length_c 16.903373
_cell_angle_alpha 90.000000
_cell_angle_beta 126.601921
_cell_angle_gamma 90.000000
_cell_volume 1715.080478
_symmetry_space_group_name_H-M "P 2/M"
_symmetry_group_IT_number 10
_symmetry_cell_setting 'monoclinic'
loop_
_space_group_symop_operation_xyz
x,y,z
-x,y,-z
-x,-y,-z
x,-y,z
loop_
_atom_site_type_symbol
_atom_site_label
_atom_site_fract_x
_atom_site_fract_y
_atom_site_fract_z
Si Si1 0.002677 0.668997 0.797409
Si Si2 0.101528 0.177188 0.992134
Si Si3 0.423280 0.322492 0.684330
Si Si4 0.389191 0.829912 0.501211
Si Si5 0.811396 0.825244 0.399800
Si Si6 0.261622 0.329261 0.307844
Si Si7 0.342408 0.177530 0.192967
Si Si8 0.988524 0.174500 0.622917
O O1 0.049226 0.500000 0.814379
O O2 0.876670 0.675188 0.776631
O O3 0.996092 0.733298 0.706518
O O4 0.090001 0.760237 0.897680
O O5 0.091192 0.000000 0.982844
O O6 0.229496 0.228176 0.086202
O O7 0.000000 0.240404 0.000000
O O8 0.431363 0.500000 0.689732
O O9 0.419252 0.261972 0.593708
O O10 0.306877 0.269676 0.672253
O O11 0.540264 0.254010 0.784344
O O12 0.500000 0.828252 0.500000
O O13 0.282779 0.747015 0.403541
O O14 0.351874 0.000000 0.504643
O O15 0.870194 0.786998 0.514445
O O16 0.899828 0.780951 0.374367
O O17 0.780154 0.000000 0.380395
O O18 0.309439 0.500000 0.330550
O O19 0.327576 0.232438 0.275173
O O20 0.358985 0.000000 0.202236
O O21 0.991253 0.000000 0.645469
#
# Coordination Sequence:
#
# PCOD8066443 Si02
#       8
#     4   4   4   4   4   4   4   4
#     4  11  23  35  54  84 117 148 180 227 288 341
#     4  10  21  38  59  81 106 144 195 240 279 329
#     4  12  24  36  54  80 113 150 184 226 281 338
#     4  11  22  34  50  72 103 146 189 225 263 315
#     4   9  19  38  62  87 114 148 189 231 275 328
#     4  11  22  34  50  77 111 146 182 223 274 330
#     4  11  22  37  56  77 105 145 190 232 273 324
#     4   9  19  37  62  88 114 146 188 234 276 326
#
# _framework density 18.658016
#
# number of rings (size 3 to 8) (size 9 to 14) (size 15 to 20)
#    0.000    1.500    2.500    4.125    0.000    6.250 
#    0.000    1.250    0.000    0.750    0.000    5.250 
#    0.000    0.000    0.000    0.000    0.000    0.000 
#
# Total GULP energy -396860.456030 kJ/mol
# GULP energy per Si atom -12401.889251 kJ/mol
# Density = 1.861555 g / cm^3
# Si number density = 18.658016 Si / 1000 Ang^3
#
#
#
# Elastic Constant Matrix: (Units=GPa)
#
#
# Indices 1 2 3 4 5 6 
#
# 1 81.3949 39.9014 32.8291 0.0000 19.9380 0.0000
# 2 39.9014 88.7448 37.9063 0.0000 18.4011 0.0000
# 3 32.8291 37.9063 91.7937 0.0000 18.2441 0.0000
# 4 0.0000 0.0000 0.0000 15.6084 0.0000 8.4422
# 5 19.9380 18.4011 18.2441 0.0000 30.6916 0.0000
# 6 0.0000 0.0000 0.0000 8.4422 0.0000 20.1098
#
#
#
# Elastic Compliance Matrix: (Units=1/GPa)
#
#
# Indices 1 2 3 4 5 6 
#
# 1 0.017663 -0.005386 -0.002783 0.000000 -0.006591 0.000000
# 2 -0.005386 0.016193 -0.003999 0.000000 -0.003832 0.000000
# 3 -0.002783 -0.003999 0.014407 0.000000 -0.004359 0.000000
# 4 0.000000 0.000000 0.000000 0.082889 0.000000 -0.034797
# 5 -0.006591 -0.003832 -0.004359 0.000000 0.041752 0.000000
# 6 0.000000 0.000000 0.000000 -0.034797 0.000000 0.064335
#
#
# Mechanical properties :
#
#
# Convention : Reuss Voigt Hill
#
# Bulk Modulus (GPa) = 41.79432 53.68967 47.74200
# Shear Modulus (GPa) = 18.54939 23.36839 20.95889
#
# Velocity S-wave (km/s) = 3.15648 3.54285 3.35523
# Velocity P-wave (km/s) = 5.97773 6.75084 6.37602
#
# Compressibility (1/GPa) = 0.02392670
#
# Stress axis : x y z
#
# Youngs Moduli (GPa) = 56.61507 61.75603 69.41166
#
# Poissons Ratio (x) = 0.33265 0.19316
# Poissons Ratio (y) = 0.30496 0.27756
# Poissons Ratio (z) = 0.15755 0.24695
#
# Static dielectric constant tensor:
#      x y z
#    x 3.510580 0.000000 0.227540 
#    y 0.000000 3.436790 0.000000 
#    z 0.227540 0.000000 3.362050 
# 
# 
# High freq. dielectric constant tensor:
#      x y z
#    x 1.718420 0.000000 0.015370 
#    y 0.000000 1.728580 0.000000 
#    z 0.015370 0.000000 1.709870 
# 
# From -- ./inp_files/66584.got.cif
#   From: 2010.06.25/outbox.cif.g09.slc.cpg/sg10_34_cif.got.tgz:66584.got - 2010.06.27 22:07:45.
