data_PCOD8066723
_publ_section_title
;
Structure prediction by ZEFSAII (Michael W. Deem and Ramdas Pophale) SiO2 
 PCOD8066723
Probable space group: P 2/M
;
_chemical_formula_sum "Si O2"
_cell_formula_units_Z 20
_cell_length_a 11.099522
_cell_length_b 10.198477
_cell_length_c 8.751930
_cell_angle_alpha 90.000000
_cell_angle_beta 70.381425
_cell_angle_gamma 90.000000
_cell_volume 933.191257
_symmetry_space_group_name_H-M "P 2/M"
_symmetry_group_IT_number 10
_symmetry_cell_setting 'monoclinic'
loop_
_space_group_symop_operation_xyz
x,y,z
-x,y,-z
-x,-y,-z
x,-y,z
loop_
_atom_site_type_symbol
_atom_site_label
_atom_site_fract_x
_atom_site_fract_y
_atom_site_fract_z
Si Si1 0.014931 0.349348 0.817129
Si Si2 0.375248 0.144536 0.388031
Si Si3 0.691133 0.354964 0.347250
Si Si4 0.587927 0.249299 0.095664
Si Si5 0.811665 0.851382 0.798704
O O1 0.973996 0.500000 0.802668
O O2 0.159492 0.322777 0.706126
O O3 0.926487 0.252032 0.758403
O O4 0.000000 0.314596 0.000000
O O5 0.385434 0.250831 0.518179
O O6 0.498763 0.148507 0.226106
O O7 0.248926 0.170405 0.342012
O O8 0.369937 0.000000 0.465112
O O9 0.663583 0.500000 0.424441
O O10 0.643682 0.354816 0.191343
O O11 0.500000 0.316853 0.000000
O O12 0.706470 0.171196 0.974460
O O13 0.863673 0.000000 0.794471
#
# Coordination Sequence:
#
# PCOD8066723 Si02
#       5
#     4   4   4   4   4
#     4  10  21  40  62  86 121 159 198 247 301 352
#     4  10  23  41  61  89 126 161 194 243 302 356
#     4  11  24  41  61  89 122 158 202 248 297 356
#     4  10  21  39  63  90 121 157 198 247 301 353
#     4  10  21  39  64  93 120 154 204 248 290 353
#
# _framework density 21.431836000000001
#
# number of rings (size 3 to 8) (size 9 to 14) (size 15 to 20)
#    0.000    1.800    2.000    1.200    0.000    9.600 
#    0.000    8.000    0.000    0.000    0.000    0.000 
#    0.000    0.000    0.000    0.000    0.000    0.000 
#
# Total GULP energy -247975.203198 kJ/mol
# GULP energy per Si atom -12398.760160 kJ/mol
# Density = 2.138306 g / cm^3
# Si number density = 21.431836 Si / 1000 Ang^3
#
#
#
# Elastic Constant Matrix: (Units=GPa)
#
#
# Indices 1 2 3 4 5 6 
#
# 1 122.0235 61.3170 31.3734 0.0000 13.2519 0.0000
# 2 61.3170 132.5226 48.7621 0.0000 8.1393 0.0000
# 3 31.3734 48.7621 91.9437 0.0000 8.4844 0.0000
# 4 0.0000 0.0000 0.0000 13.7722 0.0000 6.9552
# 5 13.2519 8.1393 8.4844 0.0000 28.6630 0.0000
# 6 0.0000 0.0000 0.0000 6.9552 0.0000 7.3766
#
#
#
# Elastic Compliance Matrix: (Units=1/GPa)
#
#
# Indices 1 2 3 4 5 6 
#
# 1 0.011137 -0.004544 -0.001063 0.000000 -0.003544 0.000000
# 2 -0.004544 0.011271 -0.004447 0.000000 0.000217 0.000000
# 3 -0.001063 -0.004447 0.013813 0.000000 -0.002334 0.000000
# 4 0.000000 0.000000 0.000000 0.138613 0.000000 -0.130695
# 5 -0.003544 0.000217 -0.002334 0.000000 0.037156 0.000000
# 6 0.000000 0.000000 0.000000 -0.130695 0.000000 0.258792
#
#
# Mechanical properties :
#
#
# Convention : Reuss Voigt Hill
#
# Bulk Modulus (GPa) = 62.06445 69.93276 65.99861
# Shear Modulus (GPa) = 10.07531 23.63151 16.85341
#
# Velocity S-wave (km/s) = 2.17055 3.32420 2.80728
# Velocity P-wave (km/s) = 5.94168 6.88730 6.43189
#
# Compressibility (1/GPa) = 0.01611228
#
# Stress axis : x y z
#
# Youngs Moduli (GPa) = 89.79293 88.72002 72.39561
#
# Poissons Ratio (x) = 0.40314 0.07697
# Poissons Ratio (y) = 0.40802 0.32196
# Poissons Ratio (z) = 0.09547 0.39456
#
# Static dielectric constant tensor:
#      x y z
#    x 4.062540 0.000000 0.148520 
#    y 0.000000 3.664580 0.000000 
#    z 0.148520 0.000000 3.789730 
# 
# 
# High freq. dielectric constant tensor:
#      x y z
#    x 1.855310 0.000000 0.003370 
#    y 0.000000 1.828040 0.000000 
#    z 0.003370 0.000000 1.835580 
# 
# From -- ./inp_files/22171.got.cif
#   From: 2010.06.25/outbox.cif.g09.slc.cpg/sg10_12_cif.got.tgz:22171.got - 2010.06.27 22:07:45.
