data_PCOD8066610
_publ_section_title
;
Structure prediction by ZEFSAII (Michael W. Deem and Ramdas Pophale) SiO2 
 PCOD8066610
Probable space group: P 2/M
;
_chemical_formula_sum "Si O2"
_cell_formula_units_Z 24
_cell_length_a 11.905142
_cell_length_b 10.772611
_cell_length_c 11.615660
_cell_angle_alpha 90.000000
_cell_angle_beta 128.936340
_cell_angle_gamma 90.000000
_cell_volume 1158.756941
_symmetry_space_group_name_H-M "P 2/M"
_symmetry_group_IT_number 10
_symmetry_cell_setting 'monoclinic'
loop_
_space_group_symop_operation_xyz
x,y,z
-x,y,-z
-x,-y,-z
x,-y,z
loop_
_atom_site_type_symbol
_atom_site_label
_atom_site_fract_x
_atom_site_fract_y
_atom_site_fract_z
Si Si1 0.323629 0.000000 0.525725
Si Si2 0.158586 0.805113 0.562809
Si Si3 0.157597 0.770718 0.133943
Si Si4 0.212080 0.636604 0.952338
Si Si5 0.668541 0.140015 0.101597
Si Si6 0.892117 0.638045 0.668406
Si Si7 0.349022 0.000000 0.270029
O O1 0.231360 0.885403 0.510163
O O2 0.336725 0.000000 0.398506
O O3 0.489110 0.000000 0.678385
O O4 0.265092 0.803489 0.739158
O O5 0.146008 0.674053 0.488102
O O6 0.000000 0.853376 0.500000
O O7 0.174039 0.729294 0.277320
O O8 0.271750 0.876717 0.174735
O O9 0.184156 0.650185 0.070906
O O10 0.000000 0.824687 0.000000
O O11 0.284690 0.500000 0.978583
O O12 0.305929 0.756034 0.978335
O O13 0.064625 0.642558 0.786209
O O14 0.733308 0.000000 0.118193
O O15 0.500000 0.123569 0.000000
O O16 0.832157 0.500000 0.651381
#
# Coordination Sequence:
#
# PCOD8066610 Si02
#       7
#     2   4   4   4   4   4   2
#     4  11  25  40  62  95 129 167 208 270 344 374
#     4  12  23  42  67  95 126 169 217 271 315 391
#     4  10  21  38  64  98 127 167 213 270 324 390
#     4  10  22  40  63  92 131 172 214 265 325 386
#     4  11  26  42  63  94 131 173 214 267 329 391
#     4  10  21  40  65  95 126 166 218 271 322 383
#     4  11  23  40  65  92 135 167 212 273 332 400
#
# _framework density 20.711849000000001
#
# number of rings (size 3 to 8) (size 9 to 14) (size 15 to 20)
#    0.000    1.333    4.167    1.000    3.500    3.333 
#    1.500    0.000    0.000    1.000    0.000    0.000 
#    0.000    0.000    0.000    0.000    0.000    0.000 
#
# Total GULP energy -297393.125663 kJ/mol
# GULP energy per Si atom -12391.380236 kJ/mol
# Density = 2.066471 g / cm^3
# Si number density = 20.711849 Si / 1000 Ang^3
#
#
#
# Elastic Constant Matrix: (Units=GPa)
#
#
# Indices 1 2 3 4 5 6 
#
# 1 88.9145 47.8569 39.4671 0.0000 -2.4070 0.0000
# 2 47.8569 141.6618 36.7519 0.0000 2.1556 0.0000
# 3 39.4671 36.7519 93.0327 0.0000 3.6285 0.0000
# 4 0.0000 0.0000 0.0000 62.5047 0.0000 -26.5699
# 5 -2.4070 2.1556 3.6285 0.0000 23.4812 0.0000
# 6 0.0000 0.0000 0.0000 -26.5699 0.0000 -25.0434
#
#
#
# Elastic Compliance Matrix: (Units=1/GPa)
#
#
# Indices 1 2 3 4 5 6 
#
# 1 0.015810 -0.004028 -0.005225 0.000000 0.002798 0.000000
# 2 -0.004028 0.008893 -0.001767 0.000000 -0.000956 0.000000
# 3 -0.005225 -0.001767 0.013761 0.000000 -0.002500 0.000000
# 4 0.000000 0.000000 0.000000 0.011026 0.000000 -0.011698
# 5 0.002798 -0.000956 -0.002500 0.000000 0.043348 0.000000
# 6 0.000000 0.000000 0.000000 -0.011698 0.000000 -0.027519
#
#
# Mechanical properties :
#
#
# Convention : Reuss Voigt Hill
#
# Bulk Modulus (GPa) = 60.88683 63.52899 62.20791
# Shear Modulus (GPa) = 53.86062 25.49071 39.67566
#
# Velocity S-wave (km/s) = 5.10502 3.51198 4.38151
# Velocity P-wave (km/s) = 8.01306 6.86911 7.46304
#
# Compressibility (1/GPa) = 0.01642391
#
# Stress axis : x y z
#
# Youngs Moduli (GPa) = 63.25241 112.45086 72.66943
#
# Poissons Ratio (x) = 0.45295 0.37968
# Poissons Ratio (y) = 0.25478 0.12840
# Poissons Ratio (z) = 0.33048 0.19870
#
# Static dielectric constant tensor:
#      x y z
#    x 3.738150 0.000000 -0.049060 
#    y 0.000000 3.845210 0.000000 
#    z -0.049060 0.000000 3.748300 
# 
# 
# High freq. dielectric constant tensor:
#      x y z
#    x 1.801820 0.000000 -0.017230 
#    y 0.000000 1.811420 0.000000 
#    z -0.017230 0.000000 1.808610 
# 
# From -- ./inp_files/46796.got.cif
#   From: 2010.06.25/outbox.cif.g09.slc.cpg/sg10_24_cif.got.tgz:46796.got - 2010.06.27 22:07:45.
