data_PCOD8066137
_publ_section_title
;
Structure prediction by ZEFSAII (Michael W. Deem and Ramdas Pophale) SiO2 
 PCOD8066137
Probable space group: P 2/M
;
_chemical_formula_sum "Si O2"
_cell_formula_units_Z 26
_cell_length_a 23.367449
_cell_length_b 11.641112
_cell_length_c 5.360747
_cell_angle_alpha 90.000000
_cell_angle_beta 124.304346
_cell_angle_gamma 90.000000
_cell_volume 1204.592998
_symmetry_space_group_name_H-M "P 2/M"
_symmetry_group_IT_number 10
_symmetry_cell_setting 'monoclinic'
loop_
_space_group_symop_operation_xyz
x,y,z
-x,y,-z
-x,-y,-z
x,-y,z
loop_
_atom_site_type_symbol
_atom_site_label
_atom_site_fract_x
_atom_site_fract_y
_atom_site_fract_z
Si Si1 0.581765 0.133142 0.681737
Si Si2 0.685937 0.500000 0.450576
Si Si3 0.134547 0.284663 0.547583
Si Si4 0.224323 0.500000 0.830272
Si Si5 0.779186 0.873480 0.546111
Si Si6 0.000000 0.228201 0.000000
Si Si7 0.643055 0.755982 0.335302
Si Si8 0.917186 0.122669 0.195624
O O1 0.500000 0.140535 0.500000
O O2 0.602595 0.197284 0.477236
O O3 0.606261 0.000000 0.732592
O O4 0.613284 0.195544 0.001539
O O5 0.738200 0.500000 0.345232
O O6 0.639703 0.616232 0.322770
O O7 0.723526 0.500000 0.810336
O O8 0.171532 0.397337 0.726054
O O9 0.197221 0.197357 0.637867
O O10 0.089260 0.234168 0.655146
O O11 0.072030 0.303081 0.191285
O O12 0.721842 0.799553 0.553360
O O13 0.749725 0.000000 0.399530
O O14 0.847164 0.887503 0.870615
O O15 0.986536 0.142784 0.200820
O O16 0.926035 0.000000 0.357521
#
# Coordination Sequence:
#
# PCOD8066137 Si02
#       8
#     4   2   4   2   4   2   4   4
#     4  11  25  46  73 109 151 191 230 280 344 411
#     4  12  26  48  69 108 137 190 233 292 350 413
#     4  11  23  40  61  89 123 173 220 284 346 418
#     4  12  26  45  71  91 141 178 231 292 358 409
#     4  10  21  36  61  96 128 163 222 287 346 412
#     4  10  23  39  58  88 124 167 223 276 348 430
#     4  12  24  44  72 104 143 190 239 287 344 410
#     4  10  21  38  60  89 128 167 214 280 356 422
#
# _framework density 21.584053000000001
#
# number of rings (size 3 to 8) (size 9 to 14) (size 15 to 20)
#    0.000    1.077    1.538    4.846    4.308    4.000 
#    0.000    3.846    0.000    0.000    0.000    0.000 
#    0.000    0.000    0.000    0.000    0.000    0.000 
#
# Total GULP energy -322113.891910 kJ/mol
# GULP energy per Si atom -12388.995843 kJ/mol
# Density = 2.153493 g / cm^3
# Si number density = 21.584053 Si / 1000 Ang^3
#
#
#
# Elastic Constant Matrix: (Units=GPa)
#
#
# Indices 1 2 3 4 5 6 
#
# 1 130.0505 49.3723 33.4869 0.0000 -10.7380 0.0000
# 2 49.3723 174.6532 55.8365 0.0000 1.4775 0.0000
# 3 33.4869 55.8365 68.3876 0.0000 -14.6893 0.0000
# 4 0.0000 0.0000 0.0000 28.2540 0.0000 -23.9541
# 5 -10.7380 1.4775 -14.6893 0.0000 34.9099 0.0000
# 6 0.0000 0.0000 0.0000 -23.9541 0.0000 -13.3281
#
#
#
# Elastic Compliance Matrix: (Units=1/GPa)
#
#
# Indices 1 2 3 4 5 6 
#
# 1 0.009194 -0.001754 -0.002689 0.000000 0.001771 0.000000
# 2 -0.001754 0.008442 -0.006845 0.000000 -0.003777 0.000000
# 3 -0.002689 -0.006845 0.023540 0.000000 0.009368 0.000000
# 4 0.000000 0.000000 0.000000 0.014024 0.000000 -0.025205
# 5 0.001771 -0.003777 0.009368 0.000000 0.033291 0.000000
# 6 0.000000 0.000000 0.000000 -0.025205 0.000000 -0.029730
#
#
# Mechanical properties :
#
#
# Convention : Reuss Voigt Hill
#
# Bulk Modulus (GPa) = 53.76593 72.27586 63.02090
# Shear Modulus (GPa) = 57.11802 25.59354 41.35578
#
# Velocity S-wave (km/s) = 5.14981 3.44722 4.38200
# Velocity P-wave (km/s) = 7.76690 7.02872 7.40701
#
# Compressibility (1/GPa) = 0.01859914
#
# Stress axis : x y z
#
# Youngs Moduli (GPa) = 108.76684 118.45896 42.48074
#
# Poissons Ratio (x) = 0.20780 0.11425
# Poissons Ratio (y) = 0.19080 0.29077
# Poissons Ratio (z) = 0.29251 0.81082
#
# Static dielectric constant tensor:
#      x y z
#    x 4.025970 0.000000 0.028760 
#    y 0.000000 3.965140 0.000000 
#    z 0.028760 0.000000 4.139340 
# 
# 
# High freq. dielectric constant tensor:
#      x y z
#    x 1.855770 0.000000 0.003390 
#    y 0.000000 1.847360 0.000000 
#    z 0.003390 0.000000 1.856090 
# 
# From -- ./inp_files/12513.got.cif
#   From: 2010.06.25/outbox.cif.g09.slc.cpg/sg10_7_cif.got.tgz:12513.got - 2010.06.27 22:07:45.
