data_PCOD8066077
_publ_section_title
;
Structure prediction by ZEFSAII (Michael W. Deem and Ramdas Pophale) SiO2 
 PCOD8066077
Probable space group: P 2/M
;
_chemical_formula_sum "Si O2"
_cell_formula_units_Z 20
_cell_length_a 9.229565
_cell_length_b 21.491191
_cell_length_c 5.129207
_cell_angle_alpha 90.000000
_cell_angle_beta 103.741875
_cell_angle_gamma 90.000000
_cell_volume 988.278181
_symmetry_space_group_name_H-M "P 2/M"
_symmetry_group_IT_number 10
_symmetry_cell_setting 'monoclinic'
loop_
_space_group_symop_operation_xyz
x,y,z
-x,y,-z
-x,-y,-z
x,-y,z
loop_
_atom_site_type_symbol
_atom_site_label
_atom_site_fract_x
_atom_site_fract_y
_atom_site_fract_z
Si Si1 0.101193 0.500000 0.793202
Si Si2 0.827565 0.885879 0.442571
Si Si3 0.403488 0.699890 0.219717
Si Si4 0.352716 0.433409 0.103442
Si Si5 0.605577 0.000000 0.296330
Si Si6 0.170087 0.806007 0.055134
O O1 0.000000 0.500000 0.500000
O O2 0.208079 0.438407 0.849571
O O3 0.000000 0.500000 0.000000
O O4 0.713840 0.941157 0.342494
O O5 0.792761 0.857593 0.711015
O O6 0.000000 0.909092 0.500000
O O7 0.794812 0.833925 0.212409
O O8 0.500000 0.725379 0.500000
O O9 0.344172 0.629947 0.267370
O O10 0.263051 0.743910 0.130139
O O11 0.500000 0.700356 0.000000
O O12 0.354842 0.500000 0.268439
O O13 0.500000 0.428981 0.000000
O O14 0.500000 0.000000 0.500000
O O15 0.500000 0.000000 0.000000
O O16 0.000000 0.784762 0.000000
#
# Coordination Sequence:
#
# PCOD8066077 Si02
#       6
#     2   4   4   4   2   4
#     4  10  21  36  57  84 110 142 186 240 291 334
#     4  10  22  42  63  85 119 166 198 233 290 362
#     4  11  23  38  60  88 115 155 199 242 297 354
#     4   8  19  41  59  82 117 157 192 238 293 366
#     4  12  25  38  61  96 126 152 196 252 297 330
#     4  10  22  40  62  86 120 157 200 244 293 344
#
# _framework density 20.237219
#
# number of rings (size 3 to 8) (size 9 to 14) (size 15 to 20)
#    0.600    1.400    0.000    2.700    0.000    9.200 
#    0.000    7.000    0.000    0.000    0.000    0.000 
#    0.000    0.000    0.000    0.000    0.000    0.000 
#
# Total GULP energy -247818.217896 kJ/mol
# GULP energy per Si atom -12390.910895 kJ/mol
# Density = 2.019116 g / cm^3
# Si number density = 20.237219 Si / 1000 Ang^3
#
#
#
# Elastic Constant Matrix: (Units=GPa)
#
#
# Indices 1 2 3 4 5 6 
#
# 1 118.0638 68.4929 56.5531 0.0000 22.4663 0.0000
# 2 68.4929 131.0665 33.6279 0.0000 27.7107 0.0000
# 3 56.5531 33.6279 134.4435 0.0000 16.7709 0.0000
# 4 0.0000 0.0000 0.0000 26.0016 0.0000 11.2308
# 5 22.4663 27.7107 16.7709 0.0000 33.9808 0.0000
# 6 0.0000 0.0000 0.0000 11.2308 0.0000 66.0591
#
#
#
# Elastic Compliance Matrix: (Units=1/GPa)
#
#
# Indices 1 2 3 4 5 6 
#
# 1 0.014433 -0.005891 -0.004270 0.000000 -0.002632 0.000000
# 2 -0.005891 0.011900 0.000241 0.000000 -0.005928 0.000000
# 3 -0.004270 0.000241 0.009427 0.000000 -0.002026 0.000000
# 4 0.000000 0.000000 0.000000 0.041507 0.000000 -0.007057
# 5 -0.002632 -0.005928 -0.002026 0.000000 0.037003 0.000000
# 6 0.000000 0.000000 0.000000 -0.007057 0.000000 0.016338
#
#
# Mechanical properties :
#
#
# Convention : Reuss Voigt Hill
#
# Bulk Modulus (GPa) = 62.81103 77.88019 70.34561
# Shear Modulus (GPa) = 32.10218 40.20162 36.15190
#
# Velocity S-wave (km/s) = 3.98715 4.46187 4.23118
# Velocity P-wave (km/s) = 7.23196 8.06918 7.66201
#
# Compressibility (1/GPa) = 0.01592077
#
# Stress axis : x y z
#
# Youngs Moduli (GPa) = 69.28389 84.03598 106.08360
#
# Poissons Ratio (x) = 0.49504 0.45294
# Poissons Ratio (y) = 0.40814 -0.02557
# Poissons Ratio (z) = 0.29582 -0.02025
#
# Static dielectric constant tensor:
#      x y z
#    x 3.834660 0.000000 0.155780 
#    y 0.000000 3.935530 0.000000 
#    z 0.155780 0.000000 3.576550 
# 
# 
# High freq. dielectric constant tensor:
#      x y z
#    x 1.799740 0.000000 0.012080 
#    y 0.000000 1.787990 0.000000 
#    z 0.012080 0.000000 1.791090 
# 
# From -- ./inp_files/4842.got.cif
#   From: 2010.06.25/outbox.cif.g09.slc.cpg/sg10_3_cif.got.tgz:4842.got - 2010.06.27 22:07:45.
