data_PCOD8066514
_publ_section_title
;
Structure prediction by ZEFSAII (Michael W. Deem and Ramdas Pophale) SiO2 
 PCOD8066514
Probable space group: P 2/M
;
_chemical_formula_sum "Si O2"
_cell_formula_units_Z 32
_cell_length_a 14.579429
_cell_length_b 13.827157
_cell_length_c 9.403597
_cell_angle_alpha 90.000000
_cell_angle_beta 117.164158
_cell_angle_gamma 90.000000
_cell_volume 1686.599838
_symmetry_space_group_name_H-M "P 2/M"
_symmetry_group_IT_number 10
_symmetry_cell_setting 'monoclinic'
loop_
_space_group_symop_operation_xyz
x,y,z
-x,y,-z
-x,-y,-z
x,-y,z
loop_
_atom_site_type_symbol
_atom_site_label
_atom_site_fract_x
_atom_site_fract_y
_atom_site_fract_z
Si Si1 0.267020 0.609198 0.802984
Si Si2 0.265068 0.111604 0.595848
Si Si3 0.898260 0.786765 0.013194
Si Si4 0.893997 0.770161 0.342604
Si Si5 0.581895 0.280879 0.671930
Si Si6 0.561152 0.250394 0.177145
Si Si7 0.276114 0.111241 0.279473
Si Si8 0.769121 0.392297 0.896037
O O1 0.256742 0.500000 0.736514
O O2 0.165761 0.668655 0.685205
O O3 0.369232 0.657444 0.812737
O O4 0.276833 0.609421 0.978992
O O5 0.172465 0.145961 0.630805
O O6 0.370922 0.167025 0.703636
O O7 0.233607 0.128802 0.409152
O O8 0.285592 0.000000 0.642419
O O9 0.807917 0.857352 0.896624
O O10 0.869398 0.675758 0.956109
O O11 0.913733 0.800213 0.192942
O O12 0.000000 0.815740 0.000000
O O13 0.000000 0.757636 0.500000
O O14 0.500000 0.316528 0.500000
O O15 0.528234 0.288329 0.784989
O O16 0.619211 0.171426 0.669006
O O17 0.679674 0.352412 0.729966
O O18 0.500000 0.206487 0.000000
O O19 0.304492 0.000000 0.273937
O O20 0.801538 0.500000 0.871267
#
# Coordination Sequence:
#
# PCOD8066514 Si02
#       8
#     4   4   4   4   4   4   4   4
#     4   9  19  36  58  83 111 147 190 228 269 329
#     4  10  22  39  58  83 113 145 187 235 277 325
#     4  10  21  38  61  84 112 148 181 225 282 337
#     4  10  21  38  61  85 112 144 182 231 281 329
#     4  11  21  36  57  82 116 150 187 232 274 325
#     4  11  21  36  57  84 114 152 191 226 274 328
#     4  10  22  39  59  82 111 148 188 229 278 335
#     4   9  19  36  57  83 113 146 187 230 273 325
#
# _framework density 18.973082999999999
#
# number of rings (size 3 to 8) (size 9 to 14) (size 15 to 20)
#    0.000    2.000    2.500    0.750    1.750    3.500 
#    0.000    0.000    0.000    0.000    0.000    0.000 
#    0.000    0.000    0.000    0.000    0.000    0.000 
#
# Total GULP energy -396838.850950 kJ/mol
# GULP energy per Si atom -12401.214092 kJ/mol
# Density = 1.892990 g / cm^3
# Si number density = 18.973083 Si / 1000 Ang^3
#
#
#
# Elastic Constant Matrix: (Units=GPa)
#
#
# Indices 1 2 3 4 5 6 
#
# 1 66.5444 2.6617 17.7695 0.0000 -3.3865 0.0000
# 2 2.6617 90.2249 22.1574 0.0000 0.4979 0.0000
# 3 17.7695 22.1574 121.1143 0.0000 7.7209 0.0000
# 4 0.0000 0.0000 0.0000 21.1866 0.0000 -5.3184
# 5 -3.3865 0.4979 7.7209 0.0000 29.7108 0.0000
# 6 0.0000 0.0000 0.0000 -5.3184 0.0000 17.7123
#
#
#
# Elastic Compliance Matrix: (Units=1/GPa)
#
#
# Indices 1 2 3 4 5 6 
#
# 1 0.015815 0.000134 -0.002501 0.000000 0.002450 0.000000
# 2 0.000134 0.011610 -0.002168 0.000000 0.000384 0.000000
# 3 -0.002501 -0.002168 0.009188 0.000000 -0.002636 0.000000
# 4 0.000000 0.000000 0.000000 0.051047 0.000000 0.015328
# 5 0.002450 0.000384 -0.002636 0.000000 0.034616 0.000000
# 6 0.000000 0.000000 0.000000 0.015328 0.000000 0.061060
#
#
# Mechanical properties :
#
#
# Convention : Reuss Voigt Hill
#
# Bulk Modulus (GPa) = 36.30713 40.34009 38.32361
# Shear Modulus (GPa) = 24.80314 29.40827 27.10570
#
# Velocity S-wave (km/s) = 3.61956 3.94127 3.78384
# Velocity P-wave (km/s) = 6.05359 6.48224 6.27158
#
# Compressibility (1/GPa) = 0.02754280
#
# Stress axis : x y z
#
# Youngs Moduli (GPa) = 63.23212 86.13426 108.83372
#
# Poissons Ratio (x) = -0.01155 0.27220
# Poissons Ratio (y) = -0.00848 0.23597
# Poissons Ratio (z) = 0.15815 0.18675
#
# Static dielectric constant tensor:
#      x y z
#    x 3.373900 0.000000 -0.024030 
#    y 0.000000 3.505220 0.000000 
#    z -0.024030 0.000000 3.498230 
# 
# 
# High freq. dielectric constant tensor:
#      x y z
#    x 1.735880 0.000000 0.001630 
#    y 0.000000 1.731920 0.000000 
#    z 0.001630 0.000000 1.744200 
# 
# From -- ./inp_files/29517.got.cif
#   From: 2010.06.25/outbox.cif.g09.slc.cpg/sg10_15_cif.got.tgz:29517.got - 2010.06.27 22:07:45.
