data_PCOD8066741
_publ_section_title
;
Structure prediction by ZEFSAII (Michael W. Deem and Ramdas Pophale) SiO2 
 PCOD8066741
Probable space group: P 2/M
;
_chemical_formula_sum "Si O2"
_cell_formula_units_Z 24
_cell_length_a 11.424337
_cell_length_b 15.332580
_cell_length_c 18.929561
_cell_angle_alpha 90.000000
_cell_angle_beta 157.596051
_cell_angle_gamma 90.000000
_cell_volume 1263.759961
_symmetry_space_group_name_H-M "P 2/M"
_symmetry_group_IT_number 10
_symmetry_cell_setting 'monoclinic'
loop_
_space_group_symop_operation_xyz
x,y,z
-x,y,-z
-x,-y,-z
x,-y,z
loop_
_atom_site_type_symbol
_atom_site_label
_atom_site_fract_x
_atom_site_fract_y
_atom_site_fract_z
Si Si1 0.988417 0.838857 0.807478
Si Si2 0.649885 0.156749 0.472670
Si Si3 0.409986 0.000000 0.029767
Si Si4 0.070703 0.000000 0.457360
Si Si5 0.539483 0.327842 0.701567
Si Si6 0.785759 0.500000 0.470798
Si Si7 0.460766 0.500000 0.826136
Si Si8 0.197389 0.328331 0.002325
O O1 0.695069 0.860129 0.692461
O O2 0.889453 0.836825 0.670578
O O3 0.223644 0.916102 0.950316
O O4 0.169196 0.750735 0.930680
O O5 0.656870 0.248406 0.437553
O O6 0.745373 0.083466 0.469670
O O7 0.500000 0.000000 0.000000
O O8 0.727041 0.000000 0.243525
O O9 0.000000 0.000000 0.500000
O O10 0.347770 0.411979 0.571530
O O11 0.578314 0.307543 0.806602
O O12 0.861751 0.345906 0.844696
O O13 0.670660 0.500000 0.326125
O O14 0.144479 0.500000 0.693020
O O15 0.668102 0.415210 0.959777
#
# Coordination Sequence:
#
# PCOD8066741 Si02
#       8
#     4   4   2   2   4   2   2   4
#     4  10  21  39  64  83 112 154 196 232 278 343
#     4  10  21  41  60  85 114 153 193 234 282 339
#     4  12  23  41  59  85 114 152 189 228 286 349
#     4  12  27  41  57  87 120 149 185 238 293 338
#     4   9  18  33  55  81 111 145 192 234 280 327
#     4   9  17  31  50  79 114 152 179 228 286 341
#     4   9  17  31  50  81 114 146 189 226 283 337
#     4   9  18  33  56  82 108 147 191 237 274 329
#
# _framework density 18.990947999999999
#
# number of rings (size 3 to 8) (size 9 to 14) (size 15 to 20)
#    0.000    2.167    1.667    1.000    2.333    4.667 
#    3.000    1.667    0.000    5.000    0.000    0.000 
#    0.000    0.000    0.000    0.000    0.000    0.000 
#
# Total GULP energy -297410.537930 kJ/mol
# GULP energy per Si atom -12392.105747 kJ/mol
# Density = 1.894772 g / cm^3
# Si number density = 18.990948 Si / 1000 Ang^3
#
#
#
# Elastic Constant Matrix: (Units=GPa)
#
#
# Indices 1 2 3 4 5 6 
#
# 1 83.9641 61.0099 27.1407 0.0000 -3.5985 0.0000
# 2 61.0099 179.6098 69.0738 0.0000 14.1488 0.0000
# 3 27.1407 69.0738 87.5374 0.0000 6.1821 0.0000
# 4 0.0000 0.0000 0.0000 23.1224 0.0000 -14.4967
# 5 -3.5985 14.1488 6.1821 0.0000 14.2926 0.0000
# 6 0.0000 0.0000 0.0000 -14.4967 0.0000 2.9130
#
#
#
# Elastic Compliance Matrix: (Units=1/GPa)
#
#
# Indices 1 2 3 4 5 6 
#
# 1 0.017362 -0.006320 -0.001183 0.000000 0.011139 0.000000
# 2 -0.006320 0.010711 -0.005808 0.000000 -0.009682 0.000000
# 3 -0.001183 -0.005808 0.016492 0.000000 -0.001681 0.000000
# 4 0.000000 0.000000 0.000000 -0.020399 0.000000 -0.101519
# 5 0.011139 -0.009682 -0.001681 0.000000 0.083083 0.000000
# 6 0.000000 0.000000 0.000000 -0.101519 0.000000 -0.161924
#
#
# Mechanical properties :
#
#
# Convention : Reuss Voigt Hill
#
# Bulk Modulus (GPa) = 55.73259 73.95112 64.84186
# Shear Modulus (GPa) = -226.53939 20.99138 -102.77400
#
# Velocity S-wave (km/s) = -10.93376 3.32827 -7.36443
# Velocity P-wave (km/s) = 11.40112 7.33448 6.17215
#
# Compressibility (1/GPa) = 0.01794282
#
# Stress axis : x y z
#
# Youngs Moduli (GPa) = 57.59733 93.36191 60.63404
#
# Poissons Ratio (x) = 0.59007 0.07170
# Poissons Ratio (y) = 0.36403 0.35219
# Poissons Ratio (z) = 0.06811 0.54229
#
# Static dielectric constant tensor:
#      x y z
#    x 3.393760 0.000000 0.123280 
#    y 0.000000 3.624960 0.000000 
#    z 0.123280 0.000000 3.576460 
# 
# 
# High freq. dielectric constant tensor:
#      x y z
#    x 1.718140 0.000000 0.008770 
#    y 0.000000 1.750170 0.000000 
#    z 0.008770 0.000000 1.745830 
# 
# From -- ./inp_files/84181.got.cif
#   From: 2010.06.25/outbox.cif.g09.slc.cpg/sg10_43_cif.got.tgz:84181.got - 2010.06.27 22:07:45.
