data_PCOD8066119
_publ_section_title
;
Structure prediction by ZEFSAII (Michael W. Deem and Ramdas Pophale) SiO2 
 PCOD8066119
Probable space group: P 2/M
;
_chemical_formula_sum "Si O2"
_cell_formula_units_Z 32
_cell_length_a 18.117952
_cell_length_b 14.446062
_cell_length_c 13.246125
_cell_angle_alpha 90.000000
_cell_angle_beta 27.884263
_cell_angle_gamma 90.000000
_cell_volume 1621.447090
_symmetry_space_group_name_H-M "P 2/M"
_symmetry_group_IT_number 10
_symmetry_cell_setting 'monoclinic'
loop_
_space_group_symop_operation_xyz
x,y,z
-x,y,-z
-x,-y,-z
x,-y,z
loop_
_atom_site_type_symbol
_atom_site_label
_atom_site_fract_x
_atom_site_fract_y
_atom_site_fract_z
Si Si1 0.996608 0.402641 0.123416
Si Si2 0.294992 0.399740 0.897039
Si Si3 0.011755 0.202207 0.103874
Si Si4 0.324921 0.219808 0.171193
Si Si5 0.371718 0.210090 0.738178
Si Si6 0.224522 0.893481 0.472429
Si Si7 0.179703 0.395510 0.259949
Si Si8 0.431436 0.106746 0.864382
O O1 0.911022 0.500000 0.264586
O O2 0.926091 0.301578 0.236753
O O3 0.000000 0.406043 0.000000
O O4 0.172552 0.405252 0.953794
O O5 0.385132 0.500000 0.793667
O O6 0.410737 0.313411 0.735001
O O7 0.206069 0.380174 0.109475
O O8 0.922058 0.124544 0.275919
O O9 0.195628 0.204381 0.908353
O O10 0.000000 0.179258 0.000000
O O11 0.208939 0.171221 0.392261
O O12 0.281959 0.326518 0.204656
O O13 0.500000 0.213662 0.000000
O O14 0.315875 0.164034 0.077399
O O15 0.500000 0.185284 0.500000
O O16 0.390216 0.133045 0.800711
O O17 0.385294 0.870860 0.337298
O O18 0.219855 0.000000 0.443205
O O19 0.223767 0.500000 0.239470
O O20 0.000000 0.372597 0.500000
O O21 0.393708 0.000000 0.928290
#
# Coordination Sequence:
#
# PCOD8066119 Si02
#       8
#     4   4   4   4   4   4   4   4
#     4   8  15  29  51  78 109 144 182 225 272 324
#     4   9  18  34  55  81 116 153 190 230 279 340
#     4  10  21  37  57  85 117 154 188 237 284 341
#     4  10  21  38  62  89 116 148 189 238 291 344
#     4  11  22  36  58  85 114 152 195 238 287 341
#     4  10  22  39  61  85 112 148 192 240 291 347
#     4  10  21  36  59  89 121 157 191 228 283 344
#     4  10  21  40  61  83 113 149 189 238 294 347
#
# _framework density 19.735457
#
# number of rings (size 3 to 8) (size 9 to 14) (size 15 to 20)
#    0.000    2.250    1.250    1.125    3.500    3.000 
#    0.000    0.000    0.000    5.250    0.000    0.000 
#    0.000    0.000    0.000    0.000    0.000    0.000 
#
# Total GULP energy -396531.312613 kJ/mol
# GULP energy per Si atom -12391.603519 kJ/mol
# Density = 1.969054 g / cm^3
# Si number density = 19.735457 Si / 1000 Ang^3
#
#
#
# Elastic Constant Matrix: (Units=GPa)
#
#
# Indices 1 2 3 4 5 6 
#
# 1 77.7385 38.1719 36.6423 0.0000 17.9205 0.0000
# 2 38.1719 101.4159 33.4045 0.0000 7.5618 0.0000
# 3 36.6423 33.4045 89.6759 0.0000 16.7267 0.0000
# 4 0.0000 0.0000 0.0000 24.7729 0.0000 -5.9812
# 5 17.9205 7.5618 16.7267 0.0000 20.9392 0.0000
# 6 0.0000 0.0000 0.0000 -5.9812 0.0000 10.2597
#
#
#
# Elastic Compliance Matrix: (Units=1/GPa)
#
#
# Indices 1 2 3 4 5 6 
#
# 1 0.020181 -0.005380 -0.003975 0.000000 -0.012153 0.000000
# 2 -0.005380 0.012686 -0.002975 0.000000 0.002400 0.000000
# 3 -0.003975 -0.002975 0.015333 0.000000 -0.007772 0.000000
# 4 0.000000 0.000000 0.000000 0.046979 0.000000 0.027388
# 5 -0.012153 0.002400 -0.007772 0.000000 0.063501 0.000000
# 6 0.000000 0.000000 0.000000 0.027388 0.000000 0.113435
#
#
# Mechanical properties :
#
#
# Convention : Reuss Voigt Hill
#
# Bulk Modulus (GPa) = 42.48060 53.91861 48.19961
# Shear Modulus (GPa) = 16.41376 21.90181 19.15778
#
# Velocity S-wave (km/s) = 2.88703 3.33493 3.11903
# Velocity P-wave (km/s) = 5.71708 6.49685 6.11940
#
# Compressibility (1/GPa) = 0.02354016
#
# Stress axis : x y z
#
# Youngs Moduli (GPa) = 49.55219 78.82427 65.21729
#
# Poissons Ratio (x) = 0.42411 0.25924
# Poissons Ratio (y) = 0.26661 0.19401
# Poissons Ratio (z) = 0.19697 0.23449
#
# Static dielectric constant tensor:
#      x y z
#    x 3.575030 0.000000 0.208980 
#    y 0.000000 4.075860 0.000000 
#    z 0.208980 0.000000 3.303580 
# 
# 
# High freq. dielectric constant tensor:
#      x y z
#    x 1.767700 0.000000 0.021080 
#    y 0.000000 1.790420 0.000000 
#    z 0.021080 0.000000 1.737560 
# 
# From -- ./inp_files/36378.got.cif
#   From: 2010.06.25/outbox.cif.g09.slc.cpg/sg10_19_cif.got.tgz:36378.got - 2010.06.27 22:07:45.
