data_PCOD8066873
_publ_section_title
;
Structure prediction by ZEFSAII (Michael W. Deem and Ramdas Pophale) SiO2 
 PCOD8066873
Probable space group: P 2/M
;
_chemical_formula_sum "Si O2"
_cell_formula_units_Z 32
_cell_length_a 19.538444
_cell_length_b 8.623772
_cell_length_c 12.958270
_cell_angle_alpha 90.000000
_cell_angle_beta 45.598960
_cell_angle_gamma 90.000000
_cell_volume 1559.955365
_symmetry_space_group_name_H-M "P 2/M"
_symmetry_group_IT_number 10
_symmetry_cell_setting 'monoclinic'
loop_
_space_group_symop_operation_xyz
x,y,z
-x,y,-z
-x,-y,-z
x,-y,z
loop_
_atom_site_type_symbol
_atom_site_label
_atom_site_fract_x
_atom_site_fract_y
_atom_site_fract_z
Si Si1 0.400764 0.179332 0.376292
Si Si2 0.443455 0.681172 0.661802
Si Si3 0.107008 0.820324 0.184750
Si Si4 0.797905 0.321335 0.721198
Si Si5 0.596402 0.322428 0.842824
Si Si6 0.236493 0.819027 0.854945
Si Si7 0.217993 0.682501 0.661776
Si Si8 0.900189 0.682031 0.407663
O O1 0.508620 0.227482 0.293284
O O2 0.383929 0.212306 0.274217
O O3 0.328605 0.281248 0.521146
O O4 0.381861 0.000000 0.419159
O O5 0.500000 0.732562 0.500000
O O6 0.452662 0.500000 0.673413
O O7 0.332965 0.724084 0.770929
O O8 0.172637 0.781767 0.213149
O O9 0.011193 0.720863 0.290115
O O10 0.079342 0.000000 0.215611
O O11 0.162822 0.774767 0.022486
O O12 0.827555 0.500000 0.709174
O O13 0.683824 0.304885 0.830031
O O14 0.850734 0.253473 0.563758
O O15 0.587837 0.500000 0.813114
O O16 0.500000 0.267017 0.000000
O O17 0.187502 0.768494 0.799119
O O18 0.260776 0.000000 0.828906
O O19 0.204812 0.500000 0.691421
O O20 0.151937 0.750220 0.639087
O O21 0.883682 0.500000 0.423486
#
# Coordination Sequence:
#
# PCOD8066873 Si02
#       8
#     4   4   4   4   4   4   4   4
#     4  12  24  38  61  92 128 166 202 253 314 373
#     4  11  23  39  63  90 119 162 211 252 293 359
#     4  11  26  43  61  91 130 164 204 258 318 382
#     4  10  21  41  66  93 125 163 210 259 305 365
#     4  10  22  41  64  93 127 166 209 252 304 366
#     4  11  25  43  61  91 131 167 205 258 318 372
#     4  11  22  41  67  94 124 162 214 263 304 370
#     4  10  22  42  68  93 120 157 209 266 313 367
#
# _framework density 20.513407000000001
#
# number of rings (size 3 to 8) (size 9 to 14) (size 15 to 20)
#    0.000    1.250    2.500    3.000    1.750    6.750 
#    0.000    2.500    0.000    0.000    0.000    0.000 
#    0.000    0.000    0.000    0.000    0.000    0.000 
#
# Total GULP energy -397011.208136 kJ/mol
# GULP energy per Si atom -12406.600254 kJ/mol
# Density = 2.046672 g / cm^3
# Si number density = 20.513407 Si / 1000 Ang^3
#
#
#
# Elastic Constant Matrix: (Units=GPa)
#
#
# Indices 1 2 3 4 5 6 
#
# 1 102.8327 13.2734 47.9495 0.0000 10.9211 0.0000
# 2 13.2734 40.7809 22.5462 0.0000 5.8126 0.0000
# 3 47.9495 22.5462 130.5017 0.0000 7.0744 0.0000
# 4 0.0000 0.0000 0.0000 26.1964 0.0000 6.4812
# 5 10.9211 5.8126 7.0744 0.0000 38.6255 0.0000
# 6 0.0000 0.0000 0.0000 6.4812 0.0000 22.5252
#
#
#
# Elastic Compliance Matrix: (Units=1/GPa)
#
#
# Indices 1 2 3 4 5 6 
#
# 1 0.012053 -0.001324 -0.004066 0.000000 -0.002464 0.000000
# 2 -0.001324 0.027667 -0.004129 0.000000 -0.003033 0.000000
# 3 -0.004066 -0.004129 0.009872 0.000000 -0.000037 0.000000
# 4 0.000000 0.000000 0.000000 0.041099 0.000000 -0.011825
# 5 -0.002464 -0.003033 -0.000037 0.000000 0.027050 0.000000
# 6 0.000000 0.000000 0.000000 -0.011825 0.000000 0.047797
#
#
# Mechanical properties :
#
#
# Convention : Reuss Voigt Hill
#
# Bulk Modulus (GPa) = 32.72878 49.07260 40.90069
# Shear Modulus (GPa) = 25.67242 30.15918 27.91580
#
# Velocity S-wave (km/s) = 3.54148 3.83850 3.69298
# Velocity P-wave (km/s) = 5.71946 6.60451 6.17786
#
# Compressibility (1/GPa) = 0.03055415
#
# Stress axis : x y z
#
# Youngs Moduli (GPa) = 82.96570 36.14373 101.29464
#
# Poissons Ratio (x) = 0.04785 0.41190
# Poissons Ratio (y) = 0.10983 0.41826
# Poissons Ratio (z) = 0.33737 0.14924
#
# Static dielectric constant tensor:
#      x y z
#    x 3.805220 0.000000 0.140420 
#    y 0.000000 3.560260 0.000000 
#    z 0.140420 0.000000 3.773450 
# 
# 
# High freq. dielectric constant tensor:
#      x y z
#    x 1.814130 0.000000 0.005480 
#    y 0.000000 1.794860 0.000000 
#    z 0.005480 0.000000 1.802050 
# 
# From -- ./inp_files/55179.got.cif
#   From: 2010.06.25/outbox.cif.g09.slc.cpg/sg10_28_cif.got.tgz:55179.got - 2010.06.27 22:07:45.
