data_PCOD8066161
_publ_section_title
;
Structure prediction by ZEFSAII (Michael W. Deem and Ramdas Pophale) SiO2 
 PCOD8066161
Probable space group: P 2/M
;
_chemical_formula_sum "Si O2"
_cell_formula_units_Z 24
_cell_length_a 12.434691
_cell_length_b 9.281532
_cell_length_c 24.159157
_cell_angle_alpha 90.000000
_cell_angle_beta 153.641015
_cell_angle_gamma 90.000000
_cell_volume 1237.979397
_symmetry_space_group_name_H-M "P 2/M"
_symmetry_group_IT_number 10
_symmetry_cell_setting 'monoclinic'
loop_
_space_group_symop_operation_xyz
x,y,z
-x,y,-z
-x,-y,-z
x,-y,z
loop_
_atom_site_type_symbol
_atom_site_label
_atom_site_fract_x
_atom_site_fract_y
_atom_site_fract_z
Si Si1 0.039761 0.836938 0.457633
Si Si2 0.333572 0.331217 0.511332
Si Si3 0.133079 0.669925 0.232983
Si Si4 0.420163 0.834905 0.831344
Si Si5 0.888254 0.329751 0.007827
Si Si6 0.892947 0.669355 0.230398
O O1 0.792282 0.825286 0.310494
O O2 0.000000 0.774672 0.500000
O O3 0.247259 0.738998 0.528160
O O4 0.136097 0.000000 0.503822
O O5 0.340220 0.500000 0.523908
O O6 0.604867 0.270152 0.626540
O O7 0.150432 0.290852 0.377564
O O8 0.145696 0.500000 0.242517
O O9 0.926502 0.719130 0.181834
O O10 0.068827 0.717684 0.140850
O O11 0.640968 0.753959 0.904277
O O12 0.331295 0.756466 0.846737
O O13 0.489497 0.000000 0.877094
O O14 0.835987 0.500000 0.985045
O O15 0.000000 0.283934 0.000000
O O16 0.834449 0.500000 0.209566
#
# Coordination Sequence:
#
# PCOD8066161 Si02
#       6
#     4   4   4   4   4   4
#     4   9  19  34  51  73 103 140 174 208 258 312
#     4   9  17  30  52  82 107 130 168 216 261 306
#     4   9  18  33  54  80 108 139 173 213 261 309
#     4  10  21  37  55  76 106 138 174 220 260 303
#     4  10  22  38  55  76 105 141 178 215 256 307
#     4   9  17  33  57  81 106 136 171 213 264 314
#
# _framework density 19.386429
#
# number of rings (size 3 to 8) (size 9 to 14) (size 15 to 20)
#    0.000    2.667    0.000    1.000    2.333    4.000 
#    0.000    5.833    0.000    4.000    0.000    0.000 
#    0.000    0.000    0.000    0.000    0.000    0.000 
#
# Total GULP energy -297481.979068 kJ/mol
# GULP energy per Si atom -12395.082461 kJ/mol
# Density = 1.934230 g / cm^3
# Si number density = 19.386429 Si / 1000 Ang^3
#
#
#
# Elastic Constant Matrix: (Units=GPa)
#
#
# Indices 1 2 3 4 5 6 
#
# 1 177.0413 43.6985 50.9843 0.0000 2.1597 0.0000
# 2 43.6985 38.1996 24.7464 0.0000 4.5835 0.0000
# 3 50.9843 24.7464 39.3946 0.0000 11.7838 0.0000
# 4 0.0000 0.0000 0.0000 13.4016 0.0000 -10.4220
# 5 2.1597 4.5835 11.7838 0.0000 31.1353 0.0000
# 6 0.0000 0.0000 0.0000 -10.4220 0.0000 -4.4026
#
#
#
# Elastic Compliance Matrix: (Units=1/GPa)
#
#
# Indices 1 2 3 4 5 6 
#
# 1 0.009992 -0.004617 -0.011308 0.000000 0.004266 0.000000
# 2 -0.004617 0.046842 -0.024225 0.000000 0.002593 0.000000
# 3 -0.011308 -0.024225 0.060820 0.000000 -0.018668 0.000000
# 4 0.000000 0.000000 0.000000 0.026265 0.000000 -0.062177
# 5 0.004266 0.002593 -0.018668 0.000000 0.038506 0.000000
# 6 0.000000 0.000000 0.000000 -0.062177 0.000000 -0.079953
#
#
# Mechanical properties :
#
#
# Convention : Reuss Voigt Hill
#
# Bulk Modulus (GPa) = 26.77018 54.83266 40.80142
# Shear Modulus (GPa) = 25.61154 17.04064 21.32609
#
# Velocity S-wave (km/s) = 3.63865 2.96801 3.32030
# Velocity P-wave (km/s) = 5.61175 6.33173 5.98258
#
# Compressibility (1/GPa) = 0.03735500
#
# Stress axis : x y z
#
# Youngs Moduli (GPa) = 100.07523 21.34821 16.44194
#
# Poissons Ratio (x) = 0.09857 0.18592
# Poissons Ratio (y) = 0.46208 0.39830
# Poissons Ratio (z) = 1.13164 0.51715
#
# Static dielectric constant tensor:
#      x y z
#    x 3.834550 0.000000 -0.049550 
#    y 0.000000 3.387590 0.000000 
#    z -0.049550 0.000000 3.604030 
# 
# 
# High freq. dielectric constant tensor:
#      x y z
#    x 1.768380 0.000000 0.000470 
#    y 0.000000 1.726460 0.000000 
#    z 0.000470 0.000000 1.750060 
# 
# From -- ./inp_files/45156.got.cif
#   From: 2010.06.25/outbox.cif.g09.slc.cpg/sg10_23_cif.got.tgz:45156.got - 2010.06.27 22:07:45.
