data_PCOD8066280
_publ_section_title
;
Structure prediction by ZEFSAII (Michael W. Deem and Ramdas Pophale) SiO2 
 PCOD8066280
Probable space group: P 2/M
;
_chemical_formula_sum "Si O2"
_cell_formula_units_Z 32
_cell_length_a 26.000577
_cell_length_b 8.573079
_cell_length_c 20.679712
_cell_angle_alpha 90.000000
_cell_angle_beta 159.054771
_cell_angle_gamma 90.000000
_cell_volume 1647.822357
_symmetry_space_group_name_H-M "P 2/M"
_symmetry_group_IT_number 10
_symmetry_cell_setting 'monoclinic'
loop_
_space_group_symop_operation_xyz
x,y,z
-x,y,-z
-x,-y,-z
x,-y,z
loop_
_atom_site_type_symbol
_atom_site_label
_atom_site_fract_x
_atom_site_fract_y
_atom_site_fract_z
Si Si1 0.158346 0.820766 0.342645
Si Si2 0.659691 0.816730 0.689004
Si Si3 0.847737 0.183587 0.029730
Si Si4 0.156312 0.319346 0.203875
Si Si5 0.578865 0.682058 0.028244
Si Si6 0.455510 0.180385 0.759667
Si Si7 0.726847 0.317081 0.018711
Si Si8 0.145674 0.182809 0.704530
O O1 0.179582 0.710169 0.306464
O O2 0.293761 0.790362 0.547219
O O3 0.014112 0.775430 0.211653
O O4 0.150713 0.000000 0.310281
O O5 0.500000 0.743098 0.500000
O O6 0.729156 0.777486 0.702128
O O7 0.650839 0.000000 0.686832
O O8 0.752724 0.750647 0.858317
O O9 0.801439 0.272378 0.039522
O O10 0.825254 0.000000 0.013458
O O11 0.176165 0.500000 0.210948
O O12 0.000000 0.258312 0.000000
O O13 0.616432 0.500000 0.075151
O O14 0.725465 0.779139 0.193392
O O15 0.500000 0.739707 0.000000
O O16 0.474432 0.715891 0.845584
O O17 0.483149 0.000000 0.808683
O O18 0.572210 0.231566 0.842756
O O19 0.699171 0.500000 0.988755
O O20 0.831095 0.269881 0.200183
O O21 0.000000 0.242909 0.500000
O O22 0.138648 0.000000 0.710682
#
# Coordination Sequence:
#
# PCOD8066280 Si02
#       8
#     4   4   4   4   4   4   4   4
#     4  10  22  39  61  84 109 149 194 236 284 336
#     4  10  22  39  61  86 111 148 195 238 283 336
#     4  10  21  39  59  82 115 149 191 242 281 331
#     4  11  23  38  58  85 117 149 184 233 290 344
#     4  10  21  37  58  86 120 153 186 228 282 340
#     4  10  21  38  60  85 112 147 194 237 278 333
#     4  11  23  38  58  84 118 155 187 228 285 342
#     4  10  21  38  61  87 114 149 194 238 278 327
#
# _framework density 19.41957
#
# number of rings (size 3 to 8) (size 9 to 14) (size 15 to 20)
#    0.000    1.750    1.250    4.125    1.750    5.750 
#    0.000    3.750    0.000    0.000    0.000    0.000 
#    0.000    0.000    0.000    0.000    0.000    0.000 
#
# Total GULP energy -396922.930953 kJ/mol
# GULP energy per Si atom -12403.841592 kJ/mol
# Density = 1.937537 g / cm^3
# Si number density = 19.419570 Si / 1000 Ang^3
#
#
#
# Elastic Constant Matrix: (Units=GPa)
#
#
# Indices 1 2 3 4 5 6 
#
# 1 135.8764 16.9397 55.5149 0.0000 9.9568 0.0000
# 2 16.9397 37.1043 24.6496 0.0000 0.5120 0.0000
# 3 55.5149 24.6496 152.5885 0.0000 14.5156 0.0000
# 4 0.0000 0.0000 0.0000 210.7123 0.0000 -293.8974
# 5 9.9568 0.5120 14.5156 0.0000 21.0945 0.0000
# 6 0.0000 0.0000 0.0000 -293.8974 0.0000 468.8988
#
#
#
# Elastic Compliance Matrix: (Units=1/GPa)
#
#
# Indices 1 2 3 4 5 6 
#
# 1 0.008895 -0.002269 -0.002649 0.000000 -0.002321 0.000000
# 2 -0.002269 0.030926 -0.004495 0.000000 0.003414 0.000000
# 3 -0.002649 -0.004495 0.008682 0.000000 -0.004615 0.000000
# 4 0.000000 0.000000 0.000000 0.037732 0.000000 0.023650
# 5 -0.002321 0.003414 -0.004615 0.000000 0.051594 0.000000
# 6 0.000000 0.000000 0.000000 0.023650 0.000000 0.016956
#
#
# Mechanical properties :
#
#
# Convention : Reuss Voigt Hill
#
# Bulk Modulus (GPa) = 33.69569 57.75307 45.72438
# Shear Modulus (GPa) = 27.24737 155.37211 91.30974
#
# Velocity S-wave (km/s) = 3.74985 8.95442 6.86451
# Velocity P-wave (km/s) = 6.01145 11.69244 9.29652
#
# Compressibility (1/GPa) = 0.02967739
#
# Stress axis : x y z
#
# Youngs Moduli (GPa) = 112.42532 32.33505 115.17483
#
# Poissons Ratio (x) = 0.07337 0.30507
# Poissons Ratio (y) = 0.25511 0.51772
# Poissons Ratio (z) = 0.29779 0.14535
#
# Static dielectric constant tensor:
#      x y z
#    x 3.506610 0.000000 0.042820 
#    y 0.000000 3.455120 0.000000 
#    z 0.042820 0.000000 3.746510 
# 
# 
# High freq. dielectric constant tensor:
#      x y z
#    x 1.759270 0.000000 0.003620 
#    y 0.000000 1.754190 0.000000 
#    z 0.003620 0.000000 1.763830 
# 
# From -- ./inp_files/87058.got.cif
#   From: 2010.06.25/outbox.cif.g09.slc.cpg/sg10_44_cif.got.tgz:87058.got - 2010.06.27 22:07:45.
