data_PCOD8066597
_publ_section_title
;
Structure prediction by ZEFSAII (Michael W. Deem and Ramdas Pophale) SiO2 
 PCOD8066597
Probable space group: P 2/M
;
_chemical_formula_sum "Si O2"
_cell_formula_units_Z 32
_cell_length_a 23.020941
_cell_length_b 8.988524
_cell_length_c 14.210737
_cell_angle_alpha 90.000000
_cell_angle_beta 147.844014
_cell_angle_gamma 90.000000
_cell_volume 1565.035561
_symmetry_space_group_name_H-M "P 2/M"
_symmetry_group_IT_number 10
_symmetry_cell_setting 'monoclinic'
loop_
_space_group_symop_operation_xyz
x,y,z
-x,y,-z
-x,-y,-z
x,-y,z
loop_
_atom_site_type_symbol
_atom_site_label
_atom_site_fract_x
_atom_site_fract_y
_atom_site_fract_z
Si Si1 0.901671 0.324714 0.928835
Si Si2 0.611561 0.673181 0.101275
Si Si3 0.997195 0.173573 0.229932
Si Si4 0.317979 0.323850 0.473386
Si Si5 0.330324 0.328412 0.027374
Si Si6 0.490058 0.825195 0.376503
Si Si7 0.754377 0.824145 0.441693
Si Si8 0.079043 0.331980 0.695675
O O1 0.907456 0.500000 0.947638
O O2 0.789177 0.271953 0.729202
O O3 0.000000 0.263253 0.000000
O O4 0.911306 0.253787 0.044354
O O5 0.638284 0.500000 0.153311
O O6 0.605866 0.709895 0.982199
O O7 0.709154 0.768970 0.279672
O O8 0.500000 0.719276 0.000000
O O9 0.120209 0.227894 0.377670
O O10 0.962944 0.213502 0.287538
O O11 0.986694 0.000000 0.199871
O O12 0.325782 0.500000 0.495714
O O13 0.419886 0.266161 0.555657
O O14 0.316942 0.252619 0.575022
O O15 0.349560 0.500000 0.081111
O O16 0.202883 0.294216 0.836548
O O17 0.374564 0.227225 0.174106
O O18 0.500000 0.784024 0.500000
O O19 0.505761 0.000000 0.382317
O O20 0.742698 0.000000 0.433104
O O21 0.071633 0.500000 0.725872
O O22 0.000000 0.312823 0.500000
#
# Coordination Sequence:
#
# PCOD8066597 Si02
#       8
#     4   4   4   4   4   4   4   4
#     4  10  21  39  62  91 122 159 205 252 307 368
#     4  10  21  38  63  92 120 153 199 252 308 367
#     4  11  24  38  58  89 125 162 201 248 307 372
#     4  11  23  40  65  91 121 161 208 260 307 360
#     4  10  22  41  65  94 125 162 211 261 310 365
#     4  11  26  45  64  90 126 167 209 256 313 372
#     4  11  23  38  59  91 126 160 197 244 306 373
#     4  10  22  41  65  92 125 166 211 259 308 365
#
# _framework density 20.446819999999999
#
# number of rings (size 3 to 8) (size 9 to 14) (size 15 to 20)
#    0.000    1.500    1.250    3.000    1.750    7.250 
#    0.000    0.000    0.000    0.000    0.000    0.000 
#    0.000    0.000    0.000    0.000    0.000    0.000 
#
# Total GULP energy -396974.893769 kJ/mol
# GULP energy per Si atom -12405.465430 kJ/mol
# Density = 2.040028 g / cm^3
# Si number density = 20.446820 Si / 1000 Ang^3
#
#
#
# Elastic Constant Matrix: (Units=GPa)
#
#
# Indices 1 2 3 4 5 6 
#
# 1 93.6888 21.0388 30.3915 0.0000 -6.0383 0.0000
# 2 21.0388 46.4785 36.6994 0.0000 -7.8948 0.0000
# 3 30.3915 36.6994 117.7682 0.0000 -9.5783 0.0000
# 4 0.0000 0.0000 0.0000 23.4270 0.0000 4.2836
# 5 -6.0383 -7.8948 -9.5783 0.0000 34.9643 0.0000
# 6 0.0000 0.0000 0.0000 4.2836 0.0000 24.4402
#
#
#
# Elastic Compliance Matrix: (Units=1/GPa)
#
#
# Indices 1 2 3 4 5 6 
#
# 1 0.012208 -0.003931 -0.001868 0.000000 0.000709 0.000000
# 2 -0.003931 0.030389 -0.008134 0.000000 0.003955 0.000000
# 3 -0.001868 -0.008134 0.011591 0.000000 0.001016 0.000000
# 4 0.000000 0.000000 0.000000 0.044099 0.000000 -0.007729
# 5 0.000709 0.003955 0.001016 0.000000 0.029894 0.000000
# 6 0.000000 0.000000 0.000000 -0.007729 0.000000 0.042271
#
#
# Mechanical properties :
#
#
# Convention : Reuss Voigt Hill
#
# Bulk Modulus (GPa) = 37.99029 48.24388 43.11708
# Shear Modulus (GPa) = 24.14405 27.88672 26.01538
#
# Velocity S-wave (km/s) = 3.44004 3.69706 3.57086
# Velocity P-wave (km/s) = 5.86505 6.47073 6.17532
#
# Compressibility (1/GPa) = 0.02632251
#
# Stress axis : x y z
#
# Youngs Moduli (GPa) = 81.91408 32.90687 86.27673
#
# Poissons Ratio (x) = 0.12935 0.16115
# Poissons Ratio (y) = 0.32198 0.70176
# Poissons Ratio (z) = 0.15300 0.26766
#
# Static dielectric constant tensor:
#      x y z
#    x 3.708250 0.000000 -0.004370 
#    y 0.000000 3.595160 0.000000 
#    z -0.004370 0.000000 3.914250 
# 
# 
# High freq. dielectric constant tensor:
#      x y z
#    x 1.802410 0.000000 -0.001970 
#    y 0.000000 1.793460 0.000000 
#    z -0.001970 0.000000 1.814120 
# 
# From -- ./inp_files/71653.got.cif
#   From: 2010.06.25/outbox.cif.g09.slc.cpg/sg10_36_cif.got.tgz:71653.got - 2010.06.27 22:07:45.
