data_PCOD8066223
_publ_section_title
;
Structure prediction by ZEFSAII (Michael W. Deem and Ramdas Pophale) SiO2 
 PCOD8066223
Probable space group: P 2/M
;
_chemical_formula_sum "Si O2"
_cell_formula_units_Z 28
_cell_length_a 20.265697
_cell_length_b 9.089279
_cell_length_c 14.646195
_cell_angle_alpha 90.000000
_cell_angle_beta 32.333521
_cell_angle_gamma 90.000000
_cell_volume 1442.929715
_symmetry_space_group_name_H-M "P 2/M"
_symmetry_group_IT_number 10
_symmetry_cell_setting 'monoclinic'
loop_
_space_group_symop_operation_xyz
x,y,z
-x,y,-z
-x,-y,-z
x,-y,z
loop_
_atom_site_type_symbol
_atom_site_label
_atom_site_fract_x
_atom_site_fract_y
_atom_site_fract_z
Si Si1 0.239711 0.329394 0.409210
Si Si2 0.204019 0.828057 0.907062
Si Si3 0.293452 0.830531 0.001844
Si Si4 0.048078 0.666493 0.788195
Si Si5 0.138799 0.673967 0.333951
Si Si6 0.422449 0.828141 0.321301
Si Si7 0.722583 0.670566 0.354706
O O1 0.278885 0.500000 0.369043
O O2 0.117303 0.303339 0.612125
O O3 0.211671 0.277097 0.339565
O O4 0.352449 0.232605 0.314217
O O5 0.268123 0.787199 0.927142
O O6 0.281430 0.742853 0.739923
O O7 0.210268 0.000000 0.878358
O O8 0.061903 0.780606 0.074037
O O9 0.434236 0.795275 0.861385
O O10 0.261461 0.000000 0.056654
O O11 0.205740 0.734746 0.167279
O O12 0.995755 0.500000 0.852125
O O13 0.141221 0.692282 0.762943
O O14 0.135334 0.500000 0.330016
O O15 0.000000 0.736990 0.500000
O O16 0.378752 0.747383 0.463743
O O17 0.394965 0.000000 0.364644
O O18 0.687843 0.500000 0.388318
#
# Coordination Sequence:
#
# PCOD8066223 Si02
#       7
#     4   4   4   4   4   4   4
#     4   9  19  36  58  84 113 143 179 227 276 319
#     4  11  22  35  53  79 111 146 185 227 273 324
#     4  10  24  41  55  78 113 149 183 226 274 321
#     4   9  18  34  55  80 112 144 176 221 276 330
#     4  10  21  38  61  87 113 144 181 221 270 327
#     4  10  21  39  59  79 108 146 187 225 269 325
#     4  10  21  37  57  81 110 143 181 227 277 326
#
# _framework density 19.404965000000001
#
# number of rings (size 3 to 8) (size 9 to 14) (size 15 to 20)
#    0.000    2.143    0.000    3.429    0.000   10.000 
#    0.000    5.714    0.000    0.000    0.000    0.000 
#    0.000    0.000    0.000    0.000    0.000    0.000 
#
# Total GULP energy -347332.403080 kJ/mol
# GULP energy per Si atom -12404.728681 kJ/mol
# Density = 1.936080 g / cm^3
# Si number density = 19.404965 Si / 1000 Ang^3
#
#
#
# Elastic Constant Matrix: (Units=GPa)
#
#
# Indices 1 2 3 4 5 6 
#
# 1 111.6154 59.1039 57.2047 0.0000 10.2996 0.0000
# 2 59.1039 88.7925 52.1248 0.0000 3.9145 0.0000
# 3 57.2047 52.1248 85.1869 0.0000 -5.4800 0.0000
# 4 0.0000 0.0000 0.0000 28.5441 0.0000 5.0696
# 5 10.2996 3.9145 -5.4800 0.0000 19.7358 0.0000
# 6 0.0000 0.0000 0.0000 5.0696 0.0000 32.7446
#
#
#
# Elastic Compliance Matrix: (Units=1/GPa)
#
#
# Indices 1 2 3 4 5 6 
#
# 1 0.017682 -0.006156 -0.008779 0.000000 -0.010445 0.000000
# 2 -0.006156 0.020602 -0.008684 0.000000 -0.003285 0.000000
# 3 -0.008779 -0.008684 0.023778 0.000000 0.012907 0.000000
# 4 0.000000 0.000000 0.000000 0.036024 0.000000 -0.005577
# 5 -0.010445 -0.003285 0.012907 0.000000 0.060356 0.000000
# 6 0.000000 0.000000 0.000000 -0.005577 0.000000 0.031403
#
#
# Mechanical properties :
#
#
# Convention : Reuss Voigt Hill
#
# Bulk Modulus (GPa) = 67.45401 69.16239 68.30820
# Shear Modulus (GPa) = 20.65900 24.01565 22.33733
#
# Velocity S-wave (km/s) = 3.26640 3.52178 3.39649
# Velocity P-wave (km/s) = 7.00446 7.22884 7.11754
#
# Compressibility (1/GPa) = 0.01482491
#
# Stress axis : x y z
#
# Youngs Moduli (GPa) = 56.55345 48.53799 42.05534
#
# Poissons Ratio (x) = 0.29879 0.36922
# Poissons Ratio (y) = 0.34813 0.36520
# Poissons Ratio (z) = 0.49650 0.42150
#
# Static dielectric constant tensor:
#      x y z
#    x 3.704090 0.000000 0.077890 
#    y 0.000000 3.509790 0.000000 
#    z 0.077890 0.000000 3.413140 
# 
# 
# High freq. dielectric constant tensor:
#      x y z
#    x 1.762890 0.000000 0.006380 
#    y 0.000000 1.755380 0.000000 
#    z 0.006380 0.000000 1.753920 
# 
# From -- ./inp_files/49392.got.cif
#   From: 2010.06.25/outbox.cif.g09.slc.cpg/sg10_25_cif.got.tgz:49392.got - 2010.06.27 22:07:45.
