data_PCOD8066324
_publ_section_title
;
Structure prediction by ZEFSAII (Michael W. Deem and Ramdas Pophale) SiO2 
 PCOD8066324
Probable space group: P 2/M
;
_chemical_formula_sum "Si O2"
_cell_formula_units_Z 28
_cell_length_a 13.961962
_cell_length_b 19.375551
_cell_length_c 5.211276
_cell_angle_alpha 90.000000
_cell_angle_beta 62.417739
_cell_angle_gamma 90.000000
_cell_volume 1249.534798
_symmetry_space_group_name_H-M "P 2/M"
_symmetry_group_IT_number 10
_symmetry_cell_setting 'monoclinic'
loop_
_space_group_symop_operation_xyz
x,y,z
-x,y,-z
-x,-y,-z
x,-y,z
loop_
_atom_site_type_symbol
_atom_site_label
_atom_site_fract_x
_atom_site_fract_y
_atom_site_fract_z
Si Si1 0.430138 0.923088 0.840999
Si Si2 0.838774 0.420529 0.947763
Si Si3 0.679309 0.286225 0.623745
Si Si4 0.381916 0.577990 0.532186
Si Si5 0.305661 0.209106 0.894600
Si Si6 0.049971 0.784461 0.187947
Si Si7 0.094788 0.343230 0.644368
O O1 0.500000 0.922990 0.500000
O O2 0.382611 0.000000 0.949362
O O3 0.500000 0.899522 0.000000
O O4 0.332219 0.870611 0.914273
O O5 0.862031 0.500000 0.886105
O O6 0.888092 0.385994 0.635582
O O7 0.709974 0.405606 0.139304
O O8 0.904119 0.395206 0.116270
O O9 0.631290 0.364297 0.672154
O O10 0.642770 0.253749 0.937954
O O11 0.809297 0.287471 0.447074
O O12 0.639917 0.238420 0.434107
O O13 0.500000 0.584042 0.500000
O O14 0.363800 0.500000 0.442192
O O15 0.177720 0.214897 0.039623
O O16 0.000000 0.821713 0.500000
O O17 0.014866 0.703055 0.227581
O O18 0.000000 0.822469 0.000000
#
# Coordination Sequence:
#
# PCOD8066324 Si02
#       7
#     4   4   4   4   4   4   4
#     4  10  23  45  73 104 143 184 211 247 314 384
#     4  10  21  37  60  82 112 158 216 276 333 405
#     4  11  22  37  62  91 124 169 213 273 326 386
#     4   9  20  39  60  84 120 168 220 279 346 401
#     4  12  23  41  66 101 130 164 219 269 311 374
#     4  12  22  38  64  91 122 168 209 259 319 390
#     4  11  20  37  59  84 117 158 209 258 336 403
#
# _framework density 22.408338000000001
#
# number of rings (size 3 to 8) (size 9 to 14) (size 15 to 20)
#    0.000    1.286    2.857    3.857    0.000    2.286 
#    0.000    7.857    0.000   34.286    0.000    0.000 
#    0.000    0.000    0.000    0.000    0.000    0.000 
#
# Total GULP energy -347083.577300 kJ/mol
# GULP energy per Si atom -12395.842046 kJ/mol
# Density = 2.235734 g / cm^3
# Si number density = 22.408338 Si / 1000 Ang^3
#
#
#
# Elastic Constant Matrix: (Units=GPa)
#
#
# Indices 1 2 3 4 5 6 
#
# 1 109.7371 58.3860 54.0863 0.0000 1.0872 0.0000
# 2 58.3860 116.4034 32.3612 0.0000 1.8699 0.0000
# 3 54.0863 32.3612 114.8394 0.0000 39.3131 0.0000
# 4 0.0000 0.0000 0.0000 27.3773 0.0000 -3.0719
# 5 1.0872 1.8699 39.3131 0.0000 48.3737 0.0000
# 6 0.0000 0.0000 0.0000 -3.0719 0.0000 29.1371
#
#
#
# Elastic Compliance Matrix: (Units=1/GPa)
#
#
# Indices 1 2 3 4 5 6 
#
# 1 0.016289 -0.005988 -0.008227 0.000000 0.006551 0.000000
# 2 -0.005988 0.011738 -0.000524 0.000000 0.000107 0.000000
# 3 -0.008227 -0.000524 0.017540 0.000000 -0.014049 0.000000
# 4 0.000000 0.000000 0.000000 0.036964 0.000000 0.003897
# 5 0.006551 0.000107 -0.014049 0.000000 0.031939 0.000000
# 6 0.000000 0.000000 0.000000 0.003897 0.000000 0.034731
#
#
# Mechanical properties :
#
#
# Convention : Reuss Voigt Hill
#
# Bulk Modulus (GPa) = 62.15631 70.07187 66.11409
# Shear Modulus (GPa) = 27.16785 34.05406 30.61096
#
# Velocity S-wave (km/s) = 3.48573 3.90257 3.70002
# Velocity P-wave (km/s) = 6.63315 7.18645 6.91533
#
# Compressibility (1/GPa) = 0.01608847
#
# Stress axis : x y z
#
# Youngs Moduli (GPa) = 61.39293 85.19059 57.01409
#
# Poissons Ratio (x) = 0.51014 0.46904
# Poissons Ratio (y) = 0.36763 0.02988
# Poissons Ratio (z) = 0.50506 0.04465
#
# Static dielectric constant tensor:
#      x y z
#    x 4.462490 0.000000 0.334120 
#    y 0.000000 4.080240 0.000000 
#    z 0.334120 0.000000 4.552500 
# 
# 
# High freq. dielectric constant tensor:
#      x y z
#    x 1.896030 0.000000 0.013550 
#    y 0.000000 1.847230 0.000000 
#    z 0.013550 0.000000 1.898330 
# 
# From -- ./inp_files/9767.got.cif
#   From: 2010.06.25/outbox.cif.g09.slc.cpg/sg10_5_cif.got.tgz:9767.got - 2010.06.27 22:07:45.
