data_PCOD8066640
_publ_section_title
;
Structure prediction by ZEFSAII (Michael W. Deem and Ramdas Pophale) SiO2 
 PCOD8066640
Probable space group: P 2/M
;
_chemical_formula_sum "Si O2"
_cell_formula_units_Z 28
_cell_length_a 15.381428
_cell_length_b 8.777973
_cell_length_c 11.728966
_cell_angle_alpha 90.000000
_cell_angle_beta 60.537559
_cell_angle_gamma 90.000000
_cell_volume 1378.822459
_symmetry_space_group_name_H-M "P 2/M"
_symmetry_group_IT_number 10
_symmetry_cell_setting 'monoclinic'
loop_
_space_group_symop_operation_xyz
x,y,z
-x,y,-z
-x,-y,-z
x,-y,z
loop_
_atom_site_type_symbol
_atom_site_label
_atom_site_fract_x
_atom_site_fract_y
_atom_site_fract_z
Si Si1 0.019391 0.177527 0.117253
Si Si2 0.570736 0.825786 0.062223
Si Si3 0.493419 0.321252 0.672437
Si Si4 0.843000 0.675160 0.358170
Si Si5 0.209168 0.822892 0.136932
Si Si6 0.352670 0.178850 0.586154
Si Si7 0.110530 0.324283 0.417159
O O1 0.133513 0.211688 0.081017
O O2 0.951936 0.276033 0.245552
O O3 0.993210 0.000000 0.148839
O O4 0.000000 0.230211 0.000000
O O5 0.519870 0.718176 0.187698
O O6 0.577808 0.000000 0.101934
O O7 0.500000 0.814490 0.000000
O O8 0.681266 0.759846 0.965103
O O9 0.508964 0.500000 0.645115
O O10 0.396183 0.265313 0.667355
O O11 0.591457 0.235232 0.563455
O O12 0.823993 0.500000 0.337939
O O13 0.763604 0.782065 0.346412
O O14 0.832781 0.698969 0.500085
O O15 0.173950 0.752588 0.277923
O O16 0.217497 0.000000 0.155649
O O17 0.367720 0.000000 0.592948
O O18 0.099107 0.500000 0.391344
O O19 0.000000 0.250983 0.500000
#
# Coordination Sequence:
#
# PCOD8066640 Si02
#       7
#     4   4   4   4   4   4   4
#     4  10  22  39  59  88 123 163 207 253 307 370
#     4  10  23  42  62  89 125 167 213 256 305 368
#     4  11  23  42  65  93 125 158 204 257 311 368
#     4  11  23  39  61  92 124 158 202 254 309 368
#     4  10  22  39  61  88 119 160 210 258 302 360
#     4  11  23  41  66  92 122 162 203 252 311 369
#     4  10  21  39  60  85 121 160 197 246 307 366
#
# _framework density 20.307182999999998
#
# number of rings (size 3 to 8) (size 9 to 14) (size 15 to 20)
#    0.000    1.571    1.429    3.857    4.000    2.571 
#    0.000    0.000    0.000    0.000    0.000    0.000 
#    0.000    0.000    0.000    0.000    0.000    0.000 
#
# Total GULP energy -347320.061264 kJ/mol
# GULP energy per Si atom -12404.287902 kJ/mol
# Density = 2.026096 g / cm^3
# Si number density = 20.307183 Si / 1000 Ang^3
#
#
#
# Elastic Constant Matrix: (Units=GPa)
#
#
# Indices 1 2 3 4 5 6 
#
# 1 97.1206 13.8845 24.3986 0.0000 -9.0746 0.0000
# 2 13.8845 53.7767 19.7609 0.0000 4.9808 0.0000
# 3 24.3986 19.7609 93.0950 0.0000 9.5778 0.0000
# 4 0.0000 0.0000 0.0000 11.7494 0.0000 13.7609
# 5 -9.0746 4.9808 9.5778 0.0000 28.7910 0.0000
# 6 0.0000 0.0000 0.0000 13.7609 0.0000 19.3917
#
#
#
# Elastic Compliance Matrix: (Units=1/GPa)
#
#
# Indices 1 2 3 4 5 6 
#
# 1 0.011919 -0.002403 -0.003151 0.000000 0.005221 0.000000
# 2 -0.002403 0.020781 -0.003452 0.000000 -0.003204 0.000000
# 3 -0.003151 -0.003452 0.012778 0.000000 -0.004647 0.000000
# 4 0.000000 0.000000 0.000000 0.503976 0.000000 -0.357637
# 5 0.005221 -0.003204 -0.004647 0.000000 0.038479 0.000000
# 6 0.000000 0.000000 0.000000 -0.357637 0.000000 0.305359
#
#
# Mechanical properties :
#
#
# Convention : Reuss Voigt Hill
#
# Bulk Modulus (GPa) = 36.40686 40.00890 38.20788
# Shear Modulus (GPa) = 5.43207 24.38297 14.90752
#
# Velocity S-wave (km/s) = 1.63730 3.46888 2.71237
# Velocity P-wave (km/s) = 4.64126 5.98237 5.35398
#
# Compressibility (1/GPa) = 0.02746735
#
# Stress axis : x y z
#
# Youngs Moduli (GPa) = 83.89679 48.12092 78.25802
#
# Poissons Ratio (x) = 0.11564 0.24658
# Poissons Ratio (y) = 0.20162 0.27012
# Poissons Ratio (z) = 0.26435 0.16609
#
# Static dielectric constant tensor:
#      x y z
#    x 3.815680 0.000000 -0.076820 
#    y 0.000000 3.632810 0.000000 
#    z -0.076820 0.000000 3.640360 
# 
# 
# High freq. dielectric constant tensor:
#      x y z
#    x 1.803730 0.000000 0.000320 
#    y 0.000000 1.788050 0.000000 
#    z 0.000320 0.000000 1.794100 
# 
# From -- ./inp_files/49561.got.cif
#   From: 2010.06.25/outbox.cif.g09.slc.cpg/sg10_25_cif.got.tgz:49561.got - 2010.06.27 22:07:45.
