data_PCOD8066479
_publ_section_title
;
Structure prediction by ZEFSAII (Michael W. Deem and Ramdas Pophale) SiO2 
 PCOD8066479
Probable space group: P 2/M
;
_chemical_formula_sum "Si O2"
_cell_formula_units_Z 24
_cell_length_a 18.556355
_cell_length_b 8.909564
_cell_length_c 7.477422
_cell_angle_alpha 90.000000
_cell_angle_beta 65.794567
_cell_angle_gamma 90.000000
_cell_volume 1127.546703
_symmetry_space_group_name_H-M "P 2/M"
_symmetry_group_IT_number 10
_symmetry_cell_setting 'monoclinic'
loop_
_space_group_symop_operation_xyz
x,y,z
-x,y,-z
-x,-y,-z
x,-y,z
loop_
_atom_site_type_symbol
_atom_site_label
_atom_site_fract_x
_atom_site_fract_y
_atom_site_fract_z
Si Si1 0.860663 0.834187 0.433605
Si Si2 0.674204 0.675890 0.973297
Si Si3 0.704217 0.677221 0.533636
Si Si4 0.409478 0.825792 0.637027
Si Si5 0.171792 0.165676 0.122169
Si Si6 0.983777 0.664678 0.811682
O O1 0.790540 0.747299 0.401626
O O2 0.834601 0.851233 0.661426
O O3 0.942323 0.744232 0.356141
O O4 0.872701 0.000000 0.335546
O O5 0.663265 0.500000 0.010308
O O6 0.674315 0.720337 0.763871
O O7 0.754444 0.726240 0.993144
O O8 0.604097 0.761310 0.148913
O O9 0.712807 0.500000 0.505361
O O10 0.641749 0.738184 0.456688
O O11 0.500000 0.798088 0.500000
O O12 0.386595 0.000000 0.654696
O O13 0.093329 0.234496 0.120373
O O14 0.185426 0.000000 0.024033
O O15 0.971128 0.500000 0.735145
O O16 0.000000 0.641819 0.000000
#
# Coordination Sequence:
#
# PCOD8066479 Si02
#       6
#     4   4   4   4   4   4
#     4  10  21  38  60  85 115 154 200 249 301 357
#     4  10  22  41  66  94 125 163 206 254 308 366
#     4  10  22  41  66  94 125 163 206 254 308 366
#     4  11  25  43  65  94 127 164 203 249 307 369
#     4  10  21  38  60  85 115 154 200 249 301 357
#     4  11  24  37  52  80 118 159 202 249 299 351
#
# _framework density 21.285150000000002
#
# number of rings (size 3 to 8) (size 9 to 14) (size 15 to 20)
#    0.000    1.667    0.000    3.500    2.333    9.333 
#    0.000    3.333    0.000    0.000    0.000    0.000 
#    0.000    0.000    0.000    0.000    0.000    0.000 
#
# Total GULP energy -297619.206449 kJ/mol
# GULP energy per Si atom -12400.800269 kJ/mol
# Density = 2.123670 g / cm^3
# Si number density = 21.285150 Si / 1000 Ang^3
#
#
#
# Elastic Constant Matrix: (Units=GPa)
#
#
# Indices 1 2 3 4 5 6 
#
# 1 59.6442 13.4149 -1.9253 0.0000 -1.0763 0.0000
# 2 13.4149 108.9482 19.6761 0.0000 -4.5517 0.0000
# 3 -1.9253 19.6761 50.3339 0.0000 -15.6915 0.0000
# 4 0.0000 0.0000 0.0000 31.8595 0.0000 -3.6585
# 5 -1.0763 -4.5517 -15.6915 0.0000 31.6448 0.0000
# 6 0.0000 0.0000 0.0000 -3.6585 0.0000 30.8410
#
#
#
# Elastic Compliance Matrix: (Units=1/GPa)
#
#
# Indices 1 2 3 4 5 6 
#
# 1 0.017405 -0.002455 0.002011 0.000000 0.001236 0.000000
# 2 -0.002455 0.010231 -0.004330 0.000000 -0.000759 0.000000
# 3 0.002011 -0.004330 0.025389 0.000000 0.012035 0.000000
# 4 0.000000 0.000000 0.000000 0.031821 0.000000 0.003775
# 5 0.001236 -0.000759 0.012035 0.000000 0.037501 0.000000
# 6 0.000000 0.000000 0.000000 0.003775 0.000000 0.032872
#
#
# Mechanical properties :
#
#
# Convention : Reuss Voigt Hill
#
# Bulk Modulus (GPa) = 23.00049 31.25084 27.12566
# Shear Modulus (GPa) = 27.89238 31.38644 29.63941
#
# Velocity S-wave (km/s) = 3.62389 3.84418 3.73566
# Velocity P-wave (km/s) = 5.32348 5.86664 5.60165
#
# Compressibility (1/GPa) = 0.04347733
#
# Stress axis : x y z
#
# Youngs Moduli (GPa) = 57.45353 97.74019 39.38755
#
# Poissons Ratio (x) = 0.23992 -0.07919
# Poissons Ratio (y) = 0.14103 0.17055
# Poissons Ratio (z) = -0.11552 0.42321
#
# Static dielectric constant tensor:
#      x y z
#    x 3.465610 0.000000 0.031290 
#    y 0.000000 4.532640 0.000000 
#    z 0.031290 0.000000 3.902010 
# 
# 
# High freq. dielectric constant tensor:
#      x y z
#    x 1.827700 0.000000 -0.000870 
#    y 0.000000 1.853510 0.000000 
#    z -0.000870 0.000000 1.839160 
# 
# From -- ./inp_files/33443.got.cif
#   From: 2010.06.25/outbox.cif.g09.slc.cpg/sg10_17_cif.got.tgz:33443.got - 2010.06.27 22:07:45.
