data_PCOD8066427
_publ_section_title
;
Structure prediction by ZEFSAII (Michael W. Deem and Ramdas Pophale) SiO2 
 PCOD8066427
Probable space group: P 2/M
;
_chemical_formula_sum "Si O2"
_cell_formula_units_Z 32
_cell_length_a 11.787271
_cell_length_b 8.906826
_cell_length_c 14.915868
_cell_angle_alpha 90.000000
_cell_angle_beta 85.789949
_cell_angle_gamma 90.000000
_cell_volume 1561.749192
_symmetry_space_group_name_H-M "P 2/M"
_symmetry_group_IT_number 10
_symmetry_cell_setting 'monoclinic'
loop_
_space_group_symop_operation_xyz
x,y,z
-x,y,-z
-x,-y,-z
x,-y,z
loop_
_atom_site_type_symbol
_atom_site_label
_atom_site_fract_x
_atom_site_fract_y
_atom_site_fract_z
Si Si1 0.060763 0.828586 0.582553
Si Si2 0.628968 0.321908 0.994439
Si Si3 0.336175 0.670982 0.326133
Si Si4 0.683676 0.829102 0.486892
Si Si5 0.231181 0.826385 0.169344
Si Si6 0.592071 0.671435 0.329677
Si Si7 0.976075 0.824496 0.218394
Si Si8 0.243627 0.322012 0.836572
O O1 0.195099 0.814444 0.567341
O O2 0.000000 0.748849 0.500000
O O3 0.024238 0.755797 0.680069
O O4 0.018080 0.000000 0.586327
O O5 0.625543 0.500000 0.995014
O O6 0.696802 0.271132 0.903328
O O7 0.500000 0.258263 0.000000
O O8 0.694380 0.259947 0.078035
O O9 0.293748 0.500000 0.317943
O O10 0.318335 0.721222 0.428560
O O11 0.263428 0.779810 0.267990
O O12 0.468521 0.683522 0.291589
O O13 0.592541 0.773189 0.418840
O O14 0.655950 0.000000 0.516329
O O15 0.097119 0.795338 0.164482
O O16 0.260049 0.000000 0.153255
O O17 0.619152 0.500000 0.355572
O O18 0.683040 0.732035 0.252794
O O19 0.882491 0.745039 0.161895
O O20 0.946390 0.000000 0.224927
O O21 0.235366 0.500000 0.840499
#
# Coordination Sequence:
#
# PCOD8066427 Si02
#       8
#     4   4   4   4   4   4   4   4
#     4   9  17  32  54  78 111 157 201 241 291 350
#     4  10  22  43  68  92 122 161 200 241 300 365
#     4  11  23  39  59  83 119 164 202 246 305 363
#     4  11  21  34  56  86 118 156 203 250 299 357
#     4  11  24  41  63  91 121 154 198 252 301 355
#     4  10  21  38  58  83 118 158 200 246 299 358
#     4  10  21  39  60  85 121 161 197 243 308 362
#     4  10  21  38  63  90 117 155 204 251 292 355
#
# _framework density 20.489847000000001
#
# number of rings (size 3 to 8) (size 9 to 14) (size 15 to 20)
#    0.000    1.750    1.250    3.000    0.000    8.750 
#    0.000    3.750    0.000    1.875    0.000    0.000 
#    0.000    0.000    0.000    0.000    0.000    0.000 
#
# Total GULP energy -396904.685440 kJ/mol
# GULP energy per Si atom -12403.271420 kJ/mol
# Density = 2.044321 g / cm^3
# Si number density = 20.489847 Si / 1000 Ang^3
#
#
#
# Elastic Constant Matrix: (Units=GPa)
#
#
# Indices 1 2 3 4 5 6 
#
# 1 103.4968 28.2499 45.5642 0.0000 9.6805 0.0000
# 2 28.2499 29.8173 13.8612 0.0000 4.1467 0.0000
# 3 45.5642 13.8612 102.0749 0.0000 13.1508 0.0000
# 4 0.0000 0.0000 0.0000 28.1366 0.0000 1.5673
# 5 9.6805 4.1467 13.1508 0.0000 38.8242 0.0000
# 6 0.0000 0.0000 0.0000 1.5673 0.0000 30.7800
#
#
#
# Elastic Compliance Matrix: (Units=1/GPa)
#
#
# Indices 1 2 3 4 5 6 
#
# 1 0.015237 -0.011966 -0.005073 0.000000 -0.000803 0.000000
# 2 -0.011966 0.045388 -0.000608 0.000000 -0.001658 0.000000
# 3 -0.005073 -0.000608 0.012519 0.000000 -0.002911 0.000000
# 4 0.000000 0.000000 0.000000 0.035642 0.000000 -0.001815
# 5 -0.000803 -0.001658 -0.002911 0.000000 0.027120 0.000000
# 6 0.000000 0.000000 0.000000 -0.001815 0.000000 0.032581
#
#
# Mechanical properties :
#
#
# Convention : Reuss Voigt Hill
#
# Bulk Modulus (GPa) = 26.42097 45.63774 36.02935
# Shear Modulus (GPa) = 23.10557 29.39574 26.25066
#
# Velocity S-wave (km/s) = 3.36171 3.79179 3.58320
# Velocity P-wave (km/s) = 5.29063 6.44142 5.89418
#
# Compressibility (1/GPa) = 0.03784873
#
# Stress axis : x y z
#
# Youngs Moduli (GPa) = 65.63069 22.03227 79.87953
#
# Poissons Ratio (x) = 0.26364 0.40523
# Poissons Ratio (y) = 0.78533 0.04860
# Poissons Ratio (z) = 0.33295 0.01341
#
# Static dielectric constant tensor:
#      x y z
#    x 3.816800 0.000000 0.091710 
#    y 0.000000 3.502420 0.000000 
#    z 0.091710 0.000000 3.735140 
# 
# 
# High freq. dielectric constant tensor:
#      x y z
#    x 1.812660 0.000000 0.001810 
#    y 0.000000 1.778780 0.000000 
#    z 0.001810 0.000000 1.804390 
# 
# From -- ./inp_files/63782.got.cif
#   From: 2010.06.25/outbox.cif.g09.slc.cpg/sg10_32_cif.got.tgz:63782.got - 2010.06.27 22:07:45.
