data_PCOD8066317
_publ_section_title
;
Structure prediction by ZEFSAII (Michael W. Deem and Ramdas Pophale) SiO2 
 PCOD8066317
Probable space group: P 2/M
;
_chemical_formula_sum "Si O2"
_cell_formula_units_Z 28
_cell_length_a 18.901453
_cell_length_b 13.622615
_cell_length_c 9.524394
_cell_angle_alpha 90.000000
_cell_angle_beta 35.267482
_cell_angle_gamma 90.000000
_cell_volume 1416.007473
_symmetry_space_group_name_H-M "P 2/M"
_symmetry_group_IT_number 10
_symmetry_cell_setting 'monoclinic'
loop_
_space_group_symop_operation_xyz
x,y,z
-x,y,-z
-x,-y,-z
x,-y,z
loop_
_atom_site_type_symbol
_atom_site_label
_atom_site_fract_x
_atom_site_fract_y
_atom_site_fract_z
Si Si1 0.877965 0.691496 0.106849
Si Si2 0.078537 0.103995 0.005521
Si Si3 0.986825 0.385817 0.367565
Si Si4 0.902080 0.886848 0.539082
Si Si5 0.735819 0.706446 0.772311
Si Si6 0.545790 0.615004 0.272264
Si Si7 0.657503 0.387035 0.627804
O O1 0.782136 0.622430 0.338165
O O2 0.828726 0.804869 0.170540
O O3 0.000000 0.692610 0.000000
O O4 0.906064 0.652260 0.906524
O O5 0.977333 0.139082 0.279509
O O6 0.144777 0.000000 0.943578
O O7 0.000000 0.078117 0.000000
O O8 0.005074 0.500000 0.346756
O O9 0.850617 0.360108 0.538422
O O10 0.000000 0.336683 0.500000
O O11 0.780610 0.817971 0.731121
O O12 0.000000 0.861741 0.500000
O O13 0.857335 0.000000 0.619853
O O14 0.649468 0.688043 0.774135
O O15 0.670210 0.669829 0.021676
O O16 0.500000 0.652879 0.500000
O O17 0.574378 0.500000 0.235551
O O18 0.447603 0.640583 0.312069
O O19 0.643849 0.500000 0.702302
#
# Coordination Sequence:
#
# PCOD8066317 Si02
#       7
#     4   4   4   4   4   4   4
#     4  11  20  34  54  82 116 150 188 235 292 352
#     4   9  17  31  50  77 111 145 184 226 276 339
#     4  11  23  33  49  82 118 150 182 233 291 345
#     4  10  21  37  59  89 121 152 190 237 293 354
#     4  12  21  38  61  82 113 153 198 241 286 351
#     4  10  24  42  60  84 113 155 203 246 289 341
#     4  11  23  38  58  83 117 160 201 242 288 349
#
# _framework density 19.773909
#
# number of rings (size 3 to 8) (size 9 to 14) (size 15 to 20)
#    0.000    1.429    2.857    3.429    2.000    1.714 
#    0.000    0.000    0.000    3.000    0.000    0.000 
#    0.000    0.000    0.000    0.000    0.000    0.000 
#
# Total GULP energy -346911.631249 kJ/mol
# GULP energy per Si atom -12389.701116 kJ/mol
# Density = 1.972890 g / cm^3
# Si number density = 19.773909 Si / 1000 Ang^3
#
#
#
# Elastic Constant Matrix: (Units=GPa)
#
#
# Indices 1 2 3 4 5 6 
#
# 1 79.7322 36.0112 26.3004 0.0000 17.2725 0.0000
# 2 36.0112 106.7184 22.8716 0.0000 2.2483 0.0000
# 3 26.3004 22.8716 97.2573 0.0000 24.1362 0.0000
# 4 0.0000 0.0000 0.0000 18.5264 0.0000 6.6851
# 5 17.2725 2.2483 24.1362 0.0000 31.9471 0.0000
# 6 0.0000 0.0000 0.0000 6.6851 0.0000 14.0741
#
#
#
# Elastic Compliance Matrix: (Units=1/GPa)
#
#
# Indices 1 2 3 4 5 6 
#
# 1 0.017096 -0.005295 -0.001448 0.000000 -0.007776 0.000000
# 2 -0.005295 0.011552 -0.002207 0.000000 0.003717 0.000000
# 3 -0.001448 -0.002207 0.013489 0.000000 -0.009253 0.000000
# 4 0.000000 0.000000 0.000000 0.065142 0.000000 -0.030942
# 5 -0.007776 0.003717 -0.009253 0.000000 0.042235 0.000000
# 6 0.000000 0.000000 0.000000 -0.030942 0.000000 0.085750
#
#
# Mechanical properties :
#
#
# Convention : Reuss Voigt Hill
#
# Bulk Modulus (GPa) = 41.26041 50.45270 45.85656
# Shear Modulus (GPa) = 19.13934 26.14448 22.64191
#
# Velocity S-wave (km/s) = 3.11450 3.64011 3.38751
# Velocity P-wave (km/s) = 5.81763 6.57551 6.20815
#
# Compressibility (1/GPa) = 0.02423631
#
# Stress axis : x y z
#
# Youngs Moduli (GPa) = 58.49489 86.56649 74.13494
#
# Poissons Ratio (x) = 0.45833 0.10735
# Poissons Ratio (y) = 0.30970 0.16364
# Poissons Ratio (z) = 0.08470 0.19108
#
# Static dielectric constant tensor:
#      x y z
#    x 3.743570 0.000000 0.302960 
#    y 0.000000 3.752460 0.000000 
#    z 0.302960 0.000000 3.634920 
# 
# 
# High freq. dielectric constant tensor:
#      x y z
#    x 1.765220 0.000000 0.035070 
#    y 0.000000 1.770020 0.000000 
#    z 0.035070 0.000000 1.760520 
# 
# From -- ./inp_files/32793.got.cif
#   From: 2010.06.25/outbox.cif.g09.slc.cpg/sg10_17_cif.got.tgz:32793.got - 2010.06.27 22:07:45.
