data_PCOD8066897
_publ_section_title
;
Structure prediction by ZEFSAII (Michael W. Deem and Ramdas Pophale) SiO2 
 PCOD8066897
Probable space group: P 2/M
;
_chemical_formula_sum "Si O2"
_cell_formula_units_Z 32
_cell_length_a 18.139172
_cell_length_b 14.764636
_cell_length_c 5.516610
_cell_angle_alpha 90.000000
_cell_angle_beta 85.072996
_cell_angle_gamma 90.000000
_cell_volume 1471.989676
_symmetry_space_group_name_H-M "P 2/M"
_symmetry_group_IT_number 10
_symmetry_cell_setting 'monoclinic'
loop_
_space_group_symop_operation_xyz
x,y,z
-x,y,-z
-x,-y,-z
x,-y,z
loop_
_atom_site_type_symbol
_atom_site_label
_atom_site_fract_x
_atom_site_fract_y
_atom_site_fract_z
Si Si1 0.967017 0.895657 0.759315
Si Si2 0.158387 0.658116 0.929299
Si Si3 0.702931 0.755693 0.575944
Si Si4 0.586652 0.742373 0.992321
Si Si5 0.807737 0.835570 0.908296
Si Si6 0.917046 0.605241 0.554969
Si Si7 0.310252 0.397007 0.785644
Si Si8 0.327651 0.898260 0.796833
O O1 0.878054 0.888103 0.782199
O O2 0.000000 0.851442 0.500000
O O3 0.990975 0.000000 0.752273
O O4 0.000000 0.851367 0.000000
O O5 0.123506 0.621836 0.690246
O O6 0.235524 0.604766 0.967333
O O7 0.170993 0.766622 0.878555
O O8 0.110541 0.652794 0.189719
O O9 0.621987 0.748446 0.718669
O O10 0.772747 0.763447 0.730926
O O11 0.714986 0.660743 0.439473
O O12 0.702710 0.850016 0.432149
O O13 0.500000 0.728625 0.000000
O O14 0.620543 0.654273 0.114261
O O15 0.605373 0.836516 0.123074
O O16 0.742786 0.904897 0.001597
O O17 0.913915 0.500000 0.614650
O O18 0.000000 0.641117 0.500000
O O19 0.333870 0.500000 0.716421
O O20 0.356610 0.000000 0.737678
#
# Coordination Sequence:
#
# PCOD8066897 Si02
#       8
#     4   4   4   4   4   4   4   4
#     4  10  24  42  61  92 131 175 227 283 343 406
#     4  12  23  40  66  96 129 177 231 282 337 402
#     4  10  21  43  64  96 125 173 219 273 327 408
#     4  10  23  44  66  95 136 171 212 273 334 406
#     4  11  23  40  64  89 132 169 224 277 335 400
#     4  11  25  43  63  93 132 177 228 286 346 404
#     4  11  23  40  64  97 131 174 224 277 334 399
#     4  10  22  40  66  98 127 170 219 270 335 401
#
# _framework density 21.739283
#
# number of rings (size 3 to 8) (size 9 to 14) (size 15 to 20)
#    0.000    1.375    3.750    2.625    1.750    8.000 
#    0.000    1.250    0.000    0.000    0.000    0.000 
#    0.000    0.000    0.000    0.000    0.000    0.000 
#
# Total GULP energy -396508.936516 kJ/mol
# GULP energy per Si atom -12390.904266 kJ/mol
# Density = 2.168980 g / cm^3
# Si number density = 21.739283 Si / 1000 Ang^3
#
#
#
# Elastic Constant Matrix: (Units=GPa)
#
#
# Indices 1 2 3 4 5 6 
#
# 1 150.2754 17.8378 41.8903 0.0000 2.7993 0.0000
# 2 17.8378 135.6012 24.8142 0.0000 6.5283 0.0000
# 3 41.8903 24.8142 113.5501 0.0000 -0.3714 0.0000
# 4 0.0000 0.0000 0.0000 7.7620 0.0000 -3.2977
# 5 2.7993 6.5283 -0.3714 0.0000 17.7786 0.0000
# 6 0.0000 0.0000 0.0000 -3.2977 0.0000 21.1082
#
#
#
# Elastic Compliance Matrix: (Units=1/GPa)
#
#
# Indices 1 2 3 4 5 6 
#
# 1 0.007469 -0.000444 -0.002662 0.000000 -0.001069 0.000000
# 2 -0.000444 0.007856 -0.001562 0.000000 -0.002847 0.000000
# 3 -0.002662 -0.001562 0.010134 0.000000 0.001205 0.000000
# 4 0.000000 0.000000 0.000000 0.137992 0.000000 0.021558
# 5 -0.001069 -0.002847 0.001205 0.000000 0.057486 0.000000
# 6 0.000000 0.000000 0.000000 0.021558 0.000000 0.050743
#
#
# Mechanical properties :
#
#
# Convention : Reuss Voigt Hill
#
# Bulk Modulus (GPa) = 62.02432 63.16793 62.59613
# Shear Modulus (GPa) = 17.45863 30.32204 23.89033
#
# Velocity S-wave (km/s) = 2.83696 3.73876 3.31863
# Velocity P-wave (km/s) = 6.27089 6.91071 6.59856
#
# Compressibility (1/GPa) = 0.01612271
#
# Stress axis : x y z
#
# Youngs Moduli (GPa) = 133.88519 127.29215 98.67707
#
# Poissons Ratio (x) = 0.05651 0.26267
# Poissons Ratio (y) = 0.05944 0.15416
# Poissons Ratio (z) = 0.35639 0.19887
#
# Static dielectric constant tensor:
#      x y z
#    x 3.739790 0.000000 -0.077590 
#    y 0.000000 3.796210 0.000000 
#    z -0.077590 0.000000 4.120520 
# 
# 
# High freq. dielectric constant tensor:
#      x y z
#    x 1.846130 0.000000 -0.002780 
#    y 0.000000 1.850700 0.000000 
#    z -0.002780 0.000000 1.858410 
# 
# From -- ./inp_files/11431.got.cif
#   From: 2010.06.25/outbox.cif.g09.slc.cpg/sg10_6_cif.got.tgz:11431.got - 2010.06.27 22:07:45.
