data_PCOD8066518
_publ_section_title
;
Structure prediction by ZEFSAII (Michael W. Deem and Ramdas Pophale) SiO2 
 PCOD8066518
Probable space group: P 2/M
;
_chemical_formula_sum "Si O2"
_cell_formula_units_Z 22
_cell_length_a 12.166800
_cell_length_b 18.130961
_cell_length_c 9.436149
_cell_angle_alpha 90.000000
_cell_angle_beta 35.451298
_cell_angle_gamma 90.000000
_cell_volume 1207.335631
_symmetry_space_group_name_H-M "P 2/M"
_symmetry_group_IT_number 10
_symmetry_cell_setting 'monoclinic'
loop_
_space_group_symop_operation_xyz
x,y,z
-x,y,-z
-x,-y,-z
x,-y,z
loop_
_atom_site_type_symbol
_atom_site_label
_atom_site_fract_x
_atom_site_fract_y
_atom_site_fract_z
Si Si1 0.522977 0.120574 0.308715
Si Si2 0.194067 0.500000 0.714554
Si Si3 0.803419 0.500000 0.623011
Si Si4 0.769370 0.000000 0.401302
Si Si5 0.773787 0.657426 0.234460
Si Si6 0.186937 0.000000 0.979366
Si Si7 0.500000 0.621644 0.000000
Si Si8 0.522232 0.715743 0.255606
O O1 0.500000 0.136020 0.500000
O O2 0.547193 0.197380 0.201212
O O3 0.344022 0.074110 0.437553
O O4 0.710322 0.073830 0.074984
O O5 0.157717 0.500000 0.585060
O O6 0.300165 0.574259 0.652960
O O7 0.000000 0.500000 0.000000
O O8 0.687078 0.572354 0.788175
O O9 0.000000 0.500000 0.500000
O O10 0.973082 0.000000 0.263710
O O11 0.799899 0.000000 0.202546
O O12 0.695378 0.682437 0.165229
O O13 0.680556 0.707970 0.453323
O O14 0.000000 0.665732 0.000000
O O15 0.473541 0.673814 0.895034
#
# Coordination Sequence:
#
# PCOD8066518 Si02
#       8
#     4   2   2   2   4   2   2   4
#     4   9  16  30  48  77 113 139 176 233 274 323
#     4  10  21  38  61  86 104 144 197 235 284 326
#     4  11  25  43  59  82 118 154 195 235 276 348
#     4   8  15  27  48  75 108 145 175 217 277 337
#     4  10  22  37  58  82 110 144 190 243 287 323
#     4   8  15  27  48  77 106 143 179 215 281 333
#     4  11  26  40  60  83 114 160 190 223 296 336
#     4  11  22  38  55  85 117 147 189 235 280 347
#
# _framework density 18.221941999999999
#
# number of rings (size 3 to 8) (size 9 to 14) (size 15 to 20)
#    0.000    2.182    3.636    1.091    5.091    3.636 
#    0.000    0.000    0.000    2.182    0.000    1.273 
#    0.000    0.000    0.000    0.000    0.000    0.000 
#
# Total GULP energy -272713.151350 kJ/mol
# GULP energy per Si atom -12396.052334 kJ/mol
# Density = 1.818047 g / cm^3
# Si number density = 18.221942 Si / 1000 Ang^3
#
#
#
# Elastic Constant Matrix: (Units=GPa)
#
#
# Indices 1 2 3 4 5 6 
#
# 1 108.4430 79.3604 77.0347 0.0000 -10.6639 0.0000
# 2 79.3604 175.9081 50.2659 0.0000 -8.4585 0.0000
# 3 77.0347 50.2659 91.0883 0.0000 -14.7110 0.0000
# 4 0.0000 0.0000 0.0000 22.1235 0.0000 12.2890
# 5 -10.6639 -8.4585 -14.7110 0.0000 40.1767 0.0000
# 6 0.0000 0.0000 0.0000 12.2890 0.0000 34.9434
#
#
#
# Elastic Compliance Matrix: (Units=1/GPa)
#
#
# Indices 1 2 3 4 5 6 
#
# 1 0.029379 -0.007310 -0.021046 0.000000 -0.001447 0.000000
# 2 -0.007310 0.008568 0.001522 0.000000 0.000421 0.000000
# 3 -0.021046 0.001522 0.028790 0.000000 0.005276 0.000000
# 4 0.000000 0.000000 0.000000 0.056175 0.000000 -0.019756
# 5 -0.001447 0.000421 0.005276 0.000000 0.026526 0.000000
# 6 0.000000 0.000000 0.000000 -0.019756 0.000000 0.035565
#
#
# Mechanical properties :
#
#
# Convention : Reuss Voigt Hill
#
# Bulk Modulus (GPa) = 76.52061 87.64017 82.08039
# Shear Modulus (GPa) = 20.57372 30.70062 25.63717
#
# Velocity S-wave (km/s) = 3.36380 4.10910 3.75499
# Velocity P-wave (km/s) = 7.56120 8.40912 7.99641
#
# Compressibility (1/GPa) = 0.01306838
#
# Stress axis : x y z
#
# Youngs Moduli (GPa) = 34.03737 116.71346 34.73453
#
# Poissons Ratio (x) = 0.85318 0.73104
# Poissons Ratio (y) = 0.24881 -0.05287
# Poissons Ratio (z) = 0.71637 -0.17764
#
# Static dielectric constant tensor:
#      x y z
#    x 5.733930 0.000000 -0.225680 
#    y 0.000000 3.842920 0.000000 
#    z -0.225680 0.000000 3.339950 
# 
# 
# High freq. dielectric constant tensor:
#      x y z
#    x 1.684420 0.000000 -0.019860 
#    y 0.000000 1.720460 0.000000 
#    z -0.019860 0.000000 1.691930 
# 
# From -- ./inp_files/25635.got.cif
#   From: 2010.06.25/outbox.cif.g09.slc.cpg/sg10_13_cif.got.tgz:25635.got - 2010.06.27 22:07:45.
