data_PCOD8066602
_publ_section_title
;
Structure prediction by ZEFSAII (Michael W. Deem and Ramdas Pophale) SiO2 
 PCOD8066602
Probable space group: P 2/M
;
_chemical_formula_sum "Si O2"
_cell_formula_units_Z 24
_cell_length_a 5.088581
_cell_length_b 17.486513
_cell_length_c 15.224120
_cell_angle_alpha 90.000000
_cell_angle_beta 57.805162
_cell_angle_gamma 90.000000
_cell_volume 1146.373812
_symmetry_space_group_name_H-M "P 2/M"
_symmetry_group_IT_number 10
_symmetry_cell_setting 'monoclinic'
loop_
_space_group_symop_operation_xyz
x,y,z
-x,y,-z
-x,-y,-z
x,-y,z
loop_
_atom_site_type_symbol
_atom_site_label
_atom_site_fract_x
_atom_site_fract_y
_atom_site_fract_z
Si Si1 0.718900 0.410481 0.254867
Si Si2 0.074976 0.140626 0.890955
Si Si3 0.117509 0.327047 0.308058
Si Si4 0.818900 0.301729 0.895383
Si Si5 0.240119 0.088564 0.225813
Si Si6 0.133704 0.822348 0.567965
O O1 0.695385 0.500000 0.243473
O O2 0.383176 0.372733 0.310433
O O3 0.854658 0.388976 0.326780
O O4 0.947977 0.374642 0.139280
O O5 0.439735 0.131549 0.807717
O O6 0.987333 0.229738 0.908640
O O7 0.863323 0.098241 0.856796
O O8 0.000000 0.104907 0.000000
O O9 0.244367 0.284486 0.196944
O O10 0.980675 0.264202 0.397459
O O11 0.500000 0.322095 0.000000
O O12 0.973015 0.122187 0.335208
O O13 0.287763 0.000000 0.238278
O O14 0.500000 0.824459 0.500000
O O15 0.000000 0.853009 0.500000
#
# Coordination Sequence:
#
# PCOD8066602 Si02
#       6
#     4   4   4   4   4   4
#     4  10  21  38  63  93 137 172 209 261 329 390
#     4  12  25  42  69  98 135 181 222 260 311 389
#     4  10  22  41  64  93 126 169 219 261 327 382
#     4  10  23  38  66  95 130 172 224 263 314 383
#     4  12  26  46  67  99 138 169 213 273 331 396
#     4  12  25  44  72  97 124 167 224 282 333 389
#
# _framework density 20.935580999999999
#
# number of rings (size 3 to 8) (size 9 to 14) (size 15 to 20)
#    1.000    0.000    1.667    5.500    2.333    3.000 
#    0.000    0.833    0.000   10.000    0.000    0.000 
#    0.000    0.000    0.000    0.000    0.000    0.000 
#
# Total GULP energy -297591.075300 kJ/mol
# GULP energy per Si atom -12399.628137 kJ/mol
# Density = 2.088793 g / cm^3
# Si number density = 20.935581 Si / 1000 Ang^3
#
#
#
# Elastic Constant Matrix: (Units=GPa)
#
#
# Indices 1 2 3 4 5 6 
#
# 1 143.6104 33.7865 27.0540 0.0000 -14.7347 0.0000
# 2 33.7865 97.5462 29.5885 0.0000 -12.8759 0.0000
# 3 27.0540 29.5885 74.0394 0.0000 -2.7290 0.0000
# 4 0.0000 0.0000 0.0000 10.3247 0.0000 -1.3620
# 5 -14.7347 -12.8759 -2.7290 0.0000 32.1669 0.0000
# 6 0.0000 0.0000 0.0000 -1.3620 0.0000 21.1455
#
#
#
# Elastic Compliance Matrix: (Units=1/GPa)
#
#
# Indices 1 2 3 4 5 6 
#
# 1 0.008072 -0.001778 -0.002136 0.000000 0.002805 0.000000
# 2 -0.001778 0.012678 -0.004273 0.000000 0.003898 0.000000
# 3 -0.002136 -0.004273 0.015945 0.000000 -0.001336 0.000000
# 4 0.000000 0.000000 0.000000 0.097686 0.000000 0.006292
# 5 0.002805 0.003898 -0.001336 0.000000 0.033819 0.000000
# 6 0.000000 0.000000 0.000000 0.006292 0.000000 0.047697
#
#
# Mechanical properties :
#
#
# Convention : Reuss Voigt Hill
#
# Bulk Modulus (GPa) = 49.20866 55.11710 52.16288
# Shear Modulus (GPa) = 20.91669 27.71188 24.31428
#
# Velocity S-wave (km/s) = 3.16428 3.64218 3.41161
# Velocity P-wave (km/s) = 6.07503 6.63863 6.36308
#
# Compressibility (1/GPa) = 0.02032163
#
# Stress axis : x y z
#
# Youngs Moduli (GPa) = 123.89147 78.87666 62.71499
#
# Poissons Ratio (x) = 0.14022 0.13393
# Poissons Ratio (y) = 0.22025 0.26800
# Poissons Ratio (z) = 0.26458 0.33706
#
# Static dielectric constant tensor:
#      x y z
#    x 3.847130 0.000000 0.010070 
#    y 0.000000 3.612430 0.000000 
#    z 0.010070 0.000000 3.651390 
# 
# 
# High freq. dielectric constant tensor:
#      x y z
#    x 1.838560 0.000000 -0.003220 
#    y 0.000000 1.809740 0.000000 
#    z -0.003220 0.000000 1.808350 
# 
# From -- ./inp_files/59512.got.cif
#   From: 2010.06.25/outbox.cif.g09.slc.cpg/sg10_30_cif.got.tgz:59512.got - 2010.06.27 22:07:45.
