data_PCOD8066984
_publ_section_title
;
Structure prediction by ZEFSAII (Michael W. Deem and Ramdas Pophale) SiO2 
 PCOD8066984
Probable space group: P 2/M
;
_chemical_formula_sum "Si O2"
_cell_formula_units_Z 16
_cell_length_a 13.320245
_cell_length_b 7.632014
_cell_length_c 10.414298
_cell_angle_alpha 90.000000
_cell_angle_beta 131.430586
_cell_angle_gamma 90.000000
_cell_volume 793.784188
_symmetry_space_group_name_H-M "P 2/M"
_symmetry_group_IT_number 10
_symmetry_cell_setting 'monoclinic'
loop_
_space_group_symop_operation_xyz
x,y,z
-x,y,-z
-x,-y,-z
x,-y,z
loop_
_atom_site_type_symbol
_atom_site_label
_atom_site_fract_x
_atom_site_fract_y
_atom_site_fract_z
Si Si1 0.208611 0.500000 0.114746
Si Si2 0.882059 0.205144 0.499899
Si Si3 0.536421 0.305656 0.667443
Si Si4 0.407210 0.197118 0.813598
Si Si5 0.944567 0.500000 0.749530
O O1 0.302475 0.326322 0.182223
O O2 0.137907 0.500000 0.190787
O O3 0.103106 0.500000 0.910438
O O4 0.742245 0.276505 0.321063
O O5 0.910001 0.320919 0.647858
O O6 0.000000 0.238859 0.500000
O O7 0.872310 0.000000 0.531356
O O8 0.500000 0.214615 0.500000
O O9 0.467839 0.500000 0.612149
O O10 0.478438 0.195274 0.735510
O O11 0.388120 0.000000 0.845204
O O12 0.500000 0.295175 0.000000
#
# Coordination Sequence:
#
# PCOD8066984 Si02
#       5
#     2   4   4   4   2
#     4   9  21  36  58  91 114 151 200 248 284 361
#     4  10  23  40  60  87 121 158 198 242 295 356
#     4   9  19  36  58  83 116 150 189 242 295 339
#     4  10  22  38  59  88 119 152 195 248 298 350
#     4  11  21  40  62  84 122 158 198 242 297 352
#
# _framework density 20.156614000000001
#
# number of rings (size 3 to 8) (size 9 to 14) (size 15 to 20)
#    0.750    1.500    0.000    1.875    5.250    1.000 
#    0.000    3.750    0.000    0.000    0.000    0.000 
#    0.000    0.000    0.000    0.000    0.000    0.000 
#
# Total GULP energy -198281.812737 kJ/mol
# GULP energy per Si atom -12392.613296 kJ/mol
# Density = 2.011074 g / cm^3
# Si number density = 20.156614 Si / 1000 Ang^3
#
#
#
# Elastic Constant Matrix: (Units=GPa)
#
#
# Indices 1 2 3 4 5 6 
#
# 1 124.9215 13.1268 81.5716 0.0000 19.0599 0.0000
# 2 13.1268 53.9557 30.8735 0.0000 2.2401 0.0000
# 3 81.5716 30.8735 194.9777 0.0000 20.7605 0.0000
# 4 0.0000 0.0000 0.0000 12.3489 0.0000 -8.4963
# 5 19.0599 2.2401 20.7605 0.0000 43.4522 0.0000
# 6 0.0000 0.0000 0.0000 -8.4963 0.0000 26.1420
#
#
#
# Elastic Compliance Matrix: (Units=1/GPa)
#
#
# Indices 1 2 3 4 5 6 
#
# 1 0.011340 -0.000110 -0.004423 0.000000 -0.002855 0.000000
# 2 -0.000110 0.020392 -0.003241 0.000000 0.000545 0.000000
# 3 -0.004423 -0.003241 0.007658 0.000000 -0.001551 0.000000
# 4 0.000000 0.000000 0.000000 0.104301 0.000000 0.033898
# 5 -0.002855 0.000545 -0.001551 0.000000 0.024979 0.000000
# 6 0.000000 0.000000 0.000000 0.033898 0.000000 0.049270
#
#
# Mechanical properties :
#
#
# Convention : Reuss Voigt Hill
#
# Bulk Modulus (GPa) = 41.94146 69.44429 55.69288
# Shear Modulus (GPa) = 20.70941 32.94083 26.82512
#
# Velocity S-wave (km/s) = 3.20882 4.04696 3.65202
# Velocity P-wave (km/s) = 5.88062 7.50762 6.74337
#
# Compressibility (1/GPa) = 0.02384276
#
# Stress axis : x y z
#
# Youngs Moduli (GPa) = 88.18064 49.03792 130.58859
#
# Poissons Ratio (x) = 0.00537 0.57759
# Poissons Ratio (y) = 0.00966 0.42327
# Poissons Ratio (z) = 0.39002 0.15894
#
# Static dielectric constant tensor:
#      x y z
#    x 3.597790 0.000000 0.263780 
#    y 0.000000 3.289250 0.000000 
#    z 0.263780 0.000000 4.002270 
# 
# 
# High freq. dielectric constant tensor:
#      x y z
#    x 1.793670 0.000000 0.008650 
#    y 0.000000 1.755760 0.000000 
#    z 0.008650 0.000000 1.798110 
# 
# From -- ./inp_files/22565.got.cif
#   From: 2010.06.25/outbox.cif.g09.slc.cpg/sg10_12_cif.got.tgz:22565.got - 2010.06.27 22:07:45.
