data_PCOD8066591
_publ_section_title
;
Structure prediction by ZEFSAII (Michael W. Deem and Ramdas Pophale) SiO2 
 PCOD8066591
Probable space group: P 2/M
;
_chemical_formula_sum "Si O2"
_cell_formula_units_Z 28
_cell_length_a 5.208981
_cell_length_b 31.361667
_cell_length_c 9.146860
_cell_angle_alpha 90.000000
_cell_angle_beta 54.629270
_cell_angle_gamma 90.000000
_cell_volume 1218.448651
_symmetry_space_group_name_H-M "P 2/M"
_symmetry_group_IT_number 10
_symmetry_cell_setting 'monoclinic'
loop_
_space_group_symop_operation_xyz
x,y,z
-x,y,-z
-x,-y,-z
x,-y,z
loop_
_atom_site_type_symbol
_atom_site_label
_atom_site_fract_x
_atom_site_fract_y
_atom_site_fract_z
Si Si1 0.735258 0.405083 0.287519
Si Si2 0.391524 0.740098 0.194354
Si Si3 0.869064 0.047434 0.881070
Si Si4 0.234081 0.548192 0.286608
Si Si5 0.777847 0.691477 0.292780
Si Si6 0.575973 0.169581 0.696972
Si Si7 0.065604 0.867306 0.702480
O O1 0.500000 0.407858 0.500000
O O2 0.544739 0.422938 0.210504
O O3 0.858372 0.357067 0.225347
O O4 0.045315 0.433775 0.209530
O O5 0.668130 0.711994 0.175499
O O6 0.352323 0.780084 0.317400
O O7 0.071024 0.713764 0.277485
O O8 0.500000 0.756454 0.000000
O O9 0.065161 0.081491 0.719974
O O10 0.929221 0.000000 0.796628
O O11 0.500000 0.058100 0.000000
O O12 0.000000 0.050538 0.000000
O O13 0.343180 0.500000 0.218980
O O14 0.000000 0.549939 0.500000
O O15 0.500000 0.694415 0.500000
O O16 0.747061 0.147805 0.502333
O O17 0.208823 0.157403 0.797030
O O18 0.705113 0.148066 0.802838
#
# Coordination Sequence:
#
# PCOD8066591 Si02
#       7
#     4   4   4   4   4   4   4
#     4   9  17  30  46  76 111 149 204 243 300 373
#     4  12  26  43  63  91 124 161 211 269 325 380
#     4  10  21  38  62  93 130 169 208 256 311 363
#     4   9  15  24  43  71 114 157 189 239 305 371
#     4  11  24  40  66  88 121 170 209 264 316 385
#     4  10  23  39  61  86 120 158 202 261 309 371
#     4  10  21  39  62  88 121 164 207 250 299 378
#
# _framework density 22.980041
#
# number of rings (size 3 to 8) (size 9 to 14) (size 15 to 20)
#    0.000    1.857    0.000    3.857    6.000    5.714 
#    0.000    2.857    0.000    0.000    0.000    0.000 
#    0.000   40.000    0.000    0.000    0.000    0.000 
#
# Total GULP energy -347006.742878 kJ/mol
# GULP energy per Si atom -12393.097960 kJ/mol
# Density = 2.292774 g / cm^3
# Si number density = 22.980041 Si / 1000 Ang^3
#
#
#
# Elastic Constant Matrix: (Units=GPa)
#
#
# Indices 1 2 3 4 5 6 
#
# 1 228.1077 93.7482 10.2628 0.0000 19.7330 0.0000
# 2 93.7482 221.8426 31.5389 0.0000 2.5220 0.0000
# 3 10.2628 31.5389 45.5899 0.0000 2.9617 0.0000
# 4 0.0000 0.0000 0.0000 7.4262 0.0000 3.1431
# 5 19.7330 2.5220 2.9617 0.0000 13.9579 0.0000
# 6 0.0000 0.0000 0.0000 3.1431 0.0000 50.2117
#
#
#
# Elastic Compliance Matrix: (Units=1/GPa)
#
#
# Indices 1 2 3 4 5 6 
#
# 1 0.006157 -0.002647 0.000993 0.000000 -0.008437 0.000000
# 2 -0.002647 0.006138 -0.003875 0.000000 0.003456 0.000000
# 3 0.000993 -0.003875 0.024779 0.000000 -0.005962 0.000000
# 4 0.000000 0.000000 0.000000 0.138323 0.000000 -0.008659
# 5 -0.008437 0.003456 -0.005962 0.000000 0.084212 0.000000
# 6 0.000000 0.000000 0.000000 -0.008659 0.000000 0.020458
#
#
# Mechanical properties :
#
#
# Convention : Reuss Voigt Hill
#
# Bulk Modulus (GPa) = 38.43675 85.18220 61.80948
# Shear Modulus (GPa) = 16.67799 38.31853 27.49826
#
# Velocity S-wave (km/s) = 2.69692 4.08790 3.46297
# Velocity P-wave (km/s) = 5.14395 7.70906 6.55324
#
# Compressibility (1/GPa) = 0.02601677
#
# Stress axis : x y z
#
# Youngs Moduli (GPa) = 162.41663 162.92050 40.35681
#
# Poissons Ratio (x) = 0.43128 -0.04009
# Poissons Ratio (y) = 0.42995 0.15637
# Poissons Ratio (z) = -0.16135 0.63128
#
# Static dielectric constant tensor:
#      x y z
#    x -0.138050 0.000000 0.335360 
#    y 0.000000 4.335730 0.000000 
#    z 0.335360 0.000000 3.556310 
# 
# 
# High freq. dielectric constant tensor:
#      x y z
#    x 1.941260 0.000000 0.010110 
#    y 0.000000 1.915330 0.000000 
#    z 0.010110 0.000000 1.864610 
# 
# From -- ./inp_files/15868.got.cif
#   From: 2010.06.25/outbox.cif.g09.slc.cpg/sg10_8_cif.got.tgz:15868.got - 2010.06.27 22:07:45.
