data_PCOD8066054
_publ_section_title
;
Structure prediction by ZEFSAII (Michael W. Deem and Ramdas Pophale) SiO2 
 PCOD8066054
Probable space group: P 2/M
;
_chemical_formula_sum "Si O2"
_cell_formula_units_Z 28
_cell_length_a 15.014725
_cell_length_b 8.666194
_cell_length_c 11.077536
_cell_angle_alpha 90.000000
_cell_angle_beta 69.335549
_cell_angle_gamma 90.000000
_cell_volume 1348.678676
_symmetry_space_group_name_H-M "P 2/M"
_symmetry_group_IT_number 10
_symmetry_cell_setting 'monoclinic'
loop_
_space_group_symop_operation_xyz
x,y,z
-x,y,-z
-x,-y,-z
x,-y,z
loop_
_atom_site_type_symbol
_atom_site_label
_atom_site_fract_x
_atom_site_fract_y
_atom_site_fract_z
Si Si1 0.933953 0.182900 0.418829
Si Si2 0.726541 0.822062 0.199797
Si Si3 0.392259 0.671632 0.551383
Si Si4 0.419946 0.678107 0.898851
Si Si5 0.742357 0.672099 0.599511
Si Si6 0.606825 0.820918 0.834701
Si Si7 0.060627 0.182835 0.857181
O O1 0.830906 0.256079 0.487094
O O2 0.971105 0.234571 0.265632
O O3 0.000000 0.238527 0.500000
O O4 0.923083 0.000000 0.427010
O O5 0.668252 0.798992 0.349837
O O6 0.677438 0.722869 0.119913
O O7 0.832664 0.759024 0.170571
O O8 0.727988 0.000000 0.160932
O O9 0.500000 0.730308 0.500000
O O10 0.386680 0.500000 0.614605
O O11 0.350756 0.662912 0.438219
O O12 0.443425 0.500000 0.867108
O O13 0.510658 0.777530 0.805031
O O14 0.400642 0.711787 0.046908
O O15 0.769258 0.500000 0.632195
O O16 0.707845 0.781981 0.724444
O O17 0.606100 0.000000 0.870201
O O18 0.053938 0.000000 0.864164
O O19 0.000000 0.251536 0.000000
#
# Coordination Sequence:
#
# PCOD8066054 Si02
#       7
#     4   4   4   4   4   4   4
#     4  10  21  39  63  89 118 161 215 270 324 381
#     4  11  21  35  59  87 117 154 203 255 306 364
#     4  10  21  36  56  83 118 160 200 242 303 374
#     4  11  22  38  58  84 124 164 202 247 307 370
#     4  11  22  37  59  87 123 161 199 250 317 377
#     4  11  22  38  60  87 120 159 209 253 298 364
#     4   9  19  37  60  87 120 157 204 264 325 378
#
# _framework density 20.761061000000002
#
# number of rings (size 3 to 8) (size 9 to 14) (size 15 to 20)
#    0.000    1.571    1.429    5.143    0.000    3.429 
#    0.000    2.857    0.000    3.857    0.000    0.000 
#    0.000    0.000    0.000    0.000    0.000    0.000 
#
# Total GULP energy -347000.814673 kJ/mol
# GULP energy per Si atom -12392.886238 kJ/mol
# Density = 2.071381 g / cm^3
# Si number density = 20.761061 Si / 1000 Ang^3
#
#
#
# Elastic Constant Matrix: (Units=GPa)
#
#
# Indices 1 2 3 4 5 6 
#
# 1 97.4605 17.0474 48.5204 0.0000 -2.4898 0.0000
# 2 17.0474 60.9415 18.2570 0.0000 -1.0275 0.0000
# 3 48.5204 18.2570 131.6790 0.0000 -12.4396 0.0000
# 4 0.0000 0.0000 0.0000 20.4690 0.0000 0.7826
# 5 -2.4898 -1.0275 -12.4396 0.0000 33.9569 0.0000
# 6 0.0000 0.0000 0.0000 0.7826 0.0000 23.2494
#
#
#
# Elastic Compliance Matrix: (Units=1/GPa)
#
#
# Indices 1 2 3 4 5 6 
#
# 1 0.012880 -0.002266 -0.004505 0.000000 -0.000774 0.000000
# 2 -0.002266 0.017523 -0.001616 0.000000 -0.000228 0.000000
# 3 -0.004505 -0.001616 0.009781 0.000000 0.003204 0.000000
# 4 0.000000 0.000000 0.000000 0.048917 0.000000 -0.001647
# 5 -0.000774 -0.000228 0.003204 0.000000 0.030559 0.000000
# 6 0.000000 0.000000 0.000000 -0.001647 0.000000 0.043067
#
#
# Mechanical properties :
#
#
# Convention : Reuss Voigt Hill
#
# Bulk Modulus (GPa) = 42.71737 50.85897 46.78817
# Shear Modulus (GPa) = 26.69431 29.28548 27.98990
#
# Velocity S-wave (km/s) = 3.58968 3.75987 3.67576
# Velocity P-wave (km/s) = 6.14829 6.58781 6.37184
#
# Compressibility (1/GPa) = 0.02340968
#
# Stress axis : x y z
#
# Youngs Moduli (GPa) = 77.64003 57.06640 102.24033
#
# Poissons Ratio (x) = 0.12934 0.46058
# Poissons Ratio (y) = 0.17597 0.16522
# Poissons Ratio (z) = 0.34976 0.09222
#
# Static dielectric constant tensor:
#      x y z
#    x 4.006480 0.000000 0.092890 
#    y 0.000000 3.559260 0.000000 
#    z 0.092890 0.000000 3.871830 
# 
# 
# High freq. dielectric constant tensor:
#      x y z
#    x 1.810850 0.000000 0.002720 
#    y 0.000000 1.797090 0.000000 
#    z 0.002720 0.000000 1.814650 
# 
# From -- ./inp_files/49573.got.cif
#   From: 2010.06.25/outbox.cif.g09.slc.cpg/sg10_25_cif.got.tgz:49573.got - 2010.06.27 22:07:45.
