data_PCOD8066866
_publ_section_title
;
Structure prediction by ZEFSAII (Michael W. Deem and Ramdas Pophale) SiO2 
 PCOD8066866
Probable space group: P 2/M
;
_chemical_formula_sum "Si O2"
_cell_formula_units_Z 18
_cell_length_a 11.395791
_cell_length_b 13.577499
_cell_length_c 7.143556
_cell_angle_alpha 90.000000
_cell_angle_beta 55.606425
_cell_angle_gamma 90.000000
_cell_volume 912.064900
_symmetry_space_group_name_H-M "P 2/M"
_symmetry_group_IT_number 10
_symmetry_cell_setting 'monoclinic'
loop_
_space_group_symop_operation_xyz
x,y,z
-x,y,-z
-x,-y,-z
x,-y,z
loop_
_atom_site_type_symbol
_atom_site_label
_atom_site_fract_x
_atom_site_fract_y
_atom_site_fract_z
Si Si1 0.405103 0.106243 0.904731
Si Si2 0.499895 0.312248 0.225344
Si Si3 0.000000 0.739420 0.000000
Si Si4 0.722039 0.612958 0.300765
Si Si5 0.922967 0.109889 0.764168
O O1 0.466060 0.199884 0.737031
O O2 0.411730 0.000000 0.788853
O O3 0.500000 0.094165 0.000000
O O4 0.244216 0.131019 0.109403
O O5 0.348164 0.342423 0.447279
O O6 0.618434 0.381361 0.213788
O O7 0.500000 0.323952 0.000000
O O8 0.863647 0.671191 0.129257
O O9 0.002526 0.809468 0.175940
O O10 0.760530 0.500000 0.303813
O O11 0.000000 0.120506 0.500000
O O12 0.946743 0.000000 0.825193
#
# Coordination Sequence:
#
# PCOD8066866 Si02
#       5
#     4   4   2   4   4
#     4   9  18  35  60  92 122 151 194 242 293 354
#     4  10  21  41  66  89 117 159 199 248 307 359
#     4  12  24  40  62  90 122 164 202 242 298 368
#     4  11  25  42  61  88 120 156 205 259 304 349
#     4  10  22  40  62  90 127 164 196 240 295 359
#
# _framework density 19.735437000000001
#
# number of rings (size 3 to 8) (size 9 to 14) (size 15 to 20)
#    0.000    1.778    2.222    2.000    6.222    1.778 
#    0.000    3.333    0.000    4.000    0.000    0.000 
#    0.000    0.000    0.000    0.000    0.000    0.000 
#
# Total GULP energy -223088.216682 kJ/mol
# GULP energy per Si atom -12393.789816 kJ/mol
# Density = 1.969052 g / cm^3
# Si number density = 19.735437 Si / 1000 Ang^3
#
#
#
# Elastic Constant Matrix: (Units=GPa)
#
#
# Indices 1 2 3 4 5 6 
#
# 1 53.0951 11.4231 28.8047 0.0000 1.3912 0.0000
# 2 11.4231 147.6615 49.8260 0.0000 0.5498 0.0000
# 3 28.8047 49.8260 93.2682 0.0000 4.8410 0.0000
# 4 0.0000 0.0000 0.0000 73.4528 0.0000 -5.5080
# 5 1.3912 0.5498 4.8410 0.0000 27.9353 0.0000
# 6 0.0000 0.0000 0.0000 -5.5080 0.0000 29.7637
#
#
#
# Elastic Compliance Matrix: (Units=1/GPa)
#
#
# Indices 1 2 3 4 5 6 
#
# 1 0.022692 0.000746 -0.007414 0.000000 0.000140 0.000000
# 2 0.000746 0.008296 -0.004694 0.000000 0.000613 0.000000
# 3 -0.007414 -0.004694 0.015636 0.000000 -0.002248 0.000000
# 4 0.000000 0.000000 0.000000 0.013806 0.000000 0.002555
# 5 0.000140 0.000613 -0.002248 0.000000 0.036168 0.000000
# 6 0.000000 0.000000 0.000000 0.002555 0.000000 0.034071
#
#
# Mechanical properties :
#
#
# Convention : Reuss Voigt Hill
#
# Bulk Modulus (GPa) = 41.84162 52.68137 47.26150
# Shear Modulus (GPa) = 30.98674 39.82843 35.40758
#
# Velocity S-wave (km/s) = 3.96676 4.49722 4.24029
# Velocity P-wave (km/s) = 6.49827 7.32928 6.92625
#
# Compressibility (1/GPa) = 0.02389965
#
# Stress axis : x y z
#
# Youngs Moduli (GPa) = 44.06817 120.53641 63.95563
#
# Poissons Ratio (x) = -0.08988 0.47415
# Poissons Ratio (y) = -0.03286 0.30022
# Poissons Ratio (z) = 0.32671 0.56582
#
# Static dielectric constant tensor:
#      x y z
#    x 3.618700 0.000000 -0.353500 
#    y 0.000000 4.211900 0.000000 
#    z -0.353500 0.000000 4.413750 
# 
# 
# High freq. dielectric constant tensor:
#      x y z
#    x 1.763850 0.000000 -0.014540 
#    y 0.000000 1.790800 0.000000 
#    z -0.014540 0.000000 1.758070 
# 
# From -- ./inp_files/24331.got.cif
#   From: 2010.06.25/outbox.cif.g09.slc.cpg/sg10_13_cif.got.tgz:24331.got - 2010.06.27 22:07:45.
