data_PCOD8066660
_publ_section_title
;
Structure prediction by ZEFSAII (Michael W. Deem and Ramdas Pophale) SiO2 
 PCOD8066660
Probable space group: P 2/M
;
_chemical_formula_sum "Si O2"
_cell_formula_units_Z 32
_cell_length_a 15.209003
_cell_length_b 8.935632
_cell_length_c 11.944443
_cell_angle_alpha 90.000000
_cell_angle_beta 90.330594
_cell_angle_gamma 90.000000
_cell_volume 1623.247315
_symmetry_space_group_name_H-M "P 2/M"
_symmetry_group_IT_number 10
_symmetry_cell_setting 'monoclinic'
loop_
_space_group_symop_operation_xyz
x,y,z
-x,y,-z
-x,-y,-z
x,-y,z
loop_
_atom_site_type_symbol
_atom_site_label
_atom_site_fract_x
_atom_site_fract_y
_atom_site_fract_z
Si Si1 0.257598 0.323790 0.396783
Si Si2 0.901663 0.822426 0.011511
Si Si3 0.250363 0.824588 0.156128
Si Si4 0.398170 0.827872 0.979843
Si Si5 0.833341 0.824214 0.249778
Si Si6 0.596577 0.168669 0.453226
Si Si7 0.653005 0.675857 0.245508
Si Si8 0.095557 0.329288 0.549363
O O1 0.271506 0.500000 0.392094
O O2 0.254118 0.263527 0.271062
O O3 0.339363 0.254421 0.462488
O O4 0.167056 0.279908 0.457568
O O5 0.835091 0.767359 0.914121
O O6 0.906099 0.000000 0.009502
O O7 0.865174 0.766604 0.129736
O O8 0.000000 0.754937 0.000000
O O9 0.242636 0.000000 0.181536
O O10 0.340099 0.790391 0.088452
O O11 0.365905 0.723586 0.880474
O O12 0.383362 0.000000 0.944436
O O13 0.500000 0.792620 0.000000
O O14 0.748171 0.731418 0.284802
O O15 0.904102 0.781341 0.344163
O O16 0.813678 0.000000 0.248222
O O17 0.500000 0.168130 0.500000
O O18 0.586749 0.248823 0.332831
O O19 0.632085 0.000000 0.437931
O O20 0.645719 0.500000 0.256336
O O21 0.112632 0.500000 0.587581
O O22 0.000000 0.308604 0.500000
#
# Coordination Sequence:
#
# PCOD8066660 Si02
#       8
#     4   4   4   4   4   4   4   4
#     4  11  24  41  61  89 127 165 201 250 307 365
#     4   9  19  36  59  89 121 153 196 253 304 348
#     4  10  21  39  61  86 121 161 202 249 299 355
#     4  10  22  41  64  89 119 160 207 251 297 355
#     4  11  21  38  65  91 118 158 209 257 303 361
#     4  11  25  44  67  92 120 160 207 253 304 365
#     4  12  24  40  64  92 125 160 199 254 313 364
#     4  10  23  42  61  86 125 167 204 251 311 367
#
# _framework density 19.713569
#
# number of rings (size 3 to 8) (size 9 to 14) (size 15 to 20)
#    0.000    1.500    2.500    2.250    3.500    2.500 
#    0.000    0.000    0.000    1.875    0.000    0.000 
#    0.000    0.000    0.000    0.000    0.000    0.000 
#
# Total GULP energy -396883.494530 kJ/mol
# GULP energy per Si atom -12402.609204 kJ/mol
# Density = 1.966870 g / cm^3
# Si number density = 19.713569 Si / 1000 Ang^3
#
#
#
# Elastic Constant Matrix: (Units=GPa)
#
#
# Indices 1 2 3 4 5 6 
#
# 1 107.3073 35.5437 37.0845 0.0000 3.1570 0.0000
# 2 35.5437 93.6833 61.2705 0.0000 0.0724 0.0000
# 3 37.0845 61.2705 133.6753 0.0000 2.5797 0.0000
# 4 0.0000 0.0000 0.0000 28.8556 0.0000 7.6369
# 5 3.1570 0.0724 2.5797 0.0000 24.8848 0.0000
# 6 0.0000 0.0000 0.0000 7.6369 0.0000 17.4761
#
#
#
# Elastic Compliance Matrix: (Units=1/GPa)
#
#
# Indices 1 2 3 4 5 6 
#
# 1 0.010933 -0.003111 -0.001583 0.000000 -0.001214 0.000000
# 2 -0.003111 0.016141 -0.006555 0.000000 0.001027 0.000000
# 3 -0.001583 -0.006555 0.010942 0.000000 -0.000914 0.000000
# 4 0.000000 0.000000 0.000000 0.039187 0.000000 -0.017125
# 5 -0.001214 0.001027 -0.000914 0.000000 0.040431 0.000000
# 6 0.000000 0.000000 0.000000 -0.017125 0.000000 0.064704
#
#
# Mechanical properties :
#
#
# Convention : Reuss Voigt Hill
#
# Bulk Modulus (GPa) = 64.44811 66.94036 65.69424
# Shear Modulus (GPa) = 23.80842 27.62778 25.71810
#
# Velocity S-wave (km/s) = 3.47899 3.74767 3.61583
# Velocity P-wave (km/s) = 6.99293 7.26340 7.12945
#
# Compressibility (1/GPa) = 0.01551636
#
# Stress axis : x y z
#
# Youngs Moduli (GPa) = 91.47017 61.95423 91.38917
#
# Poissons Ratio (x) = 0.19276 0.14471
# Poissons Ratio (y) = 0.28459 0.59905
# Poissons Ratio (z) = 0.14484 0.40611
#
# Static dielectric constant tensor:
#      x y z
#    x 3.854430 0.000000 -0.107010 
#    y 0.000000 3.519080 0.000000 
#    z -0.107010 0.000000 3.756710 
# 
# 
# High freq. dielectric constant tensor:
#      x y z
#    x 1.777870 0.000000 -0.001950 
#    y 0.000000 1.756580 0.000000 
#    z -0.001950 0.000000 1.781440 
# 
# From -- ./inp_files/49925.got.cif
#   From: 2010.06.25/outbox.cif.g09.slc.cpg/sg10_25_cif.got.tgz:49925.got - 2010.06.27 22:07:45.
