data_PCOD8066497
_publ_section_title
;
Structure prediction by ZEFSAII (Michael W. Deem and Ramdas Pophale) SiO2 
 PCOD8066497
Probable space group: P 2/M
;
_chemical_formula_sum "Si O2"
_cell_formula_units_Z 32
_cell_length_a 11.296531
_cell_length_b 14.213683
_cell_length_c 17.921206
_cell_angle_alpha 90.000000
_cell_angle_beta 145.297908
_cell_angle_gamma 90.000000
_cell_volume 1638.201874
_symmetry_space_group_name_H-M "P 2/M"
_symmetry_group_IT_number 10
_symmetry_cell_setting 'monoclinic'
loop_
_space_group_symop_operation_xyz
x,y,z
-x,y,-z
-x,-y,-z
x,-y,z
loop_
_atom_site_type_symbol
_atom_site_label
_atom_site_fract_x
_atom_site_fract_y
_atom_site_fract_z
Si Si1 0.089412 0.607595 0.891578
Si Si2 0.366794 0.746326 0.109562
Si Si3 0.038170 0.607728 0.342309
Si Si4 0.099626 0.891646 0.900342
Si Si5 0.614455 0.756708 0.482177
Si Si6 0.793550 0.751185 0.814091
Si Si7 0.157640 0.748292 0.650147
Si Si8 0.011444 0.108261 0.328351
O O1 0.086254 0.500000 0.916100
O O2 0.076703 0.617025 0.796099
O O3 0.894567 0.659295 0.829019
O O4 0.306237 0.655262 0.028791
O O5 0.205743 0.745810 0.095824
O O6 0.606735 0.741875 0.257370
O O7 0.314076 0.840683 0.035344
O O8 0.079030 0.500000 0.385394
O O9 0.259319 0.659373 0.453139
O O10 0.893579 0.654215 0.330274
O O11 0.904346 0.845158 0.841396
O O12 0.074467 0.878389 0.799159
O O13 0.110791 0.000000 0.929491
O O14 0.500000 0.770375 0.500000
O O15 0.449390 0.754869 0.330766
O O16 0.762573 0.845784 0.546222
O O17 0.000000 0.758377 0.500000
O O18 0.144101 0.839803 0.695683
O O19 0.027924 0.000000 0.359954
#
# Coordination Sequence:
#
# PCOD8066497 Si02
#       8
#     4   4   4   4   4   4   4   4
#     4  10  21  38  60  88 117 148 191 243 293 343
#     4  11  23  37  59  84 116 156 196 231 289 347
#     4  10  22  39  61  88 117 152 196 244 290 339
#     4  10  21  38  60  88 117 148 191 243 293 343
#     4  11  18  35  61  87 120 151 190 235 288 344
#     4  11  21  36  57  88 121 156 189 237 289 346
#     4  11  24  44  61  82 117 156 194 242 289 345
#     4  10  22  39  61  88 117 152 196 244 290 339
#
# _framework density 19.533614
#
# number of rings (size 3 to 8) (size 9 to 14) (size 15 to 20)
#    0.000    1.500    2.500    5.250    0.000    7.000 
#    0.000    5.000    0.000    0.000    0.000    0.000 
#    0.000    0.000    0.000    0.000    0.000    0.000 
#
# Total GULP energy -396867.624084 kJ/mol
# GULP energy per Si atom -12402.113253 kJ/mol
# Density = 1.948915 g / cm^3
# Si number density = 19.533614 Si / 1000 Ang^3
#
#
#
# Elastic Constant Matrix: (Units=GPa)
#
#
# Indices 1 2 3 4 5 6 
#
# 1 79.4390 17.9280 11.8983 0.0000 -0.6849 0.0000
# 2 17.9280 129.7282 23.6592 0.0000 -8.6846 0.0000
# 3 11.8983 23.6592 97.0982 0.0000 6.4124 0.0000
# 4 0.0000 0.0000 0.0000 13.3283 0.0000 1.5888
# 5 -0.6849 -8.6846 6.4124 0.0000 35.8597 0.0000
# 6 0.0000 0.0000 0.0000 1.5888 0.0000 8.8706
#
#
#
# Elastic Compliance Matrix: (Units=1/GPa)
#
#
# Indices 1 2 3 4 5 6 
#
# 1 0.013131 -0.001585 -0.001229 0.000000 0.000087 0.000000
# 2 -0.001585 0.008456 -0.002023 0.000000 0.002379 0.000000
# 3 -0.001229 -0.002023 0.011107 0.000000 -0.002500 0.000000
# 4 0.000000 0.000000 0.000000 0.076665 0.000000 -0.013732
# 5 0.000087 0.002379 -0.002500 0.000000 0.028911 0.000000
# 6 0.000000 0.000000 0.000000 -0.013732 0.000000 0.115191
#
#
# Mechanical properties :
#
#
# Convention : Reuss Voigt Hill
#
# Bulk Modulus (GPa) = 43.43932 45.91517 44.67724
# Shear Modulus (GPa) = 18.46325 28.46373 23.46349
#
# Velocity S-wave (km/s) = 3.07775 3.82143 3.46957
# Velocity P-wave (km/s) = 5.90903 6.55956 6.24277
#
# Compressibility (1/GPa) = 0.02302062
#
# Stress axis : x y z
#
# Youngs Moduli (GPa) = 76.15747 118.26318 90.02942
#
# Poissons Ratio (x) = 0.18742 0.11061
# Poissons Ratio (y) = 0.12069 0.18215
# Poissons Ratio (z) = 0.09357 0.23928
#
# Static dielectric constant tensor:
#      x y z
#    x 3.517440 0.000000 -0.093910 
#    y 0.000000 4.983350 0.000000 
#    z -0.093910 0.000000 3.758540 
# 
# 
# High freq. dielectric constant tensor:
#      x y z
#    x 1.762020 0.000000 -0.009520 
#    y 0.000000 1.760290 0.000000 
#    z -0.009520 0.000000 1.770280 
# 
# From -- ./inp_files/77041.got.cif
#   From: 2010.06.25/outbox.cif.g09.slc.cpg/sg10_39_cif.got.tgz:77041.got - 2010.06.27 22:07:45.
