data_PCOD8066587
_publ_section_title
;
Structure prediction by ZEFSAII (Michael W. Deem and Ramdas Pophale) SiO2 
 PCOD8066587
Probable space group: P 2/M
;
_chemical_formula_sum "Si O2"
_cell_formula_units_Z 28
_cell_length_a 9.313267
_cell_length_b 13.954819
_cell_length_c 21.638663
_cell_angle_alpha 90.000000
_cell_angle_beta 27.062993
_cell_angle_gamma 90.000000
_cell_volume 1279.497032
_symmetry_space_group_name_H-M "P 2/M"
_symmetry_group_IT_number 10
_symmetry_cell_setting 'monoclinic'
loop_
_space_group_symop_operation_xyz
x,y,z
-x,y,-z
-x,-y,-z
x,-y,z
loop_
_atom_site_type_symbol
_atom_site_label
_atom_site_fract_x
_atom_site_fract_y
_atom_site_fract_z
Si Si1 0.221087 0.894144 0.858098
Si Si2 0.646668 0.750219 0.766278
Si Si3 0.156225 0.780675 0.662563
Si Si4 0.824511 0.392425 0.001890
Si Si5 0.150796 0.887787 0.117635
Si Si6 0.197990 0.611344 0.732868
Si Si7 0.908822 0.602320 0.466332
O O1 0.491377 0.819609 0.774664
O O2 0.999038 0.849648 0.889290
O O3 0.361762 0.000000 0.785749
O O4 0.000000 0.910383 0.000000
O O5 0.899493 0.808918 0.709274
O O6 0.829664 0.670084 0.659773
O O7 0.419691 0.694852 0.901167
O O8 0.500000 0.780291 0.500000
O O9 0.058333 0.678403 0.731902
O O10 0.114660 0.862670 0.729768
O O11 0.678383 0.500000 0.049361
O O12 0.046825 0.369651 0.858005
O O13 0.000000 0.389477 0.000000
O O14 0.192140 0.000000 0.096298
O O15 0.500000 0.843463 0.000000
O O16 0.158801 0.500000 0.729272
O O17 0.559791 0.646214 0.596806
O O18 0.913739 0.500000 0.428563
O O19 0.000000 0.580017 0.500000
#
# Coordination Sequence:
#
# PCOD8066587 Si02
#       7
#     4   4   4   4   4   4   4
#     4  10  23  43  69 103 133 166 212 268 336 399
#     4  12  24  38  66  98 131 173 219 284 323 390
#     4  12  27  43  62  98 135 179 228 272 333 390
#     4  10  22  39  62  97 133 168 216 276 339 394
#     4  10  24  47  75 102 133 172 216 268 332 407
#     4  10  23  42  62  89 136 184 224 272 329 399
#     4  10  21  38  62  92 129 178 226 268 326 395
#
# _framework density 21.883599
#
# number of rings (size 3 to 8) (size 9 to 14) (size 15 to 20)
#    0.000    1.429    1.429    2.571    8.000    5.714 
#    0.000    1.429    0.000    2.143    0.000    0.000 
#    0.000    0.000    0.000    0.000    0.000    0.000 
#
# Total GULP energy -346931.134716 kJ/mol
# GULP energy per Si atom -12390.397668 kJ/mol
# Density = 2.183379 g / cm^3
# Si number density = 21.883599 Si / 1000 Ang^3
#
#
#
# Elastic Constant Matrix: (Units=GPa)
#
#
# Indices 1 2 3 4 5 6 
#
# 1 153.9683 41.2971 52.1572 0.0000 -11.9865 0.0000
# 2 41.2971 53.5215 46.0524 0.0000 -12.3051 0.0000
# 3 52.1572 46.0524 123.2937 0.0000 2.5533 0.0000
# 4 0.0000 0.0000 0.0000 -239.1145 0.0000 -15.1470
# 5 -11.9865 -12.3051 2.5533 0.0000 32.3584 0.0000
# 6 0.0000 0.0000 0.0000 -15.1470 0.0000 39.9570
#
#
#
# Elastic Compliance Matrix: (Units=1/GPa)
#
#
# Indices 1 2 3 4 5 6 
#
# 1 0.008485 -0.004521 -0.001933 0.000000 0.001576 0.000000
# 2 -0.004521 0.034794 -0.011341 0.000000 0.012451 0.000000
# 3 -0.001933 -0.011341 0.013291 0.000000 -0.006078 0.000000
# 4 0.000000 0.000000 0.000000 -0.004084 0.000000 -0.001548
# 5 0.001576 0.012451 -0.006078 0.000000 0.036702 0.000000
# 6 0.000000 0.000000 0.000000 -0.001548 0.000000 0.024440
#
#
# Mechanical properties :
#
#
# Convention : Reuss Voigt Hill
#
# Bulk Modulus (GPa) = 47.66924 67.75521 57.71223
# Shear Modulus (GPa) = 32.00762 -20.60802 5.69980
#
# Velocity S-wave (km/s) = 3.82858 -3.07206 1.61563
# Velocity P-wave (km/s) = 6.43230 4.29482 5.46900
#
# Compressibility (1/GPa) = 0.02097789
#
# Stress axis : x y z
#
# Youngs Moduli (GPa) = 117.85281 28.74063 75.24046
#
# Poissons Ratio (x) = 0.12994 0.14547
# Poissons Ratio (y) = 0.53282 0.85334
# Poissons Ratio (z) = 0.22786 0.32596
#
# Static dielectric constant tensor:
#      x y z
#    x 4.218580 0.000000 -0.073360 
#    y 0.000000 4.284300 0.000000 
#    z -0.073360 0.000000 3.882320 
# 
# 
# High freq. dielectric constant tensor:
#      x y z
#    x 1.867850 0.000000 0.004210 
#    y 0.000000 1.862310 0.000000 
#    z 0.004210 0.000000 1.851640 
# 
# From -- ./inp_files/82896.got.cif
#   From: 2010.06.25/outbox.cif.g09.slc.cpg/sg10_42_cif.got.tgz:82896.got - 2010.06.27 22:07:45.
