data_PCOD8066264
_publ_section_title
;
Structure prediction by ZEFSAII (Michael W. Deem and Ramdas Pophale) SiO2 
 PCOD8066264
Probable space group: P 2/M
;
_chemical_formula_sum "Si O2"
_cell_formula_units_Z 32
_cell_length_a 21.061701
_cell_length_b 9.278188
_cell_length_c 26.969999
_cell_angle_alpha 90.000000
_cell_angle_beta 161.393056
_cell_angle_gamma 90.000000
_cell_volume 1681.625146
_symmetry_space_group_name_H-M "P 2/M"
_symmetry_group_IT_number 10
_symmetry_cell_setting 'monoclinic'
loop_
_space_group_symop_operation_xyz
x,y,z
-x,y,-z
-x,-y,-z
x,-y,z
loop_
_atom_site_type_symbol
_atom_site_label
_atom_site_fract_x
_atom_site_fract_y
_atom_site_fract_z
Si Si1 0.385257 0.834295 0.549263
Si Si2 0.114831 0.664676 0.956939
Si Si3 0.516518 0.666224 0.831940
Si Si4 0.770441 0.671472 0.469893
Si Si5 0.824666 0.832825 0.237673
Si Si6 0.497468 0.834547 0.917786
Si Si7 0.175616 0.163505 0.097415
Si Si8 0.682111 0.331857 0.599506
O O1 0.301486 0.746737 0.533370
O O2 0.622887 0.825479 0.722503
O O3 0.307410 0.763375 0.441596
O O4 0.312475 0.000000 0.498746
O O5 0.139056 0.500000 0.990893
O O6 0.886220 0.703562 0.778714
O O7 0.252560 0.696392 0.011063
O O8 0.204267 0.755473 0.067538
O O9 0.477537 0.500000 0.813795
O O10 0.374188 0.718322 0.681934
O O11 0.464729 0.747272 0.843664
O O12 0.771605 0.500000 0.478573
O O13 0.989881 0.727129 0.619926
O O14 0.691211 0.806551 0.187125
O O15 0.891578 0.000000 0.284154
O O16 0.699159 0.789785 0.095789
O O17 0.511509 0.000000 0.913013
O O18 0.118348 0.000000 0.042178
O O19 0.000000 0.235150 0.000000
O O20 0.500000 0.285373 0.500000
O O21 0.666137 0.500000 0.573215
#
# Coordination Sequence:
#
# PCOD8066264 Si02
#       8
#     4   4   4   4   4   4   4   4
#     4  11  23  38  58  85 116 151 192 240 290 343
#     4  10  21  38  57  81 114 152 192 236 284 337
#     4  10  22  38  56  83 118 153 195 239 281 337
#     4  11  23  39  59  84 117 155 193 237 285 338
#     4   9  20  40  62  89 120 150 190 234 280 338
#     4   9  20  39  63  88 118 153 189 232 281 338
#     4  10  21  37  58  84 113 147 190 238 286 339
#     4  10  22  39  59  85 116 151 194 241 290 346
#
# _framework density 19.029209999999999
#
# number of rings (size 3 to 8) (size 9 to 14) (size 15 to 20)
#    0.000    2.000    1.250    2.250    1.750    4.500 
#    0.000    3.750    0.000    0.000    0.000    0.000 
#    0.000    0.000    0.000    0.000    0.000    0.000 
#
# Total GULP energy -396868.233646 kJ/mol
# GULP energy per Si atom -12402.132301 kJ/mol
# Density = 1.898590 g / cm^3
# Si number density = 19.029210 Si / 1000 Ang^3
#
#
#
# Elastic Constant Matrix: (Units=GPa)
#
#
# Indices 1 2 3 4 5 6 
#
# 1 103.9392 49.4197 32.9400 0.0000 -10.8965 0.0000
# 2 49.4197 73.7108 38.4417 0.0000 -7.9055 0.0000
# 3 32.9400 38.4417 89.0487 0.0000 8.7595 0.0000
# 4 0.0000 0.0000 0.0000 31.0832 0.0000 -1.4543
# 5 -10.8965 -7.9055 8.7595 0.0000 28.8370 0.0000
# 6 0.0000 0.0000 0.0000 -1.4543 0.0000 38.4409
#
#
#
# Elastic Compliance Matrix: (Units=1/GPa)
#
#
# Indices 1 2 3 4 5 6 
#
# 1 0.014667 -0.008225 -0.002266 0.000000 0.003975 0.000000
# 2 -0.008225 0.023758 -0.007781 0.000000 0.005768 0.000000
# 3 -0.002266 -0.007781 0.016205 0.000000 -0.007912 0.000000
# 4 0.000000 0.000000 0.000000 0.032229 0.000000 0.001219
# 5 0.003975 0.005768 -0.007912 0.000000 0.040164 0.000000
# 6 0.000000 0.000000 0.000000 0.001219 0.000000 0.026060
#
#
# Mechanical properties :
#
#
# Convention : Reuss Voigt Hill
#
# Bulk Modulus (GPa) = 55.29164 56.47793 55.88478
# Shear Modulus (GPa) = 25.55518 29.39871 27.47695
#
# Velocity S-wave (km/s) = 3.66860 3.93482 3.80404
# Velocity P-wave (km/s) = 6.86033 7.09843 6.98039
#
# Compressibility (1/GPa) = 0.01808592
#
# Stress axis : x y z
#
# Youngs Moduli (GPa) = 68.18181 42.09135 61.70928
#
# Poissons Ratio (x) = 0.34622 0.13980
# Poissons Ratio (y) = 0.56083 0.48015
# Poissons Ratio (z) = 0.15447 0.32751
#
# Static dielectric constant tensor:
#      x y z
#    x 3.400450 0.000000 0.103530 
#    y 0.000000 3.470030 0.000000 
#    z 0.103530 0.000000 3.587980 
# 
# 
# High freq. dielectric constant tensor:
#      x y z
#    x 1.744360 0.000000 0.005810 
#    y 0.000000 1.737500 0.000000 
#    z 0.005810 0.000000 1.748150 
# 
# From -- ./inp_files/93798.got.cif
#   From: 2010.06.25/outbox.cif.g09.slc.cpg/sg10_47_cif.got.tgz:93798.got - 2010.06.27 22:07:45.
