data_PCOD8066041
_publ_section_title
;
Structure prediction by ZEFSAII (Michael W. Deem and Ramdas Pophale) SiO2 
 PCOD8066041
Probable space group: P 2/M
;
_chemical_formula_sum "Si O2"
_cell_formula_units_Z 26
_cell_length_a 5.426079
_cell_length_b 9.968046
_cell_length_c 28.931163
_cell_angle_alpha 90.000000
_cell_angle_beta 57.605061
_cell_angle_gamma 90.000000
_cell_volume 1321.288133
_symmetry_space_group_name_H-M "P 2/M"
_symmetry_group_IT_number 10
_symmetry_cell_setting 'monoclinic'
loop_
_space_group_symop_operation_xyz
x,y,z
-x,y,-z
-x,-y,-z
x,-y,z
loop_
_atom_site_type_symbol
_atom_site_label
_atom_site_fract_x
_atom_site_fract_y
_atom_site_fract_z
Si Si1 0.500000 0.758460 0.500000
Si Si2 0.192865 0.659803 0.846707
Si Si3 0.168767 0.659524 0.028437
Si Si4 0.025271 0.848501 0.396136
Si Si5 0.149445 0.657189 0.208095
Si Si6 0.956851 0.647685 0.327267
Si Si7 0.312495 0.644520 0.430479
O O1 0.301670 0.662100 0.487450
O O2 0.683398 0.848586 0.445067
O O3 0.204359 0.500000 0.842505
O O4 0.522724 0.717208 0.819129
O O5 0.009041 0.709020 0.909144
O O6 0.031749 0.718650 0.816974
O O7 0.179197 0.500000 0.024735
O O8 0.500000 0.715465 0.000000
O O9 0.000000 0.715486 0.000000
O O10 0.173756 0.777755 0.424228
O O11 0.111963 0.763179 0.341940
O O12 0.136399 0.000000 0.377834
O O13 0.179335 0.500000 0.196254
O O14 0.967601 0.690580 0.272668
O O15 0.111018 0.500000 0.317706
O O16 0.634140 0.636129 0.377965
O O17 0.162004 0.500000 0.433824
#
# Coordination Sequence:
#
# PCOD8066041 Si02
#       7
#     2   4   4   4   4   4   4
#     4  10  22  38  56  76 102 132 168 208 254 314
#     4   9  16  25  39  62  89 124 171 220 263 306
#     4   9  15  22  33  51  83 125 168 211 254 303
#     4  11  23  37  55  77 103 134 168 208 260 321
#     4   9  17  28  45  66  92 123 168 223 268 306
#     4   9  20  36  54  74  98 132 171 219 266 313
#     4  10  21  36  56  79 103 130 168 212 262 315
#
# _framework density 19.677765999999998
#
# number of rings (size 3 to 8) (size 9 to 14) (size 15 to 20)
#    0.000    2.462    0.000    2.308    2.154    9.846 
#    0.000    0.000    0.000    0.000    0.000    0.000 
#    0.000    0.000    0.000    0.000    0.000   15.385 
#
# Total GULP energy -322137.531439 kJ/mol
# GULP energy per Si atom -12389.905055 kJ/mol
# Density = 1.963298 g / cm^3
# Si number density = 19.677766 Si / 1000 Ang^3
#
#
#
# Elastic Constant Matrix: (Units=GPa)
#
#
# Indices 1 2 3 4 5 6 
#
# 1 113.3814 26.7565 37.7658 0.0000 32.9970 0.0000
# 2 26.7565 93.4449 22.4758 0.0000 15.0509 0.0000
# 3 37.7658 22.4758 121.2866 0.0000 36.0240 0.0000
# 4 0.0000 0.0000 0.0000 -11.1302 0.0000 -5.9476
# 5 32.9970 15.0509 36.0240 0.0000 31.7250 0.0000
# 6 0.0000 0.0000 0.0000 -5.9476 0.0000 8.1898
#
#
#
# Elastic Compliance Matrix: (Units=1/GPa)
#
#
# Indices 1 2 3 4 5 6 
#
# 1 0.012881 -0.001661 0.000064 0.000000 -0.012682 0.000000
# 2 -0.001661 0.011850 -0.000788 0.000000 -0.003000 0.000000
# 3 0.000064 -0.000788 0.012493 0.000000 -0.013879 0.000000
# 4 0.000000 0.000000 0.000000 -0.064727 0.000000 -0.047006
# 5 -0.012682 -0.003000 -0.013879 0.000000 0.061894 0.000000
# 6 0.000000 0.000000 0.000000 -0.047006 0.000000 0.087966
#
#
# Mechanical properties :
#
#
# Convention : Reuss Voigt Hill
#
# Bulk Modulus (GPa) = 30.81279 55.78991 43.30135
# Shear Modulus (GPa) = 36.24601 21.83121 29.03861
#
# Velocity S-wave (km/s) = 4.29648 3.33443 3.84566
# Velocity P-wave (km/s) = 6.34868 6.57555 6.46311
#
# Compressibility (1/GPa) = 0.03245405
#
# Stress axis : x y z
#
# Youngs Moduli (GPa) = 77.63127 84.39024 80.04298
#
# Poissons Ratio (x) = 0.14017 -0.00509
# Poissons Ratio (y) = 0.12895 0.06305
# Poissons Ratio (z) = -0.00494 0.06648
#
# Static dielectric constant tensor:
#      x y z
#    x 3.809750 0.000000 0.053350 
#    y 0.000000 3.036840 0.000000 
#    z 0.053350 0.000000 3.719090 
# 
# 
# High freq. dielectric constant tensor:
#      x y z
#    x 1.772790 0.000000 0.004190 
#    y 0.000000 1.689000 0.000000 
#    z 0.004190 0.000000 1.775670 
# 
# From -- ./inp_files/94270.got.cif
#   From: 2010.06.25/outbox.cif.g09.slc.cpg/sg10_48_cif.got.tgz:94270.got - 2010.06.27 22:07:45.
