data_PCOD8066635
_publ_section_title
;
Structure prediction by ZEFSAII (Michael W. Deem and Ramdas Pophale) SiO2 
 PCOD8066635
Probable space group: P 2/M
;
_chemical_formula_sum "Si O2"
_cell_formula_units_Z 32
_cell_length_a 13.790863
_cell_length_b 9.039224
_cell_length_c 22.104110
_cell_angle_alpha 90.000000
_cell_angle_beta 36.808303
_cell_angle_gamma 90.000000
_cell_volume 1650.911044
_symmetry_space_group_name_H-M "P 2/M"
_symmetry_group_IT_number 10
_symmetry_cell_setting 'monoclinic'
loop_
_space_group_symop_operation_xyz
x,y,z
-x,y,-z
-x,-y,-z
x,-y,z
loop_
_atom_site_type_symbol
_atom_site_label
_atom_site_fract_x
_atom_site_fract_y
_atom_site_fract_z
Si Si1 0.803254 0.829075 0.487665
Si Si2 0.482515 0.172164 0.579061
Si Si3 0.318383 0.675564 0.091611
Si Si4 0.156022 0.670795 0.049264
Si Si5 0.215316 0.329319 0.787838
Si Si6 0.318166 0.825731 0.856625
Si Si7 0.132544 0.324722 0.301971
Si Si8 0.690959 0.170438 0.677550
O O1 0.643381 0.774574 0.532948
O O2 0.783434 0.803067 0.568773
O O3 0.950682 0.733600 0.389487
O O4 0.837947 0.000000 0.455908
O O5 0.500000 0.206667 0.500000
O O6 0.331773 0.263045 0.679048
O O7 0.450433 0.000000 0.608217
O O8 0.323356 0.500000 0.092043
O O9 0.224902 0.728422 0.078563
O O10 0.226665 0.737330 0.196371
O O11 0.500000 0.740791 0.000000
O O12 0.202806 0.500000 0.013751
O O13 0.964695 0.692578 0.146880
O O14 0.234845 0.771130 0.958906
O O15 0.258049 0.500000 0.776605
O O16 0.229926 0.247908 0.844232
O O17 0.505754 0.779890 0.762834
O O18 0.297065 0.000000 0.861065
O O19 0.127924 0.500000 0.305101
O O20 0.223979 0.271031 0.315701
O O21 0.703201 0.000000 0.691639
#
# Coordination Sequence:
#
# PCOD8066635 Si02
#       8
#     4   4   4   4   4   4   4   4
#     4  10  21  40  60  83 118 159 193 238 300 351
#     4  10  22  41  64  88 119 161 204 243 291 353
#     4   9  19  38  60  82 115 156 191 233 290 348
#     4  10  22  39  59  86 120 156 196 241 300 358
#     4  11  23  38  60  89 122 158 195 244 300 355
#     4  11  22  39  62  88 118 155 201 248 293 349
#     4  11  23  36  59  91 117 149 199 248 290 350
#     4  10  21  39  60  82 116 157 194 238 298 354
#
# _framework density 19.383237000000001
#
# number of rings (size 3 to 8) (size 9 to 14) (size 15 to 20)
#    0.000    1.750    1.250    2.625    1.750    7.250 
#    0.000    1.250    0.000    3.375    0.000    0.000 
#    0.000    0.000    0.000    0.000    0.000    0.000 
#
# Total GULP energy -396973.369198 kJ/mol
# GULP energy per Si atom -12405.417787 kJ/mol
# Density = 1.933912 g / cm^3
# Si number density = 19.383237 Si / 1000 Ang^3
#
#
#
# Elastic Constant Matrix: (Units=GPa)
#
#
# Indices 1 2 3 4 5 6 
#
# 1 115.8614 36.9399 59.7517 0.0000 0.3053 0.0000
# 2 36.9399 64.3720 51.9840 0.0000 -3.1983 0.0000
# 3 59.7517 51.9840 142.5328 0.0000 -1.8950 0.0000
# 4 0.0000 0.0000 0.0000 35.9386 0.0000 -1.5892
# 5 0.3053 -3.1983 -1.8950 0.0000 31.9713 0.0000
# 6 0.0000 0.0000 0.0000 -1.5892 0.0000 26.6571
#
#
#
# Elastic Compliance Matrix: (Units=1/GPa)
#
#
# Indices 1 2 3 4 5 6 
#
# 1 0.011676 -0.003934 -0.003470 0.000000 -0.000711 0.000000
# 2 -0.003934 0.023442 -0.006874 0.000000 0.001975 0.000000
# 3 -0.003470 -0.006874 0.010977 0.000000 -0.000004 0.000000
# 4 0.000000 0.000000 0.000000 0.027899 0.000000 0.001663
# 5 -0.000711 0.001975 -0.000004 0.000000 0.031482 0.000000
# 6 0.000000 0.000000 0.000000 0.001663 0.000000 0.037613
#
#
# Mechanical properties :
#
#
# Convention : Reuss Voigt Hill
#
# Bulk Modulus (GPa) = 57.01189 68.90193 62.95691
# Shear Modulus (GPa) = 28.17042 30.51944 29.34493
#
# Velocity S-wave (km/s) = 3.81640 3.97234 3.89515
# Velocity P-wave (km/s) = 6.99262 7.52752 7.26500
#
# Compressibility (1/GPa) = 0.01754020
#
# Stress axis : x y z
#
# Youngs Moduli (GPa) = 85.64229 42.65925 91.09562
#
# Poissons Ratio (x) = 0.16782 0.31607
# Poissons Ratio (y) = 0.33691 0.62620
# Poissons Ratio (z) = 0.29714 0.29324
#
# Static dielectric constant tensor:
#      x y z
#    x 3.679000 0.000000 -0.028490 
#    y 0.000000 3.425630 0.000000 
#    z -0.028490 0.000000 3.686420 
# 
# 
# High freq. dielectric constant tensor:
#      x y z
#    x 1.769540 0.000000 -0.001890 
#    y 0.000000 1.740940 0.000000 
#    z -0.001890 0.000000 1.769400 
# 
# From -- ./inp_files/89546.got.cif
#   From: 2010.06.25/outbox.cif.g09.slc.cpg/sg10_45_cif.got.tgz:89546.got - 2010.06.27 22:07:45.
