data_PCOD8066789
_publ_section_title
;
Structure prediction by ZEFSAII (Michael W. Deem and Ramdas Pophale) SiO2 
 PCOD8066789
Probable space group: P 2/M
;
_chemical_formula_sum "Si O2"
_cell_formula_units_Z 28
_cell_length_a 21.232018
_cell_length_b 14.539136
_cell_length_c 9.114850
_cell_angle_alpha 90.000000
_cell_angle_beta 31.739356
_cell_angle_gamma 90.000000
_cell_volume 1480.169085
_symmetry_space_group_name_H-M "P 2/M"
_symmetry_group_IT_number 10
_symmetry_cell_setting 'monoclinic'
loop_
_space_group_symop_operation_xyz
x,y,z
-x,y,-z
-x,-y,-z
x,-y,z
loop_
_atom_site_type_symbol
_atom_site_label
_atom_site_fract_x
_atom_site_fract_y
_atom_site_fract_z
Si Si1 0.373946 0.605161 0.687017
Si Si2 0.410182 0.895289 0.888811
Si Si3 0.243180 0.604864 0.240005
Si Si4 0.985989 0.394252 0.855009
Si Si5 0.237565 0.270582 0.749794
Si Si6 0.630142 0.741714 0.806201
Si Si7 0.676831 0.105208 0.256872
O O1 0.500000 0.640482 0.500000
O O2 0.385198 0.500000 0.611547
O O3 0.343427 0.667934 0.608980
O O4 0.271502 0.616911 0.012528
O O5 0.340574 0.866927 0.878389
O O6 0.551792 0.882183 0.589054
O O7 0.380539 0.000000 0.986251
O O8 0.363978 0.836430 0.116074
O O9 0.256531 0.500000 0.264803
O O10 0.338771 0.658891 0.147355
O O11 0.107721 0.637837 0.535023
O O12 0.952541 0.500000 0.881135
O O13 0.885572 0.326001 0.993019
O O14 0.000000 0.383263 0.000000
O O15 0.270068 0.250903 0.517406
O O16 0.227429 0.174027 0.858357
O O17 0.500000 0.722354 0.000000
O O18 0.722141 0.000000 0.180988
#
# Coordination Sequence:
#
# PCOD8066789 Si02
#       7
#     4   4   4   4   4   4   4
#     4  10  22  38  56  84 121 153 187 238 296 349
#     4   9  19  36  56  80 115 153 187 229 292 358
#     4  10  22  40  59  79 114 160 199 237 283 339
#     4  10  21  40  60  80 114 157 204 245 278 329
#     4  12  22  33  59  85 115 150 194 242 289 338
#     4  12  22  32  53  87 118 148 189 236 295 351
#     4   9  19  36  58  82 112 151 190 238 293 351
#
# _framework density 18.916758000000002
#
# number of rings (size 3 to 8) (size 9 to 14) (size 15 to 20)
#    0.000    1.714    2.857    3.000    2.000    2.286 
#    0.000    2.143    0.000    1.286    0.000    3.000 
#    0.000    0.000    0.000    0.000    0.000    0.000 
#
# Total GULP energy -347298.433148 kJ/mol
# GULP energy per Si atom -12403.515470 kJ/mol
# Density = 1.887370 g / cm^3
# Si number density = 18.916758 Si / 1000 Ang^3
#
#
#
# Elastic Constant Matrix: (Units=GPa)
#
#
# Indices 1 2 3 4 5 6 
#
# 1 75.5761 55.5926 22.8191 0.0000 1.8980 0.0000
# 2 55.5926 102.4782 30.2417 0.0000 -5.9992 0.0000
# 3 22.8191 30.2417 85.5860 0.0000 3.1062 0.0000
# 4 0.0000 0.0000 0.0000 20.7030 0.0000 -3.2781
# 5 1.8980 -5.9992 3.1062 0.0000 26.1283 0.0000
# 6 0.0000 0.0000 0.0000 -3.2781 0.0000 36.0519
#
#
#
# Elastic Compliance Matrix: (Units=1/GPa)
#
#
# Indices 1 2 3 4 5 6 
#
# 1 0.022728 -0.012096 -0.001632 0.000000 -0.004234 0.000000
# 2 -0.012096 0.017566 -0.003174 0.000000 0.005289 0.000000
# 3 -0.001632 -0.003174 0.013320 0.000000 -0.002194 0.000000
# 4 0.000000 0.000000 0.000000 0.049008 0.000000 0.004456
# 5 -0.004234 0.005289 -0.002194 0.000000 0.040056 0.000000
# 6 0.000000 0.000000 0.000000 0.004456 0.000000 0.028143
#
#
# Mechanical properties :
#
#
# Convention : Reuss Voigt Hill
#
# Bulk Modulus (GPa) = 50.47679 53.43854 51.95767
# Shear Modulus (GPa) = 23.67093 26.90909 25.29001
#
# Velocity S-wave (km/s) = 3.54124 3.77570 3.66035
# Velocity P-wave (km/s) = 6.59258 6.87884 6.73723
#
# Compressibility (1/GPa) = 0.01981108
#
# Stress axis : x y z
#
# Youngs Moduli (GPa) = 43.99763 56.92702 75.07267
#
# Poissons Ratio (x) = 0.68859 0.12253
# Poissons Ratio (y) = 0.53220 0.23828
# Poissons Ratio (z) = 0.07181 0.18068
#
# Static dielectric constant tensor:
#      x y z
#    x 3.408230 0.000000 0.125080 
#    y 0.000000 3.553320 0.000000 
#    z 0.125080 0.000000 3.396360 
# 
# 
# High freq. dielectric constant tensor:
#      x y z
#    x 1.731800 0.000000 0.015600 
#    y 0.000000 1.739350 0.000000 
#    z 0.015600 0.000000 1.717800 
# 
# From -- ./inp_files/25436.got.cif
#   From: 2010.06.25/outbox.cif.g09.slc.cpg/sg10_13_cif.got.tgz:25436.got - 2010.06.27 22:07:45.
