data_PCOD8066744
_publ_section_title
;
Structure prediction by ZEFSAII (Michael W. Deem and Ramdas Pophale) SiO2 
 PCOD8066744
Probable space group: P 2/M
;
_chemical_formula_sum "Si O2"
_cell_formula_units_Z 28
_cell_length_a 20.363973
_cell_length_b 8.912064
_cell_length_c 14.478194
_cell_angle_alpha 90.000000
_cell_angle_beta 147.834656
_cell_angle_gamma 90.000000
_cell_volume 1398.827511
_symmetry_space_group_name_H-M "P 2/M"
_symmetry_group_IT_number 10
_symmetry_cell_setting 'monoclinic'
loop_
_space_group_symop_operation_xyz
x,y,z
-x,y,-z
-x,-y,-z
x,-y,z
loop_
_atom_site_type_symbol
_atom_site_label
_atom_site_fract_x
_atom_site_fract_y
_atom_site_fract_z
Si Si1 0.443419 0.676426 0.760893
Si Si2 0.359360 0.173816 0.316234
Si Si3 0.054320 0.171698 0.280592
Si Si4 0.257437 0.173274 0.668271
Si Si5 0.707897 0.824688 0.082070
Si Si6 0.724775 0.172026 0.583851
Si Si7 0.808360 0.676105 0.028441
O O1 0.462091 0.500000 0.786596
O O2 0.371038 0.728814 0.766142
O O3 0.574715 0.753492 0.913338
O O4 0.369769 0.720480 0.581174
O O5 0.500000 0.222621 0.500000
O O6 0.279387 0.206694 0.312614
O O7 0.306412 0.272045 0.170284
O O8 0.351701 0.000000 0.278361
O O9 0.132762 0.213742 0.465183
O O10 0.136710 0.200383 0.287505
O O11 0.008907 0.000000 0.230784
O O12 0.936350 0.277917 0.132881
O O13 0.292541 0.000000 0.692704
O O14 0.236230 0.208241 0.750316
O O15 0.801604 0.752278 0.120748
O O16 0.697363 0.000000 0.049756
O O17 0.685439 0.000000 0.516746
O O18 0.801898 0.500000 0.033052
#
# Coordination Sequence:
#
# PCOD8066744 Si02
#       7
#     4   4   4   4   4   4   4
#     4  11  21  33  55  89 125 153 182 230 291 346
#     4  10  21  39  64  90 114 146 188 233 282 336
#     4   9  19  39  61  82 111 148 195 240 279 331
#     4   9  20  38  61  85 110 150 199 240 278 330
#     4  11  22  38  59  81 111 153 199 241 282 334
#     4   9  19  37  62  87 113 152 198 238 277 330
#     4  12  26  40  56  83 118 151 186 234 293 349
#
# _framework density 20.016763999999998
#
# number of rings (size 3 to 8) (size 9 to 14) (size 15 to 20)
#    0.000    1.857    0.000    5.143    0.000    8.286 
#    0.000    5.714    0.000    0.000    0.000    0.000 
#    0.000    0.000    0.000    0.000    0.000    0.000 
#
# Total GULP energy -347337.108868 kJ/mol
# GULP energy per Si atom -12404.896745 kJ/mol
# Density = 1.997121 g / cm^3
# Si number density = 20.016764 Si / 1000 Ang^3
#
#
#
# Elastic Constant Matrix: (Units=GPa)
#
#
# Indices 1 2 3 4 5 6 
#
# 1 112.1148 42.8389 34.1323 0.0000 -4.2882 0.0000
# 2 42.8389 104.5669 27.2798 0.0000 4.8552 0.0000
# 3 34.1323 27.2798 56.2549 0.0000 12.6558 0.0000
# 4 0.0000 0.0000 0.0000 8.4352 0.0000 -7.1493
# 5 -4.2882 4.8552 12.6558 0.0000 29.3877 0.0000
# 6 0.0000 0.0000 0.0000 -7.1493 0.0000 7.0975
#
#
#
# Elastic Compliance Matrix: (Units=1/GPa)
#
#
# Indices 1 2 3 4 5 6 
#
# 1 0.012696 -0.003576 -0.007218 0.000000 0.005552 0.000000
# 2 -0.003576 0.011963 -0.003399 0.000000 -0.001035 0.000000
# 3 -0.007218 -0.003399 0.026480 0.000000 -0.011895 0.000000
# 4 0.000000 0.000000 0.000000 0.810537 0.000000 0.816449
# 5 0.005552 -0.001035 -0.011895 0.000000 0.040132 0.000000
# 6 0.000000 0.000000 0.000000 0.816449 0.000000 0.963299
#
#
# Mechanical properties :
#
#
# Convention : Reuss Voigt Hill
#
# Bulk Modulus (GPa) = 43.94971 53.49318 48.72144
# Shear Modulus (GPa) = 2.63009 20.22979 11.42994
#
# Velocity S-wave (km/s) = 1.14752 3.18251 2.39219
# Velocity P-wave (km/s) = 4.87441 6.34718 5.65891
#
# Compressibility (1/GPa) = 0.02275328
#
# Stress axis : x y z
#
# Youngs Moduli (GPa) = 78.76800 83.59145 37.76445
#
# Poissons Ratio (x) = 0.29891 0.27258
# Poissons Ratio (y) = 0.28166 0.12836
# Poissons Ratio (z) = 0.56854 0.28412
#
# Static dielectric constant tensor:
#      x y z
#    x 3.920800 0.000000 -0.062700 
#    y 0.000000 3.525180 0.000000 
#    z -0.062700 0.000000 3.532790 
# 
# 
# High freq. dielectric constant tensor:
#      x y z
#    x 1.792720 0.000000 -0.001870 
#    y 0.000000 1.771040 0.000000 
#    z -0.001870 0.000000 1.774930 
# 
# From -- ./inp_files/49624.got.cif
#   From: 2010.06.25/outbox.cif.g09.slc.cpg/sg10_25_cif.got.tgz:49624.got - 2010.06.27 22:07:45.
