data_PCOD8066060
_publ_section_title
;
Structure prediction by ZEFSAII (Michael W. Deem and Ramdas Pophale) SiO2 
 PCOD8066060
Probable space group: P 2/M
;
_chemical_formula_sum "Si O2"
_cell_formula_units_Z 28
_cell_length_a 10.234920
_cell_length_b 8.465898
_cell_length_c 30.019065
_cell_angle_alpha 90.000000
_cell_angle_beta 146.368682
_cell_angle_gamma 90.000000
_cell_volume 1440.602790
_symmetry_space_group_name_H-M "P 2/M"
_symmetry_group_IT_number 10
_symmetry_cell_setting 'monoclinic'
loop_
_space_group_symop_operation_xyz
x,y,z
-x,y,-z
-x,-y,-z
x,-y,z
loop_
_atom_site_type_symbol
_atom_site_label
_atom_site_fract_x
_atom_site_fract_y
_atom_site_fract_z
Si Si1 0.642690 0.313311 0.420028
Si Si2 0.843102 0.184631 0.836722
Si Si3 0.666384 0.184631 0.161920
Si Si4 0.103901 0.686962 0.595919
Si Si5 0.840005 0.185778 0.734823
Si Si6 0.339918 0.683804 0.996043
Si Si7 0.407977 0.315176 0.763538
O O1 0.618706 0.500000 0.412379
O O2 0.735311 0.246931 0.398803
O O3 0.386822 0.241446 0.357779
O O4 0.831122 0.259802 0.511551
O O5 0.827095 0.249881 0.781667
O O6 0.664159 0.284875 0.815683
O O7 0.781035 0.000000 0.822243
O O8 0.104208 0.213000 0.929314
O O9 0.473829 0.282283 0.079906
O O10 0.623884 0.212519 0.201665
O O11 0.924608 0.250786 0.221983
O O12 0.640783 0.000000 0.143498
O O13 0.119068 0.500000 0.597648
O O14 0.206667 0.746429 0.672003
O O15 0.849417 0.000000 0.737942
O O16 0.274941 0.500000 0.974232
O O17 0.500000 0.738328 0.000000
O O18 0.379952 0.500000 0.766323
#
# Coordination Sequence:
#
# PCOD8066060 Si02
#       7
#     4   4   4   4   4   4   4
#     4   9  16  31  57  85 112 147 192 238 286 335
#     4  11  22  38  61  87 117 154 191 232 288 349
#     4  11  24  42  60  82 118 159 192 231 289 351
#     4   8  16  31  54  84 116 148 185 237 290 336
#     4  10  21  36  56  85 117 150 192 235 281 340
#     4  11  23  39  62  91 117 145 191 244 288 333
#     4  11  22  39  60  87 119 152 193 242 290 338
#
# _framework density 19.436306999999999
#
# number of rings (size 3 to 8) (size 9 to 14) (size 15 to 20)
#    0.000    1.857    2.857    2.571    0.000    2.857 
#    0.000    6.429    0.000    4.286    0.000    0.000 
#    0.000    0.000    0.000    0.000    0.000    0.000 
#
# Total GULP energy -347244.728172 kJ/mol
# GULP energy per Si atom -12401.597435 kJ/mol
# Density = 1.939207 g / cm^3
# Si number density = 19.436307 Si / 1000 Ang^3
#
#
#
# Elastic Constant Matrix: (Units=GPa)
#
#
# Indices 1 2 3 4 5 6 
#
# 1 97.0827 9.9617 49.5668 0.0000 0.8717 0.0000
# 2 9.9617 31.8351 9.2827 0.0000 0.3047 0.0000
# 3 49.5668 9.2827 144.9371 0.0000 8.5618 0.0000
# 4 0.0000 0.0000 0.0000 24.6413 0.0000 7.5503
# 5 0.8717 0.3047 8.5618 0.0000 34.8064 0.0000
# 6 0.0000 0.0000 0.0000 7.5503 0.0000 21.7185
#
#
#
# Elastic Compliance Matrix: (Units=1/GPa)
#
#
# Indices 1 2 3 4 5 6 
#
# 1 0.012732 -0.002760 -0.004221 0.000000 0.000744 0.000000
# 2 -0.002760 0.032610 -0.001148 0.000000 0.000066 0.000000
# 3 -0.004221 -0.001148 0.008534 0.000000 -0.001983 0.000000
# 4 0.000000 0.000000 0.000000 0.045421 0.000000 -0.015790
# 5 0.000744 0.000066 -0.001983 0.000000 0.029199 0.000000
# 6 0.000000 0.000000 0.000000 -0.015790 0.000000 0.051533
#
#
# Mechanical properties :
#
#
# Convention : Reuss Voigt Hill
#
# Bulk Modulus (GPa) = 26.58464 45.71971 36.15217
# Shear Modulus (GPa) = 23.94315 29.90280 26.92297
#
# Velocity S-wave (km/s) = 3.51362 3.92663 3.72585
# Velocity P-wave (km/s) = 5.49256 6.64318 6.09508
#
# Compressibility (1/GPa) = 0.03761570
#
# Stress axis : x y z
#
# Youngs Moduli (GPa) = 78.53987 30.66553 117.17892
#
# Poissons Ratio (x) = 0.08465 0.49467
# Poissons Ratio (y) = 0.21680 0.13457
# Poissons Ratio (z) = 0.33155 0.03522
#
# Static dielectric constant tensor:
#      x y z
#    x 3.451650 0.000000 0.082400 
#    y 0.000000 3.274690 0.000000 
#    z 0.082400 0.000000 3.882610 
# 
# 
# High freq. dielectric constant tensor:
#      x y z
#    x 1.738000 0.000000 0.009120 
#    y 0.000000 1.742370 0.000000 
#    z 0.009120 0.000000 1.771810 
# 
# From -- ./inp_files/70309.got.cif
#   From: 2010.06.25/outbox.cif.g09.slc.cpg/sg10_36_cif.got.tgz:70309.got - 2010.06.27 22:07:45.
