data_PCOD8066834
_publ_section_title
;
Structure prediction by ZEFSAII (Michael W. Deem and Ramdas Pophale) SiO2 
 PCOD8066834
Probable space group: P 2/M
;
_chemical_formula_sum "Si O2"
_cell_formula_units_Z 32
_cell_length_a 18.735337
_cell_length_b 13.680811
_cell_length_c 12.107483
_cell_angle_alpha 90.000000
_cell_angle_beta 29.352550
_cell_angle_gamma 90.000000
_cell_volume 1521.194171
_symmetry_space_group_name_H-M "P 2/M"
_symmetry_group_IT_number 10
_symmetry_cell_setting 'monoclinic'
loop_
_space_group_symop_operation_xyz
x,y,z
-x,y,-z
-x,-y,-z
x,-y,z
loop_
_atom_site_type_symbol
_atom_site_label
_atom_site_fract_x
_atom_site_fract_y
_atom_site_fract_z
Si Si1 0.656275 0.615351 0.323831
Si Si2 0.144500 0.291826 0.121706
Si Si3 0.337267 0.385560 0.441397
Si Si4 0.189468 0.706823 0.447065
Si Si5 0.418840 0.113319 0.438129
Si Si6 0.280905 0.112869 0.848201
Si Si7 0.330979 0.614209 0.056040
Si Si8 0.361569 0.113128 0.266033
O O1 0.500000 0.661221 0.500000
O O2 0.640039 0.500000 0.349007
O O3 0.690952 0.655713 0.398257
O O4 0.785901 0.642215 0.067537
O O5 0.227435 0.317200 0.122218
O O6 0.975194 0.312743 0.367081
O O7 0.154791 0.178108 0.072327
O O8 0.311134 0.500000 0.467201
O O9 0.215517 0.331810 0.534614
O O10 0.501783 0.357926 0.187073
O O11 0.293829 0.639759 0.231568
O O12 0.233196 0.821682 0.385284
O O13 0.314376 0.152869 0.678434
O O14 0.583301 0.130298 0.254020
O O15 0.392926 0.154939 0.348845
O O16 0.385053 0.000000 0.476763
O O17 0.232431 0.000000 0.912370
O O18 0.302786 0.500000 0.067461
O O19 0.311803 0.000000 0.335783
O O20 0.500000 0.125661 0.000000
#
# Coordination Sequence:
#
# PCOD8066834 Si02
#       8
#     4   4   4   4   4   4   4   4
#     4  10  21  40  65  94 122 158 214 268 315 376
#     4  12  26  39  64  95 127 173 207 254 329 383
#     4  10  22  41  68  94 120 159 209 266 318 370
#     4  12  27  41  59  96 134 166 210 257 320 386
#     4   8  17  36  62  92 116 154 212 262 306 351
#     4   9  20  37  62  93 124 158 208 264 309 364
#     4  11  24  46  70  91 121 167 218 265 315 381
#     4  10  22  40  65  93 128 172 216 261 313 375
#
# _framework density 21.036104000000002
#
# number of rings (size 3 to 8) (size 9 to 14) (size 15 to 20)
#    0.000    1.750    1.250    3.000    7.000    4.500 
#    0.000    1.250    0.000    3.750    0.000    0.000 
#    0.000    0.000    0.000    0.000    0.000    0.000 
#
# Total GULP energy -396723.873688 kJ/mol
# GULP energy per Si atom -12397.621053 kJ/mol
# Density = 2.098823 g / cm^3
# Si number density = 21.036104 Si / 1000 Ang^3
#
#
#
# Elastic Constant Matrix: (Units=GPa)
#
#
# Indices 1 2 3 4 5 6 
#
# 1 74.5373 15.5425 7.2963 0.0000 12.9668 0.0000
# 2 15.5425 49.9896 7.7884 0.0000 1.7416 0.0000
# 3 7.2963 7.7884 43.1320 0.0000 3.2214 0.0000
# 4 0.0000 0.0000 0.0000 24.7321 0.0000 5.2891
# 5 12.9668 1.7416 3.2214 0.0000 32.4178 0.0000
# 6 0.0000 0.0000 0.0000 5.2891 0.0000 32.1347
#
#
#
# Elastic Compliance Matrix: (Units=1/GPa)
#
#
# Indices 1 2 3 4 5 6 
#
# 1 0.015481 -0.004394 -0.001391 0.000000 -0.005818 0.000000
# 2 -0.004394 0.021848 -0.003270 0.000000 0.000909 0.000000
# 3 -0.001391 -0.003270 0.024135 0.000000 -0.001666 0.000000
# 4 0.000000 0.000000 0.000000 0.041908 0.000000 -0.006898
# 5 -0.005818 0.000909 -0.001666 0.000000 0.033291 0.000000
# 6 0.000000 0.000000 0.000000 -0.006898 0.000000 0.032254
#
#
# Mechanical properties :
#
#
# Convention : Reuss Voigt Hill
#
# Bulk Modulus (GPa) = 23.06554 25.43482 24.25018
# Shear Modulus (GPa) = 24.81667 26.99235 25.90451
#
# Velocity S-wave (km/s) = 3.43843 3.58599 3.51298
# Velocity P-wave (km/s) = 5.17226 5.40953 5.29222
#
# Compressibility (1/GPa) = 0.04335472
#
# Stress axis : x y z
#
# Youngs Moduli (GPa) = 64.59726 45.77078 41.43390
#
# Poissons Ratio (x) = 0.20111 0.05763
# Poissons Ratio (y) = 0.28382 0.13548
# Poissons Ratio (z) = 0.08984 0.14966
#
# Static dielectric constant tensor:
#      x y z
#    x 4.028700 0.000000 0.347950 
#    y 0.000000 3.882490 0.000000 
#    z 0.347950 0.000000 3.547450 
# 
# 
# High freq. dielectric constant tensor:
#      x y z
#    x 1.826490 0.000000 0.025160 
#    y 0.000000 1.840130 0.000000 
#    z 0.025160 0.000000 1.799770 
# 
# From -- ./inp_files/53979.got.cif
#   From: 2010.06.25/outbox.cif.g09.slc.cpg/sg10_27_cif.got.tgz:53979.got - 2010.06.27 22:07:45.
