data_PCOD8066874
_publ_section_title
;
Structure prediction by ZEFSAII (Michael W. Deem and Ramdas Pophale) SiO2 
 PCOD8066874
Probable space group: P 2/M
;
_chemical_formula_sum "Si O2"
_cell_formula_units_Z 28
_cell_length_a 15.693556
_cell_length_b 8.853704
_cell_length_c 11.776617
_cell_angle_alpha 90.000000
_cell_angle_beta 56.743064
_cell_angle_gamma 90.000000
_cell_volume 1368.318960
_symmetry_space_group_name_H-M "P 2/M"
_symmetry_group_IT_number 10
_symmetry_cell_setting 'monoclinic'
loop_
_space_group_symop_operation_xyz
x,y,z
-x,y,-z
-x,-y,-z
x,-y,z
loop_
_atom_site_type_symbol
_atom_site_label
_atom_site_fract_x
_atom_site_fract_y
_atom_site_fract_z
Si Si1 0.238478 0.821815 0.834734
Si Si2 0.826811 0.821169 0.361923
Si Si3 0.454896 0.326037 0.656994
Si Si4 0.385329 0.325915 0.109495
Si Si5 0.198918 0.326000 0.093646
Si Si6 0.979008 0.821071 0.643978
Si Si7 0.363036 0.178197 0.353350
O O1 0.178873 0.768555 0.764854
O O2 0.354456 0.771964 0.741211
O O3 0.234345 0.000000 0.851130
O O4 0.182578 0.749610 0.983263
O O5 0.728582 0.759743 0.501471
O O6 0.929694 0.758077 0.343499
O O7 0.825932 0.000000 0.372497
O O8 0.500000 0.302775 0.500000
O O9 0.429082 0.500000 0.702314
O O10 0.534447 0.266145 0.690443
O O11 0.383353 0.500000 0.150824
O O12 0.315742 0.303077 0.048703
O O13 0.338170 0.220216 0.241835
O O14 0.500000 0.272493 0.000000
O O15 0.170390 0.500000 0.103220
O O16 0.125864 0.251769 0.239681
O O17 0.000000 0.770348 0.500000
O O18 0.968714 0.000000 0.660704
O O19 0.378792 0.000000 0.356574
#
# Coordination Sequence:
#
# PCOD8066874 Si02
#       7
#     4   4   4   4   4   4   4
#     4  11  22  39  62  87 121 160 205 252 299 356
#     4   9  20  37  59  89 119 151 195 253 304 347
#     4  11  22  36  56  86 126 166 200 237 295 362
#     4  10  22  40  59  81 117 159 196 242 302 363
#     4  11  24  41  61  89 125 159 198 250 309 366
#     4  10  21  41  67  90 117 156 204 251 302 364
#     4  11  21  36  61  90 119 152 202 255 298 351
#
# _framework density 20.463063999999999
#
# number of rings (size 3 to 8) (size 9 to 14) (size 15 to 20)
#    0.000    1.571    1.429    3.429    0.000    5.143 
#    0.000    5.714    0.000    0.000    0.000    0.000 
#    0.000    0.000    0.000    0.000    0.000    0.000 
#
# Total GULP energy -347338.060938 kJ/mol
# GULP energy per Si atom -12404.930748 kJ/mol
# Density = 2.041649 g / cm^3
# Si number density = 20.463064 Si / 1000 Ang^3
#
#
#
# Elastic Constant Matrix: (Units=GPa)
#
#
# Indices 1 2 3 4 5 6 
#
# 1 125.0088 28.0836 55.7364 0.0000 5.2782 0.0000
# 2 28.0836 42.4114 51.4537 0.0000 9.1744 0.0000
# 3 55.7364 51.4537 140.0061 0.0000 10.5634 0.0000
# 4 0.0000 0.0000 0.0000 31.8085 0.0000 2.9405
# 5 5.2782 9.1744 10.5634 0.0000 36.4325 0.0000
# 6 0.0000 0.0000 0.0000 2.9405 0.0000 22.2724
#
#
#
# Elastic Compliance Matrix: (Units=1/GPa)
#
#
# Indices 1 2 3 4 5 6 
#
# 1 0.009965 -0.003264 -0.002781 0.000000 0.000185 0.000000
# 2 -0.003264 0.045092 -0.014774 0.000000 -0.006598 0.000000
# 3 -0.002781 -0.014774 0.013667 0.000000 0.000161 0.000000
# 4 0.000000 0.000000 0.000000 0.031827 0.000000 -0.004202
# 5 0.000185 -0.006598 0.000161 0.000000 0.029036 0.000000
# 6 0.000000 0.000000 0.000000 -0.004202 0.000000 0.045453
#
#
# Mechanical properties :
#
#
# Convention : Reuss Voigt Hill
#
# Bulk Modulus (GPa) = 36.92173 64.21930 50.57051
# Shear Modulus (GPa) = 22.15251 29.57951 25.86601
#
# Velocity S-wave (km/s) = 3.29380 3.80611 3.55918
# Velocity P-wave (km/s) = 5.70506 7.12506 6.45423
#
# Compressibility (1/GPa) = 0.02708432
#
# Stress axis : x y z
#
# Youngs Moduli (GPa) = 100.35062 22.17711 73.16662
#
# Poissons Ratio (x) = 0.07239 0.20351
# Poissons Ratio (y) = 0.32755 1.08099
# Poissons Ratio (z) = 0.27912 0.32765
#
# Static dielectric constant tensor:
#      x y z
#    x 3.900550 0.000000 0.174770 
#    y 0.000000 3.528600 0.000000 
#    z 0.174770 0.000000 3.813110 
# 
# 
# High freq. dielectric constant tensor:
#      x y z
#    x 1.807350 0.000000 0.007980 
#    y 0.000000 1.786090 0.000000 
#    z 0.007980 0.000000 1.808810 
# 
# From -- ./inp_files/49586.got.cif
#   From: 2010.06.25/outbox.cif.g09.slc.cpg/sg10_25_cif.got.tgz:49586.got - 2010.06.27 22:07:45.
