data_PCOD8066885
_publ_section_title
;
Structure prediction by ZEFSAII (Michael W. Deem and Ramdas Pophale) SiO2 
 PCOD8066885
Probable space group: P 2/M
;
_chemical_formula_sum "Si O2"
_cell_formula_units_Z 28
_cell_length_a 13.423932
_cell_length_b 20.919461
_cell_length_c 8.714267
_cell_angle_alpha 90.000000
_cell_angle_beta 30.234673
_cell_angle_gamma 90.000000
_cell_volume 1232.246387
_symmetry_space_group_name_H-M "P 2/M"
_symmetry_group_IT_number 10
_symmetry_cell_setting 'monoclinic'
loop_
_space_group_symop_operation_xyz
x,y,z
-x,y,-z
-x,-y,-z
x,-y,z
loop_
_atom_site_type_symbol
_atom_site_label
_atom_site_fract_x
_atom_site_fract_y
_atom_site_fract_z
Si Si1 0.325540 0.310436 0.838314
Si Si2 0.410635 0.640107 0.269230
Si Si3 0.920770 0.719205 0.453191
Si Si4 0.554872 0.928552 0.260025
Si Si5 0.210083 0.572519 0.794926
Si Si6 0.870073 0.070751 0.311775
Si Si7 0.718494 0.850397 0.777938
O O1 0.500000 0.281583 0.500000
O O2 0.418345 0.313756 0.886932
O O3 0.259233 0.381403 0.870833
O O4 0.129726 0.266078 0.086671
O O5 0.218063 0.681204 0.479403
O O6 0.365142 0.585472 0.452076
O O7 0.500000 0.606668 0.000000
O O8 0.812904 0.780885 0.665874
O O9 0.000000 0.679838 0.500000
O O10 0.500000 0.899106 0.500000
O O11 0.357194 0.934464 0.427442
O O12 0.647681 0.000000 0.156572
O O13 0.706384 0.883509 0.962897
O O14 0.230280 0.500000 0.826525
O O15 0.000000 0.586918 0.000000
O O16 0.873568 0.111575 0.462915
O O17 0.957448 0.000000 0.228795
O O18 0.000000 0.102000 0.000000
O O19 0.500000 0.844472 0.000000
#
# Coordination Sequence:
#
# PCOD8066885 Si02
#       7
#     4   4   4   4   4   4   4
#     4  10  23  42  68  96 125 175 220 268 325 392
#     4  11  22  40  68  93 132 173 219 264 324 395
#     4  12  24  42  64  90 130 174 220 278 321 382
#     4   9  18  36  65  92 123 161 208 273 340 404
#     4  10  21  41  69 102 135 168 213 275 333 392
#     4   9  18  36  59  88 125 166 209 263 332 399
#     4  10  22  39  61  90 128 171 220 271 331 398
#
# _framework density 22.722728
#
# number of rings (size 3 to 8) (size 9 to 14) (size 15 to 20)
#    0.000    1.857    2.857    0.857    0.000    5.714 
#    5.143    0.714    0.000    6.857    0.000    0.000 
#    0.000    1.714    0.000    0.000    0.000    0.000 
#
# Total GULP energy -346910.037761 kJ/mol
# GULP energy per Si atom -12389.644206 kJ/mol
# Density = 2.267101 g / cm^3
# Si number density = 22.722728 Si / 1000 Ang^3
#
#
#
# Elastic Constant Matrix: (Units=GPa)
#
#
# Indices 1 2 3 4 5 6 
#
# 1 106.4809 22.4164 36.3262 0.0000 -1.2380 0.0000
# 2 22.4164 68.6941 44.2219 0.0000 4.9625 0.0000
# 3 36.3262 44.2219 139.1138 0.0000 7.9016 0.0000
# 4 0.0000 0.0000 0.0000 32.9610 0.0000 1.8759
# 5 -1.2380 4.9625 7.9016 0.0000 50.0387 0.0000
# 6 0.0000 0.0000 0.0000 1.8759 0.0000 17.6562
#
#
#
# Elastic Compliance Matrix: (Units=1/GPa)
#
#
# Indices 1 2 3 4 5 6 
#
# 1 0.010577 -0.002140 -0.002128 0.000000 0.000810 0.000000
# 2 -0.002140 0.018777 -0.005349 0.000000 -0.001070 0.000000
# 3 -0.002128 -0.005349 0.009502 0.000000 -0.001023 0.000000
# 4 0.000000 0.000000 0.000000 0.030523 0.000000 -0.003243
# 5 0.000810 -0.001070 -0.001023 0.000000 0.020272 0.000000
# 6 0.000000 0.000000 0.000000 -0.003243 0.000000 0.056982
#
#
# Mechanical properties :
#
#
# Convention : Reuss Voigt Hill
#
# Bulk Modulus (GPa) = 50.96312 57.80198 54.38255
# Shear Modulus (GPa) = 29.00092 34.21947 31.61020
#
# Velocity S-wave (km/s) = 3.57640 3.88488 3.73383
# Velocity P-wave (km/s) = 6.28738 6.75398 6.52485
#
# Compressibility (1/GPa) = 0.01962203
#
# Stress axis : x y z
#
# Youngs Moduli (GPa) = 94.54293 53.25793 105.23684
#
# Poissons Ratio (x) = 0.11400 0.22390
# Poissons Ratio (y) = 0.20237 0.56291
# Poissons Ratio (z) = 0.20115 0.28488
#
# Static dielectric constant tensor:
#      x y z
#    x 4.231940 0.000000 -0.053080 
#    y 0.000000 3.719490 0.000000 
#    z -0.053080 0.000000 4.498680 
# 
# 
# High freq. dielectric constant tensor:
#      x y z
#    x 1.908150 0.000000 -0.007310 
#    y 0.000000 1.850210 0.000000 
#    z -0.007310 0.000000 1.918800 
# 
# From -- ./inp_files/30427.got.cif
#   From: 2010.06.25/outbox.cif.g09.slc.cpg/sg10_16_cif.got.tgz:30427.got - 2010.06.27 22:07:45.
