data_PCOD8066648
_publ_section_title
;
Structure prediction by ZEFSAII (Michael W. Deem and Ramdas Pophale) SiO2 
 PCOD8066648
Probable space group: P 2/M
;
_chemical_formula_sum "Si O2"
_cell_formula_units_Z 32
_cell_length_a 11.836272
_cell_length_b 8.606057
_cell_length_c 20.081562
_cell_angle_alpha 90.000000
_cell_angle_beta 121.818937
_cell_angle_gamma 90.000000
_cell_volume 1738.167837
_symmetry_space_group_name_H-M "P 2/M"
_symmetry_group_IT_number 10
_symmetry_cell_setting 'monoclinic'
loop_
_space_group_symop_operation_xyz
x,y,z
-x,y,-z
-x,-y,-z
x,-y,z
loop_
_atom_site_type_symbol
_atom_site_label
_atom_site_fract_x
_atom_site_fract_y
_atom_site_fract_z
Si Si1 0.592175 0.678380 0.648737
Si Si2 0.417586 0.316898 0.067166
Si Si3 0.752266 0.181456 0.339198
Si Si4 0.185647 0.179086 0.369460
Si Si5 0.472891 0.681532 0.226488
Si Si6 0.302566 0.315556 0.899761
Si Si7 0.284399 0.320013 0.533146
Si Si8 0.090063 0.682700 0.730723
O O1 0.628339 0.500000 0.644340
O O2 0.686501 0.788940 0.636211
O O3 0.611279 0.716844 0.733198
O O4 0.441426 0.714379 0.581290
O O5 0.421051 0.500000 0.060093
O O6 0.384868 0.272335 0.133896
O O7 0.564735 0.253972 0.095639
O O8 0.309348 0.254301 0.979313
O O9 0.607820 0.221223 0.265235
O O10 0.778503 0.272142 0.416055
O O11 0.864923 0.231688 0.322394
O O12 0.762845 0.000000 0.356793
O O13 0.215389 0.220248 0.454793
O O14 0.063402 0.279460 0.303373
O O15 0.147534 0.000000 0.352782
O O16 0.514127 0.500000 0.238328
O O17 0.296371 0.500000 0.896655
O O18 0.174252 0.252110 0.820232
O O19 0.255311 0.500000 0.510661
O O20 0.111453 0.500000 0.728003
#
# Coordination Sequence:
#
# PCOD8066648 Si02
#       8
#     4   4   4   4   4   4   4   4
#     4   9  19  35  56  80 103 133 174 218 257 305
#     4   8  12  23  47  82 110 130 166 216 261 298
#     4  11  21  33  51  79 112 140 170 210 260 312
#     4  12  25  38  53  76 104 137 175 217 265 313
#     4   9  16  30  54  80 108 139 174 214 260 308
#     4   8  14  24  47  79 108 134 168 215 259 299
#     4  10  21  39  61  81 102 131 172 219 262 308
#     4  11  21  36  55  74 104 145 182 213 255 312
#
# _framework density 18.41019
#
# number of rings (size 3 to 8) (size 9 to 14) (size 15 to 20)
#    0.000    2.250    1.250    4.875    0.000    4.500 
#    0.000    2.500    0.000    3.000    0.000    5.250 
#    0.000    0.000    0.000    0.000    0.000    0.000 
#
# Total GULP energy -396676.637706 kJ/mol
# GULP energy per Si atom -12396.144928 kJ/mol
# Density = 1.836829 g / cm^3
# Si number density = 18.410190 Si / 1000 Ang^3
#
#
#
# Elastic Constant Matrix: (Units=GPa)
#
#
# Indices 1 2 3 4 5 6 
#
# 1 33.5553 17.8702 35.7682 0.0000 2.5705 0.0000
# 2 17.8702 45.1798 15.3455 0.0000 -1.3455 0.0000
# 3 35.7682 15.3455 137.5930 0.0000 -12.4841 0.0000
# 4 0.0000 0.0000 0.0000 8.6818 0.0000 2.5395
# 5 2.5705 -1.3455 -12.4841 0.0000 21.2437 0.0000
# 6 0.0000 0.0000 0.0000 2.5395 0.0000 17.6083
#
#
#
# Elastic Compliance Matrix: (Units=1/GPa)
#
#
# Indices 1 2 3 4 5 6 
#
# 1 0.055093 -0.017576 -0.013803 0.000000 -0.015891 0.000000
# 2 -0.017576 0.028613 0.001833 0.000000 0.005016 0.000000
# 3 -0.013803 0.001833 0.011423 0.000000 0.008499 0.000000
# 4 0.000000 0.000000 0.000000 0.120256 0.000000 -0.017343
# 5 -0.015891 0.005016 0.008499 0.000000 0.054308 0.000000
# 6 0.000000 0.000000 0.000000 -0.017343 0.000000 0.059293
#
#
# Mechanical properties :
#
#
# Convention : Reuss Voigt Hill
#
# Bulk Modulus (GPa) = 27.75049 39.36620 33.55835
# Shear Modulus (GPa) = 12.49720 19.32971 15.91346
#
# Velocity S-wave (km/s) = 2.60824 3.24380 2.94323
# Velocity P-wave (km/s) = 4.91698 5.95474 5.46057
#
# Compressibility (1/GPa) = 0.03603540
#
# Stress axis : x y z
#
# Youngs Moduli (GPa) = 18.15113 34.94972 87.54413
#
# Poissons Ratio (x) = 0.61428 1.20841
# Poissons Ratio (y) = 0.31903 -0.16047
# Poissons Ratio (z) = 0.25055 -0.06407
#
# Static dielectric constant tensor:
#      x y z
#    x 3.183950 0.000000 -0.231420 
#    y 0.000000 3.111500 0.000000 
#    z -0.231420 0.000000 3.816150 
# 
# 
# High freq. dielectric constant tensor:
#      x y z
#    x 1.686480 0.000000 -0.020030 
#    y 0.000000 1.690750 0.000000 
#    z -0.020030 0.000000 1.724040 
# 
# From -- ./inp_files/83650.got.cif
#   From: 2010.06.25/outbox.cif.g09.slc.cpg/sg10_42_cif.got.tgz:83650.got - 2010.06.27 22:07:45.
