data_PCOD8066245
_publ_section_title
;
Structure prediction by ZEFSAII (Michael W. Deem and Ramdas Pophale) SiO2 
 PCOD8066245
Probable space group: P 2/M
;
_chemical_formula_sum "Si O2"
_cell_formula_units_Z 32
_cell_length_a 12.197471
_cell_length_b 8.586058
_cell_length_c 29.343161
_cell_angle_alpha 90.000000
_cell_angle_beta 31.047894
_cell_angle_gamma 90.000000
_cell_volume 1584.942302
_symmetry_space_group_name_H-M "P 2/M"
_symmetry_group_IT_number 10
_symmetry_cell_setting 'monoclinic'
loop_
_space_group_symop_operation_xyz
x,y,z
-x,y,-z
-x,-y,-z
x,-y,z
loop_
_atom_site_type_symbol
_atom_site_label
_atom_site_fract_x
_atom_site_fract_y
_atom_site_fract_z
Si Si1 0.256168 0.316860 0.591306
Si Si2 0.670287 0.680365 0.677765
Si Si3 0.903267 0.181214 0.441278
Si Si4 0.730406 0.184068 0.931522
Si Si5 0.885242 0.815631 0.972866
Si Si6 0.508911 0.180374 0.643647
Si Si7 0.679316 0.184496 0.138838
Si Si8 0.892883 0.318848 0.255874
O O1 0.500000 0.264591 0.500000
O O2 0.231462 0.500000 0.591200
O O3 0.116225 0.223389 0.604768
O O4 0.170189 0.265847 0.671028
O O5 0.645415 0.500000 0.674250
O O6 0.594097 0.785923 0.663363
O O7 0.531401 0.724285 0.771412
O O8 0.914605 0.716453 0.600686
O O9 0.685041 0.227308 0.543879
O O10 0.958284 0.000000 0.427771
O O11 0.804671 0.256599 0.953746
O O12 0.895578 0.227954 0.833404
O O13 0.717899 0.000000 0.940333
O O14 0.500000 0.252413 0.000000
O O15 0.126849 0.763272 0.897157
O O16 0.882138 0.000000 0.971736
O O17 0.730955 0.762128 0.068828
O O18 0.298425 0.280089 0.710177
O O19 0.447784 0.000000 0.661740
O O20 0.640693 0.000000 0.155403
O O21 0.942052 0.500000 0.235910
#
# Coordination Sequence:
#
# PCOD8066245 Si02
#       8
#     4   4   4   4   4   4   4   4
#     4  10  21  40  63  87 122 160 195 241 298 359
#     4  12  25  38  56  86 124 160 195 237 299 365
#     4  11  24  40  61  87 116 154 202 252 296 344
#     4  10  21  37  57  84 119 157 197 243 296 353
#     4   8  16  33  58  83 108 145 192 240 292 344
#     4  11  23  40  62  87 117 153 200 251 296 350
#     4   9  17  34  59  82 108 147 195 243 288 344
#     4  11  23  39  63  92 121 159 202 245 302 361
#
# _framework density 20.190009
#
# number of rings (size 3 to 8) (size 9 to 14) (size 15 to 20)
#    0.000    1.750    1.250    4.125    0.000    6.500 
#    0.000    3.125    0.000    0.000    0.000    0.000 
#    0.000    0.000    0.000    0.000    0.000    0.000 
#
# Total GULP energy -396948.306053 kJ/mol
# GULP energy per Si atom -12404.634564 kJ/mol
# Density = 2.014406 g / cm^3
# Si number density = 20.190009 Si / 1000 Ang^3
#
#
#
# Elastic Constant Matrix: (Units=GPa)
#
#
# Indices 1 2 3 4 5 6 
#
# 1 98.3686 8.1794 53.3496 0.0000 6.3015 0.0000
# 2 8.1794 30.0166 21.4079 0.0000 0.3781 0.0000
# 3 53.3496 21.4079 115.3725 0.0000 -0.6525 0.0000
# 4 0.0000 0.0000 0.0000 22.0045 0.0000 1.4629
# 5 6.3015 0.3781 -0.6525 0.0000 31.6176 0.0000
# 6 0.0000 0.0000 0.0000 1.4629 0.0000 26.8011
#
#
#
# Elastic Compliance Matrix: (Units=1/GPa)
#
#
# Indices 1 2 3 4 5 6 
#
# 1 0.013852 0.000970 -0.006602 0.000000 -0.002909 0.000000
# 2 0.000970 0.038476 -0.007593 0.000000 -0.000810 0.000000
# 3 -0.006602 -0.007593 0.013139 0.000000 0.001678 0.000000
# 4 0.000000 0.000000 0.000000 0.045611 0.000000 -0.002490
# 5 -0.002909 -0.000810 0.001678 0.000000 0.032252 0.000000
# 6 0.000000 0.000000 0.000000 -0.002490 0.000000 0.037448
#
#
# Mechanical properties :
#
#
# Convention : Reuss Voigt Hill
#
# Bulk Modulus (GPa) = 25.62900 45.51460 35.57180
# Shear Modulus (GPa) = 22.70343 26.80603 24.75473
#
# Velocity S-wave (km/s) = 3.35698 3.64770 3.50535
# Velocity P-wave (km/s) = 5.26756 6.35083 5.83439
#
# Compressibility (1/GPa) = 0.03901830
#
# Stress axis : x y z
#
# Youngs Moduli (GPa) = 72.19211 25.99037 76.11114
#
# Poissons Ratio (x) = -0.02522 0.50247
# Poissons Ratio (y) = -0.07006 0.57789
# Poissons Ratio (z) = 0.47660 0.19734
#
# Static dielectric constant tensor:
#      x y z
#    x 3.862280 0.000000 0.090260 
#    y 0.000000 3.362060 0.000000 
#    z 0.090260 0.000000 3.745260 
# 
# 
# High freq. dielectric constant tensor:
#      x y z
#    x 1.793410 0.000000 0.005780 
#    y 0.000000 1.768350 0.000000 
#    z 0.005780 0.000000 1.796620 
# 
# From -- ./inp_files/94955.got.cif
#   From: 2010.06.25/outbox.cif.g09.slc.cpg/sg10_48_cif.got.tgz:94955.got - 2010.06.27 22:07:45.
