data_PCOD8066149
_publ_section_title
;
Structure prediction by ZEFSAII (Michael W. Deem and Ramdas Pophale) SiO2 
 PCOD8066149
Probable space group: P 2/M
;
_chemical_formula_sum "Si O2"
_cell_formula_units_Z 28
_cell_length_a 17.004962
_cell_length_b 9.114784
_cell_length_c 22.836947
_cell_angle_alpha 90.000000
_cell_angle_beta 23.893234
_cell_angle_gamma 90.000000
_cell_volume 1433.676496
_symmetry_space_group_name_H-M "P 2/M"
_symmetry_group_IT_number 10
_symmetry_cell_setting 'monoclinic'
loop_
_space_group_symop_operation_xyz
x,y,z
-x,y,-z
-x,-y,-z
x,-y,z
loop_
_atom_site_type_symbol
_atom_site_label
_atom_site_fract_x
_atom_site_fract_y
_atom_site_fract_z
Si Si1 0.397991 0.832315 0.403144
Si Si2 0.212220 0.333364 0.427977
Si Si3 0.816351 0.170035 0.087999
Si Si4 0.033807 0.826456 0.721740
Si Si5 0.828045 0.331185 0.758647
Si Si6 0.415788 0.673390 0.177673
Si Si7 0.188808 0.325445 0.032071
O O1 0.357119 0.751234 0.371150
O O2 0.627376 0.808644 0.259014
O O3 0.253657 0.778764 0.553368
O O4 0.346318 0.000000 0.426979
O O5 0.283938 0.500000 0.382477
O O6 0.249897 0.273798 0.336609
O O7 0.990974 0.317966 0.597477
O O8 0.838285 0.000000 0.054659
O O9 0.799409 0.267039 0.041648
O O10 0.000000 0.224776 0.000000
O O11 0.878143 0.771102 0.779279
O O12 0.995596 0.746045 0.809343
O O13 0.010946 0.000000 0.745087
O O14 0.808483 0.500000 0.794325
O O15 0.636414 0.274298 0.853444
O O16 0.415395 0.500000 0.174263
O O17 0.624734 0.729032 0.057412
O O18 0.168551 0.500000 0.044336
#
# Coordination Sequence:
#
# PCOD8066149 Si02
#       7
#     4   4   4   4   4   4   4
#     4   9  18  34  56  80 107 141 177 217 266 321
#     4   9  15  27  49  76 105 139 180 223 266 313
#     4  10  21  39  63  88 110 134 170 218 274 332
#     4  10  21  37  54  76 111 150 186 220 261 315
#     4   9  17  30  50  75 105 144 187 227 264 307
#     4   9  17  29  48  76 108 141 181 227 269 310
#     4  11  22  37  57  82 111 144 181 222 270 319
#
# _framework density 19.530207999999998
#
# number of rings (size 3 to 8) (size 9 to 14) (size 15 to 20)
#    0.000    2.429    1.429    1.286    0.000    3.143 
#    0.000    5.714    0.000    7.714    0.000    0.000 
#    0.000    0.000    0.000    0.000    0.000    0.000 
#
# Total GULP energy -346968.096213 kJ/mol
# GULP energy per Si atom -12391.717722 kJ/mol
# Density = 1.948576 g / cm^3
# Si number density = 19.530208 Si / 1000 Ang^3
#
#
#
# Elastic Constant Matrix: (Units=GPa)
#
#
# Indices 1 2 3 4 5 6 
#
# 1 65.6559 32.4967 57.2945 0.0000 -9.3046 0.0000
# 2 32.4967 55.1450 34.2213 0.0000 1.0373 0.0000
# 3 57.2945 34.2213 81.1011 0.0000 7.6116 0.0000
# 4 0.0000 0.0000 0.0000 22.2745 0.0000 3.4964
# 5 -9.3046 1.0373 7.6116 0.0000 33.6552 0.0000
# 6 0.0000 0.0000 0.0000 3.4964 0.0000 28.2532
#
#
#
# Elastic Compliance Matrix: (Units=1/GPa)
#
#
# Indices 1 2 3 4 5 6 
#
# 1 0.057791 -0.010475 -0.038760 0.000000 0.025066 0.000000
# 2 -0.010475 0.026552 -0.003531 0.000000 -0.002916 0.000000
# 3 -0.038760 -0.003531 0.043113 0.000000 -0.020358 0.000000
# 4 0.000000 0.000000 0.000000 0.045784 0.000000 -0.005666
# 5 0.025066 -0.002916 -0.020358 0.000000 0.041337 0.000000
# 6 0.000000 0.000000 0.000000 -0.005666 0.000000 0.036095
#
#
# Mechanical properties :
#
#
# Convention : Reuss Voigt Hill
#
# Bulk Modulus (GPa) = 45.60645 49.99187 47.79916
# Shear Modulus (GPa) = 13.75472 22.02923 17.89197
#
# Velocity S-wave (km/s) = 2.65670 3.36215 3.03003
# Velocity P-wave (km/s) = 5.72828 6.38160 6.06375
#
# Compressibility (1/GPa) = 0.02192672
#
# Stress axis : x y z
#
# Youngs Moduli (GPa) = 17.30360 37.66144 23.19495
#
# Poissons Ratio (x) = 0.39449 0.89903
# Poissons Ratio (y) = 0.18125 0.08189
# Poissons Ratio (z) = 0.67069 0.13296
#
# Static dielectric constant tensor:
#      x y z
#    x 3.463380 0.000000 -0.060990 
#    y 0.000000 3.372550 0.000000 
#    z -0.060990 0.000000 3.939240 
# 
# 
# High freq. dielectric constant tensor:
#      x y z
#    x 1.738020 0.000000 0.008230 
#    y 0.000000 1.736790 0.000000 
#    z 0.008230 0.000000 1.775960 
# 
# From -- ./inp_files/84904.got.cif
#   From: 2010.06.25/outbox.cif.g09.slc.cpg/sg10_43_cif.got.tgz:84904.got - 2010.06.27 22:07:45.
