data_PCOD8066022
_publ_section_title
;
Structure prediction by ZEFSAII (Michael W. Deem and Ramdas Pophale) SiO2 
 PCOD8066022
Probable space group: P 2/M
;
_chemical_formula_sum "Si O2"
_cell_formula_units_Z 28
_cell_length_a 13.116401
_cell_length_b 21.751901
_cell_length_c 5.034740
_cell_angle_alpha 90.000000
_cell_angle_beta 78.292839
_cell_angle_gamma 90.000000
_cell_volume 1406.563129
_symmetry_space_group_name_H-M "P 2/M"
_symmetry_group_IT_number 10
_symmetry_cell_setting 'monoclinic'
loop_
_space_group_symop_operation_xyz
x,y,z
-x,y,-z
-x,-y,-z
x,-y,z
loop_
_atom_site_type_symbol
_atom_site_label
_atom_site_fract_x
_atom_site_fract_y
_atom_site_fract_z
Si Si1 0.112958 0.738846 0.542778
Si Si2 0.568807 0.142827 0.220173
Si Si3 0.112342 0.118113 0.543948
Si Si4 0.569054 0.715277 0.218384
Si Si5 0.930029 0.568831 0.779873
Si Si6 0.776156 0.928475 0.019124
Si Si7 0.794007 0.679404 0.992338
O O1 0.115464 0.810267 0.613883
O O2 0.136211 0.701638 0.798153
O O3 0.000000 0.717918 0.500000
O O4 0.195586 0.725632 0.264027
O O5 0.500000 0.120486 0.500000
O O6 0.602685 0.213776 0.234862
O O7 0.670031 0.101247 0.174292
O O8 0.500000 0.131618 0.000000
O O9 0.136525 0.081692 0.801549
O O10 0.000000 0.096581 0.500000
O O11 0.195261 0.103505 0.272565
O O12 0.500000 0.692030 0.500000
O O13 0.674037 0.675418 0.144105
O O14 0.500000 0.704277 0.000000
O O15 0.888527 0.500000 0.738618
O O16 0.000000 0.593708 0.500000
O O17 0.830554 0.612368 0.875667
O O18 0.000000 0.568397 0.000000
O O19 0.760134 0.000000 0.975295
#
# Coordination Sequence:
#
# PCOD8066022 Si02
#       7
#     4   4   4   4   4   4   4
#     4  11  22  35  57  88 116 144 184 235 293 349
#     4  10  21  38  59  81 109 141 178 233 297 346
#     4  11  24  41  58  81 115 149 184 233 288 341
#     4  10  21  36  55  81 110 145 189 236 286 340
#     4  10  21  37  57  86 125 163 196 228 270 331
#     4  12  25  40  60  83 108 146 194 233 278 349
#     4  12  21  35  60  86 118 153 191 236 283 333
#
# _framework density 19.906677999999999
#
# number of rings (size 3 to 8) (size 9 to 14) (size 15 to 20)
#    0.000    1.143    0.000    7.714    0.000    6.857 
#    0.000    0.000    0.000    0.857    0.000    0.000 
#    0.000    0.000    0.000    0.000    0.000    0.000 
#
# Total GULP energy -347384.816780 kJ/mol
# GULP energy per Si atom -12406.600599 kJ/mol
# Density = 1.986137 g / cm^3
# Si number density = 19.906678 Si / 1000 Ang^3
#
#
#
# Elastic Constant Matrix: (Units=GPa)
#
#
# Indices 1 2 3 4 5 6 
#
# 1 81.1099 47.0910 25.2212 0.0000 -20.4140 0.0000
# 2 47.0910 91.1784 34.6355 0.0000 -15.1578 0.0000
# 3 25.2212 34.6355 129.2204 0.0000 -5.2443 0.0000
# 4 0.0000 0.0000 0.0000 13.9638 0.0000 0.5561
# 5 -20.4140 -15.1578 -5.2443 0.0000 35.5377 0.0000
# 6 0.0000 0.0000 0.0000 0.5561 0.0000 27.5909
#
#
#
# Elastic Compliance Matrix: (Units=1/GPa)
#
#
# Indices 1 2 3 4 5 6 
#
# 1 0.019416 -0.008316 -0.001260 0.000000 0.007421 0.000000
# 2 -0.008316 0.016627 -0.002756 0.000000 0.001908 0.000000
# 3 -0.001260 -0.002756 0.008698 0.000000 -0.000615 0.000000
# 4 0.000000 0.000000 0.000000 0.071671 0.000000 -0.001445
# 5 0.007421 0.001908 -0.000615 0.000000 0.033125 0.000000
# 6 0.000000 0.000000 0.000000 -0.001445 0.000000 0.036273
#
#
# Mechanical properties :
#
#
# Convention : Reuss Voigt Hill
#
# Bulk Modulus (GPa) = 49.80503 57.26714 53.53608
# Shear Modulus (GPa) = 23.02390 28.38921 25.70655
#
# Velocity S-wave (km/s) = 3.40456 3.78049 3.59744
# Velocity P-wave (km/s) = 6.36618 6.92000 6.64886
#
# Compressibility (1/GPa) = 0.02007829
#
# Stress axis : x y z
#
# Youngs Moduli (GPa) = 51.50310 60.14493 114.96539
#
# Poissons Ratio (x) = 0.50016 0.14481
# Poissons Ratio (y) = 0.42829 0.31684
# Poissons Ratio (z) = 0.06487 0.16576
#
# Static dielectric constant tensor:
#      x y z
#    x 3.522470 0.000000 0.035540 
#    y 0.000000 3.592860 0.000000 
#    z 0.035540 0.000000 3.840950 
# 
# 
# High freq. dielectric constant tensor:
#      x y z
#    x 1.771070 0.000000 0.004670 
#    y 0.000000 1.759150 0.000000 
#    z 0.004670 0.000000 1.801820 
# 
# From -- ./inp_files/7694.got.cif
#   From: 2010.06.25/outbox.cif.g09.slc.cpg/sg10_4_cif.got.tgz:7694.got - 2010.06.27 22:07:45.
