data_PCOD8066079
_publ_section_title
;
Structure prediction by ZEFSAII (Michael W. Deem and Ramdas Pophale) SiO2 
 PCOD8066079
Probable space group: P 2/M
;
_chemical_formula_sum "Si O2"
_cell_formula_units_Z 24
_cell_length_a 11.089777
_cell_length_b 10.336014
_cell_length_c 13.458810
_cell_angle_alpha 90.000000
_cell_angle_beta 50.912630
_cell_angle_gamma 90.000000
_cell_volume 1197.424225
_symmetry_space_group_name_H-M "P 2/M"
_symmetry_group_IT_number 10
_symmetry_cell_setting 'monoclinic'
loop_
_space_group_symop_operation_xyz
x,y,z
-x,y,-z
-x,-y,-z
x,-y,z
loop_
_atom_site_type_symbol
_atom_site_label
_atom_site_fract_x
_atom_site_fract_y
_atom_site_fract_z
Si Si1 0.420127 0.145316 0.646300
Si Si2 0.948560 0.852509 0.630784
Si Si3 0.168626 0.356906 0.052976
Si Si4 0.354922 0.259421 0.135967
Si Si5 0.534350 0.642662 0.224372
Si Si6 0.930569 0.151274 0.224872
O O1 0.500000 0.159399 0.500000
O O2 0.502795 0.245846 0.676940
O O3 0.239987 0.177151 0.726327
O O4 0.443242 0.000000 0.676718
O O5 0.765075 0.841747 0.752253
O O6 0.000000 0.781739 0.500000
O O7 0.053326 0.801940 0.668535
O O8 0.991825 0.000000 0.594499
O O9 0.090711 0.500000 0.088867
O O10 0.258839 0.349031 0.110792
O O11 0.044408 0.242434 0.101818
O O12 0.288162 0.339808 0.900981
O O13 0.420810 0.347748 0.189421
O O14 0.500000 0.192246 0.000000
O O15 0.509773 0.500000 0.284368
O O16 0.979474 0.000000 0.187834
#
# Coordination Sequence:
#
# PCOD8066079 Si02
#       6
#     4   4   4   4   4   4
#     4  10  23  40  57  76 106 150 191 227 272 327
#     4   9  18  31  53  81 109 144 183 229 281 330
#     4   9  18  35  59  84 111 144 178 220 280 337
#     4   9  18  33  55  82 113 146 181 225 277 334
#     4  10  21  36  57  84 112 144 184 228 273 325
#     4   9  19  36  55  78 109 141 181 230 275 324
#
# _framework density 20.043022000000001
#
# number of rings (size 3 to 8) (size 9 to 14) (size 15 to 20)
#    0.000    2.667    0.000    0.500    2.333    5.333 
#    0.000    6.667    0.000    2.500    0.000    0.000 
#    0.000    0.000    0.000    0.000    0.000    0.000 
#
# Total GULP energy -297415.922731 kJ/mol
# GULP energy per Si atom -12392.330114 kJ/mol
# Density = 1.999740 g / cm^3
# Si number density = 20.043022 Si / 1000 Ang^3
#
#
#
# Elastic Constant Matrix: (Units=GPa)
#
#
# Indices 1 2 3 4 5 6 
#
# 1 54.3568 36.6647 17.5676 0.0000 -2.4599 0.0000
# 2 36.6647 87.6794 19.6056 0.0000 3.6562 0.0000
# 3 17.5676 19.6056 58.0431 0.0000 -2.7848 0.0000
# 4 0.0000 0.0000 0.0000 22.2046 0.0000 5.7771
# 5 -2.4599 3.6562 -2.7848 0.0000 21.4632 0.0000
# 6 0.0000 0.0000 0.0000 5.7771 0.0000 7.9430
#
#
#
# Elastic Compliance Matrix: (Units=1/GPa)
#
#
# Indices 1 2 3 4 5 6 
#
# 1 0.027135 -0.010533 -0.004447 0.000000 0.004327 0.000000
# 2 -0.010533 0.016578 -0.002622 0.000000 -0.004371 0.000000
# 3 -0.004447 -0.002622 0.019579 0.000000 0.002477 0.000000
# 4 0.000000 0.000000 0.000000 0.055547 0.000000 -0.040401
# 5 0.004327 -0.004371 0.002477 0.000000 0.048153 0.000000
# 6 0.000000 0.000000 0.000000 -0.040401 0.000000 0.155282
#
#
# Mechanical properties :
#
#
# Convention : Reuss Voigt Hill
#
# Bulk Modulus (GPa) = 35.60191 38.63948 37.12070
# Shear Modulus (GPa) = 13.62989 18.73825 16.18407
#
# Velocity S-wave (km/s) = 2.61057 3.06093 2.84468
# Velocity P-wave (km/s) = 5.18537 5.64026 5.41759
#
# Compressibility (1/GPa) = 0.02808838
#
# Stress axis : x y z
#
# Youngs Moduli (GPa) = 36.85308 60.32028 51.07520
#
# Poissons Ratio (x) = 0.63535 0.22715
# Poissons Ratio (y) = 0.38817 0.13390
# Poissons Ratio (z) = 0.16390 0.15813
#
# Static dielectric constant tensor:
#      x y z
#    x 3.634310 0.000000 -0.028640 
#    y 0.000000 3.490110 0.000000 
#    z -0.028640 0.000000 3.837670 
# 
# 
# High freq. dielectric constant tensor:
#      x y z
#    x 1.782530 0.000000 0.003850 
#    y 0.000000 1.761280 0.000000 
#    z 0.003850 0.000000 1.776630 
# 
# From -- ./inp_files/46521.got.cif
#   From: 2010.06.25/outbox.cif.g09.slc.cpg/sg10_24_cif.got.tgz:46521.got - 2010.06.27 22:07:45.
