data_PCOD8066136
_publ_section_title
;
Structure prediction by ZEFSAII (Michael W. Deem and Ramdas Pophale) SiO2 
 PCOD8066136
Probable space group: P 2/M
;
_chemical_formula_sum "Si O2"
_cell_formula_units_Z 28
_cell_length_a 14.537097
_cell_length_b 8.874952
_cell_length_c 20.855362
_cell_angle_alpha 90.000000
_cell_angle_beta 29.403882
_cell_angle_gamma 90.000000
_cell_volume 1321.021858
_symmetry_space_group_name_H-M "P 2/M"
_symmetry_group_IT_number 10
_symmetry_cell_setting 'monoclinic'
loop_
_space_group_symop_operation_xyz
x,y,z
-x,y,-z
-x,-y,-z
x,-y,z
loop_
_atom_site_type_symbol
_atom_site_label
_atom_site_fract_x
_atom_site_fract_y
_atom_site_fract_z
Si Si1 0.570121 0.320961 0.387449
Si Si2 0.199686 0.670349 0.051711
Si Si3 0.870141 0.672143 0.766604
Si Si4 0.561208 0.831413 0.879164
Si Si5 0.799470 0.168092 0.609027
Si Si6 0.260585 0.677793 0.477191
Si Si7 0.049894 0.177557 0.897205
O O1 0.500000 0.265718 0.500000
O O2 0.592990 0.500000 0.372977
O O3 0.413971 0.259622 0.433282
O O4 0.767922 0.254689 0.244137
O O5 0.206133 0.500000 0.020872
O O6 0.402098 0.717992 0.953770
O O7 0.072896 0.679406 0.192824
O O8 0.126005 0.779288 0.040726
O O9 0.828725 0.500000 0.770879
O O10 0.681483 0.769615 0.867001
O O11 0.051898 0.738601 0.620080
O O12 0.699724 0.836636 0.736387
O O13 0.486181 0.000000 0.940471
O O14 0.684345 0.265379 0.627007
O O15 0.000000 0.245497 0.500000
O O16 0.824729 0.000000 0.565351
O O17 0.262433 0.500000 0.479400
O O18 0.080809 0.000000 0.877505
O O19 0.000000 0.231957 0.000000
#
# Coordination Sequence:
#
# PCOD8066136 Si02
#       7
#     4   4   4   4   4   4   4
#     4  10  22  43  69  97 129 164 210 266 321 380
#     4  11  24  42  65  89 120 161 206 254 310 370
#     4  10  21  39  61  90 125 160 199 249 302 360
#     4  11  23  38  59  88 124 163 204 249 301 365
#     4  10  21  38  56  81 120 163 199 242 301 359
#     4  10  21  36  61  92 119 154 201 249 301 360
#     4  11  26  46  66  93 129 167 213 268 323 382
#
# _framework density 21.195712
#
# number of rings (size 3 to 8) (size 9 to 14) (size 15 to 20)
#    0.000    1.571    1.429    2.571    2.000    8.571 
#    0.000    1.429    0.000    0.000    0.000    0.000 
#    0.000    0.000    0.000    0.000    0.000    0.000 
#
# Total GULP energy -347172.449808 kJ/mol
# GULP energy per Si atom -12399.016065 kJ/mol
# Density = 2.114747 g / cm^3
# Si number density = 21.195712 Si / 1000 Ang^3
#
#
#
# Elastic Constant Matrix: (Units=GPa)
#
#
# Indices 1 2 3 4 5 6 
#
# 1 147.1125 23.4536 31.1423 0.0000 5.3174 0.0000
# 2 23.4536 48.7856 19.1073 0.0000 2.1672 0.0000
# 3 31.1423 19.1073 76.1822 0.0000 3.6440 0.0000
# 4 0.0000 0.0000 0.0000 22.4746 0.0000 -5.3691
# 5 5.3174 2.1672 3.6440 0.0000 32.4006 0.0000
# 6 0.0000 0.0000 0.0000 -5.3691 0.0000 19.2844
#
#
#
# Elastic Compliance Matrix: (Units=1/GPa)
#
#
# Indices 1 2 3 4 5 6 
#
# 1 0.007784 -0.002745 -0.002455 0.000000 -0.000818 0.000000
# 2 -0.002745 0.023724 -0.004800 0.000000 -0.000597 0.000000
# 3 -0.002455 -0.004800 0.015382 0.000000 -0.001006 0.000000
# 4 0.000000 0.000000 0.000000 0.047665 0.000000 0.013271
# 5 -0.000818 -0.000597 -0.001006 0.000000 0.031151 0.000000
# 6 0.000000 0.000000 0.000000 0.013271 0.000000 0.055550
#
#
# Mechanical properties :
#
#
# Convention : Reuss Voigt Hill
#
# Bulk Modulus (GPa) = 37.18578 46.60961 41.89769
# Shear Modulus (GPa) = 23.78489 28.05705 25.92097
#
# Velocity S-wave (km/s) = 3.35349 3.64223 3.50084
# Velocity P-wave (km/s) = 5.70760 6.30283 6.01258
#
# Compressibility (1/GPa) = 0.02689200
#
# Stress axis : x y z
#
# Youngs Moduli (GPa) = 128.46449 42.15205 65.01202
#
# Poissons Ratio (x) = 0.11569 0.15958
# Poissons Ratio (y) = 0.35258 0.31203
# Poissons Ratio (z) = 0.31533 0.20232
#
# Static dielectric constant tensor:
#      x y z
#    x 4.029750 0.000000 0.207350 
#    y 0.000000 3.839530 0.000000 
#    z 0.207350 0.000000 4.077450 
# 
# 
# High freq. dielectric constant tensor:
#      x y z
#    x 1.842300 0.000000 0.008470 
#    y 0.000000 1.819800 0.000000 
#    z 0.008470 0.000000 1.839660 
# 
# From -- ./inp_files/84903.got.cif
#   From: 2010.06.25/outbox.cif.g09.slc.cpg/sg10_43_cif.got.tgz:84903.got - 2010.06.27 22:07:45.
