data_PCOD8066700
_publ_section_title
;
Structure prediction by ZEFSAII (Michael W. Deem and Ramdas Pophale) SiO2 
 PCOD8066700
Probable space group: P 2/M
;
_chemical_formula_sum "Si O2"
_cell_formula_units_Z 28
_cell_length_a 26.982173
_cell_length_b 8.711032
_cell_length_c 9.260905
_cell_angle_alpha 90.000000
_cell_angle_beta 38.605383
_cell_angle_gamma 90.000000
_cell_volume 1358.162862
_symmetry_space_group_name_H-M "P 2/M"
_symmetry_group_IT_number 10
_symmetry_cell_setting 'monoclinic'
loop_
_space_group_symop_operation_xyz
x,y,z
-x,y,-z
-x,-y,-z
x,-y,z
loop_
_atom_site_type_symbol
_atom_site_label
_atom_site_fract_x
_atom_site_fract_y
_atom_site_fract_z
Si Si1 0.633154 0.319483 0.543566
Si Si2 0.063928 0.168862 0.231698
Si Si3 0.503934 0.176709 0.324638
Si Si4 0.210851 0.682054 0.314063
Si Si5 0.233117 0.181533 0.960642
Si Si6 0.659580 0.177603 0.791300
Si Si7 0.035022 0.679102 0.775190
O O1 0.641906 0.500000 0.542749
O O2 0.553079 0.282494 0.640142
O O3 0.707428 0.255237 0.287513
O O4 0.628764 0.243401 0.710546
O O5 0.000000 0.152462 0.500000
O O6 0.031533 0.290760 0.192330
O O7 0.077079 0.000000 0.130995
O O8 0.145523 0.232577 0.111036
O O9 0.500000 0.229759 0.500000
O O10 0.476201 0.000000 0.372893
O O11 0.592714 0.199990 0.065215
O O12 0.211794 0.500000 0.296360
O O13 0.262041 0.732332 0.335998
O O14 0.121340 0.748360 0.538721
O O15 0.249345 0.755297 0.083585
O O16 0.244788 0.000000 0.936802
O O17 0.681265 0.000000 0.721019
O O18 0.046988 0.500000 0.769784
O O19 0.000000 0.754986 0.000000
#
# Coordination Sequence:
#
# PCOD8066700 Si02
#       7
#     4   4   4   4   4   4   4
#     4  12  26  42  64  95 130 165 206 259 312 368
#     4  10  21  39  62  90 119 157 210 263 309 364
#     4  10  22  43  70  97 126 163 207 252 305 370
#     4  11  23  40  62  92 127 166 211 259 312 370
#     4  11  23  41  64  90 124 164 211 262 315 375
#     4  11  24  42  66  94 129 170 208 253 308 368
#     4  10  23  40  59  87 125 166 205 253 314 375
#
# _framework density 20.616083
#
# number of rings (size 3 to 8) (size 9 to 14) (size 15 to 20)
#    0.000    1.286    1.429    3.857    2.000    6.571 
#    0.000    0.000    0.000    0.000    0.000    0.000 
#    0.000    0.000    0.000    0.000    0.000    0.000 
#
# Total GULP energy -347320.145586 kJ/mol
# GULP energy per Si atom -12404.290914 kJ/mol
# Density = 2.056916 g / cm^3
# Si number density = 20.616083 Si / 1000 Ang^3
#
#
#
# Elastic Constant Matrix: (Units=GPa)
#
#
# Indices 1 2 3 4 5 6 
#
# 1 162.2389 81.4971 31.1455 0.0000 9.3797 0.0000
# 2 81.4971 147.2087 33.0297 0.0000 6.5034 0.0000
# 3 31.1455 33.0297 92.3604 0.0000 13.9539 0.0000
# 4 0.0000 0.0000 0.0000 25.5689 0.0000 0.0377
# 5 9.3797 6.5034 13.9539 0.0000 40.7016 0.0000
# 6 0.0000 0.0000 0.0000 0.0377 0.0000 39.7773
#
#
#
# Elastic Compliance Matrix: (Units=1/GPa)
#
#
# Indices 1 2 3 4 5 6 
#
# 1 0.008712 -0.004517 -0.001190 0.000000 -0.000878 0.000000
# 2 -0.004517 0.009731 -0.001982 0.000000 0.000166 0.000000
# 3 -0.001190 -0.001982 0.012495 0.000000 -0.003693 0.000000
# 4 0.000000 0.000000 0.000000 0.039110 0.000000 -0.000037
# 5 -0.000878 0.000166 -0.003693 0.000000 0.026011 0.000000
# 6 0.000000 0.000000 0.000000 -0.000037 0.000000 0.025140
#
#
# Mechanical properties :
#
#
# Convention : Reuss Voigt Hill
#
# Bulk Modulus (GPa) = 64.26469 77.01694 70.64081
# Shear Modulus (GPa) = 35.26982 38.28527 36.77754
#
# Velocity S-wave (km/s) = 4.14066 4.31404 4.22824
# Velocity P-wave (km/s) = 7.35526 7.89008 7.62736
#
# Compressibility (1/GPa) = 0.01556065
#
# Stress axis : x y z
#
# Youngs Moduli (GPa) = 114.78225 102.76071 80.03214
#
# Poissons Ratio (x) = 0.46422 0.09522
# Poissons Ratio (y) = 0.51852 0.15860
# Poissons Ratio (z) = 0.13656 0.20365
#
# Static dielectric constant tensor:
#      x y z
#    x 3.395010 0.000000 -0.047200 
#    y 0.000000 3.681510 0.000000 
#    z -0.047200 0.000000 3.936730 
# 
# 
# High freq. dielectric constant tensor:
#      x y z
#    x 1.817030 0.000000 -0.001450 
#    y 0.000000 1.802540 0.000000 
#    z -0.001450 0.000000 1.818390 
# 
# From -- ./inp_files/37016.got.cif
#   From: 2010.06.25/outbox.cif.g09.slc.cpg/sg10_19_cif.got.tgz:37016.got - 2010.06.27 22:07:45.
