data_PCOD8066380
_publ_section_title
;
Structure prediction by ZEFSAII (Michael W. Deem and Ramdas Pophale) SiO2 
 PCOD8066380
Probable space group: P 2/M
;
_chemical_formula_sum "Si O2"
_cell_formula_units_Z 24
_cell_length_a 15.356700
_cell_length_b 14.303437
_cell_length_c 8.917795
_cell_angle_alpha 90.000000
_cell_angle_beta 144.736411
_cell_angle_gamma 90.000000
_cell_volume 1130.906192
_symmetry_space_group_name_H-M "P 2/M"
_symmetry_group_IT_number 10
_symmetry_cell_setting 'monoclinic'
loop_
_space_group_symop_operation_xyz
x,y,z
-x,y,-z
-x,-y,-z
x,-y,z
loop_
_atom_site_type_symbol
_atom_site_label
_atom_site_fract_x
_atom_site_fract_y
_atom_site_fract_z
Si Si1 0.022232 0.395966 0.203809
Si Si2 0.623287 0.780025 0.569894
Si Si3 0.691412 0.395293 0.848800
Si Si4 0.108284 0.232171 0.514750
Si Si5 0.080117 0.897007 0.956812
Si Si6 0.576756 0.721553 0.958335
O O1 0.094974 0.500000 0.309442
O O2 0.130494 0.320565 0.433669
O O3 0.000000 0.364711 0.000000
O O4 0.871292 0.394616 0.089808
O O5 0.500000 0.832369 0.500000
O O6 0.630937 0.671029 0.631032
O O7 0.781396 0.828423 0.818961
O O8 0.557667 0.781802 0.309190
O O9 0.629650 0.500000 0.736213
O O10 0.639937 0.360428 0.940610
O O11 0.279488 0.209866 0.808194
O O12 0.000000 0.258354 0.500000
O O13 0.035111 0.144401 0.326756
O O14 0.132415 0.000000 0.974075
O O15 0.000000 0.909026 0.000000
O O16 0.500000 0.679937 0.000000
#
# Coordination Sequence:
#
# PCOD8066380 Si02
#       6
#     4   4   4   4   4   4
#     4  10  21  37  63  92 120 166 220 263 302 356
#     4  10  21  42  64  88 123 166 207 251 304 370
#     4  10  21  40  62  88 124 170 218 256 296 359
#     4  12  22  41  65  93 128 162 205 264 314 369
#     4  11  24  43  69  94 117 156 211 259 305 376
#     4  11  24  37  59  92 131 169 201 251 320 368
#
# _framework density 21.221917999999999
#
# number of rings (size 3 to 8) (size 9 to 14) (size 15 to 20)
#    0.000    1.333    3.333    2.500    2.333    5.000 
#    0.000    0.833    0.000    3.000    0.000    0.000 
#    0.000    0.000    0.000    0.000    0.000    0.000 
#
# Total GULP energy -297441.522019 kJ/mol
# GULP energy per Si atom -12393.396751 kJ/mol
# Density = 2.117362 g / cm^3
# Si number density = 21.221918 Si / 1000 Ang^3
#
#
#
# Elastic Constant Matrix: (Units=GPa)
#
#
# Indices 1 2 3 4 5 6 
#
# 1 111.1901 32.2249 33.4955 0.0000 -12.1653 0.0000
# 2 32.2249 125.6323 66.9361 0.0000 -6.8757 0.0000
# 3 33.4955 66.9361 148.4741 0.0000 -2.1103 0.0000
# 4 0.0000 0.0000 0.0000 8.0419 0.0000 -11.7067
# 5 -12.1653 -6.8757 -2.1103 0.0000 38.2760 0.0000
# 6 0.0000 0.0000 0.0000 -11.7067 0.0000 18.7601
#
#
#
# Elastic Compliance Matrix: (Units=1/GPa)
#
#
# Indices 1 2 3 4 5 6 
#
# 1 0.010248 -0.001660 -0.001523 0.000000 0.002875 0.000000
# 2 -0.001660 0.010847 -0.004499 0.000000 0.001173 0.000000
# 3 -0.001523 -0.004499 0.009096 0.000000 -0.000791 0.000000
# 4 0.000000 0.000000 0.000000 1.357471 0.000000 0.847091
# 5 0.002875 0.001173 -0.000791 0.000000 0.027207 0.000000
# 6 0.000000 0.000000 0.000000 0.847091 0.000000 0.581908
#
#
# Mechanical properties :
#
#
# Convention : Reuss Voigt Hill
#
# Bulk Modulus (GPa) = 67.44326 72.28994 69.86660
# Shear Modulus (GPa) = 2.47883 29.85827 16.16855
#
# Velocity S-wave (km/s) = 1.08194 3.75501 2.76321
# Velocity P-wave (km/s) = 5.78012 7.27584 6.57068
#
# Compressibility (1/GPa) = 0.01482728
#
# Stress axis : x y z
#
# Youngs Moduli (GPa) = 97.58043 92.19441 109.94283
#
# Poissons Ratio (x) = 0.15304 0.16741
# Poissons Ratio (y) = 0.16198 0.49461
# Poissons Ratio (z) = 0.14858 0.41476
#
# Static dielectric constant tensor:
#      x y z
#    x 3.984090 0.000000 -0.091770 
#    y 0.000000 3.829380 0.000000 
#    z -0.091770 0.000000 3.878880 
# 
# 
# High freq. dielectric constant tensor:
#      x y z
#    x 1.844810 0.000000 0.001590 
#    y 0.000000 1.797530 0.000000 
#    z 0.001590 0.000000 1.842540 
# 
# From -- ./inp_files/29668.got.cif
#   From: 2010.06.25/outbox.cif.g09.slc.cpg/sg10_15_cif.got.tgz:29668.got - 2010.06.27 22:07:45.
