data_PCOD8066710
_publ_section_title
;
Structure prediction by ZEFSAII (Michael W. Deem and Ramdas Pophale) SiO2 
 PCOD8066710
Probable space group: P 2/M
;
_chemical_formula_sum "Si O2"
_cell_formula_units_Z 20
_cell_length_a 8.235905
_cell_length_b 22.731796
_cell_length_c 9.613466
_cell_angle_alpha 90.000000
_cell_angle_beta 31.923930
_cell_angle_gamma 90.000000
_cell_volume 951.723213
_symmetry_space_group_name_H-M "P 2/M"
_symmetry_group_IT_number 10
_symmetry_cell_setting 'monoclinic'
loop_
_space_group_symop_operation_xyz
x,y,z
-x,y,-z
-x,-y,-z
x,-y,z
loop_
_atom_site_type_symbol
_atom_site_label
_atom_site_fract_x
_atom_site_fract_y
_atom_site_fract_z
Si Si1 0.287684 0.631822 0.521158
Si Si2 0.359955 0.934788 0.746781
Si Si3 0.398502 0.171565 0.916817
Si Si4 0.759746 0.766000 0.427012
Si Si5 0.211731 0.566307 0.981798
O O1 0.500000 0.624361 0.500000
O O2 0.160899 0.698006 0.604879
O O3 0.992115 0.589509 0.742141
O O4 0.494565 0.609805 0.241918
O O5 0.500000 0.909696 0.500000
O O6 0.500752 0.000000 0.673275
O O7 0.435529 0.891934 0.818548
O O8 0.000000 0.939837 0.000000
O O9 0.056088 0.198283 0.157587
O O10 0.500000 0.164161 0.000000
O O11 0.637827 0.213346 0.664803
O O12 0.500000 0.774877 0.500000
O O13 0.324894 0.500000 0.928105
O O14 0.000000 0.568825 0.000000
#
# Coordination Sequence:
#
# PCOD8066710 Si02
#       5
#     4   4   4   4   4
#     4   9  17  28  44  69 100 139 183 223 271 334
#     4  10  21  39  63  88 115 151 193 231 275 338
#     4  12  24  38  58  87 120 150 189 240 291 336
#     4  11  22  38  59  81 113 156 198 236 280 343
#     4   9  15  24  40  66 103 139 170 217 284 342
#
# _framework density 21.014514999999999
#
# number of rings (size 3 to 8) (size 9 to 14) (size 15 to 20)
#    0.000    1.800    0.000    6.000    0.000    6.000 
#    0.000    0.000    0.000    6.000    0.000    0.000 
#    0.000   56.000    0.000    0.000    0.000    0.000 
#
# Total GULP energy -247942.608260 kJ/mol
# GULP energy per Si atom -12397.130413 kJ/mol
# Density = 2.096668 g / cm^3
# Si number density = 21.014515 Si / 1000 Ang^3
#
#
#
# Elastic Constant Matrix: (Units=GPa)
#
#
# Indices 1 2 3 4 5 6 
#
# 1 48.5879 38.9792 20.9824 0.0000 13.2405 0.0000
# 2 38.9792 143.5242 64.7847 0.0000 4.2202 0.0000
# 3 20.9824 64.7847 160.8084 0.0000 2.8127 0.0000
# 4 0.0000 0.0000 0.0000 43.5683 0.0000 0.5061
# 5 13.2405 4.2202 2.8127 0.0000 26.0923 0.0000
# 6 0.0000 0.0000 0.0000 0.5061 0.0000 0.7311
#
#
#
# Elastic Compliance Matrix: (Units=1/GPa)
#
#
# Indices 1 2 3 4 5 6 
#
# 1 0.030958 -0.007669 -0.000698 0.000000 -0.014394 0.000000
# 2 -0.007669 0.010443 -0.003251 0.000000 0.002553 0.000000
# 3 -0.000698 -0.003251 0.007618 0.000000 0.000059 0.000000
# 4 0.000000 0.000000 0.000000 0.023139 0.000000 -0.016020
# 5 -0.014394 0.002553 0.000059 0.000000 0.045210 0.000000
# 6 0.000000 0.000000 0.000000 -0.016020 0.000000 1.378959
#
#
# Mechanical properties :
#
#
# Convention : Reuss Voigt Hill
#
# Bulk Modulus (GPa) = 38.78634 66.93480 52.86057
# Shear Modulus (GPa) = 3.27191 29.28994 16.28093
#
# Velocity S-wave (km/s) = 1.24914 3.73741 2.78645
# Velocity P-wave (km/s) = 4.53624 7.10951 5.96333
#
# Compressibility (1/GPa) = 0.02578227
#
# Stress axis : x y z
#
# Youngs Moduli (GPa) = 32.30201 95.75997 131.26223
#
# Poissons Ratio (x) = 0.73443 0.09160
# Poissons Ratio (y) = 0.24774 0.42674
# Poissons Ratio (z) = 0.02254 0.31132
#
# Static dielectric constant tensor:
#      x y z
#    x 3.211830 0.000000 -0.062300 
#    y 0.000000 4.174720 0.000000 
#    z -0.062300 0.000000 4.178720 
# 
# 
# High freq. dielectric constant tensor:
#      x y z
#    x 1.764870 0.000000 -0.003890 
#    y 0.000000 1.840600 0.000000 
#    z -0.003890 0.000000 1.847810 
# 
# From -- ./inp_files/20589.got.cif
#   From: 2010.06.25/outbox.cif.g09.slc.cpg/sg10_11_cif.got.tgz:20589.got - 2010.06.27 22:07:45.
