data_PCOD8066696
_publ_section_title
;
Structure prediction by ZEFSAII (Michael W. Deem and Ramdas Pophale) SiO2 
 PCOD8066696
Probable space group: P 2/M
;
_chemical_formula_sum "Si O2"
_cell_formula_units_Z 30
_cell_length_a 25.919495
_cell_length_b 10.838579
_cell_length_c 25.847618
_cell_angle_alpha 90.000000
_cell_angle_beta 10.987110
_cell_angle_gamma 90.000000
_cell_volume 1383.933769
_symmetry_space_group_name_H-M "P 2/M"
_symmetry_group_IT_number 10
_symmetry_cell_setting 'monoclinic'
loop_
_space_group_symop_operation_xyz
x,y,z
-x,y,-z
-x,-y,-z
x,-y,z
loop_
_atom_site_type_symbol
_atom_site_label
_atom_site_fract_x
_atom_site_fract_y
_atom_site_fract_z
Si Si1 0.409275 0.636430 0.787898
Si Si2 0.169771 0.863956 0.614572
Si Si3 0.649580 0.363775 0.703288
Si Si4 0.107738 0.208084 0.012125
Si Si5 0.735000 0.000000 0.728491
Si Si6 0.734552 0.265741 0.728008
Si Si7 0.144431 0.713586 0.148622
Si Si8 0.594029 0.859611 0.462868
O O1 0.544432 0.500000 0.648331
O O2 0.621594 0.749486 0.585686
O O3 0.224601 0.661992 0.918794
O O4 0.215832 0.630632 0.028353
O O5 0.978989 0.841940 0.751992
O O6 0.981654 0.872953 0.850477
O O7 0.308344 0.000000 0.471690
O O8 0.532750 0.500000 0.807017
O O9 0.711095 0.358986 0.703802
O O10 0.925567 0.350405 0.400339
O O11 0.419466 0.266096 0.911383
O O12 0.843447 0.226364 0.236093
O O13 0.346331 0.140112 0.746629
O O14 0.726102 0.130542 0.707117
O O15 0.000000 0.000000 0.500000
O O16 0.500000 0.000000 0.000000
O O17 0.000000 0.290476 0.500000
O O18 0.500000 0.285637 0.000000
O O19 0.500000 0.807277 0.500000
O O20 0.700880 0.000000 0.352374
#
# Coordination Sequence:
#
# PCOD8066696 Si02
#       8
#     4   4   4   4   2   4   4   4
#     4  11  24  43  71  98 130 178 228 270 321 400
#     4  11  24  43  70 101 137 171 217 278 334 385
#     4  12  24  41  65  93 128 170 212 263 322 386
#     4  11  23  40  63 100 132 174 217 274 333 389
#     4   8  16  34  58  80 110 152 196 250 300 366
#     4  10  21  39  62  89 120 157 210 260 317 375
#     4  11  25  44  62  95 130 173 211 264 324 396
#     4  11  22  38  63  97 136 175 221 275 334 395
#
# _framework density 21.677337000000001
#
# number of rings (size 3 to 8) (size 9 to 14) (size 15 to 20)
#    0.000    1.200    2.667    3.600    0.000    6.933 
#    2.400    0.000    0.000    2.400    0.000    0.000 
#    0.000    0.000    0.000    0.000    0.000    0.000 
#
# Total GULP energy -371676.503862 kJ/mol
# GULP energy per Si atom -12389.216795 kJ/mol
# Density = 2.162800 g / cm^3
# Si number density = 21.677337 Si / 1000 Ang^3
#
#
#
# Elastic Constant Matrix: (Units=GPa)
#
#
# Indices 1 2 3 4 5 6 
#
# 1 140.6597 40.3450 53.3400 0.0000 -14.9354 0.0000
# 2 40.3450 114.5245 44.5059 0.0000 1.3699 0.0000
# 3 53.3400 44.5059 144.1828 0.0000 -12.6965 0.0000
# 4 0.0000 0.0000 0.0000 22.8663 0.0000 -9.9225
# 5 -14.9354 1.3699 -12.6965 0.0000 38.5446 0.0000
# 6 0.0000 0.0000 0.0000 -9.9225 0.0000 12.7884
#
#
#
# Elastic Compliance Matrix: (Units=1/GPa)
#
#
# Indices 1 2 3 4 5 6 
#
# 1 0.008951 -0.002266 -0.002368 0.000000 0.002769 0.000000
# 2 -0.002266 0.010570 -0.002610 0.000000 -0.002114 0.000000
# 3 -0.002368 -0.002610 0.008800 0.000000 0.002074 0.000000
# 4 0.000000 0.000000 0.000000 0.065930 0.000000 0.051155
# 5 0.002769 -0.002114 0.002074 0.000000 0.027775 0.000000
# 6 0.000000 0.000000 0.000000 0.051155 0.000000 0.117887
#
#
# Mechanical properties :
#
#
# Convention : Reuss Voigt Hill
#
# Bulk Modulus (GPa) = 72.29744 75.08322 73.69033
# Shear Modulus (GPa) = 19.30394 32.25159 25.77776
#
# Velocity S-wave (km/s) = 2.98738 3.86139 3.45216
# Velocity P-wave (km/s) = 6.73226 7.38866 7.06809
#
# Compressibility (1/GPa) = 0.01383175
#
# Stress axis : x y z
#
# Youngs Moduli (GPa) = 111.71377 94.60886 113.63456
#
# Poissons Ratio (x) = 0.21441 0.26911
# Poissons Ratio (y) = 0.25317 0.29663
# Poissons Ratio (z) = 0.26456 0.24697
#
# Static dielectric constant tensor:
#      x y z
#    x 4.036050 0.000000 -0.124580 
#    y 0.000000 3.969830 0.000000 
#    z -0.124580 0.000000 4.019500 
# 
# 
# High freq. dielectric constant tensor:
#      x y z
#    x 1.850150 0.000000 -0.004710 
#    y 0.000000 1.824420 0.000000 
#    z -0.004710 0.000000 1.866790 
# 
# From -- ./inp_files/94059.got.cif
#   From: 2010.06.25/outbox.cif.g09.slc.cpg/sg10_48_cif.got.tgz:94059.got - 2010.06.27 22:07:45.
