data_PCOD8066065
_publ_section_title
;
Structure prediction by ZEFSAII (Michael W. Deem and Ramdas Pophale) SiO2 
 PCOD8066065
Probable space group: P 2/M
;
_chemical_formula_sum "Si O2"
_cell_formula_units_Z 32
_cell_length_a 24.182009
_cell_length_b 9.067044
_cell_length_c 14.232505
_cell_angle_alpha 90.000000
_cell_angle_beta 149.702593
_cell_angle_gamma 90.000000
_cell_volume 1574.311833
_symmetry_space_group_name_H-M "P 2/M"
_symmetry_group_IT_number 10
_symmetry_cell_setting 'monoclinic'
loop_
_space_group_symop_operation_xyz
x,y,z
-x,y,-z
-x,-y,-z
x,-y,z
loop_
_atom_site_type_symbol
_atom_site_label
_atom_site_fract_x
_atom_site_fract_y
_atom_site_fract_z
Si Si1 0.106954 0.332395 0.213537
Si Si2 0.791446 0.667185 0.352871
Si Si3 0.397466 0.173535 0.414762
Si Si4 0.614565 0.172134 0.217951
Si Si5 0.048305 0.167649 0.302934
Si Si6 0.116829 0.668085 0.706297
Si Si7 0.810584 0.830970 0.003016
Si Si8 0.650143 0.329837 0.467838
O O1 0.093424 0.500000 0.230802
O O2 0.116588 0.218638 0.312772
O O3 0.219284 0.315594 0.320405
O O4 0.000000 0.284265 0.000000
O O5 0.774114 0.500000 0.362763
O O6 0.704363 0.770741 0.276059
O O7 0.913566 0.725641 0.557192
O O8 0.789555 0.676865 0.237360
O O9 0.500000 0.212728 0.500000
O O10 0.411674 0.252725 0.536075
O O11 0.387483 0.000000 0.419615
O O12 0.290483 0.236225 0.203682
O O13 0.617319 0.255936 0.321251
O O14 0.634492 0.000000 0.266096
O O15 0.500000 0.203275 0.000000
O O16 0.918574 0.186665 0.096938
O O17 0.079469 0.000000 0.372222
O O18 0.095977 0.500000 0.706800
O O19 0.170732 0.753707 0.870850
O O20 0.000000 0.735684 0.500000
O O21 0.784847 0.000000 0.988720
O O22 0.613963 0.500000 0.410061
#
# Coordination Sequence:
#
# PCOD8066065 Si02
#       8
#     4   4   4   4   4   4   4   4
#     4  10  21  36  56  86 122 160 199 243 303 370
#     4  11  22  38  60  87 121 160 202 249 303 362
#     4  10  23  44  66  88 121 165 210 258 309 360
#     4  11  25  44  66  92 124 164 206 251 305 363
#     4  11  21  33  55  86 120 157 197 248 307 363
#     4  10  21  37  58  86 122 164 204 248 308 371
#     4  10  22  38  59  90 123 160 209 259 307 363
#     4  11  23  40  65  94 124 161 203 253 306 360
#
# _framework density 20.326340999999999
#
# number of rings (size 3 to 8) (size 9 to 14) (size 15 to 20)
#    0.000    1.500    2.500    2.250    0.000    5.250 
#    0.000    3.750    0.000    0.000    0.000    0.000 
#    0.000    0.000    0.000    0.000    0.000    0.000 
#
# Total GULP energy -396783.608336 kJ/mol
# GULP energy per Si atom -12399.487760 kJ/mol
# Density = 2.028008 g / cm^3
# Si number density = 20.326341 Si / 1000 Ang^3
#
#
#
# Elastic Constant Matrix: (Units=GPa)
#
#
# Indices 1 2 3 4 5 6 
#
# 1 123.1920 54.4126 35.9680 0.0000 -4.3864 0.0000
# 2 54.4126 91.7461 40.5800 0.0000 -4.4364 0.0000
# 3 35.9680 40.5800 90.0940 0.0000 0.7528 0.0000
# 4 0.0000 0.0000 0.0000 25.1099 0.0000 -4.9871
# 5 -4.3864 -4.4364 0.7528 0.0000 27.0816 0.0000
# 6 0.0000 0.0000 0.0000 -4.9871 0.0000 35.0908
#
#
#
# Elastic Compliance Matrix: (Units=1/GPa)
#
#
# Indices 1 2 3 4 5 6 
#
# 1 0.011264 -0.005798 -0.001893 0.000000 0.000927 0.000000
# 2 -0.005798 0.016754 -0.005248 0.000000 0.001951 0.000000
# 3 -0.001893 -0.005248 0.014232 0.000000 -0.001562 0.000000
# 4 0.000000 0.000000 0.000000 0.040982 0.000000 0.005824
# 5 0.000927 0.001951 -0.001562 0.000000 0.037439 0.000000
# 6 0.000000 0.000000 0.000000 0.005824 0.000000 0.029325
#
#
# Mechanical properties :
#
#
# Convention : Reuss Voigt Hill
#
# Bulk Modulus (GPa) = 61.08032 62.99480 62.03756
# Shear Modulus (GPa) = 27.57382 29.06125 28.31753
#
# Velocity S-wave (km/s) = 3.68714 3.78528 3.73653
# Velocity P-wave (km/s) = 6.94563 7.08262 7.01446
#
# Compressibility (1/GPa) = 0.01637188
#
# Stress axis : x y z
#
# Youngs Moduli (GPa) = 88.77665 59.68716 70.26428
#
# Poissons Ratio (x) = 0.34609 0.13301
# Poissons Ratio (y) = 0.51477 0.36873
# Poissons Ratio (z) = 0.16806 0.31322
#
# Static dielectric constant tensor:
#      x y z
#    x 3.627670 0.000000 0.016980 
#    y 0.000000 3.671120 0.000000 
#    z 0.016980 0.000000 3.799350 
# 
# 
# High freq. dielectric constant tensor:
#      x y z
#    x 1.797940 0.000000 0.000200 
#    y 0.000000 1.794390 0.000000 
#    z 0.000200 0.000000 1.790090 
# 
# From -- ./inp_files/71577.got.cif
#   From: 2010.06.25/outbox.cif.g09.slc.cpg/sg10_36_cif.got.tgz:71577.got - 2010.06.27 22:07:45.
