data_PCOD8066936
_publ_section_title
;
Structure prediction by ZEFSAII (Michael W. Deem and Ramdas Pophale) SiO2 
 PCOD8066936
Probable space group: P 2/M
;
_chemical_formula_sum "Si O2"
_cell_formula_units_Z 32
_cell_length_a 15.213879
_cell_length_b 14.385705
_cell_length_c 11.162002
_cell_angle_alpha 90.000000
_cell_angle_beta 42.804939
_cell_angle_gamma 90.000000
_cell_volume 1659.990389
_symmetry_space_group_name_H-M "P 2/M"
_symmetry_group_IT_number 10
_symmetry_cell_setting 'monoclinic'
loop_
_space_group_symop_operation_xyz
x,y,z
-x,y,-z
-x,-y,-z
x,-y,z
loop_
_atom_site_type_symbol
_atom_site_label
_atom_site_fract_x
_atom_site_fract_y
_atom_site_fract_z
Si Si1 0.725152 0.395713 0.139424
Si Si2 0.000001 0.599949 0.777552
Si Si3 0.651600 0.890519 0.348399
Si Si4 0.999999 0.224065 0.359163
Si Si5 0.500000 0.897910 0.138679
Si Si6 0.272308 0.796370 0.967351
Si Si7 0.274847 0.395712 0.589736
Si Si8 0.727691 0.203630 0.511968
O O1 0.681646 0.500000 0.138434
O O2 0.680469 0.311716 0.097133
O O3 0.673841 0.380218 0.326156
O O4 0.879752 0.387216 0.986446
O O5 0.000006 0.500000 0.715222
O O6 0.000000 0.665762 0.661669
O O7 0.120247 0.612788 0.745953
O O8 0.500000 0.863201 0.500000
O O9 0.724262 0.847855 0.162456
O O10 0.724260 0.847861 0.389027
O O11 0.670618 0.000000 0.329376
O O12 0.000000 0.199691 0.500000
O O13 0.870036 0.186332 0.425239
O O14 0.129962 0.186330 0.165312
O O15 0.627300 0.841595 0.043235
O O16 0.372703 0.841590 0.297830
O O17 0.499996 0.000000 0.203321
O O18 0.500000 0.914857 0.000000
O O19 0.318350 0.500000 0.501737
O O20 0.319533 0.311716 0.458076
#
# Coordination Sequence:
#
# PCOD8066936 Si02
#       8
#     4   4   4   4   4   4   4   4
#     4   9  16  28  49  82 120 155 189 227 282 351
#     4   8  15  27  48  76 111 155 201 239 275 327
#     4  11  22  39  64  90 115 146 193 253 309 359
#     4  10  22  37  56  85 122 160 197 239 292 347
#     4  11  24  43  66  85 106 151 209 252 292 352
#     4  11  21  38  62  89 122 154 193 244 299 351
#     4   9  16  28  49  82 120 155 189 227 282 351
#     4  11  21  38  62  89 122 154 193 244 299 351
#
# _framework density 19.27722
#
# number of rings (size 3 to 8) (size 9 to 14) (size 15 to 20)
#    0.000    2.000    2.500    1.875    0.000    2.250 
#    0.000    3.750    0.000    9.750    0.000    0.000 
#    0.000    0.000    0.000    0.000    0.000    0.000 
#
# Total GULP energy -396479.573339 kJ/mol
# GULP energy per Si atom -12389.986667 kJ/mol
# Density = 1.923334 g / cm^3
# Si number density = 19.277220 Si / 1000 Ang^3
#
#
#
# Elastic Constant Matrix: (Units=GPa)
#
#
# Indices 1 2 3 4 5 6 
#
# 1 103.8383 50.4829 57.5251 0.0000 -0.2083 0.0000
# 2 50.4829 139.1569 53.3595 0.0000 -6.2841 0.0000
# 3 57.5251 53.3595 105.6847 0.0000 -3.7961 0.0000
# 4 0.0000 0.0000 0.0000 25.0106 0.0000 -3.6476
# 5 -0.2083 -6.2841 -3.7961 0.0000 31.1026 0.0000
# 6 0.0000 0.0000 0.0000 -3.6476 0.0000 23.3544
#
#
#
# Elastic Compliance Matrix: (Units=1/GPa)
#
#
# Indices 1 2 3 4 5 6 
#
# 1 0.014664 -0.002851 -0.006588 0.000000 -0.001282 0.000000
# 2 -0.002851 0.009515 -0.003198 0.000000 0.001513 0.000000
# 3 -0.006588 -0.003198 0.014702 0.000000 0.001104 0.000000
# 4 0.000000 0.000000 0.000000 0.040915 0.000000 0.006390
# 5 -0.001282 0.001513 0.001104 0.000000 0.032583 0.000000
# 6 0.000000 0.000000 0.000000 0.006390 0.000000 0.043817
#
#
# Mechanical properties :
#
#
# Convention : Reuss Voigt Hill
#
# Bulk Modulus (GPa) = 73.49284 74.60166 74.04725
# Shear Modulus (GPa) = 26.88090 28.38103 27.63097
#
# Velocity S-wave (km/s) = 3.73827 3.84116 3.79007
# Velocity P-wave (km/s) = 7.53922 7.64566 7.59263
#
# Compressibility (1/GPa) = 0.01360677
#
# Stress axis : x y z
#
# Youngs Moduli (GPa) = 68.19557 105.09691 68.01724
#
# Poissons Ratio (x) = 0.29967 0.44810
# Poissons Ratio (y) = 0.19445 0.21750
# Poissons Ratio (z) = 0.44927 0.33607
#
# Static dielectric constant tensor:
#      x y z
#    x 3.366400 0.000000 -0.095330 
#    y 0.000000 3.929130 0.000000 
#    z -0.095330 0.000000 3.409770 
# 
# 
# High freq. dielectric constant tensor:
#      x y z
#    x 1.735400 0.000000 -0.005190 
#    y 0.000000 1.764050 0.000000 
#    z -0.005190 0.000000 1.737760 
# 
# From -- ./inp_files/51618.got.cif
#   From: 2010.06.25/outbox.cif.g09.slc.cpg/sg10_26_cif.got.tgz:51618.got - 2010.06.27 22:07:45.
