data_PCOD8066805
_publ_section_title
;
Structure prediction by ZEFSAII (Michael W. Deem and Ramdas Pophale) SiO2 
 PCOD8066805
Probable space group: P 2/M
;
_chemical_formula_sum "Si O2"
_cell_formula_units_Z 32
_cell_length_a 22.547173
_cell_length_b 8.898685
_cell_length_c 15.096304
_cell_angle_alpha 90.000000
_cell_angle_beta 148.625861
_cell_angle_gamma 90.000000
_cell_volume 1576.932179
_symmetry_space_group_name_H-M "P 2/M"
_symmetry_group_IT_number 10
_symmetry_cell_setting 'monoclinic'
loop_
_space_group_symop_operation_xyz
x,y,z
-x,y,-z
-x,-y,-z
x,-y,z
loop_
_atom_site_type_symbol
_atom_site_label
_atom_site_fract_x
_atom_site_fract_y
_atom_site_fract_z
Si Si1 0.828262 0.673383 0.428291
Si Si2 0.564558 0.675609 0.670543
Si Si3 0.089001 0.326373 0.767542
Si Si4 0.262747 0.824180 0.854780
Si Si5 0.871843 0.178430 0.837596
Si Si6 0.798170 0.177774 0.933678
Si Si7 0.249642 0.174657 0.495424
Si Si8 0.501839 0.827484 0.244151
O O1 0.792964 0.500000 0.375221
O O2 0.751705 0.770756 0.264341
O O3 0.806844 0.727926 0.500260
O O4 0.960151 0.695889 0.570555
O O5 0.500000 0.725500 0.500000
O O6 0.591162 0.500000 0.705386
O O7 0.681118 0.766624 0.826718
O O8 0.488655 0.722356 0.657493
O O9 0.119243 0.500000 0.819447
O O10 0.173726 0.260687 0.802945
O O11 0.100993 0.242976 0.877068
O O12 0.238257 0.000000 0.831110
O O13 0.391932 0.784361 0.046158
O O14 0.811071 0.237388 0.849648
O O15 0.801727 0.234642 0.663102
O O16 0.874627 0.000000 0.842574
O O17 0.000000 0.243206 0.000000
O O18 0.804017 0.000000 0.945901
O O19 0.385509 0.200320 0.670325
O O20 0.218842 0.000000 0.470391
O O21 0.496697 0.000000 0.269687
#
# Coordination Sequence:
#
# PCOD8066805 Si02
#       8
#     4   4   4   4   4   4   4   4
#     4  11  25  42  61  88 122 161 202 250 311 373
#     4  11  23  37  56  85 121 161 201 243 298 361
#     4  11  23  40  61  89 126 160 197 250 311 371
#     4  11  23  40  64  92 119 155 205 257 309 364
#     4   9  18  33  56  87 119 154 199 248 297 351
#     4  11  21  35  60  90 119 156 201 249 303 360
#     4  10  21  40  63  87 120 160 204 255 303 356
#     4  10  22  40  62  89 120 157 203 255 307 357
#
# _framework density 20.292565
#
# number of rings (size 3 to 8) (size 9 to 14) (size 15 to 20)
#    0.000    1.500    1.250    3.750    0.000    8.000 
#    0.000    3.750    0.000    3.375    0.000    0.000 
#    0.000    0.000    0.000    0.000    0.000    0.000 
#
# Total GULP energy -396967.886685 kJ/mol
# GULP energy per Si atom -12405.246459 kJ/mol
# Density = 2.024638 g / cm^3
# Si number density = 20.292565 Si / 1000 Ang^3
#
#
#
# Elastic Constant Matrix: (Units=GPa)
#
#
# Indices 1 2 3 4 5 6 
#
# 1 85.5179 20.6849 29.6991 0.0000 -2.1363 0.0000
# 2 20.6849 69.0542 33.9930 0.0000 0.4277 0.0000
# 3 29.6991 33.9930 107.1239 0.0000 -4.7057 0.0000
# 4 0.0000 0.0000 0.0000 27.1522 0.0000 -3.5985
# 5 -2.1363 0.4277 -4.7057 0.0000 38.2752 0.0000
# 6 0.0000 0.0000 0.0000 -3.5985 0.0000 24.0847
#
#
#
# Elastic Compliance Matrix: (Units=1/GPa)
#
#
# Indices 1 2 3 4 5 6 
#
# 1 0.013321 -0.002588 -0.002853 0.000000 0.000422 0.000000
# 2 -0.002588 0.017694 -0.004939 0.000000 -0.000949 0.000000
# 3 -0.002853 -0.004939 0.011752 0.000000 0.001341 0.000000
# 4 0.000000 0.000000 0.000000 0.037573 0.000000 0.005614
# 5 0.000422 -0.000949 0.001341 0.000000 0.026326 0.000000
# 6 0.000000 0.000000 0.000000 0.005614 0.000000 0.042359
#
#
# Mechanical properties :
#
#
# Convention : Reuss Voigt Hill
#
# Bulk Modulus (GPa) = 45.44181 47.82778 46.63479
# Shear Modulus (GPa) = 28.22934 29.72369 28.97652
#
# Velocity S-wave (km/s) = 3.73381 3.83137 3.78291
# Velocity P-wave (km/s) = 6.40550 6.57212 6.48935
#
# Compressibility (1/GPa) = 0.02200617
#
# Stress axis : x y z
#
# Youngs Moduli (GPa) = 75.06981 56.51706 85.09103
#
# Poissons Ratio (x) = 0.14628 0.24279
# Poissons Ratio (y) = 0.19430 0.42025
# Poissons Ratio (z) = 0.21419 0.27913
#
# Static dielectric constant tensor:
#      x y z
#    x 3.670420 0.000000 -0.049760 
#    y 0.000000 3.557200 0.000000 
#    z -0.049760 0.000000 3.900310 
# 
# 
# High freq. dielectric constant tensor:
#      x y z
#    x 1.796130 0.000000 -0.002700 
#    y 0.000000 1.781760 0.000000 
#    z -0.002700 0.000000 1.805160 
# 
# From -- ./inp_files/71709.got.cif
#   From: 2010.06.25/outbox.cif.g09.slc.cpg/sg10_36_cif.got.tgz:71709.got - 2010.06.27 22:07:45.
