data_PCOD8066659
_publ_section_title
;
Structure prediction by ZEFSAII (Michael W. Deem and Ramdas Pophale) SiO2 
 PCOD8066659
Probable space group: P 2/M
;
_chemical_formula_sum "Si O2"
_cell_formula_units_Z 28
_cell_length_a 20.048074
_cell_length_b 8.919937
_cell_length_c 15.877809
_cell_angle_alpha 90.000000
_cell_angle_beta 149.953500
_cell_angle_gamma 90.000000
_cell_volume 1421.690087
_symmetry_space_group_name_H-M "P 2/M"
_symmetry_group_IT_number 10
_symmetry_cell_setting 'monoclinic'
loop_
_space_group_symop_operation_xyz
x,y,z
-x,y,-z
-x,-y,-z
x,-y,z
loop_
_atom_site_type_symbol
_atom_site_label
_atom_site_fract_x
_atom_site_fract_y
_atom_site_fract_z
Si Si1 0.059908 0.672424 0.810236
Si Si2 0.568915 0.322218 0.350724
Si Si3 0.883730 0.672293 0.935327
Si Si4 0.647363 0.823363 0.139941
Si Si5 0.308426 0.823734 0.002262
Si Si6 0.227865 0.323641 0.569510
Si Si7 0.630152 0.824203 0.590391
O O1 0.089438 0.500000 0.818411
O O2 0.165523 0.779101 0.881100
O O3 0.915731 0.724925 0.621339
O O4 0.061903 0.695644 0.911905
O O5 0.562525 0.500000 0.348068
O O6 0.659408 0.265730 0.371983
O O7 0.635207 0.263029 0.508189
O O8 0.420765 0.258251 0.179676
O O9 0.843380 0.500000 0.873967
O O10 0.756527 0.777293 0.783857
O O11 0.000000 0.724535 0.000000
O O12 0.684035 0.771881 0.086229
O O13 0.752514 0.750286 0.318188
O O14 0.656015 0.000000 0.160518
O O15 0.500000 0.763457 0.000000
O O16 0.331071 0.000000 0.036331
O O17 0.238255 0.500000 0.591157
O O18 0.500000 0.776952 0.500000
O O19 0.632998 0.000000 0.575221
#
# Coordination Sequence:
#
# PCOD8066659 Si02
#       7
#     4   4   4   4   4   4   4
#     4  10  22  40  60  87 121 156 194 241 297 350
#     4  11  22  38  62  89 115 151 198 244 295 349
#     4  10  21  40  64  86 116 157 200 245 293 349
#     4  10  21  39  61  86 119 157 196 238 292 350
#     4  11  23  39  60  87 121 158 196 242 293 350
#     4  10  22  39  62  90 118 150 196 246 289 344
#     4  11  24  39  57  86 121 154 195 244 293 349
#
# _framework density 19.694869000000001
#
# number of rings (size 3 to 8) (size 9 to 14) (size 15 to 20)
#    0.000    1.571    1.429    3.000    0.000    9.714 
#    0.000    4.286    0.000    0.000    0.000    0.000 
#    0.000    0.000    0.000    0.000    0.000    0.000 
#
# Total GULP energy -347407.105557 kJ/mol
# GULP energy per Si atom -12407.396627 kJ/mol
# Density = 1.965004 g / cm^3
# Si number density = 19.694869 Si / 1000 Ang^3
#
#
#
# Elastic Constant Matrix: (Units=GPa)
#
#
# Indices 1 2 3 4 5 6 
#
# 1 93.9912 24.4148 33.4860 0.0000 7.0343 0.0000
# 2 24.4148 46.1994 30.1867 0.0000 2.8806 0.0000
# 3 33.4860 30.1867 132.1829 0.0000 1.0998 0.0000
# 4 0.0000 0.0000 0.0000 -10.5628 0.0000 -8.0829
# 5 7.0343 2.8806 1.0998 0.0000 35.7405 0.0000
# 6 0.0000 0.0000 0.0000 -8.0829 0.0000 31.4396
#
#
#
# Elastic Compliance Matrix: (Units=1/GPa)
#
#
# Indices 1 2 3 4 5 6 
#
# 1 0.012909 -0.005370 -0.002027 0.000000 -0.002046 0.000000
# 2 -0.005370 0.027801 -0.004980 0.000000 -0.001031 0.000000
# 3 -0.002027 -0.004980 0.009212 0.000000 0.000517 0.000000
# 4 0.000000 0.000000 0.000000 -0.079109 0.000000 -0.020338
# 5 -0.002046 -0.001031 0.000517 0.000000 0.028449 0.000000
# 6 0.000000 0.000000 0.000000 -0.020338 0.000000 0.026578
#
#
# Mechanical properties :
#
#
# Convention : Reuss Voigt Hill
#
# Bulk Modulus (GPa) = 39.73254 49.83872 44.78563
# Shear Modulus (GPa) = 84.76685 23.60921 54.18803
#
# Velocity S-wave (km/s) = 6.56761 3.46605 5.25105
# Velocity P-wave (km/s) = 8.81642 6.43260 7.71711
#
# Compressibility (1/GPa) = 0.02516829
#
# Stress axis : x y z
#
# Youngs Moduli (GPa) = 77.46250 35.96930 108.55704
#
# Poissons Ratio (x) = 0.19316 0.22004
# Poissons Ratio (y) = 0.41599 0.54061
# Poissons Ratio (z) = 0.15701 0.17913
#
# Static dielectric constant tensor:
#      x y z
#    x 3.695970 0.000000 -0.026540 
#    y 0.000000 3.471430 0.000000 
#    z -0.026540 0.000000 3.616730 
# 
# 
# High freq. dielectric constant tensor:
#      x y z
#    x 1.777040 0.000000 -0.004110 
#    y 0.000000 1.762620 0.000000 
#    z -0.004110 0.000000 1.779610 
# 
# From -- ./inp_files/70265.got.cif
#   From: 2010.06.25/outbox.cif.g09.slc.cpg/sg10_36_cif.got.tgz:70265.got - 2010.06.27 22:07:45.
