data_PCOD8066589
_publ_section_title
;
Structure prediction by ZEFSAII (Michael W. Deem and Ramdas Pophale) SiO2 
 PCOD8066589
Probable space group: P 2/M
;
_chemical_formula_sum "Si O2"
_cell_formula_units_Z 20
_cell_length_a 18.163360
_cell_length_b 11.278800
_cell_length_c 5.073376
_cell_angle_alpha 90.000000
_cell_angle_beta 106.265595
_cell_angle_gamma 90.000000
_cell_volume 997.735559
_symmetry_space_group_name_H-M "P 2/M"
_symmetry_group_IT_number 10
_symmetry_cell_setting 'monoclinic'
loop_
_space_group_symop_operation_xyz
x,y,z
-x,y,-z
-x,-y,-z
x,-y,z
loop_
_atom_site_type_symbol
_atom_site_label
_atom_site_fract_x
_atom_site_fract_y
_atom_site_fract_z
Si Si1 0.273465 0.500000 0.524346
Si Si2 0.449935 0.751072 0.194449
Si Si3 0.212336 0.754416 0.412594
Si Si4 0.623804 0.500000 0.872595
Si Si5 0.287953 0.138828 0.987776
Si Si6 0.949681 0.136381 0.705836
O O1 0.220207 0.613281 0.426294
O O2 0.344279 0.500000 0.392311
O O3 0.306044 0.500000 0.852826
O O4 0.500000 0.771696 0.500000
O O5 0.428540 0.614031 0.135421
O O6 0.375186 0.832205 0.146308
O O7 0.500000 0.795017 0.000000
O O8 0.231575 0.800121 0.140263
O O9 0.125541 0.784608 0.398071
O O10 0.270339 0.813057 0.678968
O O11 0.272855 0.000000 0.981233
O O12 0.000000 0.154247 0.500000
O O13 0.924458 0.000000 0.719229
O O14 0.000000 0.181380 0.000000
#
# Coordination Sequence:
#
# PCOD8066589 Si02
#       6
#     2   4   4   2   4   4
#     4  12  22  41  68  91 124 162 206 266 306 361
#     4  12  24  40  62  91 122 162 209 265 317 367
#     4  12  23  43  66  95 126 164 212 256 306 369
#     4  12  22  43  62  91 122 162 214 262 308 369
#     4  12  25  42  65  91 125 168 212 256 313 376
#     4  10  21  38  62  93 127 162 201 249 302 360
#
# _framework density 20.045394000000002
#
# number of rings (size 3 to 8) (size 9 to 14) (size 15 to 20)
#    0.000    0.400    4.000    6.000    0.000    2.400 
#    0.000    1.000    0.000    0.000    0.000    0.000 
#    0.000    0.000    0.000    0.000    0.000    0.000 
#
# Total GULP energy -248187.160025 kJ/mol
# GULP energy per Si atom -12409.358001 kJ/mol
# Density = 1.999977 g / cm^3
# Si number density = 20.045394 Si / 1000 Ang^3
#
#
#
# Elastic Constant Matrix: (Units=GPa)
#
#
# Indices 1 2 3 4 5 6 
#
# 1 96.7894 38.7348 15.4899 0.0000 0.6729 0.0000
# 2 38.7348 114.3469 35.6587 0.0000 14.1906 0.0000
# 3 15.4899 35.6587 95.9477 0.0000 -9.3486 0.0000
# 4 0.0000 0.0000 0.0000 25.9233 0.0000 7.3491
# 5 0.6729 14.1906 -9.3486 0.0000 24.3895 0.0000
# 6 0.0000 0.0000 0.0000 7.3491 0.0000 14.4796
#
#
#
# Elastic Compliance Matrix: (Units=1/GPa)
#
#
# Indices 1 2 3 4 5 6 
#
# 1 0.012062 -0.004305 -0.000141 0.000000 0.002118 0.000000
# 2 -0.004305 0.012925 -0.005017 0.000000 -0.009325 0.000000
# 3 -0.000141 -0.005017 0.013083 0.000000 0.007938 0.000000
# 4 0.000000 0.000000 0.000000 0.045059 0.000000 -0.022869
# 5 0.002118 -0.009325 0.007938 0.000000 0.049411 0.000000
# 6 0.000000 0.000000 0.000000 -0.022869 0.000000 0.080670
#
#
# Mechanical properties :
#
#
# Convention : Reuss Voigt Hill
#
# Bulk Modulus (GPa) = 52.23449 54.09453 53.16451
# Shear Modulus (GPa) = 20.96269 27.43852 24.20061
#
# Velocity S-wave (km/s) = 3.23733 3.70377 3.47838
# Velocity P-wave (km/s) = 6.33154 6.73314 6.53543
#
# Compressibility (1/GPa) = 0.01914444
#
# Stress axis : x y z
#
# Youngs Moduli (GPa) = 82.90225 77.36668 76.43386
#
# Poissons Ratio (x) = 0.33306 0.01078
# Poissons Ratio (y) = 0.35689 0.38349
# Poissons Ratio (z) = 0.01170 0.38817
#
# Static dielectric constant tensor:
#      x y z
#    x 3.540700 0.000000 -0.043460 
#    y 0.000000 3.736290 0.000000 
#    z -0.043460 0.000000 3.853740 
# 
# 
# High freq. dielectric constant tensor:
#      x y z
#    x 1.784820 0.000000 -0.005860 
#    y 0.000000 1.778240 0.000000 
#    z -0.005860 0.000000 1.803910 
# 
# From -- ./inp_files/8992.got.cif
#   From: 2010.06.25/outbox.cif.g09.slc.cpg/sg10_5_cif.got.tgz:8992.got - 2010.06.27 22:07:45.
