data_PCOD8066087
_publ_section_title
;
Structure prediction by ZEFSAII (Michael W. Deem and Ramdas Pophale) SiO2 
 PCOD8066087
Probable space group: P 2/M
;
_chemical_formula_sum "Si O2"
_cell_formula_units_Z 32
_cell_length_a 27.719494
_cell_length_b 8.996213
_cell_length_c 10.744949
_cell_angle_alpha 90.000000
_cell_angle_beta 35.460922
_cell_angle_gamma 90.000000
_cell_volume 1554.489731
_symmetry_space_group_name_H-M "P 2/M"
_symmetry_group_IT_number 10
_symmetry_cell_setting 'monoclinic'
loop_
_space_group_symop_operation_xyz
x,y,z
-x,y,-z
-x,-y,-z
x,-y,z
loop_
_atom_site_type_symbol
_atom_site_label
_atom_site_fract_x
_atom_site_fract_y
_atom_site_fract_z
Si Si1 0.549573 0.672034 0.768341
Si Si2 0.135066 0.330049 0.767367
Si Si3 0.266029 0.328270 0.120469
Si Si4 0.546305 0.324029 0.279836
Si Si5 0.723035 0.824643 0.393045
Si Si6 0.974468 0.667081 0.758442
Si Si7 0.878546 0.174633 0.449275
Si Si8 0.808721 0.670587 0.991337
O O1 0.576053 0.500000 0.697176
O O2 0.497160 0.724368 0.757623
O O3 0.628739 0.776571 0.609885
O O4 0.500000 0.695842 0.000000
O O5 0.151221 0.500000 0.695527
O O6 0.222811 0.254076 0.614521
O O7 0.092868 0.244948 0.741244
O O8 0.072903 0.316945 0.012096
O O9 0.265880 0.500000 0.161982
O O10 0.213925 0.233371 0.328300
O O11 0.221815 0.305421 0.082357
O O12 0.359305 0.263678 0.919681
O O13 0.500000 0.258129 0.500000
O O14 0.548415 0.500000 0.287482
O O15 0.731580 0.000000 0.389807
O O16 0.753779 0.776918 0.192278
O O17 0.008078 0.500000 0.667742
O O18 0.907403 0.710047 0.792375
O O19 0.054141 0.774901 0.588087
O O20 0.877214 0.000000 0.443590
O O21 0.796249 0.500000 0.063475
#
# Coordination Sequence:
#
# PCOD8066087 Si02
#       8
#     4   4   4   4   4   4   4   4
#     4  10  21  36  57  86 117 154 202 251 299 357
#     4  10  21  39  63  85 112 153 202 247 288 346
#     4  10  21  38  62  87 114 153 199 248 295 347
#     4   9  18  35  61  89 114 147 199 255 301 349
#     4  11  22  36  58  88 120 153 187 235 304 365
#     4   9  19  37  60  85 111 148 197 248 295 346
#     4  12  25  37  53  84 124 159 191 238 299 359
#     4   9  19  38  63  87 111 148 202 250 287 341
#
# _framework density 20.585535
#
# number of rings (size 3 to 8) (size 9 to 14) (size 15 to 20)
#    0.000    2.000    0.000    4.500    1.750    7.250 
#    0.000    3.125    0.000    1.500    0.000    0.000 
#    0.000    0.000    0.000    0.000    0.000    0.000 
#
# Total GULP energy -396849.592403 kJ/mol
# GULP energy per Si atom -12401.549763 kJ/mol
# Density = 2.053868 g / cm^3
# Si number density = 20.585535 Si / 1000 Ang^3
#
#
#
# Elastic Constant Matrix: (Units=GPa)
#
#
# Indices 1 2 3 4 5 6 
#
# 1 97.8945 26.5290 29.3206 0.0000 -9.9553 0.0000
# 2 26.5290 107.0797 31.8920 0.0000 -8.8608 0.0000
# 3 29.3206 31.8920 66.4355 0.0000 -20.8938 0.0000
# 4 0.0000 0.0000 0.0000 17.2873 0.0000 -0.3346
# 5 -9.9553 -8.8608 -20.8938 0.0000 32.8685 0.0000
# 6 0.0000 0.0000 0.0000 -0.3346 0.0000 10.6227
#
#
#
# Elastic Compliance Matrix: (Units=1/GPa)
#
#
# Indices 1 2 3 4 5 6 
#
# 1 0.012014 -0.001636 -0.004389 0.000000 0.000408 0.000000
# 2 -0.001636 0.011126 -0.004789 0.000000 -0.000540 0.000000
# 3 -0.004389 -0.004789 0.023078 0.000000 0.012050 0.000000
# 4 0.000000 0.000000 0.000000 0.057881 0.000000 0.001823
# 5 0.000408 -0.000540 0.012050 0.000000 0.038062 0.000000
# 6 0.000000 0.000000 0.000000 0.001823 0.000000 0.094195
#
#
# Mechanical properties :
#
#
# Convention : Reuss Voigt Hill
#
# Bulk Modulus (GPa) = 40.66548 49.65478 45.16013
# Shear Modulus (GPa) = 18.78429 24.40024 21.59227
#
# Velocity S-wave (km/s) = 3.02404 3.44657 3.24219
# Velocity P-wave (km/s) = 5.65600 6.32550 6.00010
#
# Compressibility (1/GPa) = 0.02459088
#
# Stress axis : x y z
#
# Youngs Moduli (GPa) = 83.23379 89.88245 43.33193
#
# Poissons Ratio (x) = 0.14701 0.19018
# Poissons Ratio (y) = 0.13614 0.20751
# Poissons Ratio (z) = 0.36531 0.43044
#
# Static dielectric constant tensor:
#      x y z
#    x 4.079660 0.000000 -0.134860 
#    y 0.000000 3.445210 0.000000 
#    z -0.134860 0.000000 3.736530 
# 
# 
# High freq. dielectric constant tensor:
#      x y z
#    x 1.819270 0.000000 -0.007010 
#    y 0.000000 1.773860 0.000000 
#    z -0.007010 0.000000 1.807710 
# 
# From -- ./inp_files/57972.got.cif
#   From: 2010.06.25/outbox.cif.g09.slc.cpg/sg10_29_cif.got.tgz:57972.got - 2010.06.27 22:07:45.
