data_PCOD8066460
_publ_section_title
;
Structure prediction by ZEFSAII (Michael W. Deem and Ramdas Pophale) SiO2 
 PCOD8066460
Probable space group: P 2/M
;
_chemical_formula_sum "Si O2"
_cell_formula_units_Z 28
_cell_length_a 26.046255
_cell_length_b 9.004618
_cell_length_c 9.910221
_cell_angle_alpha 90.000000
_cell_angle_beta 38.129570
_cell_angle_gamma 90.000000
_cell_volume 1435.126013
_symmetry_space_group_name_H-M "P 2/M"
_symmetry_group_IT_number 10
_symmetry_cell_setting 'monoclinic'
loop_
_space_group_symop_operation_xyz
x,y,z
-x,y,-z
-x,-y,-z
x,-y,z
loop_
_atom_site_type_symbol
_atom_site_label
_atom_site_fract_x
_atom_site_fract_y
_atom_site_fract_z
Si Si1 0.269330 0.174777 0.972425
Si Si2 0.570539 0.327968 0.244785
Si Si3 0.748306 0.827242 0.516897
Si Si4 0.983320 0.324596 0.685266
Si Si5 0.200789 0.675456 0.860091
Si Si6 0.138575 0.826991 0.466403
Si Si7 0.561809 0.172366 0.991481
O O1 0.349933 0.231552 0.882435
O O2 0.261743 0.252258 0.843648
O O3 0.277925 0.000000 0.934330
O O4 0.189615 0.216669 0.227177
O O5 0.500000 0.299937 0.500000
O O6 0.595533 0.500000 0.184222
O O7 0.536428 0.271577 0.171817
O O8 0.770154 0.726142 0.345670
O O9 0.809792 0.779099 0.509318
O O10 0.655237 0.791198 0.754346
O O11 0.758455 0.000000 0.458200
O O12 0.990983 0.500000 0.674255
O O13 0.051292 0.258483 0.646830
O O14 0.000000 0.264121 0.500000
O O15 0.893287 0.269922 0.920249
O O16 0.208502 0.500000 0.857258
O O17 0.119304 0.000000 0.509466
O O18 0.551727 0.000000 0.051057
O O19 0.500000 0.217992 0.000000
#
# Coordination Sequence:
#
# PCOD8066460 Si02
#       7
#     4   4   4   4   4   4   4
#     4  11  22  40  65  91 120 160 206 252 300 357
#     4  11  25  42  62  94 129 160 200 251 303 360
#     4  10  22  42  61  88 124 160 205 250 301 363
#     4  10  21  38  59  86 123 161 201 248 302 362
#     4  11  24  40  60  91 125 161 203 250 305 364
#     4  10  21  38  63  89 118 156 204 254 300 356
#     4  10  22  42  66  91 122 163 207 249 298 361
#
# _framework density 19.510480999999999
#
# number of rings (size 3 to 8) (size 9 to 14) (size 15 to 20)
#    0.000    1.571    2.857    1.286    2.000    5.143 
#    0.000    2.857    0.000    0.000    0.000    0.000 
#    0.000    0.000    0.000    0.000    0.000    0.000 
#
# Total GULP energy -347374.843352 kJ/mol
# GULP energy per Si atom -12406.244405 kJ/mol
# Density = 1.946607 g / cm^3
# Si number density = 19.510481 Si / 1000 Ang^3
#
#
#
# Elastic Constant Matrix: (Units=GPa)
#
#
# Indices 1 2 3 4 5 6 
#
# 1 135.4978 39.3661 42.9202 0.0000 7.3728 0.0000
# 2 39.3661 65.2143 44.0508 0.0000 8.5800 0.0000
# 3 42.9202 44.0508 84.4618 0.0000 17.3199 0.0000
# 4 0.0000 0.0000 0.0000 29.7416 0.0000 0.5757
# 5 7.3728 8.5800 17.3199 0.0000 31.6700 0.0000
# 6 0.0000 0.0000 0.0000 0.5757 0.0000 28.7544
#
#
#
# Elastic Compliance Matrix: (Units=1/GPa)
#
#
# Indices 1 2 3 4 5 6 
#
# 1 0.009363 -0.003760 -0.002882 0.000000 0.000415 0.000000
# 2 -0.003760 0.025188 -0.011270 0.000000 0.000215 0.000000
# 3 -0.002882 -0.011270 0.020745 0.000000 -0.007621 0.000000
# 4 0.000000 0.000000 0.000000 0.033636 0.000000 -0.000673
# 5 0.000415 0.000215 -0.007621 0.000000 0.035589 0.000000
# 6 0.000000 0.000000 0.000000 -0.000673 0.000000 0.034791
#
#
# Mechanical properties :
#
#
# Convention : Reuss Voigt Hill
#
# Bulk Modulus (GPa) = 51.35639 59.76089 55.55864
# Shear Modulus (GPa) = 24.79837 28.62231 26.71034
#
# Velocity S-wave (km/s) = 3.56902 3.83433 3.70405
# Velocity P-wave (km/s) = 6.58509 7.09221 6.84335
#
# Compressibility (1/GPa) = 0.01947177
#
# Stress axis : x y z
#
# Youngs Moduli (GPa) = 106.80535 39.70124 48.20432
#
# Poissons Ratio (x) = 0.14926 0.13893
# Poissons Ratio (y) = 0.40155 0.54328
# Poissons Ratio (z) = 0.30783 0.44745
#
# Static dielectric constant tensor:
#      x y z
#    x 3.668180 0.000000 -0.004050 
#    y 0.000000 3.470670 0.000000 
#    z -0.004050 0.000000 3.768020 
# 
# 
# High freq. dielectric constant tensor:
#      x y z
#    x 1.774900 0.000000 -0.000730 
#    y 0.000000 1.757620 0.000000 
#    z -0.000730 0.000000 1.760930 
# 
# From -- ./inp_files/37003.got.cif
#   From: 2010.06.25/outbox.cif.g09.slc.cpg/sg10_19_cif.got.tgz:37003.got - 2010.06.27 22:07:45.
