data_PCOD8066493
_publ_section_title
;
Structure prediction by ZEFSAII (Michael W. Deem and Ramdas Pophale) SiO2 
 PCOD8066493
Probable space group: P 2/M
;
_chemical_formula_sum "Si O2"
_cell_formula_units_Z 20
_cell_length_a 8.989699
_cell_length_b 12.928417
_cell_length_c 11.802566
_cell_angle_alpha 90.000000
_cell_angle_beta 133.965711
_cell_angle_gamma 90.000000
_cell_volume 987.306209
_symmetry_space_group_name_H-M "P 2/M"
_symmetry_group_IT_number 10
_symmetry_cell_setting 'monoclinic'
loop_
_space_group_symop_operation_xyz
x,y,z
-x,y,-z
-x,-y,-z
x,-y,z
loop_
_atom_site_type_symbol
_atom_site_label
_atom_site_fract_x
_atom_site_fract_y
_atom_site_fract_z
Si Si1 0.599863 0.196119 0.434562
Si Si2 0.093869 0.381522 0.430186
Si Si3 0.102649 0.000000 0.923010
Si Si4 0.775225 0.797217 0.932721
Si Si5 0.877309 0.000000 0.555064
Si Si6 0.716157 0.617391 0.062700
O O1 0.500000 0.168982 0.500000
O O2 0.718040 0.306032 0.501310
O O3 0.407767 0.198023 0.251122
O O4 0.748818 0.104523 0.476930
O O5 0.176599 0.500000 0.473346
O O6 0.000000 0.349671 0.500000
O O7 0.904697 0.366721 0.246325
O O8 0.976656 0.000000 0.736087
O O9 0.000000 0.000000 0.000000
O O10 0.241428 0.104279 0.990599
O O11 0.760100 0.685890 0.978941
O O12 0.000000 0.802940 0.000000
O O13 0.000000 0.000000 0.500000
O O14 0.696092 0.500000 0.010333
O O15 0.500000 0.655203 0.000000
#
# Coordination Sequence:
#
# PCOD8066493 Si02
#       6
#     4   4   2   4   2   4
#     4  12  24  41  65  92 126 167 212 262 322 383
#     4  10  21  39  62  90 125 164 209 262 319 379
#     4  10  21  42  66  89 124 163 204 254 313 374
#     4  11  23  40  62  89 121 161 207 255 309 373
#     4  12  26  44  67  97 131 167 213 266 324 386
#     4  10  21  38  60  87 121 161 203 251 309 370
#
# _framework density 20.25714
#
# number of rings (size 3 to 8) (size 9 to 14) (size 15 to 20)
#    0.000    1.200    0.000    7.500    0.000    4.800 
#    0.000    1.500    0.000    0.000    0.000    0.000 
#    0.000    0.000    0.000    0.000    0.000    0.000 
#
# Total GULP energy -247771.548867 kJ/mol
# GULP energy per Si atom -12388.577443 kJ/mol
# Density = 2.021103 g / cm^3
# Si number density = 20.257140 Si / 1000 Ang^3
#
#
#
# Elastic Constant Matrix: (Units=GPa)
#
#
# Indices 1 2 3 4 5 6 
#
# 1 90.6365 56.5072 15.9405 0.0000 -0.6059 0.0000
# 2 56.5072 127.0255 41.1965 0.0000 7.1800 0.0000
# 3 15.9405 41.1965 72.4313 0.0000 -1.0452 0.0000
# 4 0.0000 0.0000 0.0000 36.5827 0.0000 -5.2352
# 5 -0.6059 7.1800 -1.0452 0.0000 40.8775 0.0000
# 6 0.0000 0.0000 0.0000 -5.2352 0.0000 68.1403
#
#
#
# Elastic Compliance Matrix: (Units=1/GPa)
#
#
# Indices 1 2 3 4 5 6 
#
# 1 0.015380 -0.007156 0.000707 0.000000 0.001503 0.000000
# 2 -0.007156 0.013122 -0.005926 0.000000 -0.002562 0.000000
# 3 0.000707 -0.005926 0.017042 0.000000 0.001487 0.000000
# 4 0.000000 0.000000 0.000000 0.027639 0.000000 0.002123
# 5 0.001503 -0.002562 0.001487 0.000000 0.024974 0.000000
# 6 0.000000 0.000000 0.000000 0.002123 0.000000 0.014839
#
#
# Mechanical properties :
#
#
# Convention : Reuss Voigt Hill
#
# Bulk Modulus (GPa) = 48.08741 57.48685 52.78713
# Shear Modulus (GPa) = 34.55943 40.88337 37.72140
#
# Velocity S-wave (km/s) = 4.13490 4.49733 4.31992
# Velocity P-wave (km/s) = 6.82544 7.44367 7.14125
#
# Compressibility (1/GPa) = 0.02079547
#
# Stress axis : x y z
#
# Youngs Moduli (GPa) = 65.01838 76.20504 58.67719
#
# Poissons Ratio (x) = 0.54533 -0.04148
# Poissons Ratio (y) = 0.46528 0.34770
# Poissons Ratio (z) = -0.04597 0.45157
#
# Static dielectric constant tensor:
#      x y z
#    x 4.359920 0.000000 0.177540 
#    y 0.000000 4.250690 0.000000 
#    z 0.177540 0.000000 3.947500 
# 
# 
# High freq. dielectric constant tensor:
#      x y z
#    x 1.777660 0.000000 0.001610 
#    y 0.000000 1.819500 0.000000 
#    z 0.001610 0.000000 1.811690 
# 
# From -- ./inp_files/42172.got.cif
#   From: 2010.06.25/outbox.cif.g09.slc.cpg/sg10_22_cif.got.tgz:42172.got - 2010.06.27 22:07:45.
