data_PCOD8066339
_publ_section_title
;
Structure prediction by ZEFSAII (Michael W. Deem and Ramdas Pophale) SiO2 
 PCOD8066339
Probable space group: P 2/M
;
_chemical_formula_sum "Si O2"
_cell_formula_units_Z 32
_cell_length_a 8.466242
_cell_length_b 22.097755
_cell_length_c 14.836406
_cell_angle_alpha 90.000000
_cell_angle_beta 32.543873
_cell_angle_gamma 90.000000
_cell_volume 1493.157522
_symmetry_space_group_name_H-M "P 2/M"
_symmetry_group_IT_number 10
_symmetry_cell_setting 'monoclinic'
loop_
_space_group_symop_operation_xyz
x,y,z
-x,y,-z
-x,-y,-z
x,-y,z
loop_
_atom_site_type_symbol
_atom_site_label
_atom_site_fract_x
_atom_site_fract_y
_atom_site_fract_z
Si Si1 0.577885 0.667360 0.360983
Si Si2 0.293278 0.659896 0.186923
Si Si3 0.160585 0.840215 0.018396
Si Si4 0.835173 0.295812 0.988363
Si Si5 0.373093 0.933617 0.160124
Si Si6 0.132206 0.569474 0.535114
Si Si7 0.869673 0.759047 0.465008
Si Si8 0.823496 0.873083 0.360460
O O1 0.500000 0.680239 0.500000
O O2 0.932680 0.670144 0.189378
O O3 0.446719 0.602533 0.392166
O O4 0.432334 0.721557 0.371608
O O5 0.107296 0.598051 0.280503
O O6 0.082411 0.716297 0.304695
O O7 0.500000 0.668875 0.000000
O O8 0.547616 0.662398 0.141265
O O9 0.256989 0.771902 0.997799
O O10 0.953485 0.861651 0.198878
O O11 0.452807 0.881791 0.868689
O O12 0.000000 0.844909 0.000000
O O13 0.000000 0.289763 0.000000
O O14 0.027055 0.918986 0.319079
O O15 0.410107 0.000000 0.188198
O O16 0.500000 0.935197 0.000000
O O17 0.178326 0.500000 0.538885
O O18 0.000000 0.578571 0.500000
O O19 0.793253 0.814575 0.438048
O O20 0.000000 0.777993 0.500000
O O21 0.500000 0.900890 0.500000
#
# Coordination Sequence:
#
# PCOD8066339 Si02
#       8
#     4   4   4   4   4   4   4   4
#     4  11  21  36  57  83 115 147 184 234 294 359
#     4  11  21  35  57  84 113 146 189 242 293 345
#     4  10  21  37  60  88 120 158 197 243 304 371
#     4  11  20  32  53  84 114 137 176 233 289 340
#     4   9  20  39  59  81 116 162 206 247 298 362
#     4  10  22  41  59  76 108 158 205 238 287 363
#     4  11  22  38  59  84 121 162 193 230 298 376
#     4  11  22  36  58  88 119 152 200 254 300 351
#
# _framework density 21.431094999999999
#
# number of rings (size 3 to 8) (size 9 to 14) (size 15 to 20)
#    0.000    1.500    0.000    7.875    0.000    5.000 
#    0.000    0.625    0.000    4.875    0.000    0.000 
#    0.000    0.000    0.000    0.000    0.000    0.000 
#
# Total GULP energy -396564.196432 kJ/mol
# GULP energy per Si atom -12392.631139 kJ/mol
# Density = 2.138232 g / cm^3
# Si number density = 21.431095 Si / 1000 Ang^3
#
#
#
# Elastic Constant Matrix: (Units=GPa)
#
#
# Indices 1 2 3 4 5 6 
#
# 1 76.3534 35.1203 7.1238 0.0000 -10.6837 0.0000
# 2 35.1203 127.2657 30.3862 0.0000 -20.3429 0.0000
# 3 7.1238 30.3862 36.5789 0.0000 -1.1870 0.0000
# 4 0.0000 0.0000 0.0000 9.8213 0.0000 -3.6246
# 5 -10.6837 -20.3429 -1.1870 0.0000 41.8453 0.0000
# 6 0.0000 0.0000 0.0000 -3.6246 0.0000 30.3291
#
#
#
# Elastic Compliance Matrix: (Units=1/GPa)
#
#
# Indices 1 2 3 4 5 6 
#
# 1 0.015157 -0.003968 0.000408 0.000000 0.001952 0.000000
# 2 -0.003968 0.011784 -0.008872 0.000000 0.004464 0.000000
# 3 0.000408 -0.008872 0.034524 0.000000 -0.003230 0.000000
# 4 0.000000 0.000000 0.000000 0.106517 0.000000 0.012730
# 5 0.001952 0.004464 -0.003230 0.000000 0.026475 0.000000
# 6 0.000000 0.000000 0.000000 0.012730 0.000000 0.034493
#
#
# Mechanical properties :
#
#
# Convention : Reuss Voigt Hill
#
# Bulk Modulus (GPa) = 27.32143 42.82875 35.07509
# Shear Modulus (GPa) = 18.79594 27.57032 23.18313
#
# Velocity S-wave (km/s) = 2.96470 3.59062 3.29257
# Velocity P-wave (km/s) = 4.94929 6.10064 5.55488
#
# Compressibility (1/GPa) = 0.03660131
#
# Stress axis : x y z
#
# Youngs Moduli (GPa) = 65.97465 84.85783 28.96565
#
# Poissons Ratio (x) = 0.33672 -0.01181
# Poissons Ratio (y) = 0.26179 0.25697
# Poissons Ratio (z) = -0.02690 0.75283
#
# Static dielectric constant tensor:
#      x y z
#    x 4.289360 0.000000 -0.284740 
#    y 0.000000 3.969100 0.000000 
#    z -0.284740 0.000000 3.834170 
# 
# 
# High freq. dielectric constant tensor:
#      x y z
#    x 1.859920 0.000000 -0.011790 
#    y 0.000000 1.813900 0.000000 
#    z -0.011790 0.000000 1.843500 
# 
# From -- ./inp_files/62685.got.cif
#   From: 2010.06.25/outbox.cif.g09.slc.cpg/sg10_32_cif.got.tgz:62685.got - 2010.06.27 22:07:45.
