data_PCOD8066055
_publ_section_title
;
Structure prediction by ZEFSAII (Michael W. Deem and Ramdas Pophale) SiO2 
 PCOD8066055
Probable space group: P 2/M
;
_chemical_formula_sum "Si O2"
_cell_formula_units_Z 28
_cell_length_a 9.531083
_cell_length_b 17.423569
_cell_length_c 15.024370
_cell_angle_alpha 90.000000
_cell_angle_beta 35.887821
_cell_angle_gamma 90.000000
_cell_volume 1462.586541
_symmetry_space_group_name_H-M "P 2/M"
_symmetry_group_IT_number 10
_symmetry_cell_setting 'monoclinic'
loop_
_space_group_symop_operation_xyz
x,y,z
-x,y,-z
-x,-y,-z
x,-y,z
loop_
_atom_site_type_symbol
_atom_site_label
_atom_site_fract_x
_atom_site_fract_y
_atom_site_fract_z
Si Si1 0.268402 0.084021 0.562563
Si Si2 0.092437 0.693051 0.354481
Si Si3 0.215447 0.249722 0.636960
Si Si4 0.890285 0.706812 0.958756
Si Si5 0.261063 0.087338 0.367900
Si Si6 0.509807 0.184476 0.893194
Si Si7 0.499153 0.589136 0.104298
O O1 0.500000 0.071606 0.500000
O O2 0.125402 0.159890 0.670531
O O3 0.363473 0.101075 0.413829
O O4 0.126998 0.000000 0.637549
O O5 0.283829 0.752984 0.219430
O O6 0.237480 0.612445 0.277888
O O7 0.000000 0.710809 0.500000
O O8 0.864090 0.698333 0.406467
O O9 0.500000 0.250233 0.500000
O O10 0.110759 0.291868 0.777056
O O11 0.740057 0.782098 0.012151
O O12 0.721968 0.632018 0.036384
O O13 0.000000 0.710414 0.000000
O O14 0.437847 0.116430 0.201416
O O15 0.000000 0.128537 0.500000
O O16 0.225579 0.000000 0.361200
O O17 0.500000 0.155015 0.000000
O O18 0.538007 0.500000 0.102750
O O19 0.500000 0.610204 0.000000
#
# Coordination Sequence:
#
# PCOD8066055 Si02
#       7
#     4   4   4   4   4   4   4
#     4   9  19  34  54  77 111 156 203 241 289 354
#     4  11  21  37  62  91 117 153 203 247 283 355
#     4  11  22  36  58  88 119 157 200 251 304 343
#     4  11  24  39  60  92 120 151 199 246 293 362
#     4  10  21  36  56  84 115 154 203 254 308 357
#     4  11  21  38  59  82 118 157 203 252 300 354
#     4  10  21  43  69  88 120 162 193 236 294 358
#
# _framework density 19.144166999999999
#
# number of rings (size 3 to 8) (size 9 to 14) (size 15 to 20)
#    0.000    1.571    2.857    3.000    8.000    0.857 
#    0.000    0.714    0.000    1.714    0.000    0.000 
#    0.000    0.000    0.000    0.000    0.000    0.000 
#
# Total GULP energy -346979.538533 kJ/mol
# GULP energy per Si atom -12392.126376 kJ/mol
# Density = 1.910059 g / cm^3
# Si number density = 19.144167 Si / 1000 Ang^3
#
#
#
# Elastic Constant Matrix: (Units=GPa)
#
#
# Indices 1 2 3 4 5 6 
#
# 1 163.4344 41.5061 56.5551 0.0000 17.1614 0.0000
# 2 41.5061 80.7673 33.8709 0.0000 1.4442 0.0000
# 3 56.5551 33.8709 97.6199 0.0000 9.4950 0.0000
# 4 0.0000 0.0000 0.0000 22.4496 0.0000 3.1279
# 5 17.1614 1.4442 9.4950 0.0000 36.3019 0.0000
# 6 0.0000 0.0000 0.0000 3.1279 0.0000 15.6446
#
#
#
# Elastic Compliance Matrix: (Units=1/GPa)
#
#
# Indices 1 2 3 4 5 6 
#
# 1 0.008369 -0.002732 -0.003619 0.000000 -0.002901 0.000000
# 2 -0.002732 0.015401 -0.003927 0.000000 0.001706 0.000000
# 3 -0.003619 -0.003927 0.013874 0.000000 -0.001762 0.000000
# 4 0.000000 0.000000 0.000000 0.045821 0.000000 -0.009161
# 5 -0.002901 0.001706 -0.001762 0.000000 0.029311 0.000000
# 6 0.000000 0.000000 0.000000 -0.009161 0.000000 0.065751
#
#
# Mechanical properties :
#
#
# Convention : Reuss Voigt Hill
#
# Bulk Modulus (GPa) = 58.51355 67.29841 62.90598
# Shear Modulus (GPa) = 24.41649 28.87187 26.64418
#
# Velocity S-wave (km/s) = 3.57515 3.88768 3.73468
# Velocity P-wave (km/s) = 6.90459 7.44190 7.17827
#
# Compressibility (1/GPa) = 0.01709006
#
# Stress axis : x y z
#
# Youngs Moduli (GPa) = 119.48530 64.92924 72.07597
#
# Poissons Ratio (x) = 0.17735 0.26082
# Poissons Ratio (y) = 0.32637 0.28306
# Poissons Ratio (z) = 0.43238 0.25499
#
# Static dielectric constant tensor:
#      x y z
#    x 3.564450 0.000000 -0.015860 
#    y 0.000000 3.653410 0.000000 
#    z -0.015860 0.000000 3.444730 
# 
# 
# High freq. dielectric constant tensor:
#      x y z
#    x 1.758240 0.000000 0.008200 
#    y 0.000000 1.732100 0.000000 
#    z 0.008200 0.000000 1.732600 
# 
# From -- ./inp_files/25987.got.cif
#   From: 2010.06.25/outbox.cif.g09.slc.cpg/sg10_13_cif.got.tgz:25987.got - 2010.06.27 22:07:45.
