data_PCOD8066488
_publ_section_title
;
Structure prediction by ZEFSAII (Michael W. Deem and Ramdas Pophale) SiO2 
 PCOD8066488
Probable space group: P 2/M
;
_chemical_formula_sum "Si O2"
_cell_formula_units_Z 32
_cell_length_a 25.459916
_cell_length_b 9.014468
_cell_length_c 14.712039
_cell_angle_alpha 90.000000
_cell_angle_beta 150.299886
_cell_angle_gamma 90.000000
_cell_volume 1672.934284
_symmetry_space_group_name_H-M "P 2/M"
_symmetry_group_IT_number 10
_symmetry_cell_setting 'monoclinic'
loop_
_space_group_symop_operation_xyz
x,y,z
-x,y,-z
-x,-y,-z
x,-y,z
loop_
_atom_site_type_symbol
_atom_site_label
_atom_site_fract_x
_atom_site_fract_y
_atom_site_fract_z
Si Si1 0.536918 0.329087 0.956943
Si Si2 0.897468 0.175577 0.788479
Si Si3 0.711250 0.173903 0.990579
Si Si4 0.476725 0.174462 0.691274
Si Si5 0.064185 0.672822 0.343653
Si Si6 0.178494 0.669548 0.004935
Si Si7 0.267350 0.326142 0.333779
Si Si8 0.225832 0.670547 0.739409
O O1 0.506980 0.500000 0.892573
O O2 0.474627 0.226312 0.792590
O O3 0.500000 0.277640 0.000000
O O4 0.661991 0.302612 0.139836
O O5 0.908655 0.230075 0.702750
O O6 0.793067 0.249205 0.673825
O O7 0.883334 0.000000 0.768648
O O8 0.000000 0.226267 0.000000
O O9 0.781882 0.242195 0.177510
O O10 0.723058 0.000000 0.015649
O O11 0.588489 0.222270 0.814780
O O12 0.752449 0.226830 0.955615
O O13 0.384452 0.258405 0.498455
O O14 0.457311 0.000000 0.656490
O O15 0.083982 0.500000 0.349910
O O16 0.137029 0.727899 0.536222
O O17 0.944777 0.701075 0.196468
O O18 0.208014 0.500000 0.027521
O O19 0.204149 0.709471 0.147119
O O20 0.275129 0.500000 0.365191
O O21 0.206534 0.500000 0.734718
#
# Coordination Sequence:
#
# PCOD8066488 Si02
#       8
#     4   4   4   4   4   4   4   4
#     4   9  18  33  54  83 113 147 193 237 283 342
#     4  11  23  38  58  86 122 159 191 235 290 344
#     4  10  22  40  61  83 115 154 190 239 298 351
#     4  10  22  39  57  83 116 151 191 237 295 352
#     4  10  21  38  60  87 117 155 198 239 286 341
#     4  10  22  39  60  85 113 149 198 245 288 342
#     4  11  23  39  61  87 116 154 197 241 287 342
#     4   9  19  36  58  83 115 151 190 239 286 338
#
# _framework density 19.128067999999999
#
# number of rings (size 3 to 8) (size 9 to 14) (size 15 to 20)
#    0.000    2.000    1.250    1.500    1.750    5.250 
#    0.000    5.000    0.000    0.000    0.000    0.000 
#    0.000    0.000    0.000    0.000    0.000    0.000 
#
# Total GULP energy -396969.470399 kJ/mol
# GULP energy per Si atom -12405.295950 kJ/mol
# Density = 1.908453 g / cm^3
# Si number density = 19.128068 Si / 1000 Ang^3
#
#
#
# Elastic Constant Matrix: (Units=GPa)
#
#
# Indices 1 2 3 4 5 6 
#
# 1 82.5914 35.3809 15.7003 0.0000 8.8461 0.0000
# 2 35.3809 70.9141 38.8098 0.0000 1.0587 0.0000
# 3 15.7003 38.8098 107.3491 0.0000 2.1394 0.0000
# 4 0.0000 0.0000 0.0000 27.9147 0.0000 1.2456
# 5 8.8461 1.0587 2.1394 0.0000 15.6446 0.0000
# 6 0.0000 0.0000 0.0000 1.2456 0.0000 30.5786
#
#
#
# Elastic Compliance Matrix: (Units=1/GPa)
#
#
# Indices 1 2 3 4 5 6 
#
# 1 0.016590 -0.008619 0.000867 0.000000 -0.008916 0.000000
# 2 -0.008619 0.022059 -0.006800 0.000000 0.004311 0.000000
# 3 0.000867 -0.006800 0.011680 0.000000 -0.001627 0.000000
# 4 0.000000 0.000000 0.000000 0.035889 0.000000 -0.001462
# 5 -0.008916 0.004311 -0.001627 0.000000 0.068892 0.000000
# 6 0.000000 0.000000 0.000000 -0.001462 0.000000 0.032762
#
#
# Mechanical properties :
#
#
# Convention : Reuss Voigt Hill
#
# Bulk Modulus (GPa) = 47.11449 48.95963 48.03706
# Shear Modulus (GPa) = 22.31645 26.22515 24.27080
#
# Velocity S-wave (km/s) = 3.41938 3.70676 3.56597
# Velocity P-wave (km/s) = 6.34619 6.63109 6.49020
#
# Compressibility (1/GPa) = 0.02122489
#
# Stress axis : x y z
#
# Youngs Moduli (GPa) = 60.27716 45.33290 85.61999
#
# Poissons Ratio (x) = 0.39071 -0.07425
# Poissons Ratio (y) = 0.51951 0.58225
# Poissons Ratio (z) = -0.05227 0.30828
#
# Static dielectric constant tensor:
#      x y z
#    x 3.400140 0.000000 0.006820 
#    y 0.000000 3.451660 0.000000 
#    z 0.006820 0.000000 3.652660 
# 
# 
# High freq. dielectric constant tensor:
#      x y z
#    x 1.743140 0.000000 0.000610 
#    y 0.000000 1.742720 0.000000 
#    z 0.000610 0.000000 1.751570 
# 
# From -- ./inp_files/66635.got.cif
#   From: 2010.06.25/outbox.cif.g09.slc.cpg/sg10_34_cif.got.tgz:66635.got - 2010.06.27 22:07:45.
