data_PCOD8066889
_publ_section_title
;
Structure prediction by ZEFSAII (Michael W. Deem and Ramdas Pophale) SiO2 
 PCOD8066889
Probable space group: P 2/M
;
_chemical_formula_sum "Si O2"
_cell_formula_units_Z 28
_cell_length_a 20.016261
_cell_length_b 16.421570
_cell_length_c 8.710261
_cell_angle_alpha 90.000000
_cell_angle_beta 27.878597
_cell_angle_gamma 90.000000
_cell_volume 1338.760765
_symmetry_space_group_name_H-M "P 2/M"
_symmetry_group_IT_number 10
_symmetry_cell_setting 'monoclinic'
loop_
_space_group_symop_operation_xyz
x,y,z
-x,y,-z
-x,-y,-z
x,-y,z
loop_
_atom_site_type_symbol
_atom_site_label
_atom_site_fract_x
_atom_site_fract_y
_atom_site_fract_z
Si Si1 0.410541 0.168956 0.320463
Si Si2 0.347162 0.500000 0.732538
Si Si3 0.838800 0.168649 0.371703
Si Si4 0.662795 0.906281 0.984305
Si Si5 0.847263 0.360313 0.378837
Si Si6 0.153723 0.636487 0.260089
Si Si7 0.648646 0.231265 0.245935
Si Si8 0.658690 0.500000 0.619210
O O1 0.268113 0.128466 0.537048
O O2 0.352824 0.231510 0.566056
O O3 0.500000 0.212978 0.000000
O O4 0.516848 0.103504 0.182006
O O5 0.500000 0.500000 0.500000
O O6 0.351153 0.500000 0.542600
O O7 0.265559 0.579226 0.951684
O O8 0.799448 0.130537 0.616088
O O9 0.810091 0.265674 0.428588
O O10 0.000000 0.146293 0.000000
O O11 0.689990 0.000000 0.966075
O O12 0.648499 0.859751 0.175010
O O13 0.851545 0.380926 0.549596
O O14 0.733506 0.417755 0.526859
O O15 0.000000 0.382387 0.000000
O O16 0.000000 0.622746 0.500000
O O17 0.210299 0.726606 0.107282
O O18 0.500000 0.275855 0.500000
O O19 0.500000 0.500000 0.000000
#
# Coordination Sequence:
#
# PCOD8066889 Si02
#       8
#     4   2   4   4   4   4   4   2
#     4   9  21  37  61  92 124 165 213 263 324 391
#     4  12  27  48  67 104 138 176 222 272 321 376
#     4  10  22  39  64  95 129 171 219 267 326 388
#     4  10  21  42  64  92 128 167 217 272 332 395
#     4  11  24  44  66  96 135 176 222 266 323 396
#     4  12  25  43  69  97 135 176 222 271 325 393
#     4  10  22  39  63  96 126 172 213 273 328 387
#     4  12  27  44  71 100 136 178 214 274 325 374
#
# _framework density 20.914863
#
# number of rings (size 3 to 8) (size 9 to 14) (size 15 to 20)
#    0.000    1.429    1.429    3.000    6.000    7.143 
#    0.000    0.000    0.000    3.000    0.000    0.000 
#    0.000    0.000    0.000    0.000    0.000    0.000 
#
# Total GULP energy -347109.298617 kJ/mol
# GULP energy per Si atom -12396.760665 kJ/mol
# Density = 2.086726 g / cm^3
# Si number density = 20.914863 Si / 1000 Ang^3
#
#
#
# Elastic Constant Matrix: (Units=GPa)
#
#
# Indices 1 2 3 4 5 6 
#
# 1 144.4401 35.0443 81.1940 0.0000 17.7934 0.0000
# 2 35.0443 103.8979 50.6389 0.0000 -2.2345 0.0000
# 3 81.1940 50.6389 169.7934 0.0000 3.2258 0.0000
# 4 0.0000 0.0000 0.0000 27.0887 0.0000 10.7013
# 5 17.7934 -2.2345 3.2258 0.0000 51.4950 0.0000
# 6 0.0000 0.0000 0.0000 10.7013 0.0000 -5.7788
#
#
#
# Elastic Compliance Matrix: (Units=1/GPa)
#
#
# Indices 1 2 3 4 5 6 
#
# 1 0.010112 -0.001351 -0.004370 0.000000 -0.003279 0.000000
# 2 -0.001351 0.011468 -0.002796 0.000000 0.001140 0.000000
# 3 -0.004370 -0.002796 0.008797 0.000000 0.000838 0.000000
# 4 0.000000 0.000000 0.000000 0.021319 0.000000 0.039480
# 5 -0.003279 0.001140 0.000838 0.000000 0.020549 0.000000
# 6 0.000000 0.000000 0.000000 0.039480 0.000000 -0.099937
#
#
# Mechanical properties :
#
#
# Convention : Reuss Voigt Hill
#
# Bulk Modulus (GPa) = 74.94772 83.54288 79.24530
# Shear Modulus (GPa) = -804.97336 31.31126 -386.83105
#
# Velocity S-wave (km/s) = -19.63967 3.87341 -13.61457
# Velocity P-wave (km/s) = 21.87181 7.74825 14.46273
#
# Compressibility (1/GPa) = 0.01334263
#
# Stress axis : x y z
#
# Youngs Moduli (GPa) = 98.89714 87.20183 113.67442
#
# Poissons Ratio (x) = 0.11783 0.49676
# Poissons Ratio (y) = 0.13363 0.31779
# Poissons Ratio (z) = 0.43218 0.24378
#
# Static dielectric constant tensor:
#      x y z
#    x 3.913220 0.000000 0.085360 
#    y 0.000000 3.556260 0.000000 
#    z 0.085360 0.000000 4.053320 
# 
# 
# High freq. dielectric constant tensor:
#      x y z
#    x 1.825790 0.000000 0.009230 
#    y 0.000000 1.793720 0.000000 
#    z 0.009230 0.000000 1.843660 
# 
# From -- ./inp_files/35268.got.cif
#   From: 2010.06.25/outbox.cif.g09.slc.cpg/sg10_18_cif.got.tgz:35268.got - 2010.06.27 22:07:45.
