data_PCOD8066816
_publ_section_title
;
Structure prediction by ZEFSAII (Michael W. Deem and Ramdas Pophale) SiO2 
 PCOD8066816
Probable space group: P 2/M
;
_chemical_formula_sum "Si O2"
_cell_formula_units_Z 30
_cell_length_a 36.101035
_cell_length_b 7.957597
_cell_length_c 5.157787
_cell_angle_alpha 90.000000
_cell_angle_beta 73.049246
_cell_angle_gamma 90.000000
_cell_volume 1417.343970
_symmetry_space_group_name_H-M "P 2/M"
_symmetry_group_IT_number 10
_symmetry_cell_setting 'monoclinic'
loop_
_space_group_symop_operation_xyz
x,y,z
-x,y,-z
-x,-y,-z
x,-y,z
loop_
_atom_site_type_symbol
_atom_site_label
_atom_site_fract_x
_atom_site_fract_y
_atom_site_fract_z
Si Si1 0.890193 0.700442 0.476706
Si Si2 0.154672 0.299619 0.930210
Si Si3 0.241353 0.309218 0.782554
Si Si4 0.365570 0.308405 0.056454
Si Si5 0.977517 0.700427 0.295893
Si Si6 0.473657 0.000000 0.303545
Si Si7 0.281267 0.813832 0.207945
Si Si8 0.415354 0.695080 0.459162
O O1 0.890875 0.500000 0.473263
O O2 0.867184 0.771808 0.276703
O O3 0.933854 0.771124 0.384850
O O4 0.868257 0.768528 0.774260
O O5 0.155015 0.500000 0.921155
O O6 0.198493 0.229690 0.845596
O O7 0.237908 0.500000 0.882287
O O8 0.262623 0.307049 0.461058
O O9 0.265691 0.215032 0.951051
O O10 0.352578 0.500000 0.046062
O O11 0.396268 0.259223 0.772970
O O12 0.327511 0.197830 0.105759
O O13 0.383973 0.276816 0.298992
O O14 0.976902 0.500000 0.297284
O O15 0.000000 0.769759 0.500000
O O16 0.000000 0.769709 0.000000
O O17 0.500000 0.000000 0.500000
O O18 0.449576 0.173000 0.346954
O O19 0.500000 0.000000 0.000000
O O20 0.269883 0.000000 0.318793
O O21 0.430382 0.500000 0.424126
#
# Coordination Sequence:
#
# PCOD8066816 Si02
#       8
#     4   4   4   4   4   2   4   4
#     4   9  15  24  37  57  82 114 169 224 264 321
#     4   9  17  28  45  64  86 125 176 229 271 314
#     4  11  22  39  58  80 114 154 198 245 293 351
#     4  10  21  40  64  90 119 159 201 246 298 352
#     4   9  15  21  30  47  76 114 154 204 265 325
#     4  12  26  42  66  96 128 170 210 254 312 368
#     4  12  25  38  60  91 122 156 195 247 305 362
#     4  10  23  41  65  93 126 163 208 257 305 364
#
# _framework density 21.166350999999999
#
# number of rings (size 3 to 8) (size 9 to 14) (size 15 to 20)
#    0.000    1.867    0.000    4.800    1.867    6.933 
#    0.000    0.000    0.000    0.000    0.000    0.000 
#    0.000    0.000    0.000    0.000    0.000  168.000 
#
# Total GULP energy -372057.227649 kJ/mol
# GULP energy per Si atom -12401.907588 kJ/mol
# Density = 2.111818 g / cm^3
# Si number density = 21.166351 Si / 1000 Ang^3
#
#
#
# Elastic Constant Matrix: (Units=GPa)
#
#
# Indices 1 2 3 4 5 6 
#
# 1 149.0716 39.0975 55.7359 0.0000 0.0899 0.0000
# 2 39.0975 56.9174 19.1253 0.0000 -5.9830 0.0000
# 3 55.7359 19.1253 148.5241 0.0000 2.2652 0.0000
# 4 0.0000 0.0000 0.0000 10.1903 0.0000 8.3800
# 5 0.0899 -5.9830 2.2652 0.0000 45.2715 0.0000
# 6 0.0000 0.0000 0.0000 8.3800 0.0000 -6.2175
#
#
#
# Elastic Compliance Matrix: (Units=1/GPa)
#
#
# Indices 1 2 3 4 5 6 
#
# 1 0.009153 -0.005435 -0.002726 0.000000 -0.000600 0.000000
# 2 -0.005435 0.021889 -0.000824 0.000000 0.002945 0.000000
# 3 -0.002726 -0.000824 0.007870 0.000000 -0.000497 0.000000
# 4 0.000000 0.000000 0.000000 0.046544 0.000000 0.062733
# 5 -0.000600 0.002945 -0.000497 0.000000 0.022504 0.000000
# 6 0.000000 0.000000 0.000000 0.062733 0.000000 -0.076285
#
#
# Mechanical properties :
#
#
# Convention : Reuss Voigt Hill
#
# Bulk Modulus (GPa) = 47.74998 64.71451 56.23225
# Shear Modulus (GPa) = 88.30073 25.88582 57.09327
#
# Velocity S-wave (km/s) = 6.46592 3.50089 5.19925
# Velocity P-wave (km/s) = 8.85169 6.85436 7.91627
#
# Compressibility (1/GPa) = 0.02094242
#
# Stress axis : x y z
#
# Youngs Moduli (GPa) = 109.25325 45.68532 127.07212
#
# Poissons Ratio (x) = 0.24828 0.34638
# Poissons Ratio (y) = 0.59374 0.10472
# Poissons Ratio (z) = 0.29781 0.03765
#
# Static dielectric constant tensor:
#      x y z
#    x 3.916380 0.000000 0.061410 
#    y 0.000000 3.459850 0.000000 
#    z 0.061410 0.000000 3.918120 
# 
# 
# High freq. dielectric constant tensor:
#      x y z
#    x 1.839480 0.000000 0.004990 
#    y 0.000000 1.795960 0.000000 
#    z 0.004990 0.000000 1.845210 
# 
# From -- ./inp_files/13620.got.cif
#   From: 2010.06.25/outbox.cif.g09.slc.cpg/sg10_7_cif.got.tgz:13620.got - 2010.06.27 22:07:45.
