data_PCOD8066584
_publ_section_title
;
Structure prediction by ZEFSAII (Michael W. Deem and Ramdas Pophale) SiO2 
 PCOD8066584
Probable space group: P 2/M
;
_chemical_formula_sum "Si O2"
_cell_formula_units_Z 32
_cell_length_a 7.929520
_cell_length_b 13.695623
_cell_length_c 21.189690
_cell_angle_alpha 90.000000
_cell_angle_beta 144.258865
_cell_angle_gamma 90.000000
_cell_volume 1344.183040
_symmetry_space_group_name_H-M "P 2/M"
_symmetry_group_IT_number 10
_symmetry_cell_setting 'monoclinic'
loop_
_space_group_symop_operation_xyz
x,y,z
-x,y,-z
-x,-y,-z
x,-y,z
loop_
_atom_site_type_symbol
_atom_site_label
_atom_site_fract_x
_atom_site_fract_y
_atom_site_fract_z
Si Si1 0.759582 0.114869 0.658415
Si Si2 0.678543 0.114734 0.111717
Si Si3 0.318590 0.774769 0.095964
Si Si4 0.260825 0.388036 0.977123
Si Si5 0.870072 0.884926 0.550383
Si Si6 0.282689 0.386430 0.273305
Si Si7 0.713882 0.724299 0.325997
Si Si8 0.177805 0.614441 0.380750
O O1 0.431310 0.141363 0.576658
O O2 0.843673 0.154043 0.614574
O O3 0.986754 0.151836 0.781221
O O4 0.786866 0.000000 0.659123
O O5 0.523544 0.143095 0.129018
O O6 0.674765 0.000000 0.101721
O O7 0.500000 0.164709 0.000000
O O8 0.435534 0.754120 0.200769
O O9 0.305514 0.673685 0.053603
O O10 0.000000 0.821186 0.000000
O O11 0.303344 0.500000 0.010325
O O12 0.948903 0.369823 0.852082
O O13 0.500000 0.355676 0.000000
O O14 0.127983 0.821476 0.598437
O O15 0.942767 0.000000 0.566159
O O16 0.353053 0.500000 0.304675
O O17 0.586282 0.335718 0.346576
O O18 0.158838 0.344866 0.302547
O O19 0.938493 0.662098 0.352753
O O20 0.500000 0.640174 0.500000
O O21 0.114359 0.500000 0.363473
#
# Coordination Sequence:
#
# PCOD8066584 Si02
#       8
#     4   4   4   4   4   4   4   4
#     4   8  15  32  58  91 122 159 217 273 329 388
#     4  10  21  38  62  91 125 171 221 271 332 402
#     4  12  24  38  56  88 130 170 213 267 329 395
#     4  10  21  39  63  89 122 168 217 270 331 391
#     4   9  18  34  62  97 130 169 219 278 335 390
#     4  10  22  43  67  96 134 171 222 280 331 401
#     4  12  23  38  68  99 133 176 226 273 338 403
#     4  10  24  44  68  98 132 172 217 272 341 408
#
# _framework density 23.806283000000001
#
# number of rings (size 3 to 8) (size 9 to 14) (size 15 to 20)
#    0.000    1.875    2.500    2.250    1.750    3.000 
#    0.000    1.875    2.750    0.750    0.000    0.875 
#    0.000    0.000    0.000    0.000    0.000    0.000 
#
# Total GULP energy -396729.616482 kJ/mol
# GULP energy per Si atom -12397.800515 kJ/mol
# Density = 2.375210 g / cm^3
# Si number density = 23.806283 Si / 1000 Ang^3
#
#
#
# Elastic Constant Matrix: (Units=GPa)
#
#
# Indices 1 2 3 4 5 6 
#
# 1 88.1676 27.2916 23.8223 0.0000 22.2223 0.0000
# 2 27.2916 47.2203 44.6783 0.0000 16.9554 0.0000
# 3 23.8223 44.6783 145.1976 0.0000 13.0936 0.0000
# 4 0.0000 0.0000 0.0000 23.5883 0.0000 11.2418
# 5 22.2223 16.9554 13.0936 0.0000 34.4633 0.0000
# 6 0.0000 0.0000 0.0000 11.2418 0.0000 17.0335
#
#
#
# Elastic Compliance Matrix: (Units=1/GPa)
#
#
# Indices 1 2 3 4 5 6 
#
# 1 0.014936 -0.006386 0.000103 0.000000 -0.006528 0.000000
# 2 -0.006386 0.037877 -0.009628 0.000000 -0.010859 0.000000
# 3 0.000103 -0.009628 0.009746 0.000000 0.000968 0.000000
# 4 0.000000 0.000000 0.000000 0.061847 0.000000 -0.040818
# 5 -0.006528 -0.010859 0.000968 0.000000 0.038201 0.000000
# 6 0.000000 0.000000 0.000000 -0.040818 0.000000 0.085647
#
#
# Mechanical properties :
#
#
# Convention : Reuss Voigt Hill
#
# Bulk Modulus (GPa) = 32.53387 52.46334 42.49861
# Shear Modulus (GPa) = 17.22221 27.33656 22.27938
#
# Velocity S-wave (km/s) = 2.69259 3.39232 3.06250
# Velocity P-wave (km/s) = 4.83347 6.11794 5.51324
#
# Compressibility (1/GPa) = 0.03073719
#
# Stress axis : x y z
#
# Youngs Moduli (GPa) = 66.95040 26.40104 102.61044
#
# Poissons Ratio (x) = 0.16860 -0.01059
# Poissons Ratio (y) = 0.42756 0.98794
# Poissons Ratio (z) = -0.00691 0.25419
#
# Static dielectric constant tensor:
#      x y z
#    x 4.294900 0.000000 0.027300 
#    y 0.000000 4.192960 0.000000 
#    z 0.027300 0.000000 4.969290 
# 
# 
# High freq. dielectric constant tensor:
#      x y z
#    x 1.927130 0.000000 0.006940 
#    y 0.000000 1.949480 0.000000 
#    z 0.006940 0.000000 1.957330 
# 
# From -- ./inp_files/88278.got.cif
#   From: 2010.06.25/outbox.cif.g09.slc.cpg/sg10_45_cif.got.tgz:88278.got - 2010.06.27 22:07:45.
