data_PCOD8066350
_publ_section_title
;
Structure prediction by ZEFSAII (Michael W. Deem and Ramdas Pophale) SiO2 
 PCOD8066350
Probable space group: P 2/M
;
_chemical_formula_sum "Si O2"
_cell_formula_units_Z 32
_cell_length_a 9.393520
_cell_length_b 19.016139
_cell_length_c 11.334651
_cell_angle_alpha 90.000000
_cell_angle_beta 125.282934
_cell_angle_gamma 90.000000
_cell_volume 1652.775259
_symmetry_space_group_name_H-M "P 2/M"
_symmetry_group_IT_number 10
_symmetry_cell_setting 'monoclinic'
loop_
_space_group_symop_operation_xyz
x,y,z
-x,y,-z
-x,-y,-z
x,-y,z
loop_
_atom_site_type_symbol
_atom_site_label
_atom_site_fract_x
_atom_site_fract_y
_atom_site_fract_z
Si Si1 0.202810 0.784409 0.584987
Si Si2 0.479658 0.728323 0.128101
Si Si3 0.182275 0.420972 0.535953
Si Si4 0.330886 0.076884 0.576604
Si Si5 0.299004 0.301411 0.419797
Si Si6 0.268167 0.921813 0.279530
Si Si7 0.502314 0.424898 0.860758
Si Si8 0.818660 0.777899 0.859918
O O1 0.323051 0.738807 0.729853
O O2 0.237842 0.867485 0.619342
O O3 0.267325 0.767042 0.484378
O O4 0.000000 0.764878 0.500000
O O5 0.405983 0.649460 0.124615
O O6 0.338169 0.779699 0.118976
O O7 0.500000 0.742780 0.000000
O O8 0.170019 0.500000 0.478909
O O9 0.222527 0.371067 0.444110
O O10 0.314223 0.418279 0.709192
O O11 0.000000 0.394558 0.500000
O O12 0.533264 0.094865 0.659200
O O13 0.240212 0.078049 0.405962
O O14 0.306205 0.000000 0.622775
O O15 0.500000 0.316868 0.500000
O O16 0.217286 0.281359 0.255507
O O17 0.155178 0.858004 0.172801
O O18 0.214100 0.000000 0.205428
O O19 0.588418 0.500000 0.857548
O O20 0.500000 0.429409 0.000000
O O21 0.000000 0.753022 0.000000
#
# Coordination Sequence:
#
# PCOD8066350 Si02
#       8
#     4   4   4   4   4   4   4   4
#     4  12  23  36  62  90 120 159 199 256 302 360
#     4  11  24  40  58  87 123 157 198 250 309 369
#     4  10  21  37  60  92 125 160 204 253 303 363
#     4   9  17  33  60  89 117 152 198 249 300 357
#     4  12  22  40  62  87 122 159 206 255 301 359
#     4   9  17  34  61  88 116 154 199 247 301 362
#     4   9  18  34  58  84 115 156 197 238 294 357
#     4  12  25  39  61  89 122 158 200 257 307 360
#
# _framework density 19.361373
#
# number of rings (size 3 to 8) (size 9 to 14) (size 15 to 20)
#    0.000    1.500    5.000    1.125    1.750    1.750 
#    0.000    0.625    0.000    2.250    0.000    0.000 
#    0.000    0.000    0.000    0.000    0.000    0.000 
#
# Total GULP energy -396440.572962 kJ/mol
# GULP energy per Si atom -12388.767905 kJ/mol
# Density = 1.931731 g / cm^3
# Si number density = 19.361373 Si / 1000 Ang^3
#
#
#
# Elastic Constant Matrix: (Units=GPa)
#
#
# Indices 1 2 3 4 5 6 
#
# 1 85.0536 36.8939 39.2741 0.0000 1.2625 0.0000
# 2 36.8939 138.3044 32.7535 0.0000 -5.3521 0.0000
# 3 39.2741 32.7535 110.8645 0.0000 -1.7194 0.0000
# 4 0.0000 0.0000 0.0000 21.3129 0.0000 0.9567
# 5 1.2625 -5.3521 -1.7194 0.0000 23.3508 0.0000
# 6 0.0000 0.0000 0.0000 0.9567 0.0000 17.3522
#
#
#
# Elastic Compliance Matrix: (Units=1/GPa)
#
#
# Indices 1 2 3 4 5 6 
#
# 1 0.015192 -0.003057 -0.004507 0.000000 -0.001854 0.000000
# 2 -0.003057 0.008451 -0.001383 0.000000 0.002000 0.000000
# 3 -0.004507 -0.001383 0.011037 0.000000 0.000739 0.000000
# 4 0.000000 0.000000 0.000000 0.047036 0.000000 -0.002593
# 5 -0.001854 0.002000 0.000739 0.000000 0.043438 0.000000
# 6 0.000000 0.000000 0.000000 -0.002593 0.000000 0.057773
#
#
# Mechanical properties :
#
#
# Convention : Reuss Voigt Hill
#
# Bulk Modulus (GPa) = 59.57541 61.34062 60.45802
# Shear Modulus (GPa) = 24.22289 27.42325 25.82307
#
# Velocity S-wave (km/s) = 3.54092 3.76758 3.65600
# Velocity P-wave (km/s) = 6.89598 7.11877 7.00826
#
# Compressibility (1/GPa) = 0.01678545
#
# Stress axis : x y z
#
# Youngs Moduli (GPa) = 65.82334 118.33256 90.60607
#
# Poissons Ratio (x) = 0.36173 0.40841
# Poissons Ratio (y) = 0.20122 0.12528
# Poissons Ratio (z) = 0.29670 0.16362
#
# Static dielectric constant tensor:
#      x y z
#    x 3.194440 0.000000 -0.031960 
#    y 0.000000 4.002580 0.000000 
#    z -0.031960 0.000000 3.465550 
# 
# 
# High freq. dielectric constant tensor:
#      x y z
#    x 1.718230 0.000000 -0.001090 
#    y 0.000000 1.780340 0.000000 
#    z -0.001090 0.000000 1.742390 
# 
# From -- ./inp_files/43646.got.cif
#   From: 2010.06.25/outbox.cif.g09.slc.cpg/sg10_22_cif.got.tgz:43646.got - 2010.06.27 22:07:45.
