data_PCOD8066482
_publ_section_title
;
Structure prediction by ZEFSAII (Michael W. Deem and Ramdas Pophale) SiO2 
 PCOD8066482
Probable space group: P 2/M
;
_chemical_formula_sum "Si O2"
_cell_formula_units_Z 28
_cell_length_a 10.157661
_cell_length_b 8.990569
_cell_length_c 29.832444
_cell_angle_alpha 90.000000
_cell_angle_beta 146.705347
_cell_angle_gamma 90.000000
_cell_volume 1495.541315
_symmetry_space_group_name_H-M "P 2/M"
_symmetry_group_IT_number 10
_symmetry_cell_setting 'monoclinic'
loop_
_space_group_symop_operation_xyz
x,y,z
-x,y,-z
-x,-y,-z
x,-y,z
loop_
_atom_site_type_symbol
_atom_site_label
_atom_site_fract_x
_atom_site_fract_y
_atom_site_fract_z
Si Si1 0.626441 0.328209 0.413757
Si Si2 0.888418 0.174145 0.842777
Si Si3 0.686747 0.324120 0.178829
Si Si4 0.100492 0.671762 0.598579
Si Si5 0.859250 0.175800 0.732125
Si Si6 0.356976 0.674993 0.002457
Si Si7 0.402699 0.174380 0.754611
O O1 0.547329 0.500000 0.390406
O O2 0.739482 0.282077 0.398417
O O3 0.399640 0.225398 0.359672
O O4 0.821446 0.300441 0.508194
O O5 0.891953 0.231040 0.792562
O O6 0.636400 0.218161 0.792772
O O7 0.933412 0.000000 0.857676
O O8 0.095816 0.252398 0.930256
O O9 0.718173 0.500000 0.190534
O O10 0.501502 0.276798 0.087514
O O11 0.579740 0.261823 0.194120
O O12 0.943872 0.252130 0.242895
O O13 0.144598 0.500000 0.623392
O O14 0.170287 0.773442 0.660585
O O15 0.882560 0.000000 0.734601
O O16 0.322133 0.500000 0.989331
O O17 0.500000 0.735962 0.000000
O O18 0.384021 0.000000 0.758863
#
# Coordination Sequence:
#
# PCOD8066482 Si02
#       7
#     4   4   4   4   4   4   4
#     4   9  18  33  57  88 118 150 192 239 283 334
#     4  10  22  37  58  86 117 152 190 232 285 343
#     4  11  24  41  60  84 115 153 193 239 294 344
#     4   9  18  34  57  86 118 153 192 235 285 336
#     4  11  21  36  58  88 118 151 193 236 285 343
#     4  10  21  38  60  86 113 145 193 244 286 334
#     4  11  23  40  58  85 121 156 192 233 287 348
#
# _framework density 18.722317
#
# number of rings (size 3 to 8) (size 9 to 14) (size 15 to 20)
#    0.000    1.857    2.857    2.143    0.000    4.286 
#    0.000    5.000    0.000    4.286    0.000    0.000 
#    0.000    0.000    0.000    0.000    0.000    0.000 
#
# Total GULP energy -347335.229119 kJ/mol
# GULP energy per Si atom -12404.829611 kJ/mol
# Density = 1.867970 g / cm^3
# Si number density = 18.722317 Si / 1000 Ang^3
#
#
#
# Elastic Constant Matrix: (Units=GPa)
#
#
# Indices 1 2 3 4 5 6 
#
# 1 61.4310 27.8123 30.2890 0.0000 -6.3581 0.0000
# 2 27.8123 60.0182 42.4328 0.0000 0.6402 0.0000
# 3 30.2890 42.4328 115.2470 0.0000 1.1712 0.0000
# 4 0.0000 0.0000 0.0000 30.8506 0.0000 2.6283
# 5 -6.3581 0.6402 1.1712 0.0000 31.8081 0.0000
# 6 0.0000 0.0000 0.0000 2.6283 0.0000 31.3257
#
#
#
# Elastic Compliance Matrix: (Units=1/GPa)
#
#
# Indices 1 2 3 4 5 6 
#
# 1 0.021840 -0.008218 -0.002761 0.000000 0.004633 0.000000
# 2 -0.008218 0.025618 -0.007253 0.000000 -0.001891 0.000000
# 3 -0.002761 -0.007253 0.012082 0.000000 -0.000851 0.000000
# 4 0.000000 0.000000 0.000000 0.032648 0.000000 -0.002739
# 5 0.004633 -0.001891 -0.000851 0.000000 0.032434 0.000000
# 6 0.000000 0.000000 0.000000 -0.002739 0.000000 0.032153
#
#
# Mechanical properties :
#
#
# Convention : Reuss Voigt Hill
#
# Bulk Modulus (GPa) = 43.33669 48.64049 45.98859
# Shear Modulus (GPa) = 24.88425 27.87435 26.37930
#
# Velocity S-wave (km/s) = 3.64967 3.86272 3.75771
# Velocity P-wave (km/s) = 6.39980 6.77721 6.59120
#
# Compressibility (1/GPa) = 0.02307514
#
# Stress axis : x y z
#
# Youngs Moduli (GPa) = 45.78773 39.03516 82.76798
#
# Poissons Ratio (x) = 0.32078 0.22855
# Poissons Ratio (y) = 0.37627 0.60034
# Poissons Ratio (z) = 0.12643 0.28313
#
# Static dielectric constant tensor:
#      x y z
#    x 3.311260 0.000000 0.005380 
#    y 0.000000 3.339420 0.000000 
#    z 0.005380 0.000000 3.482970 
# 
# 
# High freq. dielectric constant tensor:
#      x y z
#    x 1.713540 0.000000 0.004870 
#    y 0.000000 1.726560 0.000000 
#    z 0.004870 0.000000 1.736450 
# 
# From -- ./inp_files/74334.got.cif
#   From: 2010.06.25/outbox.cif.g09.slc.cpg/sg10_38_cif.got.tgz:74334.got - 2010.06.27 22:07:45.
