data_PCOD8066799
_publ_section_title
;
Structure prediction by ZEFSAII (Michael W. Deem and Ramdas Pophale) SiO2 
 PCOD8066799
Probable space group: P 2/M
;
_chemical_formula_sum "Si O2"
_cell_formula_units_Z 28
_cell_length_a 20.812583
_cell_length_b 8.872697
_cell_length_c 14.055062
_cell_angle_alpha 90.000000
_cell_angle_beta 147.094814
_cell_angle_gamma 90.000000
_cell_volume 1409.984990
_symmetry_space_group_name_H-M "P 2/M"
_symmetry_group_IT_number 10
_symmetry_cell_setting 'monoclinic'
loop_
_space_group_symop_operation_xyz
x,y,z
-x,y,-z
-x,-y,-z
x,-y,z
loop_
_atom_site_type_symbol
_atom_site_label
_atom_site_fract_x
_atom_site_fract_y
_atom_site_fract_z
Si Si1 0.636699 0.321670 0.166713
Si Si2 0.880074 0.177215 0.806999
Si Si3 0.829925 0.819987 0.533349
Si Si4 0.573581 0.328192 0.734800
Si Si5 0.322797 0.671921 0.337370
Si Si6 0.970738 0.823271 0.360824
Si Si7 0.708293 0.824864 0.061974
O O1 0.646483 0.500000 0.187368
O O2 0.706975 0.247965 0.342085
O O3 0.696638 0.268326 0.143884
O O4 0.500000 0.268970 0.000000
O O5 0.852086 0.242409 0.667406
O O6 0.776704 0.215542 0.751388
O O7 0.893534 0.000000 0.815210
O O8 0.000000 0.247387 0.000000
O O9 0.940918 0.757739 0.609161
O O10 0.820261 0.000000 0.518800
O O11 0.602777 0.500000 0.799432
O O12 0.645690 0.281644 0.730699
O O13 0.435273 0.308208 0.545069
O O14 0.606220 0.219110 0.861652
O O15 0.278084 0.500000 0.285950
O O16 0.833842 0.787194 0.167572
O O17 0.000000 0.751249 0.500000
O O18 0.994238 0.000000 0.394542
O O19 0.698722 0.000000 0.076676
#
# Coordination Sequence:
#
# PCOD8066799 Si02
#       7
#     4   4   4   4   4   4   4
#     4  11  25  42  59  84 121 161 198 241 292 351
#     4  10  23  39  59  88 122 156 196 250 301 346
#     4  10  21  40  62  85 117 157 198 244 295 351
#     4   9  20  39  60  85 117 154 192 241 297 345
#     4   9  20  40  62  81 114 159 199 239 291 353
#     4   9  17  34  58  82 111 147 186 231 288 345
#     4  11  22  36  62  92 116 150 192 239 293 352
#
# _framework density 19.858367999999999
#
# number of rings (size 3 to 8) (size 9 to 14) (size 15 to 20)
#    0.000    2.143    1.429    1.714    4.000    3.143 
#    0.000    3.571    0.000    0.000    0.000    0.000 
#    0.000    0.000    0.000    0.000    0.000    0.000 
#
# Total GULP energy -347222.911579 kJ/mol
# GULP energy per Si atom -12400.818271 kJ/mol
# Density = 1.981317 g / cm^3
# Si number density = 19.858368 Si / 1000 Ang^3
#
#
#
# Elastic Constant Matrix: (Units=GPa)
#
#
# Indices 1 2 3 4 5 6 
#
# 1 88.9050 21.5302 54.8197 0.0000 5.8287 0.0000
# 2 21.5302 32.5246 33.1966 0.0000 -0.2745 0.0000
# 3 54.8197 33.1966 129.4879 0.0000 -9.1722 0.0000
# 4 0.0000 0.0000 0.0000 13.2462 0.0000 5.7153
# 5 5.8287 -0.2745 -9.1722 0.0000 37.8089 0.0000
# 6 0.0000 0.0000 0.0000 5.7153 0.0000 27.0173
#
#
#
# Elastic Compliance Matrix: (Units=1/GPa)
#
#
# Indices 1 2 3 4 5 6 
#
# 1 0.016354 -0.004745 -0.005991 0.000000 -0.004009 0.000000
# 2 -0.004745 0.043221 -0.009155 0.000000 -0.001176 0.000000
# 3 -0.005991 -0.009155 0.012888 0.000000 0.003984 0.000000
# 4 0.000000 0.000000 0.000000 0.083076 0.000000 -0.017574
# 5 -0.004009 -0.001176 0.003984 0.000000 0.028025 0.000000
# 6 0.000000 0.000000 0.000000 -0.017574 0.000000 0.040731
#
#
# Mechanical properties :
#
#
# Convention : Reuss Voigt Hill
#
# Bulk Modulus (GPa) = 30.59823 52.22339 41.41081
# Shear Modulus (GPa) = 18.18372 25.03921 21.61147
#
# Velocity S-wave (km/s) = 3.02929 3.55475 3.30249
# Velocity P-wave (km/s) = 5.26091 6.57293 5.95317
#
# Compressibility (1/GPa) = 0.03268163
#
# Stress axis : x y z
#
# Youngs Moduli (GPa) = 61.14688 23.13680 77.58892
#
# Poissons Ratio (x) = 0.10978 0.46485
# Poissons Ratio (y) = 0.29012 0.71034
# Poissons Ratio (z) = 0.36634 0.21182
#
# Static dielectric constant tensor:
#      x y z
#    x 3.671620 0.000000 -0.028560 
#    y 0.000000 3.300350 0.000000 
#    z -0.028560 0.000000 3.761110 
# 
# 
# High freq. dielectric constant tensor:
#      x y z
#    x 1.779540 0.000000 0.000000 
#    y 0.000000 1.748020 0.000000 
#    z 0.000000 0.000000 1.785640 
# 
# From -- ./inp_files/70289.got.cif
#   From: 2010.06.25/outbox.cif.g09.slc.cpg/sg10_36_cif.got.tgz:70289.got - 2010.06.27 22:07:45.
