data_PCOD8066440
_publ_section_title
;
Structure prediction by ZEFSAII (Michael W. Deem and Ramdas Pophale) SiO2 
 PCOD8066440
Probable space group: P 2/M
;
_chemical_formula_sum "Si O2"
_cell_formula_units_Z 16
_cell_length_a 15.777059
_cell_length_b 8.492568
_cell_length_c 14.131443
_cell_angle_alpha 90.000000
_cell_angle_beta 26.850656
_cell_angle_gamma 90.000000
_cell_volume 855.203531
_symmetry_space_group_name_H-M "P 2/M"
_symmetry_group_IT_number 10
_symmetry_cell_setting 'monoclinic'
loop_
_space_group_symop_operation_xyz
x,y,z
-x,y,-z
-x,-y,-z
x,-y,z
loop_
_atom_site_type_symbol
_atom_site_label
_atom_site_fract_x
_atom_site_fract_y
_atom_site_fract_z
Si Si1 0.792407 0.686401 0.707750
Si Si2 0.489738 0.817648 0.650020
Si Si3 0.498304 0.686022 0.847680
Si Si4 0.786711 0.315614 0.219635
O O1 0.804036 0.500000 0.692657
O O2 0.678818 0.741803 0.728277
O O3 0.000000 0.762613 0.500000
O O4 0.686872 0.735341 0.909132
O O5 0.498739 0.781925 0.751203
O O6 0.320812 0.719422 0.771131
O O7 0.687714 0.773213 0.405150
O O8 0.448832 0.000000 0.673698
O O9 0.502926 0.500000 0.822517
O O10 0.779845 0.500000 0.248044
O O11 0.000000 0.255166 0.000000
#
# Coordination Sequence:
#
# PCOD8066440 Si02
#       4
#     4   4   4   4
#     4   8  15  29  50  74  98 128 170 219 260 291
#     4  11  22  35  53  78 111 143 169 207 260 318
#     4   9  17  31  51  74 100 131 173 217 252 298
#     4  10  21  38  59  79 100 132 177 223 260 301
#
# _framework density 18.708997
#
# number of rings (size 3 to 8) (size 9 to 14) (size 15 to 20)
#    0.000    2.500    0.000    6.000    0.000    4.000 
#    0.000    7.500    0.000    1.500    0.000    0.000 
#    0.000    0.000    0.000    0.000    0.000    0.000 
#
# Total GULP energy -198391.027804 kJ/mol
# GULP energy per Si atom -12399.439238 kJ/mol
# Density = 1.866641 g / cm^3
# Si number density = 18.708997 Si / 1000 Ang^3
#
#
#
# Elastic Constant Matrix: (Units=GPa)
#
#
# Indices 1 2 3 4 5 6 
#
# 1 112.5484 9.9317 83.1322 0.0000 13.5830 0.0000
# 2 9.9317 40.2739 17.5155 0.0000 2.5241 0.0000
# 3 83.1322 17.5155 150.2203 0.0000 -17.9260 0.0000
# 4 0.0000 0.0000 0.0000 7.4307 0.0000 -1.3356
# 5 13.5830 2.5241 -17.9260 0.0000 36.7531 0.0000
# 6 0.0000 0.0000 0.0000 -1.3356 0.0000 3.8098
#
#
#
# Elastic Compliance Matrix: (Units=1/GPa)
#
#
# Indices 1 2 3 4 5 6 
#
# 1 0.019857 0.001528 -0.012800 0.000000 -0.013686 0.000000
# 2 0.001528 0.026702 -0.004508 0.000000 -0.004597 0.000000
# 3 -0.012800 -0.004508 0.015786 0.000000 0.012740 0.000000
# 4 0.000000 0.000000 0.000000 0.143626 0.000000 0.050350
# 5 -0.013686 -0.004597 0.012740 0.000000 0.038796 0.000000
# 6 0.000000 0.000000 0.000000 0.050350 0.000000 0.280133
#
#
# Mechanical properties :
#
#
# Convention : Reuss Voigt Hill
#
# Bulk Modulus (GPa) = 32.48311 58.24462 45.36386
# Shear Modulus (GPa) = 8.82268 22.42959 15.62614
#
# Velocity S-wave (km/s) = 2.17393 3.46622 2.89315
# Velocity P-wave (km/s) = 4.86840 6.87161 5.95484
#
# Compressibility (1/GPa) = 0.03078523
#
# Stress axis : x y z
#
# Youngs Moduli (GPa) = 50.36124 37.45088 63.34617
#
# Poissons Ratio (x) = -0.05722 0.81083
# Poissons Ratio (y) = -0.07695 0.28553
# Poissons Ratio (z) = 0.64463 0.16881
#
# Static dielectric constant tensor:
#      x y z
#    x 3.494550 0.000000 -0.257950 
#    y 0.000000 3.138880 0.000000 
#    z -0.257950 0.000000 3.866150 
# 
# 
# High freq. dielectric constant tensor:
#      x y z
#    x 1.728050 0.000000 -0.000420 
#    y 0.000000 1.703390 0.000000 
#    z -0.000420 0.000000 1.732280 
# 
# From -- ./inp_files/68327.got.cif
#   From: 2010.06.25/outbox.cif.g09.slc.cpg/sg10_35_cif.got.tgz:68327.got - 2010.06.27 22:07:45.
