data_PCOD8066736
_publ_section_title
;
Structure prediction by ZEFSAII (Michael W. Deem and Ramdas Pophale) SiO2 
 PCOD8066736
Probable space group: P 2/M
;
_chemical_formula_sum "Si O2"
_cell_formula_units_Z 24
_cell_length_a 9.193975
_cell_length_b 17.058441
_cell_length_c 14.881277
_cell_angle_alpha 90.000000
_cell_angle_beta 30.639201
_cell_angle_gamma 90.000000
_cell_volume 1189.427613
_symmetry_space_group_name_H-M "P 2/M"
_symmetry_group_IT_number 10
_symmetry_cell_setting 'monoclinic'
loop_
_space_group_symop_operation_xyz
x,y,z
-x,y,-z
-x,-y,-z
x,-y,z
loop_
_atom_site_type_symbol
_atom_site_label
_atom_site_fract_x
_atom_site_fract_y
_atom_site_fract_z
Si Si1 0.831902 0.500000 0.449005
Si Si2 0.186220 0.647600 0.987946
Si Si3 0.192540 0.338067 0.636298
Si Si4 0.640506 0.909363 0.829963
Si Si5 0.672786 0.187322 0.147336
Si Si6 0.117751 0.208553 0.534774
Si Si7 0.436421 0.500000 0.220320
O O1 0.775848 0.425146 0.417935
O O2 0.606355 0.500000 0.650046
O O3 0.148063 0.500000 0.318510
O O4 0.996555 0.663449 0.175020
O O5 0.364814 0.726296 0.875006
O O6 0.396617 0.577088 0.898707
O O7 0.000000 0.625026 0.000000
O O8 0.500000 0.305094 0.500000
O O9 0.062316 0.281238 0.630148
O O10 0.416796 0.878531 0.875563
O O11 0.944500 0.866154 0.663185
O O12 0.700455 0.000000 0.779422
O O13 0.500000 0.894100 0.000000
O O14 0.453908 0.185041 0.348450
O O15 0.000000 0.171530 0.000000
O O16 0.000000 0.233995 0.500000
#
# Coordination Sequence:
#
# PCOD8066736 Si02
#       7
#     2   4   4   4   4   4   2
#     4  11  26  39  60  87 120 163 208 258 303 366
#     4  11  23  40  62  88 124 162 206 256 307 363
#     4  12  24  41  64  89 122 161 207 254 311 364
#     4  10  22  41  64  92 126 163 204 251 306 368
#     4  10  21  39  63  92 125 161 207 253 308 366
#     4  10  23  40  66  93 126 162 210 254 311 367
#     4  11  24  41  60  83 126 161 208 255 309 362
#
# _framework density 20.177772999999998
#
# number of rings (size 3 to 8) (size 9 to 14) (size 15 to 20)
#    0.000    1.333    0.000    6.000    7.000    4.667 
#    0.000    0.000    0.000    2.500    0.000    0.000 
#    0.000    0.000    0.000    0.000    0.000    0.000 
#
# Total GULP energy -297694.609043 kJ/mol
# GULP energy per Si atom -12403.942043 kJ/mol
# Density = 2.013185 g / cm^3
# Si number density = 20.177773 Si / 1000 Ang^3
#
#
#
# Elastic Constant Matrix: (Units=GPa)
#
#
# Indices 1 2 3 4 5 6 
#
# 1 78.9166 50.8231 51.2473 0.0000 10.2949 0.0000
# 2 50.8231 140.1541 75.1140 0.0000 5.7026 0.0000
# 3 51.2473 75.1140 163.8219 0.0000 -1.8235 0.0000
# 4 0.0000 0.0000 0.0000 32.7519 0.0000 11.2192
# 5 10.2949 5.7026 -1.8235 0.0000 30.6247 0.0000
# 6 0.0000 0.0000 0.0000 11.2192 0.0000 30.1284
#
#
#
# Elastic Compliance Matrix: (Units=1/GPa)
#
#
# Indices 1 2 3 4 5 6 
#
# 1 0.018856 -0.004520 -0.003890 0.000000 -0.005729 0.000000
# 2 -0.004520 0.010670 -0.003486 0.000000 -0.000675 0.000000
# 3 -0.003890 -0.003486 0.008947 0.000000 0.002489 0.000000
# 4 0.000000 0.000000 0.000000 0.034997 0.000000 -0.013032
# 5 -0.005729 -0.000675 0.002489 0.000000 0.034853 0.000000
# 6 0.000000 0.000000 0.000000 -0.013032 0.000000 0.038044
#
#
# Mechanical properties :
#
#
# Convention : Reuss Voigt Hill
#
# Bulk Modulus (GPa) = 68.11272 81.91794 75.01533
# Shear Modulus (GPa) = 28.56316 32.41489 30.48903
#
# Velocity S-wave (km/s) = 3.76650 4.01242 3.89140
# Velocity P-wave (km/s) = 7.26257 7.88367 7.57949
#
# Compressibility (1/GPa) = 0.01468154
#
# Stress axis : x y z
#
# Youngs Moduli (GPa) = 53.03435 93.72468 111.76895
#
# Poissons Ratio (x) = 0.42360 0.43478
# Poissons Ratio (y) = 0.23970 0.38960
# Poissons Ratio (z) = 0.20630 0.32670
#
# Static dielectric constant tensor:
#      x y z
#    x 3.676320 0.000000 0.025060 
#    y 0.000000 3.659780 0.000000 
#    z 0.025060 0.000000 3.981390 
# 
# 
# High freq. dielectric constant tensor:
#      x y z
#    x 1.786400 0.000000 0.004430 
#    y 0.000000 1.786830 0.000000 
#    z 0.004430 0.000000 1.810000 
# 
# From -- ./inp_files/62274.got.cif
#   From: 2010.06.25/outbox.cif.g09.slc.cpg/sg10_32_cif.got.tgz:62274.got - 2010.06.27 22:07:45.
