data_PCOD8066728
_publ_section_title
;
Structure prediction by ZEFSAII (Michael W. Deem and Ramdas Pophale) SiO2 
 PCOD8066728
Probable space group: P 2/M
;
_chemical_formula_sum "Si O2"
_cell_formula_units_Z 26
_cell_length_a 13.602641
_cell_length_b 11.786547
_cell_length_c 8.560470
_cell_angle_alpha 90.000000
_cell_angle_beta 114.679196
_cell_angle_gamma 90.000000
_cell_volume 1247.121523
_symmetry_space_group_name_H-M "P 2/M"
_symmetry_group_IT_number 10
_symmetry_cell_setting 'monoclinic'
loop_
_space_group_symop_operation_xyz
x,y,z
-x,y,-z
-x,-y,-z
x,-y,z
loop_
_atom_site_type_symbol
_atom_site_label
_atom_site_fract_x
_atom_site_fract_y
_atom_site_fract_z
Si Si1 0.936996 0.228807 0.650168
Si Si2 0.858523 0.369392 0.207644
Si Si3 0.933916 0.000000 0.803626
Si Si4 0.379774 0.236950 0.435889
Si Si5 0.190355 0.369611 0.183042
Si Si6 0.369397 0.000000 0.928970
Si Si7 0.729785 0.785413 0.314729
Si Si8 0.315879 0.000000 0.260141
O O1 0.888706 0.305009 0.754745
O O2 0.848810 0.192233 0.463330
O O3 0.040032 0.298854 0.654356
O O4 0.975958 0.108951 0.739636
O O5 0.870255 0.500000 0.265448
O O6 0.746922 0.320177 0.207090
O O7 0.855049 0.354591 0.020109
O O8 0.807392 0.000000 0.763070
O O9 0.000000 0.000000 0.000000
O O10 0.500000 0.283205 0.500000
O O11 0.308865 0.316064 0.276161
O O12 0.349203 0.248810 0.597354
O O13 0.373548 0.108123 0.373136
O O14 0.194389 0.500000 0.236180
O O15 0.319505 0.108990 0.810770
O O16 0.500000 0.000000 0.000000
O O17 0.330704 0.000000 0.083027
#
# Coordination Sequence:
#
# PCOD8066728 Si02
#       8
#     4   4   2   4   4   2   4   2
#     4  11  23  40  64  92 133 170 210 249 309 381
#     4  11  24  42  64  94 131 172 210 257 317 377
#     4  12  23  36  63  97 125 165 205 254 303 371
#     4  11  23  42  67  91 122 165 215 266 318 374
#     4  10  21  39  63  90 124 167 218 261 302 373
#     4  12  26  43  68  96 127 168 212 262 329 379
#     4  11  24  40  63  94 130 160 209 267 315 376
#     4  12  22  43  66  90 126 168 209 262 309 384
#
# _framework density 20.848009000000001
#
# number of rings (size 3 to 8) (size 9 to 14) (size 15 to 20)
#    0.000    0.923    3.077    5.308    2.154    5.231 
#    0.000    1.538    0.000    2.308    0.000    0.000 
#    0.000    0.000    0.000    0.000    0.000    0.000 
#
# Total GULP energy -322342.148534 kJ/mol
# GULP energy per Si atom -12397.774944 kJ/mol
# Density = 2.080056 g / cm^3
# Si number density = 20.848009 Si / 1000 Ang^3
#
#
#
# Elastic Constant Matrix: (Units=GPa)
#
#
# Indices 1 2 3 4 5 6 
#
# 1 117.3403 58.0457 46.8580 0.0000 4.2255 0.0000
# 2 58.0457 158.0545 45.0586 0.0000 5.4382 0.0000
# 3 46.8580 45.0586 78.4970 0.0000 -3.1426 0.0000
# 4 0.0000 0.0000 0.0000 -15.7142 0.0000 45.2448
# 5 4.2255 5.4382 -3.1426 0.0000 32.7960 0.0000
# 6 0.0000 0.0000 0.0000 45.2448 0.0000 -71.7412
#
#
#
# Elastic Compliance Matrix: (Units=1/GPa)
#
#
# Indices 1 2 3 4 5 6 
#
# 1 0.012280 -0.002802 -0.005789 0.000000 -0.001672 0.000000
# 2 -0.002802 0.008297 -0.003143 0.000000 -0.001316 0.000000
# 3 -0.005789 -0.003143 0.018119 0.000000 0.003003 0.000000
# 4 0.000000 0.000000 0.000000 0.078002 0.000000 0.049193
# 5 -0.001672 -0.001316 0.003003 0.000000 0.031213 0.000000
# 6 0.000000 0.000000 0.000000 0.049193 0.000000 0.017086
#
#
# Mechanical properties :
#
#
# Convention : Reuss Voigt Hill
#
# Bulk Modulus (GPa) = 65.66434 72.64627 69.15531
# Shear Modulus (GPa) = 25.83416 2.66341 14.24878
#
# Velocity S-wave (km/s) = 3.52400 1.13151 2.61714
# Velocity P-wave (km/s) = 6.93709 6.05214 6.50967
#
# Compressibility (1/GPa) = 0.01522897
#
# Stress axis : x y z
#
# Youngs Moduli (GPa) = 81.43076 120.52234 55.18956
#
# Poissons Ratio (x) = 0.33771 0.31950
# Poissons Ratio (y) = 0.22817 0.17345
# Poissons Ratio (z) = 0.47142 0.37877
#
# Static dielectric constant tensor:
#      x y z
#    x 3.852540 0.000000 -0.141620 
#    y 0.000000 3.903920 0.000000 
#    z -0.141620 0.000000 3.932440 
# 
# 
# High freq. dielectric constant tensor:
#      x y z
#    x 1.819860 0.000000 -0.010070 
#    y 0.000000 1.820920 0.000000 
#    z -0.010070 0.000000 1.831480 
# 
# From -- ./inp_files/28439.got.cif
#   From: 2010.06.25/outbox.cif.g09.slc.cpg/sg10_15_cif.got.tgz:28439.got - 2010.06.27 22:07:45.
