data_PCOD8066127
_publ_section_title
;
Structure prediction by ZEFSAII (Michael W. Deem and Ramdas Pophale) SiO2 
 PCOD8066127
Probable space group: P 2/M
;
_chemical_formula_sum "Si O2"
_cell_formula_units_Z 20
_cell_length_a 7.703216
_cell_length_b 10.042193
_cell_length_c 18.183816
_cell_angle_alpha 90.000000
_cell_angle_beta 47.863428
_cell_angle_gamma 90.000000
_cell_volume 1043.097231
_symmetry_space_group_name_H-M "P 2/M"
_symmetry_group_IT_number 10
_symmetry_cell_setting 'monoclinic'
loop_
_space_group_symop_operation_xyz
x,y,z
-x,y,-z
-x,-y,-z
x,-y,z
loop_
_atom_site_type_symbol
_atom_site_label
_atom_site_fract_x
_atom_site_fract_y
_atom_site_fract_z
Si Si1 0.196482 0.150795 0.502630
Si Si2 0.495717 0.648766 0.201117
Si Si3 0.028591 0.750702 0.291071
Si Si4 0.544209 0.849574 0.905016
Si Si5 0.418068 0.347587 0.658318
O O1 0.095339 0.156804 0.613437
O O2 0.412293 0.251618 0.435580
O O3 0.000000 0.192906 0.500000
O O4 0.283173 0.000000 0.462779
O O5 0.584716 0.500000 0.157759
O O6 0.596306 0.752143 0.111408
O O7 0.583449 0.695127 0.256000
O O8 0.210982 0.651279 0.280129
O O9 0.842976 0.664973 0.298299
O O10 0.177566 0.843156 0.192357
O O11 0.451552 0.000000 0.921618
O O12 0.500000 0.798317 0.000000
O O13 0.504318 0.500000 0.624969
#
# Coordination Sequence:
#
# PCOD8066127 Si02
#       5
#     4   4   4   4   4
#     4  11  22  38  58  83 116 155 192 231 282 336
#     4   9  20  37  58  82 113 149 184 231 282 329
#     4  10  21  36  60  82 113 150 186 234 279 333
#     4   9  19  38  63  86 112 148 188 233 285 338
#     4  11  23  38  58  85 116 151 193 232 277 337
#
# _framework density 19.173666999999998
#
# number of rings (size 3 to 8) (size 9 to 14) (size 15 to 20)
#    1.200    0.800    2.000    1.800    0.000    6.400 
#    0.000    1.000    0.000    4.800    0.000    0.000 
#    0.000    0.000    0.000    0.000    0.000    0.000 
#
# Total GULP energy -247902.017601 kJ/mol
# GULP energy per Si atom -12395.100880 kJ/mol
# Density = 1.913003 g / cm^3
# Si number density = 19.173667 Si / 1000 Ang^3
#
#
#
# Elastic Constant Matrix: (Units=GPa)
#
#
# Indices 1 2 3 4 5 6 
#
# 1 100.9422 16.4236 25.6478 0.0000 20.2898 0.0000
# 2 16.4236 82.1971 39.0852 0.0000 13.9476 0.0000
# 3 25.6478 39.0852 115.7266 0.0000 30.2574 0.0000
# 4 0.0000 0.0000 0.0000 25.4154 0.0000 6.5123
# 5 20.2898 13.9476 30.2574 0.0000 22.1242 0.0000
# 6 0.0000 0.0000 0.0000 6.5123 0.0000 21.1169
#
#
#
# Elastic Compliance Matrix: (Units=1/GPa)
#
#
# Indices 1 2 3 4 5 6 
#
# 1 0.012193 -0.000752 0.000547 0.000000 -0.011456 0.000000
# 2 -0.000752 0.014748 -0.003991 0.000000 -0.003150 0.000000
# 3 0.000547 -0.003991 0.014540 0.000000 -0.017871 0.000000
# 4 0.000000 0.000000 0.000000 0.042722 0.000000 -0.013175
# 5 -0.011456 -0.003150 -0.017871 0.000000 0.082132 0.000000
# 6 0.000000 0.000000 0.000000 -0.013175 0.000000 0.051418
#
#
# Mechanical properties :
#
#
# Convention : Reuss Voigt Hill
#
# Bulk Modulus (GPa) = 30.22164 51.24211 40.73188
# Shear Modulus (GPa) = 21.08141 28.24526 24.66334
#
# Velocity S-wave (km/s) = 3.31947 3.84230 3.59041
# Velocity P-wave (km/s) = 5.52160 6.81672 6.20305
#
# Compressibility (1/GPa) = 0.03308887
#
# Stress axis : x y z
#
# Youngs Moduli (GPa) = 82.01626 67.80429 68.77487
#
# Poissons Ratio (x) = 0.05102 -0.03762
# Poissons Ratio (y) = 0.06172 0.27446
# Poissons Ratio (z) = -0.04487 0.27059
#
# Static dielectric constant tensor:
#      x y z
#    x 3.399880 0.000000 0.181720 
#    y 0.000000 3.323310 0.000000 
#    z 0.181720 0.000000 3.308380 
# 
# 
# High freq. dielectric constant tensor:
#      x y z
#    x 1.736080 0.000000 0.022020 
#    y 0.000000 1.744880 0.000000 
#    z 0.022020 0.000000 1.730770 
# 
# From -- ./inp_files/74283.got.cif
#   From: 2010.06.25/outbox.cif.g09.slc.cpg/sg10_38_cif.got.tgz:74283.got - 2010.06.27 22:07:45.
