data_PCOD8066342
_publ_section_title
;
Structure prediction by ZEFSAII (Michael W. Deem and Ramdas Pophale) SiO2 
 PCOD8066342
Probable space group: P 2/M
;
_chemical_formula_sum "Si O2"
_cell_formula_units_Z 32
_cell_length_a 14.187058
_cell_length_b 8.870597
_cell_length_c 23.896893
_cell_angle_alpha 90.000000
_cell_angle_beta 147.375478
_cell_angle_gamma 90.000000
_cell_volume 1621.366426
_symmetry_space_group_name_H-M "P 2/M"
_symmetry_group_IT_number 10
_symmetry_cell_setting 'monoclinic'
loop_
_space_group_symop_operation_xyz
x,y,z
-x,y,-z
-x,-y,-z
x,-y,z
loop_
_atom_site_type_symbol
_atom_site_label
_atom_site_fract_x
_atom_site_fract_y
_atom_site_fract_z
Si Si1 0.705079 0.327476 0.217926
Si Si2 0.000017 0.178027 0.436727
Si Si3 0.705052 0.327476 0.487134
Si Si4 0.688592 0.326388 0.984832
Si Si5 0.796133 0.174835 0.646488
Si Si6 0.688618 0.673612 0.703767
Si Si7 0.796130 0.174834 0.149639
Si Si8 0.000011 0.321348 0.937648
O O1 0.766461 0.500000 0.250683
O O2 0.504757 0.310080 0.137851
O O3 0.720351 0.270270 0.162512
O O4 0.825609 0.233167 0.319444
O O5 0.174444 0.233174 0.493877
O O6 0.000000 0.238857 0.500000
O O7 0.000019 0.000000 0.434246
O O8 0.766433 0.500000 0.515758
O O9 0.720362 0.270266 0.557837
O O10 0.504720 0.310083 0.366889
O O11 0.728826 0.500000 0.020947
O O12 0.698374 0.225363 0.044899
O O13 0.827068 0.265759 0.008502
O O14 0.698370 0.225369 0.653465
O O15 0.000001 0.208435 0.755326
O O16 0.758284 0.000000 0.616239
O O17 0.728853 0.500000 0.707888
O O18 0.827111 0.734255 0.818577
O O19 0.758282 0.000000 0.142039
O O20 0.999994 0.500000 0.942186
O O21 0.000000 0.250405 0.000000
#
# Coordination Sequence:
#
# PCOD8066342 Si02
#       8
#     4   4   4   4   4   4   4   4
#     4  11  23  38  61  91 119 152 194 245 298 348
#     4  11  25  44  63  84 115 158 202 243 294 355
#     4  11  23  38  61  91 119 152 194 245 298 348
#     4  10  21  37  60  89 119 153 195 241 292 351
#     4  11  22  36  58  87 120 158 195 238 292 352
#     4  10  21  37  60  89 119 153 195 241 292 351
#     4  11  22  36  58  87 120 158 195 238 292 352
#     4   9  18  35  59  84 113 150 190 235 284 337
#
# _framework density 19.736440000000002
#
# number of rings (size 3 to 8) (size 9 to 14) (size 15 to 20)
#    0.000    1.500    2.500    2.625    0.000    8.000 
#    0.000    2.500    0.000    1.500    0.000    0.000 
#    0.000    0.000    0.000    0.000    0.000    0.000 
#
# Total GULP energy -396950.111186 kJ/mol
# GULP energy per Si atom -12404.690975 kJ/mol
# Density = 1.969152 g / cm^3
# Si number density = 19.736440 Si / 1000 Ang^3
#
#
#
# Elastic Constant Matrix: (Units=GPa)
#
#
# Indices 1 2 3 4 5 6 
#
# 1 104.1912 24.6496 84.6689 0.0000 -17.5380 0.0000
# 2 24.6496 49.1568 27.0176 0.0000 2.8814 0.0000
# 3 84.6689 27.0176 97.3857 0.0000 9.5295 0.0000
# 4 0.0000 0.0000 0.0000 24.6917 0.0000 -1.7421
# 5 -17.5380 2.8814 9.5295 0.0000 35.0566 0.0000
# 6 0.0000 0.0000 0.0000 -1.7421 0.0000 26.1413
#
#
#
# Elastic Compliance Matrix: (Units=1/GPa)
#
#
# Indices 1 2 3 4 5 6 
#
# 1 0.090959 -0.002925 -0.085007 0.000000 0.068852 0.000000
# 2 -0.002925 0.024098 -0.003909 0.000000 -0.002382 0.000000
# 3 -0.085007 -0.003909 0.091832 0.000000 -0.067169 0.000000
# 4 0.000000 0.000000 0.000000 0.040691 0.000000 0.002712
# 5 0.068852 -0.002382 -0.067169 0.000000 0.081425 0.000000
# 6 0.000000 0.000000 0.000000 0.002712 0.000000 0.038434
#
#
# Mechanical properties :
#
#
# Convention : Reuss Voigt Hill
#
# Bulk Modulus (GPa) = 43.09211 58.15620 50.62416
# Shear Modulus (GPa) = 8.94683 24.80441 16.87562
#
# Velocity S-wave (km/s) = 2.13143 3.54896 2.92729
# Velocity P-wave (km/s) = 5.28569 6.80616 6.09354
#
# Compressibility (1/GPa) = 0.02320610
#
# Stress axis : x y z
#
# Youngs Moduli (GPa) = 10.99400 41.49709 10.88942
#
# Poissons Ratio (x) = 0.12139 0.92568
# Poissons Ratio (y) = 0.03216 0.04257
# Poissons Ratio (z) = 0.93457 0.16222
#
# Static dielectric constant tensor:
#      x y z
#    x 3.679660 0.000000 0.083840 
#    y 0.000000 3.513900 0.000000 
#    z 0.083840 0.000000 3.749010 
# 
# 
# High freq. dielectric constant tensor:
#      x y z
#    x 1.770060 0.000000 0.011620 
#    y 0.000000 1.761070 0.000000 
#    z 0.011620 0.000000 1.779690 
# 
# From -- ./inp_files/89607.got.cif
#   From: 2010.06.25/outbox.cif.g09.slc.cpg/sg10_45_cif.got.tgz:89607.got - 2010.06.27 22:07:45.
