data_PCOD8067956
_publ_section_title
;
Structure prediction by ZEFSAII (Michael W. Deem and Ramdas Pophale) SiO2 
 PCOD8067956
Probable space group: P 2/M
;
_chemical_formula_sum "Si O2"
_cell_formula_units_Z 18
_cell_length_a 15.353401
_cell_length_b 9.589843
_cell_length_c 24.274830
_cell_angle_alpha 90.000000
_cell_angle_beta 161.569190
_cell_angle_gamma 90.000000
_cell_volume 1129.999264
_symmetry_space_group_name_H-M "P 2/M"
_symmetry_group_IT_number 10
_symmetry_cell_setting 'monoclinic'
loop_
_space_group_symop_operation_xyz
x,y,z
-x,y,-z
-x,-y,-z
x,-y,z
loop_
_atom_site_type_symbol
_atom_site_label
_atom_site_fract_x
_atom_site_fract_y
_atom_site_fract_z
Si Si1 0.500000 0.750235 0.000000
Si Si2 0.959766 0.154757 0.632452
Si Si3 0.716890 0.654809 0.022145
Si Si4 0.793520 0.836153 0.652463
Si Si5 0.118015 0.663798 0.629515
O O1 0.638198 0.647181 0.039109
O O2 0.719307 0.853073 0.159249
O O3 0.796407 0.206222 0.589293
O O4 0.930762 0.260019 0.563606
O O5 0.860741 0.000000 0.555391
O O6 0.804999 0.500000 0.055267
O O7 0.974139 0.760065 0.170675
O O8 0.442579 0.706220 0.824867
O O9 0.500000 0.790885 0.500000
O O10 0.849602 0.000000 0.692372
O O11 0.086599 0.500000 0.621923
O O12 0.000000 0.709253 0.500000
#
# Coordination Sequence:
#
# PCOD8067956 Si02
#       5
#     2   4   4   4   4
#     4   8  14  24  40  62  90 112 128 166 226 272
#     4   9  16  26  43  65  86 110 143 178 211 254
#     4   9  16  26  43  65  86 110 143 178 211 254
#     4   9  18  31  45  63  90 119 142 172 218 261
#     4   9  18  31  45  63  90 119 142 172 218 261
#
# _framework density 15.929214
#
# number of rings (size 3 to 8) (size 9 to 14) (size 15 to 20)
#    0.000    3.111    0.000    0.667    0.000   11.556 
#    0.000    0.000    0.000    1.333    0.000    9.333 
#    0.000    0.000    0.000    0.000    0.000    0.000 
#
# Total GULP energy -223009.325523 kJ/mol
# GULP energy per Si atom -12389.406974 kJ/mol
# Density = 1.589296 g / cm^3
# Si number density = 15.929214 Si / 1000 Ang^3
#
#
#
# Elastic Constant Matrix: (Units=GPa)
#
#
# Indices 1 2 3 4 5 6 
#
# 1 95.0976 40.4689 57.1107 0.0000 0.0734 0.0000
# 2 40.4689 59.2046 40.4625 0.0000 0.0051 0.0000
# 3 57.1107 40.4625 94.8783 0.0000 -0.0512 0.0000
# 4 0.0000 0.0000 0.0000 19.7273 0.0000 -0.0024
# 5 0.0734 0.0051 -0.0512 0.0000 27.8695 0.0000
# 6 0.0000 0.0000 0.0000 -0.0024 0.0000 19.7249
#
#
#
# Elastic Compliance Matrix: (Units=1/GPa)
#
#
# Indices 1 2 3 4 5 6 
#
# 1 0.018338 -0.007044 -0.008034 0.000000 -0.000062 0.000000
# 2 -0.007044 0.026544 -0.007080 0.000000 0.000001 0.000000
# 3 -0.008034 -0.007080 0.018396 0.000000 0.000056 0.000000
# 4 0.000000 0.000000 0.000000 0.050691 0.000000 0.000006
# 5 -0.000062 0.000001 0.000056 0.000000 0.035882 0.000000
# 6 0.000000 0.000000 0.000000 0.000006 0.000000 0.050697
#
#
# Mechanical properties :
#
#
# Convention : Reuss Voigt Hill
#
# Bulk Modulus (GPa) = 52.74047 58.36273 55.55160
# Shear Modulus (GPa) = 19.90557 20.87357 20.38957
#
# Velocity S-wave (km/s) = 3.53884 3.62387 3.58161
# Velocity P-wave (km/s) = 7.06251 7.36398 7.21482
#
# Compressibility (1/GPa) = 0.01896077
#
# Stress axis : x y z
#
# Youngs Moduli (GPa) = 54.53106 37.67290 54.36083
#
# Poissons Ratio (x) = 0.26536 0.43676
# Poissons Ratio (y) = 0.38411 0.38489
# Poissons Ratio (z) = 0.43813 0.26674
#
# Static dielectric constant tensor:
#      x y z
#    x 2.975960 0.000000 0.000110 
#    y 0.000000 2.936100 0.000000 
#    z 0.000110 0.000000 2.973800 
# 
# 
# High freq. dielectric constant tensor:
#      x y z
#    x 1.590100 0.000000 0.000010 
#    y 0.000000 1.610080 0.000000 
#    z 0.000010 0.000000 1.589930 
# 
# From -- ./inp_files/44249.got.cif
#   From: 2010.06.25/outbox.cif.g09.slc.cpg/sg10_23_cif.got.tgz:44249.got - 2010.06.27 22:07:45.
