data_PCOD8067041
_publ_section_title
;
Structure prediction by ZEFSAII (Michael W. Deem and Ramdas Pophale) SiO2 
 PCOD8067041
Probable space group: P 2/M
;
_chemical_formula_sum "Si O2"
_cell_formula_units_Z 32
_cell_length_a 26.895636
_cell_length_b 8.781871
_cell_length_c 20.984308
_cell_angle_alpha 90.000000
_cell_angle_beta 19.613107
_cell_angle_gamma 90.000000
_cell_volume 1663.689428
_symmetry_space_group_name_H-M "P 2/M"
_symmetry_group_IT_number 10
_symmetry_cell_setting 'monoclinic'
loop_
_space_group_symop_operation_xyz
x,y,z
-x,y,-z
-x,-y,-z
x,-y,z
loop_
_atom_site_type_symbol
_atom_site_label
_atom_site_fract_x
_atom_site_fract_y
_atom_site_fract_z
Si Si1 0.016993 0.821047 0.248163
Si Si2 0.225710 0.319511 0.210915
Si Si3 0.511647 0.680662 0.186892
Si Si4 0.665331 0.321732 0.129262
Si Si5 0.952555 0.680327 0.456138
Si Si6 0.459505 0.825965 0.476732
Si Si7 0.846749 0.176007 0.216866
Si Si8 0.811116 0.319980 0.395502
O O1 0.931814 0.757459 0.412926
O O2 0.942708 0.760376 0.273714
O O3 0.006606 0.000000 0.261717
O O4 0.185367 0.770364 0.042029
O O5 0.219493 0.500000 0.219023
O O6 0.107107 0.265470 0.301078
O O7 0.180456 0.263292 0.336307
O O8 0.389537 0.260837 0.992692
O O9 0.510183 0.500000 0.190294
O O10 0.587833 0.740402 0.159149
O O11 0.343530 0.740129 0.386773
O O12 0.702785 0.500000 0.080054
O O13 0.555132 0.290223 0.320072
O O14 0.948708 0.500000 0.450770
O O15 0.500000 0.788293 0.500000
O O16 0.285115 0.797712 0.674743
O O17 0.501659 0.000000 0.408702
O O18 0.815878 0.277465 0.315792
O O19 0.857243 0.000000 0.225108
O O20 0.000000 0.230098 0.000000
O O21 0.826792 0.500000 0.383392
#
# Coordination Sequence:
#
# PCOD8067041 Si02
#       8
#     4   4   4   4   4   4   4   4
#     4  12  25  39  56  83 120 159 195 240 298 356
#     4   8  14  28  56  88 115 146 186 237 292 343
#     4   9  17  33  59  88 115 144 188 240 292 340
#     4  11  21  38  63  89 116 148 196 252 292 337
#     4   9  16  31  57  86 115 149 191 239 288 341
#     4  10  22  39  59  87 123 159 193 230 282 348
#     4  10  22  40  60  84 119 161 196 229 280 347
#     4  11  23  40  61  86 115 153 199 247 291 341
#
# _framework density 19.234359000000001
#
# number of rings (size 3 to 8) (size 9 to 14) (size 15 to 20)
#    0.000    2.000    2.500    2.625    1.750    0.500 
#    0.000    1.875    0.000    3.750    0.000    0.000 
#    0.000    0.000    0.000    0.000    0.000    0.000 
#
# Total GULP energy -396760.302135 kJ/mol
# GULP energy per Si atom -12398.759442 kJ/mol
# Density = 1.919058 g / cm^3
# Si number density = 19.234359 Si / 1000 Ang^3
#
#
#
# Elastic Constant Matrix: (Units=GPa)
#
#
# Indices 1 2 3 4 5 6 
#
# 1 88.6711 25.3060 38.6791 0.0000 -5.1124 0.0000
# 2 25.3060 62.1452 29.9289 0.0000 -2.1031 0.0000
# 3 38.6791 29.9289 121.4385 0.0000 10.0603 0.0000
# 4 0.0000 0.0000 0.0000 14.1165 0.0000 0.1000
# 5 -5.1124 -2.1031 10.0603 0.0000 29.0822 0.0000
# 6 0.0000 0.0000 0.0000 0.1000 0.0000 19.2774
#
#
#
# Elastic Compliance Matrix: (Units=1/GPa)
#
#
# Indices 1 2 3 4 5 6 
#
# 1 0.014275 -0.003811 -0.003904 0.000000 0.003584 0.000000
# 2 -0.003811 0.019527 -0.003768 0.000000 0.002046 0.000000
# 3 -0.003904 -0.003768 0.010796 0.000000 -0.004693 0.000000
# 4 0.000000 0.000000 0.000000 0.070842 0.000000 -0.000368
# 5 0.003584 0.002046 -0.004693 0.000000 0.036787 0.000000
# 6 0.000000 0.000000 0.000000 -0.000368 0.000000 0.051876
#
#
# Mechanical properties :
#
#
# Convention : Reuss Voigt Hill
#
# Bulk Modulus (GPa) = 46.23100 51.12034 48.67567
# Shear Modulus (GPa) = 21.34191 24.38459 22.86325
#
# Velocity S-wave (km/s) = 3.33464 3.56443 3.45145
# Velocity P-wave (km/s) = 6.23813 6.60117 6.42222
#
# Compressibility (1/GPa) = 0.02163051
#
# Stress axis : x y z
#
# Youngs Moduli (GPa) = 70.05188 51.21040 92.62981
#
# Poissons Ratio (x) = 0.19518 0.36166
# Poissons Ratio (y) = 0.26699 0.34904
# Poissons Ratio (z) = 0.27351 0.19297
#
# Static dielectric constant tensor:
#      x y z
#    x 3.500660 0.000000 0.070600 
#    y 0.000000 3.225570 0.000000 
#    z 0.070600 0.000000 3.868830 
# 
# 
# High freq. dielectric constant tensor:
#      x y z
#    x 1.742400 0.000000 0.007650 
#    y 0.000000 1.720230 0.000000 
#    z 0.007650 0.000000 1.761370 
# 
# From -- ./inp_files/86862.got.cif
#   From: 2010.06.25/outbox.cif.g09.slc.cpg/sg10_44_cif.got.tgz:86862.got - 2010.06.27 22:07:45.
