data_PCOD8067186
_publ_section_title
;
Structure prediction by ZEFSAII (Michael W. Deem and Ramdas Pophale) SiO2 
 PCOD8067186
Probable space group: P 2/M
;
_chemical_formula_sum "Si O2"
_cell_formula_units_Z 24
_cell_length_a 10.275343
_cell_length_b 7.817505
_cell_length_c 14.240998
_cell_angle_alpha 90.000000
_cell_angle_beta 95.975977
_cell_angle_gamma 90.000000
_cell_volume 1137.727800
_symmetry_space_group_name_H-M "P 2/M"
_symmetry_group_IT_number 10
_symmetry_cell_setting 'monoclinic'
loop_
_space_group_symop_operation_xyz
x,y,z
-x,y,-z
-x,-y,-z
x,-y,z
loop_
_atom_site_type_symbol
_atom_site_label
_atom_site_fract_x
_atom_site_fract_y
_atom_site_fract_z
Si Si1 0.208105 0.500000 0.547585
Si Si2 0.956303 0.192460 0.790367
Si Si3 0.953262 0.500000 0.649162
Si Si4 0.473835 0.803923 0.791054
Si Si5 0.594249 0.804569 0.421746
Si Si6 0.777397 0.689105 0.124331
Si Si7 0.269321 0.200388 0.085612
O O1 0.156256 0.500000 0.438328
O O2 0.286446 0.674304 0.569470
O O3 0.096657 0.500000 0.616863
O O4 0.934485 0.326119 0.705737
O O5 0.862604 0.246897 0.868934
O O6 0.105406 0.184691 0.838713
O O7 0.920743 0.000000 0.752456
O O8 0.487599 0.781879 0.680218
O O9 0.346669 0.706001 0.817413
O O10 0.605657 0.729090 0.847313
O O11 0.455782 0.000000 0.819030
O O12 0.500000 0.757009 0.500000
O O13 0.647063 0.000000 0.434547
O O14 0.835506 0.500000 0.143000
O O15 0.731388 0.710151 0.014529
O O16 0.281661 0.000000 0.069904
#
# Coordination Sequence:
#
# PCOD8067186 Si02
#       7
#     2   4   2   4   4   4   4
#     4  11  25  44  66  97 133 168 211 272 330 377
#     4  11  24  44  69  93 129 175 216 268 326 380
#     4  11  26  44  65  99 129 166 222 265 319 400
#     4  10  22  41  65  93 129 171 217 270 322 383
#     4  10  23  43  69  98 129 169 218 266 324 390
#     4  12  24  39  61  96 134 173 220 263 317 391
#     4  10  23  41  64  94 128 172 223 266 320 383
#
# _framework density 21.094674999999999
#
# number of rings (size 3 to 8) (size 9 to 14) (size 15 to 20)
#    0.000    1.333    0.833    3.750    4.667    7.333 
#    0.000    1.667    0.000    0.000    0.000    0.000 
#    0.000    0.000    0.000    0.000    0.000    0.000 
#
# Total GULP energy -297705.099584 kJ/mol
# GULP energy per Si atom -12404.379149 kJ/mol
# Density = 2.104666 g / cm^3
# Si number density = 21.094675 Si / 1000 Ang^3
#
#
#
# Elastic Constant Matrix: (Units=GPa)
#
#
# Indices 1 2 3 4 5 6 
#
# 1 86.6261 15.5420 19.9018 0.0000 -3.4605 0.0000
# 2 15.5420 91.7793 32.8696 0.0000 -0.1708 0.0000
# 3 19.9018 32.8696 101.1334 0.0000 -19.4232 0.0000
# 4 0.0000 0.0000 0.0000 24.5146 0.0000 8.9369
# 5 -3.4605 -0.1708 -19.4232 0.0000 29.2410 0.0000
# 6 0.0000 0.0000 0.0000 8.9369 0.0000 -1.1814
#
#
#
# Elastic Compliance Matrix: (Units=1/GPa)
#
#
# Indices 1 2 3 4 5 6 
#
# 1 0.012241 -0.001382 -0.001929 0.000000 0.000159 0.000000
# 2 -0.001382 0.012716 -0.004445 0.000000 -0.003042 0.000000
# 3 -0.001929 -0.004445 0.013369 0.000000 0.008626 0.000000
# 4 0.000000 0.000000 0.000000 0.010856 0.000000 0.082118
# 5 0.000159 -0.003042 0.008626 0.000000 0.039929 0.000000
# 6 0.000000 0.000000 0.000000 0.082118 0.000000 -0.225256
#
#
# Mechanical properties :
#
#
# Convention : Reuss Voigt Hill
#
# Bulk Modulus (GPa) = 43.83278 46.24061 45.03669
# Shear Modulus (GPa) = -44.23696 24.59653 -9.82022
#
# Velocity S-wave (km/s) = -4.58434 3.41839 -2.15996
# Velocity P-wave (km/s) = 2.68280 6.12769 3.89559
#
# Compressibility (1/GPa) = 0.02281398
#
# Stress axis : x y z
#
# Youngs Moduli (GPa) = 81.69018 78.64108 74.79993
#
# Poissons Ratio (x) = 0.10866 0.14431
# Poissons Ratio (y) = 0.11287 0.33250
# Poissons Ratio (z) = 0.15761 0.34957
#
# Static dielectric constant tensor:
#      x y z
#    x 3.846170 0.000000 -0.035770 
#    y 0.000000 3.878460 0.000000 
#    z -0.035770 0.000000 3.929130 
# 
# 
# High freq. dielectric constant tensor:
#      x y z
#    x 1.830440 0.000000 -0.004300 
#    y 0.000000 1.832850 0.000000 
#    z -0.004300 0.000000 1.836680 
# 
# From -- ./inp_files/60403.got.cif
#   From: 2010.06.25/outbox.cif.g09.slc.cpg/sg10_31_cif.got.tgz:60403.got - 2010.06.27 22:07:45.
