data_PCOD8067584
_publ_section_title
;
Structure prediction by ZEFSAII (Michael W. Deem and Ramdas Pophale) SiO2 
 PCOD8067584
Probable space group: P 2/M
;
_chemical_formula_sum "Si O2"
_cell_formula_units_Z 26
_cell_length_a 8.855415
_cell_length_b 18.888684
_cell_length_c 12.159812
_cell_angle_alpha 90.000000
_cell_angle_beta 38.732660
_cell_angle_gamma 90.000000
_cell_volume 1272.608744
_symmetry_space_group_name_H-M "P 2/M"
_symmetry_group_IT_number 10
_symmetry_cell_setting 'monoclinic'
loop_
_space_group_symop_operation_xyz
x,y,z
-x,y,-z
-x,-y,-z
x,-y,z
loop_
_atom_site_type_symbol
_atom_site_label
_atom_site_fract_x
_atom_site_fract_y
_atom_site_fract_z
Si Si1 0.122577 0.921757 0.548488
Si Si2 0.267256 0.816447 0.182235
Si Si3 0.605433 0.666093 0.554416
Si Si4 0.518295 0.812534 0.707171
Si Si5 0.000000 0.234005 0.000000
Si Si6 0.925017 0.683909 0.826151
Si Si7 0.262234 0.419436 0.907702
O O1 0.391828 0.887927 0.392273
O O2 0.000000 0.929186 0.500000
O O3 0.958353 0.868078 0.712324
O O4 0.140724 0.000000 0.592147
O O5 0.313661 0.797742 0.282765
O O6 0.241509 0.743738 0.131043
O O7 0.500000 0.856550 0.000000
O O8 0.500000 0.640128 0.500000
O O9 0.569060 0.749373 0.594322
O O10 0.481113 0.618904 0.718723
O O11 0.893116 0.655665 0.371873
O O12 0.231760 0.815409 0.894489
O O13 0.056804 0.283820 0.861703
O O14 0.757996 0.619221 0.962524
O O15 0.342479 0.500000 0.879788
O O16 0.000000 0.415491 0.000000
#
# Coordination Sequence:
#
# PCOD8067584 Si02
#       7
#     4   4   4   4   2   4   4
#     4   9  20  37  56  86 124 157 195 250 303 348
#     4  11  21  35  62  91 115 155 206 247 303 356
#     4  12  20  34  59  86 118 160 204 241 302 352
#     4  11  21  36  60  90 120 154 201 252 294 363
#     4  12  20  36  60  90 122 152 202 256 300 350
#     4  12  21  37  60  89 120 156 200 253 301 350
#     4  11  22  36  55  89 127 157 201 254 298 357
#
# _framework density 20.430472999999999
#
# number of rings (size 3 to 8) (size 9 to 14) (size 15 to 20)
#    0.000    0.923    8.462    0.000    0.000    1.231 
#    0.000    0.385    0.000    8.308    0.000    5.385 
#    0.000    0.000    0.000    0.000    0.000    0.000 
#
# Total GULP energy -322200.613535 kJ/mol
# GULP energy per Si atom -12392.331290 kJ/mol
# Density = 2.038397 g / cm^3
# Si number density = 20.430473 Si / 1000 Ang^3
#
#
#
# Elastic Constant Matrix: (Units=GPa)
#
#
# Indices 1 2 3 4 5 6 
#
# 1 44.3696 30.8875 18.9667 0.0000 -5.8001 0.0000
# 2 30.8875 156.5521 69.0602 0.0000 -15.1145 0.0000
# 3 18.9667 69.0602 160.6079 0.0000 -18.2586 0.0000
# 4 0.0000 0.0000 0.0000 11.4233 0.0000 -1.5629
# 5 -5.8001 -15.1145 -18.2586 0.0000 22.5733 0.0000
# 6 0.0000 0.0000 0.0000 -1.5629 0.0000 19.6058
#
#
#
# Elastic Compliance Matrix: (Units=1/GPa)
#
#
# Indices 1 2 3 4 5 6 
#
# 1 0.026467 -0.004566 -0.000811 0.000000 0.003087 0.000000
# 2 -0.004566 0.008834 -0.002996 0.000000 0.002319 0.000000
# 3 -0.000811 -0.002996 0.008104 0.000000 0.004340 0.000000
# 4 0.000000 0.000000 0.000000 0.088506 0.000000 0.007055
# 5 0.003087 0.002319 0.004340 0.000000 0.050157 0.000000
# 6 0.000000 0.000000 0.000000 0.007055 0.000000 0.051568
#
#
# Mechanical properties :
#
#
# Convention : Reuss Voigt Hill
#
# Bulk Modulus (GPa) = 37.51138 66.59537 52.05338
# Shear Modulus (GPa) = 19.28516 26.89481 23.08998
#
# Velocity S-wave (km/s) = 3.07570 3.63217 3.36545
# Velocity P-wave (km/s) = 5.56898 7.08922 6.37458
#
# Compressibility (1/GPa) = 0.02665858
#
# Stress axis : x y z
#
# Youngs Moduli (GPa) = 37.78313 113.20079 123.40012
#
# Poissons Ratio (x) = 0.51687 0.10011
# Poissons Ratio (y) = 0.17252 0.36967
# Poissons Ratio (z) = 0.03065 0.33911
#
# Static dielectric constant tensor:
#      x y z
#    x 3.457230 0.000000 -0.013730 
#    y 0.000000 3.740750 0.000000 
#    z -0.013730 0.000000 4.140200 
# 
# 
# High freq. dielectric constant tensor:
#      x y z
#    x 1.767280 0.000000 -0.006580 
#    y 0.000000 1.775430 0.000000 
#    z -0.006580 0.000000 1.817730 
# 
# From -- ./inp_files/43562.got.cif
#   From: 2010.06.25/outbox.cif.g09.slc.cpg/sg10_22_cif.got.tgz:43562.got - 2010.06.27 22:07:45.
