data_PCOD8067355
_publ_section_title
;
Structure prediction by ZEFSAII (Michael W. Deem and Ramdas Pophale) SiO2 
 PCOD8067355
Probable space group: P 2/M
;
_chemical_formula_sum "Si O2"
_cell_formula_units_Z 28
_cell_length_a 9.720170
_cell_length_b 14.810769
_cell_length_c 21.835960
_cell_angle_alpha 90.000000
_cell_angle_beta 26.209922
_cell_angle_gamma 90.000000
_cell_volume 1388.394973
_symmetry_space_group_name_H-M "P 2/M"
_symmetry_group_IT_number 10
_symmetry_cell_setting 'monoclinic'
loop_
_space_group_symop_operation_xyz
x,y,z
-x,y,-z
-x,-y,-z
x,-y,z
loop_
_atom_site_type_symbol
_atom_site_label
_atom_site_fract_x
_atom_site_fract_y
_atom_site_fract_z
Si Si1 0.300798 0.000000 0.642364
Si Si2 0.147820 0.832823 0.160922
Si Si3 0.328696 0.399538 0.504848
Si Si4 0.242990 0.301658 0.756936
Si Si5 0.328491 0.808915 0.333579
Si Si6 0.242576 0.279673 0.241749
Si Si7 0.634382 0.000000 0.637312
Si Si8 0.655875 0.397538 0.002201
O O1 0.500000 0.000000 0.500000
O O2 0.543229 0.000000 0.602169
O O3 0.069387 0.917036 0.739160
O O4 0.119337 0.775987 0.233875
O O5 0.995449 0.776883 0.166849
O O6 0.500000 0.859955 0.000000
O O7 0.500000 0.408778 0.500000
O O8 0.306770 0.500000 0.483617
O O9 0.508275 0.326204 0.393447
O O10 0.986356 0.360443 0.649145
O O11 0.434240 0.268613 0.739293
O O12 0.031366 0.390646 0.852029
O O13 0.289226 0.792198 0.277317
O O14 0.484952 0.907842 0.282328
O O15 0.000000 0.801047 0.500000
O O16 0.554590 0.332173 0.097774
O O17 0.000000 0.000000 0.500000
O O18 0.553135 0.500000 0.055546
O O19 0.500000 0.364427 0.000000
#
# Coordination Sequence:
#
# PCOD8067355 Si02
#       8
#     2   4   4   4   4   4   2   4
#     4  12  29  43  77 108 128 174 230 284 333 395
#     4  12  25  46  68 100 141 170 216 284 336 394
#     4  11  22  36  62  98 131 169 224 284 330 384
#     4  12  21  42  66  96 130 180 218 270 337 397
#     4  11  25  42  67  92 139 177 216 279 340 401
#     4  12  23  41  67  99 132 177 227 272 334 404
#     4  10  24  45  63 100 139 169 213 272 337 402
#     4  11  22  42  69  99 134 176 226 282 336 396
#
# _framework density 20.167172999999998
#
# number of rings (size 3 to 8) (size 9 to 14) (size 15 to 20)
#    0.000    0.571    7.143    1.071    6.000    2.857 
#    0.000    4.286    0.000    1.714    0.000    0.000 
#    0.000    0.000    0.000    0.000    0.000    0.000 
#
# Total GULP energy -347127.812367 kJ/mol
# GULP energy per Si atom -12397.421870 kJ/mol
# Density = 2.012127 g / cm^3
# Si number density = 20.167173 Si / 1000 Ang^3
#
#
#
# Elastic Constant Matrix: (Units=GPa)
#
#
# Indices 1 2 3 4 5 6 
#
# 1 71.2469 34.2276 31.1024 0.0000 -3.3516 0.0000
# 2 34.2276 99.0839 38.0761 0.0000 0.6446 0.0000
# 3 31.1024 38.0761 98.3333 0.0000 0.5388 0.0000
# 4 0.0000 0.0000 0.0000 18.5304 0.0000 -57.4433
# 5 -3.3516 0.6446 0.5388 0.0000 29.1354 0.0000
# 6 0.0000 0.0000 0.0000 -57.4433 0.0000 -113.9584
#
#
#
# Elastic Compliance Matrix: (Units=1/GPa)
#
#
# Indices 1 2 3 4 5 6 
#
# 1 0.018142 -0.004784 -0.003898 0.000000 0.002265 0.000000
# 2 -0.004784 0.013119 -0.003563 0.000000 -0.000775 0.000000
# 3 -0.003898 -0.003563 0.012785 0.000000 -0.000606 0.000000
# 4 0.000000 0.000000 0.000000 0.021059 0.000000 -0.010615
# 5 0.002265 -0.000775 -0.000606 0.000000 0.034611 0.000000
# 6 0.000000 0.000000 0.000000 -0.010615 0.000000 -0.003424
#
#
# Mechanical properties :
#
#
# Convention : Reuss Voigt Hill
#
# Bulk Modulus (GPa) = 51.13200 52.83070 51.98135
# Shear Modulus (GPa) = 39.27705 -2.24131 18.51787
#
# Velocity S-wave (km/s) = 4.41792 -1.05536 3.03350
# Velocity P-wave (km/s) = 7.17169 4.97677 6.17257
#
# Compressibility (1/GPa) = 0.01955723
#
# Stress axis : x y z
#
# Youngs Moduli (GPa) = 55.12008 76.22528 78.21466
#
# Poissons Ratio (x) = 0.36464 0.30491
# Poissons Ratio (y) = 0.26368 0.27864
# Poissons Ratio (z) = 0.21488 0.27156
#
# Static dielectric constant tensor:
#      x y z
#    x 3.569410 0.000000 -0.096780 
#    y 0.000000 4.628860 0.000000 
#    z -0.096780 0.000000 3.737490 
# 
# 
# High freq. dielectric constant tensor:
#      x y z
#    x 1.774130 0.000000 -0.007800 
#    y 0.000000 1.801800 0.000000 
#    z -0.007800 0.000000 1.789870 
# 
# From -- ./inp_files/82929.got.cif
#   From: 2010.06.25/outbox.cif.g09.slc.cpg/sg10_42_cif.got.tgz:82929.got - 2010.06.27 22:07:45.
