data_PCOD8067758
_publ_section_title
;
Structure prediction by ZEFSAII (Michael W. Deem and Ramdas Pophale) SiO2 
 PCOD8067758
Probable space group: P 2/M
;
_chemical_formula_sum "Si O2"
_cell_formula_units_Z 20
_cell_length_a 12.227176
_cell_length_b 9.039478
_cell_length_c 12.227142
_cell_angle_alpha 90.000000
_cell_angle_beta 63.213236
_cell_angle_gamma 90.000000
_cell_volume 1206.410528
_symmetry_space_group_name_H-M "P 2/M"
_symmetry_group_IT_number 10
_symmetry_cell_setting 'monoclinic'
loop_
_space_group_symop_operation_xyz
x,y,z
-x,y,-z
-x,-y,-z
x,-y,z
loop_
_atom_site_type_symbol
_atom_site_label
_atom_site_fract_x
_atom_site_fract_y
_atom_site_fract_z
Si Si1 0.586797 0.175208 0.312102
Si Si2 0.812102 0.175208 0.086797
Si Si3 0.924896 0.671802 0.424897
Si Si4 0.673193 0.175272 0.510229
Si Si5 0.010228 0.175272 0.173193
O O1 0.673226 0.233313 0.173225
O O2 0.647198 0.228247 0.398373
O O3 0.445448 0.226694 0.364046
O O4 0.585871 0.000000 0.315823
O O5 0.898374 0.228249 0.147197
O O6 0.815822 0.000000 0.085870
O O7 0.864047 0.226695 0.945446
O O8 0.907998 0.500000 0.407996
O O9 0.792084 0.743702 0.501839
O O10 0.001836 0.743705 0.292086
O O11 0.000000 0.702453 0.500000
O O12 0.695177 0.000000 0.507082
O O13 0.007078 0.000000 0.195175
#
# Coordination Sequence:
#
# PCOD8067758 Si02
#       5
#     4   4   4   4   4
#     4   8  13  24  47  76 100 116 138 184 239 281
#     4   8  13  24  47  76 100 116 138 184 239 281
#     4  11  23  35  45  61  93 131 162 197 232 261
#     4   9  16  28  49  72  92 120 155 186 226 280
#     4   9  16  28  49  72  92 120 155 186 226 280
#
# _framework density 16.578105999999998
#
# number of rings (size 3 to 8) (size 9 to 14) (size 15 to 20)
#    0.000    3.000    2.000    3.000    0.000    1.600 
#    0.000    4.000    0.000    1.200    0.000    8.400 
#    0.000    0.000    0.000    0.000    0.000    0.000 
#
# Total GULP energy -247769.004683 kJ/mol
# GULP energy per Si atom -12388.450234 kJ/mol
# Density = 1.654037 g / cm^3
# Si number density = 16.578106 Si / 1000 Ang^3
#
#
#
# Elastic Constant Matrix: (Units=GPa)
#
#
# Indices 1 2 3 4 5 6 
#
# 1 100.3779 40.7893 71.3977 0.0000 -27.2719 0.0000
# 2 40.7893 47.8561 42.2342 0.0000 -1.9843 0.0000
# 3 71.3977 42.2342 145.4116 0.0000 -34.5959 0.0000
# 4 0.0000 0.0000 0.0000 -38.9567 0.0000 -62.0305
# 5 -27.2719 -1.9843 -34.5959 0.0000 34.4766 0.0000
# 6 0.0000 0.0000 0.0000 -62.0305 0.0000 -84.0788
#
#
#
# Elastic Compliance Matrix: (Units=1/GPa)
#
#
# Indices 1 2 3 4 5 6 
#
# 1 0.022213 -0.015572 -0.003175 0.000000 0.013489 0.000000
# 2 -0.015572 0.041117 -0.008754 0.000000 -0.018736 0.000000
# 3 -0.003175 -0.008754 0.013479 0.000000 0.010511 0.000000
# 4 0.000000 0.000000 0.000000 0.146901 0.000000 -0.108378
# 5 0.013489 -0.018736 0.010511 0.000000 0.049144 0.000000
# 6 0.000000 0.000000 0.000000 -0.108378 0.000000 0.068064
#
#
# Mechanical properties :
#
#
# Convention : Reuss Voigt Hill
#
# Bulk Modulus (GPa) = 45.85413 66.94312 56.39862
# Shear Modulus (GPa) = 12.40114 -8.43014 1.98550
#
# Velocity S-wave (km/s) = 2.73801 -2.25746 1.09557
# Velocity P-wave (km/s) = 6.14126 5.80286 5.97446
#
# Compressibility (1/GPa) = 0.02180829
#
# Stress axis : x y z
#
# Youngs Moduli (GPa) = 45.01833 24.32076 74.18984
#
# Poissons Ratio (x) = 0.37872 0.23552
# Poissons Ratio (y) = 0.70103 0.64945
# Poissons Ratio (z) = 0.14291 0.21290
#
# Static dielectric constant tensor:
#      x y z
#    x 3.118750 0.000000 -0.534110 
#    y 0.000000 2.724780 0.000000 
#    z -0.534110 0.000000 3.507530 
# 
# 
# High freq. dielectric constant tensor:
#      x y z
#    x 1.616250 0.000000 -0.035500 
#    y 0.000000 1.596830 0.000000 
#    z -0.035500 0.000000 1.642090 
# 
# From -- ./inp_files/44187.got.cif
#   From: 2010.06.25/outbox.cif.g09.slc.cpg/sg10_23_cif.got.tgz:44187.got - 2010.06.27 22:07:45.
