data_PCOD8067583
_publ_section_title
;
Structure prediction by ZEFSAII (Michael W. Deem and Ramdas Pophale) SiO2 
 PCOD8067583
Probable space group: P 2/M
;
_chemical_formula_sum "Si O2"
_cell_formula_units_Z 28
_cell_length_a 11.393353
_cell_length_b 13.789633
_cell_length_c 9.584566
_cell_angle_alpha 90.000000
_cell_angle_beta 63.825301
_cell_angle_gamma 90.000000
_cell_volume 1351.414411
_symmetry_space_group_name_H-M "P 2/M"
_symmetry_group_IT_number 10
_symmetry_cell_setting 'monoclinic'
loop_
_space_group_symop_operation_xyz
x,y,z
-x,y,-z
-x,-y,-z
x,-y,z
loop_
_atom_site_type_symbol
_atom_site_label
_atom_site_fract_x
_atom_site_fract_y
_atom_site_fract_z
Si Si1 0.996924 0.396583 0.838466
Si Si2 0.285563 0.613800 0.586921
Si Si3 0.367050 0.726413 0.797035
Si Si4 0.660094 0.739189 0.700871
Si Si5 0.873522 0.112554 0.654568
Si Si6 0.350129 0.397194 0.053143
Si Si7 0.884317 0.202927 0.946048
O O1 0.952764 0.500000 0.794193
O O2 0.896686 0.308913 0.861903
O O3 0.137045 0.367515 0.706593
O O4 0.000000 0.410050 0.000000
O O5 0.326156 0.500000 0.576661
O O6 0.371466 0.686888 0.636960
O O7 0.305944 0.651735 0.421002
O O8 0.508203 0.771596 0.763659
O O9 0.332112 0.629418 0.901046
O O10 0.252550 0.804482 0.895579
O O11 0.750958 0.833601 0.645648
O O12 0.695312 0.693935 0.831796
O O13 0.890152 0.128540 0.813455
O O14 0.000000 0.146176 0.500000
O O15 0.846352 0.000000 0.645565
O O16 0.275851 0.500000 0.120267
O O17 0.500000 0.415661 0.000000
O O18 0.000000 0.185518 0.000000
#
# Coordination Sequence:
#
# PCOD8067583 Si02
#       7
#     4   4   4   4   4   4   4
#     4   9  17  31  53  85 124 166 208 246 294 360
#     4  11  21  35  59  94 136 179 216 256 304 368
#     4  11  21  36  61  93 130 173 207 253 308 371
#     4  11  23  40  61  91 130 164 218 261 317 378
#     4  11  26  48  72  92 119 162 211 271 340 394
#     4   9  18  33  55  85 126 171 209 244 294 369
#     4  11  21  40  67  96 125 164 210 259 316 380
#
# _framework density 20.719035000000002
#
# number of rings (size 3 to 8) (size 9 to 14) (size 15 to 20)
#    0.000    1.571    4.286    2.143    0.000    3.143 
#    0.000    1.429    0.000    4.714    0.000    0.000 
#    0.000    0.000    0.000    0.000    0.000    0.000 
#
# Total GULP energy -346877.043179 kJ/mol
# GULP energy per Si atom -12388.465828 kJ/mol
# Density = 2.067188 g / cm^3
# Si number density = 20.719035 Si / 1000 Ang^3
#
#
#
# Elastic Constant Matrix: (Units=GPa)
#
#
# Indices 1 2 3 4 5 6 
#
# 1 128.5084 34.3496 37.5237 0.0000 -22.7746 0.0000
# 2 34.3496 79.7287 25.6427 0.0000 -10.4412 0.0000
# 3 37.5237 25.6427 88.3968 0.0000 -10.2762 0.0000
# 4 0.0000 0.0000 0.0000 28.7269 0.0000 0.9410
# 5 -22.7746 -10.4412 -10.2762 0.0000 33.3822 0.0000
# 6 0.0000 0.0000 0.0000 0.9410 0.0000 28.3602
#
#
#
# Elastic Compliance Matrix: (Units=1/GPa)
#
#
# Indices 1 2 3 4 5 6 
#
# 1 0.010328 -0.002810 -0.002958 0.000000 0.005257 0.000000
# 2 -0.002810 0.014937 -0.002925 0.000000 0.001855 0.000000
# 3 -0.002958 -0.002925 0.013561 0.000000 0.001242 0.000000
# 4 0.000000 0.000000 0.000000 0.034848 0.000000 -0.001156
# 5 0.005257 0.001855 0.001242 0.000000 0.034505 0.000000
# 6 0.000000 0.000000 0.000000 -0.001156 0.000000 0.035299
#
#
# Mechanical properties :
#
#
# Convention : Reuss Voigt Hill
#
# Bulk Modulus (GPa) = 46.63994 54.62956 50.63475
# Shear Modulus (GPa) = 29.76022 31.36836 30.56429
#
# Velocity S-wave (km/s) = 3.79406 3.89522 3.84497
# Velocity P-wave (km/s) = 6.46164 6.83040 6.64858
#
# Compressibility (1/GPa) = 0.02144085
#
# Stress axis : x y z
#
# Youngs Moduli (GPa) = 96.82455 66.94970 73.74101
#
# Poissons Ratio (x) = 0.18812 0.21812
# Poissons Ratio (y) = 0.27206 0.21566
# Poissons Ratio (z) = 0.28640 0.19580
#
# Static dielectric constant tensor:
#      x y z
#    x 3.291720 0.000000 -0.131740 
#    y 0.000000 3.781320 0.000000 
#    z -0.131740 0.000000 3.675290 
# 
# 
# High freq. dielectric constant tensor:
#      x y z
#    x 1.826690 0.000000 -0.008980 
#    y 0.000000 1.771130 0.000000 
#    z -0.008980 0.000000 1.815830 
# 
# From -- ./inp_files/25158.got.cif
#   From: 2010.06.25/outbox.cif.g09.slc.cpg/sg10_13_cif.got.tgz:25158.got - 2010.06.27 22:07:45.
