data_PCOD8067766
_publ_section_title
;
Structure prediction by ZEFSAII (Michael W. Deem and Ramdas Pophale) SiO2 
 PCOD8067766
Probable space group: P 2/M
;
_chemical_formula_sum "Si O2"
_cell_formula_units_Z 32
_cell_length_a 8.925420
_cell_length_b 13.980607
_cell_length_c 15.605703
_cell_angle_alpha 90.000000
_cell_angle_beta 88.813292
_cell_angle_gamma 90.000000
_cell_volume 1946.905478
_symmetry_space_group_name_H-M "P 2/M"
_symmetry_group_IT_number 10
_symmetry_cell_setting 'monoclinic'
loop_
_space_group_symop_operation_xyz
x,y,z
-x,y,-z
-x,-y,-z
x,-y,z
loop_
_atom_site_type_symbol
_atom_site_label
_atom_site_fract_x
_atom_site_fract_y
_atom_site_fract_z
Si Si1 0.323424 0.104012 0.005214
Si Si2 0.338301 0.113897 0.190051
Si Si3 0.824168 0.788800 0.653156
Si Si4 0.174966 0.210064 0.664413
Si Si5 0.327503 0.608337 0.602380
Si Si6 0.317271 0.114027 0.819641
Si Si7 0.328897 0.887147 0.505121
Si Si8 0.673681 0.608104 0.596515
O O1 0.286398 0.155196 0.096613
O O2 0.245611 0.000000 0.007732
O O3 0.500000 0.088657 0.000000
O O4 0.275919 0.154307 0.916125
O O5 0.232827 0.162931 0.259927
O O6 0.511429 0.139674 0.206857
O O7 0.316975 0.000000 0.193390
O O8 0.759545 0.842792 0.572349
O O9 0.773849 0.678173 0.652710
O O10 0.001163 0.795139 0.646249
O O11 0.229261 0.319926 0.660343
O O12 0.205500 0.167941 0.757726
O O13 0.262351 0.145156 0.595840
O O14 0.274972 0.500000 0.622022
O O15 0.500985 0.620552 0.624401
O O16 0.302622 0.633843 0.503266
O O17 0.293332 0.000000 0.815404
O O18 0.500000 0.851606 0.500000
O O19 0.317284 0.000000 0.497530
O O20 0.726733 0.500000 0.614068
#
# Coordination Sequence:
#
# PCOD8067766 Si02
#       8
#     4   4   4   4   4   4   4   4
#     4   7  12  26  49  73  92 117 162 211 243 270
#     4   9  17  31  51  72  96 129 167 204 239 279
#     4  12  23  32  46  72 102 130 158 194 241 293
#     4  12  23  32  46  72 102 130 158 194 241 293
#     4   9  18  34  55  73  90 119 161 205 243 282
#     4   9  17  31  51  72  96 129 167 204 239 279
#     4  11  23  37  50  63  88 131 175 206 232 269
#     4   9  18  34  55  73  90 119 161 205 243 282
#
# _framework density 16.436340000000001
#
# number of rings (size 3 to 8) (size 9 to 14) (size 15 to 20)
#    0.000    2.250    1.250    5.625    0.000    5.000 
#    0.000    1.875    0.000    2.250    0.000    0.875 
#    0.000    7.000    0.000    0.000    0.000    0.000 
#
# Total GULP energy -396637.883416 kJ/mol
# GULP energy per Si atom -12394.933857 kJ/mol
# Density = 1.639893 g / cm^3
# Si number density = 16.436340 Si / 1000 Ang^3
#
#
#
# Elastic Constant Matrix: (Units=GPa)
#
#
# Indices 1 2 3 4 5 6 
#
# 1 93.0485 39.2411 37.2274 0.0000 14.2952 0.0000
# 2 39.2411 66.4371 34.3508 0.0000 8.9810 0.0000
# 3 37.2274 34.3508 97.7907 0.0000 22.7590 0.0000
# 4 0.0000 0.0000 0.0000 5.0000 0.0000 -0.0561
# 5 14.2952 8.9810 22.7590 0.0000 9.7434 0.0000
# 6 0.0000 0.0000 0.0000 -0.0561 0.0000 3.0695
#
#
#
# Elastic Compliance Matrix: (Units=1/GPa)
#
#
# Indices 1 2 3 4 5 6 
#
# 1 0.016589 -0.007632 0.000861 0.000000 -0.019315 0.000000
# 2 -0.007632 0.021978 -0.005929 0.000000 0.004790 0.000000
# 3 0.000861 -0.005929 0.024109 0.000000 -0.052114 0.000000
# 4 0.000000 0.000000 0.000000 0.200043 0.000000 0.003655
# 5 -0.019315 0.004790 -0.052114 0.000000 0.248287 0.000000
# 6 0.000000 0.000000 0.000000 0.003655 0.000000 0.325849
#
#
# Mechanical properties :
#
#
# Convention : Reuss Voigt Hill
#
# Bulk Modulus (GPa) = 26.82773 53.21277 40.02025
# Shear Modulus (GPa) = 5.71637 13.32638 9.52137
#
# Velocity S-wave (km/s) = 1.86693 2.85052 2.40945
# Velocity P-wave (km/s) = 4.58311 6.57870 5.66940
#
# Compressibility (1/GPa) = 0.03727487
#
# Stress axis : x y z
#
# Youngs Moduli (GPa) = 60.28194 45.49968 41.47752
#
# Poissons Ratio (x) = 0.34727 -0.03572
# Poissons Ratio (y) = 0.46009 0.24594
# Poissons Ratio (z) = -0.05191 0.26979
#
# Static dielectric constant tensor:
#      x y z
#    x 2.960450 0.000000 0.057180 
#    y 0.000000 3.021730 0.000000 
#    z 0.057180 0.000000 3.284000 
# 
# 
# High freq. dielectric constant tensor:
#      x y z
#    x 1.621150 0.000000 0.003040 
#    y 0.000000 1.613630 0.000000 
#    z 0.003040 0.000000 1.627430 
# 
# From -- ./inp_files/61523.got.cif
#   From: 2010.06.25/outbox.cif.g09.slc.cpg/sg10_31_cif.got.tgz:61523.got - 2010.06.27 22:07:45.
