data_PCOD8067840
_publ_section_title
;
Structure prediction by ZEFSAII (Michael W. Deem and Ramdas Pophale) SiO2 
 PCOD8067840
Probable space group: P 2/M
;
_chemical_formula_sum "Si O2"
_cell_formula_units_Z 20
_cell_length_a 17.844503
_cell_length_b 11.184515
_cell_length_c 4.968306
_cell_angle_alpha 90.000000
_cell_angle_beta 106.017655
_cell_angle_gamma 90.000000
_cell_volume 953.088416
_symmetry_space_group_name_H-M "P 2/M"
_symmetry_group_IT_number 10
_symmetry_cell_setting 'monoclinic'
loop_
_space_group_symop_operation_xyz
x,y,z
-x,y,-z
-x,-y,-z
x,-y,z
loop_
_atom_site_type_symbol
_atom_site_label
_atom_site_fract_x
_atom_site_fract_y
_atom_site_fract_z
Si Si1 0.163951 0.640105 0.231832
Si Si2 0.411886 0.640510 0.986614
Si Si3 0.668332 0.742756 0.596147
Si Si4 0.089088 0.749248 0.660541
Si Si5 0.166036 0.000000 0.676259
Si Si6 0.726346 0.000000 0.717557
O O1 0.160920 0.500000 0.183949
O O2 0.248922 0.688016 0.239749
O O3 0.143667 0.672060 0.517861
O O4 0.101795 0.703412 0.975548
O O5 0.395579 0.500000 0.957209
O O6 0.353026 0.706850 0.727827
O O7 0.500000 0.671926 0.000000
O O8 0.396901 0.689284 0.270716
O O9 0.671267 0.885817 0.618993
O O10 0.110665 0.887519 0.663741
O O11 0.000000 0.728877 0.500000
O O12 0.199968 0.000000 0.409208
O O13 0.239592 0.000000 0.948353
#
# Coordination Sequence:
#
# PCOD8067840 Si02
#       6
#     4   4   4   4   2   2
#     4  12  25  42  65  94 130 171 216 263 321 386
#     4  11  24  43  69 100 134 169 207 258 316 376
#     4  12  23  44  67  97 129 169 218 262 312 379
#     4  12  25  42  65  94 128 168 218 270 324 380
#     4  12  21  46  64  92 125 166 218 274 315 376
#     4  12  24  42  70  92 128 166 214 270 318 368
#
# _framework density 20.984414000000001
#
# number of rings (size 3 to 8) (size 9 to 14) (size 15 to 20)
#    0.000    0.200    4.000    6.300    0.000    4.000 
#    0.000    6.000    0.000    0.000    0.000    0.000 
#    0.000    0.000    0.000    0.000    0.000    0.000 
#
# Total GULP energy -248222.014823 kJ/mol
# GULP energy per Si atom -12411.100741 kJ/mol
# Density = 2.093665 g / cm^3
# Si number density = 20.984414 Si / 1000 Ang^3
#
#
#
# Elastic Constant Matrix: (Units=GPa)
#
#
# Indices 1 2 3 4 5 6 
#
# 1 72.0825 49.6911 6.1113 0.0000 -5.1231 0.0000
# 2 49.6911 127.4180 10.2409 0.0000 13.0466 0.0000
# 3 6.1113 10.2409 77.3000 0.0000 3.1003 0.0000
# 4 0.0000 0.0000 0.0000 27.9261 0.0000 6.5074
# 5 -5.1231 13.0466 3.1003 0.0000 36.9272 0.0000
# 6 0.0000 0.0000 0.0000 6.5074 0.0000 15.0855
#
#
#
# Elastic Compliance Matrix: (Units=1/GPa)
#
#
# Indices 1 2 3 4 5 6 
#
# 1 0.020129 -0.008388 -0.000713 0.000000 0.005816 0.000000
# 2 -0.008388 0.011711 -0.000678 0.000000 -0.005244 0.000000
# 3 -0.000713 -0.000678 0.013121 0.000000 -0.000961 0.000000
# 4 0.000000 0.000000 0.000000 0.039811 0.000000 -0.017173
# 5 0.005816 -0.005244 -0.000961 0.000000 0.029821 0.000000
# 6 0.000000 0.000000 0.000000 -0.017173 0.000000 0.073697
#
#
# Mechanical properties :
#
#
# Convention : Reuss Voigt Hill
#
# Bulk Modulus (GPa) = 39.36643 45.43189 42.39916
# Shear Modulus (GPa) = 23.11425 30.03825 26.57625
#
# Velocity S-wave (km/s) = 3.32248 3.78756 3.56262
# Velocity P-wave (km/s) = 5.78957 6.38943 6.09688
#
# Compressibility (1/GPa) = 0.02540236
#
# Stress axis : x y z
#
# Youngs Moduli (GPa) = 49.67835 85.38979 76.21147
#
# Poissons Ratio (x) = 0.71628 0.05437
# Poissons Ratio (y) = 0.41672 0.05167
# Poissons Ratio (z) = 0.03544 0.05789
#
# Static dielectric constant tensor:
#      x y z
#    x 3.693430 0.000000 -0.091590 
#    y 0.000000 3.927980 0.000000 
#    z -0.091590 0.000000 3.881720 
# 
# 
# High freq. dielectric constant tensor:
#      x y z
#    x 1.820940 0.000000 -0.006430 
#    y 0.000000 1.835980 0.000000 
#    z -0.006430 0.000000 1.836840 
# 
# From -- ./inp_files/10850.got.cif
#   From: 2010.06.25/outbox.cif.g09.slc.cpg/sg10_6_cif.got.tgz:10850.got - 2010.06.27 22:07:45.
