data_PCOD8067543
_publ_section_title
;
Structure prediction by ZEFSAII (Michael W. Deem and Ramdas Pophale) SiO2 
 PCOD8067543
Probable space group: P 2/M
;
_chemical_formula_sum "Si O2"
_cell_formula_units_Z 32
_cell_length_a 12.509757
_cell_length_b 8.695229
_cell_length_c 19.067617
_cell_angle_alpha 90.000000
_cell_angle_beta 101.466217
_cell_angle_gamma 90.000000
_cell_volume 2032.689501
_symmetry_space_group_name_H-M "P 2/M"
_symmetry_group_IT_number 10
_symmetry_cell_setting 'monoclinic'
loop_
_space_group_symop_operation_xyz
x,y,z
-x,y,-z
-x,-y,-z
x,-y,z
loop_
_atom_site_type_symbol
_atom_site_label
_atom_site_fract_x
_atom_site_fract_y
_atom_site_fract_z
Si Si1 0.767562 0.678010 0.444103
Si Si2 0.152014 0.179315 0.407482
Si Si3 0.462186 0.178514 0.573009
Si Si4 0.041260 0.178437 0.078630
Si Si5 0.074518 0.676322 0.659604
Si Si6 0.335524 0.323035 0.336252
Si Si7 0.828441 0.322507 0.796185
Si Si8 0.036218 0.175249 0.786811
O O1 0.779184 0.500000 0.467189
O O2 0.828136 0.783570 0.508370
O O3 0.641290 0.720754 0.419781
O O4 0.823139 0.710300 0.376432
O O5 0.238616 0.280000 0.376055
O O6 0.027225 0.218194 0.374674
O O7 0.174322 0.000000 0.396516
O O8 0.500000 0.223064 0.500000
O O9 0.559233 0.217338 0.639446
O O10 0.431991 0.000000 0.574593
O O11 0.152631 0.261933 0.121012
O O12 0.946559 0.201256 0.126531
O O13 0.069607 0.000000 0.071695
O O14 0.000000 0.251205 0.000000
O O15 0.038141 0.500000 0.650733
O O16 0.110262 0.721323 0.744536
O O17 0.367286 0.500000 0.353721
O O18 0.293274 0.298607 0.250163
O O19 0.862782 0.500000 0.796963
O O20 0.909680 0.224840 0.755957
O O21 0.055015 0.000000 0.768285
#
# Coordination Sequence:
#
# PCOD8067543 Si02
#       8
#     4   4   4   4   4   4   4   4
#     4  11  24  38  51  66  89 122 159 201 248 292
#     4  12  22  32  49  71  92 119 156 199 246 290
#     4  11  23  37  53  72  91 116 158 209 253 295
#     4   8  15  27  43  67 100 133 161 188 225 278
#     4  11  22  35  49  68  94 124 160 198 238 289
#     4  11  21  33  52  70  94 127 161 201 245 293
#     4   9  17  28  44  69  96 125 160 192 228 277
#     4   9  17  28  45  66  93 128 156 185 227 271
#
# _framework density 15.742687999999999
#
# number of rings (size 3 to 8) (size 9 to 14) (size 15 to 20)
#    0.750    1.000    2.500    3.375    0.000    5.750 
#    0.000    0.000    0.000    0.000    0.000    0.000 
#    0.000    1.000    0.000   11.250    0.000    5.000 
#
# Total GULP energy -396522.742687 kJ/mol
# GULP energy per Si atom -12391.335709 kJ/mol
# Density = 1.570686 g / cm^3
# Si number density = 15.742688 Si / 1000 Ang^3
#
#
#
# Elastic Constant Matrix: (Units=GPa)
#
#
# Indices 1 2 3 4 5 6 
#
# 1 62.6131 18.3883 33.7419 0.0000 -0.1446 0.0000
# 2 18.3883 48.2195 26.0237 0.0000 4.6855 0.0000
# 3 33.7419 26.0237 100.8825 0.0000 10.0580 0.0000
# 4 0.0000 0.0000 0.0000 23.2393 0.0000 1.0426
# 5 -0.1446 4.6855 10.0580 0.0000 16.2232 0.0000
# 6 0.0000 0.0000 0.0000 1.0426 0.0000 18.4282
#
#
#
# Elastic Compliance Matrix: (Units=1/GPa)
#
#
# Indices 1 2 3 4 5 6 
#
# 1 0.020828 -0.005137 -0.006190 0.000000 0.005507 0.000000
# 2 -0.005137 0.025528 -0.004399 0.000000 -0.004691 0.000000
# 3 -0.006190 -0.004399 0.013853 0.000000 -0.007373 0.000000
# 4 0.000000 0.000000 0.000000 0.043140 0.000000 -0.002441
# 5 0.005507 -0.004691 -0.007373 0.000000 0.067615 0.000000
# 6 0.000000 0.000000 0.000000 -0.002441 0.000000 0.054403
#
#
# Mechanical properties :
#
#
# Convention : Reuss Voigt Hill
#
# Bulk Modulus (GPa) = 34.77577 40.89141 37.83359
# Shear Modulus (GPa) = 18.76841 20.48223 19.62532
#
# Velocity S-wave (km/s) = 3.45657 3.61094 3.53460
# Velocity P-wave (km/s) = 6.16997 6.58911 6.38298
#
# Compressibility (1/GPa) = 0.02875565
#
# Stress axis : x y z
#
# Youngs Moduli (GPa) = 48.01135 39.17337 72.18712
#
# Poissons Ratio (x) = 0.20124 0.44686
# Poissons Ratio (y) = 0.24664 0.31757
# Poissons Ratio (z) = 0.29721 0.17233
#
# Static dielectric constant tensor:
#      x y z
#    x 2.714790 0.000000 0.059710 
#    y 0.000000 3.070850 0.000000 
#    z 0.059710 0.000000 3.119130 
# 
# 
# High freq. dielectric constant tensor:
#      x y z
#    x 1.562550 0.000000 0.006250 
#    y 0.000000 1.620590 0.000000 
#    z 0.006250 0.000000 1.592140 
# 
# From -- ./inp_files/75968.got.cif
#   From: 2010.06.25/outbox.cif.g09.slc.cpg/sg10_38_cif.got.tgz:75968.got - 2010.06.27 22:07:45.
