data_PCOD8067762
_publ_section_title
;
Structure prediction by ZEFSAII (Michael W. Deem and Ramdas Pophale) SiO2 
 PCOD8067762
Probable space group: P 2/M
;
_chemical_formula_sum "Si O2"
_cell_formula_units_Z 32
_cell_length_a 14.779991
_cell_length_b 9.048759
_cell_length_c 14.161582
_cell_angle_alpha 90.000000
_cell_angle_beta 82.140977
_cell_angle_gamma 90.000000
_cell_volume 1876.188967
_symmetry_space_group_name_H-M "P 2/M"
_symmetry_group_IT_number 10
_symmetry_cell_setting 'monoclinic'
loop_
_space_group_symop_operation_xyz
x,y,z
-x,y,-z
-x,-y,-z
x,-y,z
loop_
_atom_site_type_symbol
_atom_site_label
_atom_site_fract_x
_atom_site_fract_y
_atom_site_fract_z
Si Si1 0.146667 0.830000 0.731035
Si Si2 0.364738 0.665638 0.974583
Si Si3 0.009807 0.826264 0.106469
Si Si4 0.686474 0.331442 0.219805
Si Si5 0.863019 0.324056 0.769381
Si Si6 0.505345 0.332059 0.802833
Si Si7 0.323645 0.173556 0.168829
Si Si8 0.996185 0.173208 0.609081
O O1 0.083497 0.781458 0.827772
O O2 0.245201 0.755357 0.722480
O O3 0.094449 0.788965 0.641523
O O4 0.168736 0.000000 0.732977
O O5 0.349049 0.500000 0.017936
O O6 0.295594 0.693803 0.895344
O O7 0.467861 0.677942 0.916977
O O8 0.342684 0.785053 0.057304
O O9 0.092996 0.736187 0.140056
O O10 0.030641 0.000000 0.115582
O O11 0.000000 0.778739 0.000000
O O12 0.701794 0.500000 0.244088
O O13 0.579289 0.288884 0.254953
O O14 0.862345 0.500000 0.770435
O O15 0.761242 0.261958 0.776962
O O16 0.917583 0.266872 0.670432
O O17 0.537851 0.500000 0.778342
O O18 0.589340 0.219856 0.779507
O O19 0.306332 0.000000 0.179387
O O20 0.000000 0.220110 0.500000
O O21 0.973717 0.000000 0.625861
#
# Coordination Sequence:
#
# PCOD8067762 Si02
#       8
#     4   4   4   4   4   4   4   4
#     4   9  17  29  48  75 101 126 159 202 246 291
#     4   8  17  31  44  61  92 134 175 211 248 285
#     4   9  19  34  48  67  98 134 170 207 247 291
#     4   8  17  30  45  65  95 131 166 202 241 288
#     4  11  23  36  51  74 102 132 169 209 252 306
#     4   8  17  32  46  63  93 135 176 212 250 289
#     4  12  22  30  45  68  97 133 174 217 255 291
#     4   9  19  39  62  80 101 128 159 203 259 311
#
# _framework density 17.05585
#
# number of rings (size 3 to 8) (size 9 to 14) (size 15 to 20)
#    0.750    2.000    0.000    3.375    1.750    5.500 
#    0.000    0.000    0.000    0.000    0.000    0.875 
#    0.000    7.000    0.000    0.000    0.000    0.000 
#
# Total GULP energy -396528.277258 kJ/mol
# GULP energy per Si atom -12391.508664 kJ/mol
# Density = 1.701703 g / cm^3
# Si number density = 17.055850 Si / 1000 Ang^3
#
#
#
# Elastic Constant Matrix: (Units=GPa)
#
#
# Indices 1 2 3 4 5 6 
#
# 1 109.8042 35.6347 21.1249 0.0000 15.1411 0.0000
# 2 35.6347 62.8055 9.6572 0.0000 7.2732 0.0000
# 3 21.1249 9.6572 51.3505 0.0000 15.7327 0.0000
# 4 0.0000 0.0000 0.0000 13.6713 0.0000 0.9076
# 5 15.1411 7.2732 15.7327 0.0000 14.1675 0.0000
# 6 0.0000 0.0000 0.0000 0.9076 0.0000 34.1593
#
#
#
# Elastic Compliance Matrix: (Units=1/GPa)
#
#
# Indices 1 2 3 4 5 6 
#
# 1 0.012484 -0.005853 -0.001315 0.000000 -0.008876 0.000000
# 2 -0.005853 0.019694 -0.000174 0.000000 -0.003662 0.000000
# 3 -0.001315 -0.000174 0.029692 0.000000 -0.031477 0.000000
# 4 0.000000 0.000000 0.000000 0.073275 0.000000 -0.001947
# 5 -0.008876 -0.003662 -0.031477 0.000000 0.116905 0.000000
# 6 0.000000 0.000000 0.000000 -0.001947 0.000000 0.029326
#
#
# Mechanical properties :
#
#
# Convention : Reuss Voigt Hill
#
# Bulk Modulus (GPa) = 21.19327 39.64374 30.41850
# Shear Modulus (GPa) = 16.03652 22.90251 19.46951
#
# Velocity S-wave (km/s) = 3.06965 3.66839 3.38230
# Velocity P-wave (km/s) = 5.00165 6.42158 5.75557
#
# Compressibility (1/GPa) = 0.04718479
#
# Stress axis : x y z
#
# Youngs Moduli (GPa) = 80.10568 50.77753 33.67932
#
# Poissons Ratio (x) = 0.29719 0.04430
# Poissons Ratio (y) = 0.46884 0.00586
# Poissons Ratio (z) = 0.10537 0.00883
#
# Static dielectric constant tensor:
#      x y z
#    x 3.404780 0.000000 0.248630 
#    y 0.000000 3.037490 0.000000 
#    z 0.248630 0.000000 2.976140 
# 
# 
# High freq. dielectric constant tensor:
#      x y z
#    x 1.664230 0.000000 0.010480 
#    y 0.000000 1.653390 0.000000 
#    z 0.010480 0.000000 1.610040 
# 
# From -- ./inp_files/66043.got.cif
#   From: 2010.06.25/outbox.cif.g09.slc.cpg/sg10_34_cif.got.tgz:66043.got - 2010.06.27 22:07:45.
