data_PCOD8067238
_publ_section_title
;
Structure prediction by ZEFSAII (Michael W. Deem and Ramdas Pophale) SiO2 
 PCOD8067238
Probable space group: P 2/M
;
_chemical_formula_sum "Si O2"
_cell_formula_units_Z 32
_cell_length_a 19.990640
_cell_length_b 9.010096
_cell_length_c 24.907034
_cell_angle_alpha 90.000000
_cell_angle_beta 23.352115
_cell_angle_gamma 90.000000
_cell_volume 1778.241215
_symmetry_space_group_name_H-M "P 2/M"
_symmetry_group_IT_number 10
_symmetry_cell_setting 'monoclinic'
loop_
_space_group_symop_operation_xyz
x,y,z
-x,y,-z
-x,-y,-z
x,-y,z
loop_
_atom_site_type_symbol
_atom_site_label
_atom_site_fract_x
_atom_site_fract_y
_atom_site_fract_z
Si Si1 0.943470 0.326826 0.841595
Si Si2 0.959692 0.171202 0.616160
Si Si3 0.917816 0.675037 0.375562
Si Si4 0.464449 0.174962 0.607764
Si Si5 0.433222 0.674107 0.852051
Si Si6 0.770053 0.175562 0.311145
Si Si7 0.441365 0.176232 0.345966
Si Si8 0.727638 0.171168 0.690702
O O1 0.970693 0.500000 0.828551
O O2 0.005426 0.273479 0.737597
O O3 0.049726 0.248442 0.810286
O O4 0.749248 0.282271 0.990988
O O5 0.802449 0.212364 0.693807
O O6 0.950939 0.275646 0.674840
O O7 0.133567 0.201536 0.456948
O O8 0.948894 0.000000 0.641599
O O9 0.887056 0.500000 0.400815
O O10 0.745558 0.760448 0.513411
O O11 0.635801 0.236042 0.454092
O O12 0.298295 0.227286 0.697344
O O13 0.456425 0.224679 0.675647
O O14 0.475795 0.000000 0.594190
O O15 0.453153 0.500000 0.827373
O O16 0.457871 0.758159 0.777995
O O17 0.567464 0.725671 0.797628
O O18 0.792720 0.000000 0.297287
O O19 0.428857 0.000000 0.349169
O O20 0.671556 0.000000 0.730331
#
# Coordination Sequence:
#
# PCOD8067238 Si02
#       8
#     4   4   4   4   4   4   4   4
#     4  10  23  39  52  75 114 149 179 217 264 316
#     4   9  18  33  55  82 110 136 170 223 271 311
#     4  11  21  34  54  81 109 140 180 221 261 315
#     4   8  16  30  53  83 109 132 170 227 274 310
#     4  11  23  38  54  76 110 149 182 217 261 317
#     4   9  16  32  56  80 105 138 179 220 266 318
#     4  11  20  34  56  82 109 137 175 226 273 313
#     4   9  18  34  55  80 109 139 174 218 268 316
#
# _framework density 17.995308999999999
#
# number of rings (size 3 to 8) (size 9 to 14) (size 15 to 20)
#    0.000    2.250    2.500    2.625    0.000    2.000 
#    0.000    5.000    0.000    7.500    0.000    0.000 
#    0.000    0.000    0.000    0.000    0.000    0.000 
#
# Total GULP energy -396766.103031 kJ/mol
# GULP energy per Si atom -12398.940720 kJ/mol
# Density = 1.795435 g / cm^3
# Si number density = 17.995309 Si / 1000 Ang^3
#
#
#
# Elastic Constant Matrix: (Units=GPa)
#
#
# Indices 1 2 3 4 5 6 
#
# 1 141.1470 44.2596 50.2069 0.0000 -13.6451 0.0000
# 2 44.2596 51.8151 31.5834 0.0000 -4.9349 0.0000
# 3 50.2069 31.5834 72.3045 0.0000 -9.9134 0.0000
# 4 0.0000 0.0000 0.0000 20.4929 0.0000 -5.9079
# 5 -13.6451 -4.9349 -9.9134 0.0000 28.6275 0.0000
# 6 0.0000 0.0000 0.0000 -5.9079 0.0000 6.7099
#
#
#
# Elastic Compliance Matrix: (Units=1/GPa)
#
#
# Indices 1 2 3 4 5 6 
#
# 1 0.010909 -0.006366 -0.004443 0.000000 0.002564 0.000000
# 2 -0.006366 0.030027 -0.008821 0.000000 -0.000913 0.000000
# 3 -0.004443 -0.008821 0.021280 0.000000 0.003731 0.000000
# 4 0.000000 0.000000 0.000000 0.065397 0.000000 0.057581
# 5 0.002564 -0.000913 0.003731 0.000000 0.037288 0.000000
# 6 0.000000 0.000000 0.000000 0.057581 0.000000 0.199732
#
#
# Mechanical properties :
#
#
# Convention : Reuss Voigt Hill
#
# Bulk Modulus (GPa) = 43.56034 57.48516 50.52275
# Shear Modulus (GPa) = 12.14933 20.44717 16.29825
#
# Velocity S-wave (km/s) = 2.60116 3.37449 3.01274
# Velocity P-wave (km/s) = 5.76892 6.86999 6.34339
#
# Compressibility (1/GPa) = 0.02295666
#
# Stress axis : x y z
#
# Youngs Moduli (GPa) = 91.66500 33.30342 46.99274
#
# Poissons Ratio (x) = 0.21202 0.20878
# Poissons Ratio (y) = 0.58356 0.41451
# Poissons Ratio (z) = 0.40725 0.29376
#
# Static dielectric constant tensor:
#      x y z
#    x 3.778580 0.000000 -0.057920 
#    y 0.000000 3.170990 0.000000 
#    z -0.057920 0.000000 3.124320 
# 
# 
# High freq. dielectric constant tensor:
#      x y z
#    x 1.714810 0.000000 -0.010630 
#    y 0.000000 1.685870 0.000000 
#    z -0.010630 0.000000 1.668620 
# 
# From -- ./inp_files/93615.got.cif
#   From: 2010.06.25/outbox.cif.g09.slc.cpg/sg10_47_cif.got.tgz:93615.got - 2010.06.27 22:07:45.
