data_PCOD8067878
_publ_section_title
;
Structure prediction by ZEFSAII (Michael W. Deem and Ramdas Pophale) SiO2 
 PCOD8067878
Probable space group: P 2/M
;
_chemical_formula_sum "Si O2"
_cell_formula_units_Z 32
_cell_length_a 21.442218
_cell_length_b 8.838034
_cell_length_c 9.625542
_cell_angle_alpha 90.000000
_cell_angle_beta 88.607928
_cell_angle_gamma 90.000000
_cell_volume 1823.569720
_symmetry_space_group_name_H-M "P 2/M"
_symmetry_group_IT_number 10
_symmetry_cell_setting 'monoclinic'
loop_
_space_group_symop_operation_xyz
x,y,z
-x,y,-z
-x,-y,-z
x,-y,z
loop_
_atom_site_type_symbol
_atom_site_label
_atom_site_fract_x
_atom_site_fract_y
_atom_site_fract_z
Si Si1 0.621707 0.179024 0.836452
Si Si2 0.438683 0.671289 0.910744
Si Si3 0.504069 0.178976 0.660784
Si Si4 0.856453 0.179938 0.547528
Si Si5 0.900439 0.819091 0.257375
Si Si6 0.960166 0.179377 0.747784
Si Si7 0.241762 0.819820 0.233115
Si Si8 0.139424 0.820307 0.031261
O O1 0.569993 0.229520 0.725572
O O2 0.687860 0.242767 0.777117
O O3 0.621102 0.000000 0.852041
O O4 0.612763 0.244324 0.992539
O O5 0.417362 0.500000 0.884035
O O6 0.449259 0.749568 0.759517
O O7 0.500000 0.679281 0.000000
O O8 0.500000 0.236014 0.500000
O O9 0.495278 0.000000 0.665769
O O10 0.859771 0.238995 0.389864
O O11 0.919123 0.238293 0.620350
O O12 0.793203 0.239277 0.625385
O O13 0.856133 0.000000 0.555072
O O14 0.970474 0.750717 0.259860
O O15 0.904184 0.000000 0.254846
O O16 0.864219 0.756698 0.124587
O O17 0.924008 0.231522 0.888536
O O18 0.965899 0.000000 0.741953
O O19 0.201575 0.758784 0.103925
O O20 0.243778 0.000000 0.231768
O O21 0.142223 0.000000 0.032888
#
# Coordination Sequence:
#
# PCOD8067878 Si02
#       8
#     4   4   4   4   4   4   4   4
#     4   9  16  28  46  62  81 113 146 173 204 246
#     4   9  17  29  46  68  90 111 138 171 206 244
#     4   9  17  29  45  67  92 114 138 170 208 247
#     4   8  13  19  26  37  56  82 116 156 192 231
#     4   9  13  16  24  38  55  79 114 157 199 233
#     4   8  12  17  24  34  51  78 113 152 194 237
#     4   8  14  24  34  45  64  94 129 160 194 235
#     4   8  13  19  26  38  57  81 115 158 195 230
#
# _framework density 17.547999999999998
#
# number of rings (size 3 to 8) (size 9 to 14) (size 15 to 20)
#    0.000    3.500    0.000    2.625    0.000    4.750 
#    0.000    1.250    0.000    6.000    0.000    0.000 
#    0.000    0.000    0.000    0.000    0.000   20.000 
#
# Total GULP energy -396429.422820 kJ/mol
# GULP energy per Si atom -12388.419463 kJ/mol
# Density = 1.750806 g / cm^3
# Si number density = 17.548000 Si / 1000 Ang^3
#
#
#
# Elastic Constant Matrix: (Units=GPa)
#
#
# Indices 1 2 3 4 5 6 
#
# 1 117.1957 11.4974 69.9017 0.0000 -17.7319 0.0000
# 2 11.4974 15.7770 17.1370 0.0000 -2.5477 0.0000
# 3 69.9017 17.1370 176.2000 0.0000 -16.3273 0.0000
# 4 0.0000 0.0000 0.0000 7.0209 0.0000 0.4336
# 5 -17.7319 -2.5477 -16.3273 0.0000 18.2628 0.0000
# 6 0.0000 0.0000 0.0000 0.4336 0.0000 2.2591
#
#
#
# Elastic Compliance Matrix: (Units=1/GPa)
#
#
# Indices 1 2 3 4 5 6 
#
# 1 0.012387 -0.003573 -0.003814 0.000000 0.008118 0.000000
# 2 -0.003573 0.072178 -0.005442 0.000000 0.001735 0.000000
# 3 -0.003814 -0.005442 0.007964 0.000000 0.002658 0.000000
# 4 0.000000 0.000000 0.000000 0.144141 0.000000 -0.027665
# 5 0.008118 0.001735 0.002658 0.000000 0.065256 0.000000
# 6 0.000000 0.000000 0.000000 -0.027665 0.000000 0.447956
#
#
# Mechanical properties :
#
#
# Convention : Reuss Voigt Hill
#
# Bulk Modulus (GPa) = 14.95412 56.24946 35.60179
# Shear Modulus (GPa) = 6.26700 19.55100 12.90900
#
# Velocity S-wave (km/s) = 1.89185 3.34150 2.71521
# Velocity P-wave (km/s) = 3.64863 6.85651 5.49200
#
# Compressibility (1/GPa) = 0.06687119
#
# Stress axis : x y z
#
# Youngs Moduli (GPa) = 80.73300 13.85463 125.56400
#
# Poissons Ratio (x) = 0.04950 0.47893
# Poissons Ratio (y) = 0.28843 0.68330
# Poissons Ratio (z) = 0.30793 0.07539
#
# Static dielectric constant tensor:
#      x y z
#    x 3.407260 0.000000 -0.113680 
#    y 0.000000 2.595070 0.000000 
#    z -0.113680 0.000000 3.615180 
# 
# 
# High freq. dielectric constant tensor:
#      x y z
#    x 1.664150 0.000000 -0.012490 
#    y 0.000000 1.605670 0.000000 
#    z -0.012490 0.000000 1.686020 
# 
# From -- ./inp_files/35685.got.cif
#   From: 2010.06.25/outbox.cif.g09.slc.cpg/sg10_18_cif.got.tgz:35685.got - 2010.06.27 22:07:45.
