data_PCOD8067362
_publ_section_title
;
Structure prediction by ZEFSAII (Michael W. Deem and Ramdas Pophale) SiO2 
 PCOD8067362
Probable space group: P 2/M
;
_chemical_formula_sum "Si O2"
_cell_formula_units_Z 32
_cell_length_a 24.089293
_cell_length_b 8.915212
_cell_length_c 14.618321
_cell_angle_alpha 90.000000
_cell_angle_beta 151.989280
_cell_angle_gamma 90.000000
_cell_volume 1474.399926
_symmetry_space_group_name_H-M "P 2/M"
_symmetry_group_IT_number 10
_symmetry_cell_setting 'monoclinic'
loop_
_space_group_symop_operation_xyz
x,y,z
-x,y,-z
-x,-y,-z
x,-y,z
loop_
_atom_site_type_symbol
_atom_site_label
_atom_site_fract_x
_atom_site_fract_y
_atom_site_fract_z
Si Si1 0.851471 0.170431 0.190535
Si Si2 0.538464 0.823440 0.336837
Si Si3 0.728419 0.673241 0.726166
Si Si4 0.974035 0.176399 0.065323
Si Si5 0.820559 0.328794 0.526403
Si Si6 0.125518 0.169769 0.569372
Si Si7 0.354360 0.329169 0.196504
Si Si8 0.448115 0.326605 0.828670
O O1 0.820408 0.193103 0.251809
O O2 0.986991 0.204953 0.368497
O O3 0.820037 0.000000 0.115550
O O4 0.778408 0.290432 0.026788
O O5 0.664935 0.753333 0.548532
O O6 0.442894 0.782360 0.274725
O O7 0.497008 0.762565 0.177466
O O8 0.552029 0.000000 0.351163
O O9 0.747046 0.500000 0.728332
O O10 0.642600 0.691285 0.689423
O O11 0.855684 0.745746 0.930013
O O12 0.084950 0.222271 0.287977
O O13 0.955443 0.000000 0.046329
O O14 0.000000 0.228083 0.000000
O O15 0.861622 0.500000 0.596341
O O16 0.810829 0.285290 0.405563
O O17 0.692185 0.303613 0.382121
O O18 0.147809 0.000000 0.568520
O O19 0.385990 0.500000 0.216039
O O20 0.484410 0.500000 0.872261
O O21 0.500000 0.262703 0.000000
#
# Coordination Sequence:
#
# PCOD8067362 Si02
#       8
#     4   4   4   4   4   4   4   4
#     4   9  19  36  57  86 121 162 206 252 311 370
#     4  12  26  43  66  95 126 166 214 265 320 382
#     4  11  24  43  67  96 130 169 213 263 318 379
#     4  11  24  41  64  94 128 167 208 258 319 379
#     4  11  23  38  61  92 123 160 207 254 309 374
#     4   9  19  36  58  84 122 162 201 254 311 369
#     4  11  24  40  62  91 126 167 212 262 317 377
#     4  10  24  46  68  92 127 169 213 265 321 377
#
# _framework density 21.703745000000001
#
# number of rings (size 3 to 8) (size 9 to 14) (size 15 to 20)
#    0.000    1.500    0.000    5.250    1.750   10.750 
#    0.000    1.250    0.000    0.000    0.000    0.000 
#    0.000    0.000    0.000    0.000    0.000    0.000 
#
# Total GULP energy -396962.727395 kJ/mol
# GULP energy per Si atom -12405.085231 kJ/mol
# Density = 2.165435 g / cm^3
# Si number density = 21.703745 Si / 1000 Ang^3
#
#
#
# Elastic Constant Matrix: (Units=GPa)
#
#
# Indices 1 2 3 4 5 6 
#
# 1 95.2332 47.2450 11.7194 0.0000 -8.2421 0.0000
# 2 47.2450 103.3867 32.6436 0.0000 -4.8396 0.0000
# 3 11.7194 32.6436 69.4542 0.0000 -12.5707 0.0000
# 4 0.0000 0.0000 0.0000 32.0632 0.0000 -1.4723
# 5 -8.2421 -4.8396 -12.5707 0.0000 31.5679 0.0000
# 6 0.0000 0.0000 0.0000 -1.4723 0.0000 31.2902
#
#
#
# Elastic Compliance Matrix: (Units=1/GPa)
#
#
# Indices 1 2 3 4 5 6 
#
# 1 0.013895 -0.006625 0.001338 0.000000 0.003145 0.000000
# 2 -0.006625 0.014522 -0.006054 0.000000 -0.001914 0.000000
# 3 0.001338 -0.006054 0.018226 0.000000 0.006679 0.000000
# 4 0.000000 0.000000 0.000000 0.031256 0.000000 0.001471
# 5 0.003145 -0.001914 0.006679 0.000000 0.034865 0.000000
# 6 0.000000 0.000000 0.000000 0.001471 0.000000 0.032028
#
#
# Mechanical properties :
#
#
# Convention : Reuss Voigt Hill
#
# Bulk Modulus (GPa) = 41.73252 50.14335 45.93794
# Shear Modulus (GPa) = 28.49661 30.74869 29.62265
#
# Velocity S-wave (km/s) = 3.62744 3.76805 3.69841
# Velocity P-wave (km/s) = 6.06749 6.48727 6.28089
#
# Compressibility (1/GPa) = 0.02396213
#
# Stress axis : x y z
#
# Youngs Moduli (GPa) = 71.97045 68.86284 54.86573
#
# Poissons Ratio (x) = 0.45620 -0.07343
# Poissons Ratio (y) = 0.47679 0.33214
# Poissons Ratio (z) = -0.09632 0.41688
#
# Static dielectric constant tensor:
#      x y z
#    x 4.007370 0.000000 -0.143400 
#    y 0.000000 3.786450 0.000000 
#    z -0.143400 0.000000 3.876570 
# 
# 
# High freq. dielectric constant tensor:
#      x y z
#    x 1.861390 0.000000 -0.005590 
#    y 0.000000 1.848110 0.000000 
#    z -0.005590 0.000000 1.857080 
# 
# From -- ./inp_files/71663.got.cif
#   From: 2010.06.25/outbox.cif.g09.slc.cpg/sg10_36_cif.got.tgz:71663.got - 2010.06.27 22:07:45.
