data_PCOD8067247
_publ_section_title
;
Structure prediction by ZEFSAII (Michael W. Deem and Ramdas Pophale) SiO2 
 PCOD8067247
Probable space group: P 2/M
;
_chemical_formula_sum "Si O2"
_cell_formula_units_Z 24
_cell_length_a 15.174622
_cell_length_b 11.355931
_cell_length_c 14.920090
_cell_angle_alpha 90.000000
_cell_angle_beta 150.711406
_cell_angle_gamma 90.000000
_cell_volume 1257.784861
_symmetry_space_group_name_H-M "P 2/M"
_symmetry_group_IT_number 10
_symmetry_cell_setting 'monoclinic'
loop_
_space_group_symop_operation_xyz
x,y,z
-x,y,-z
-x,-y,-z
x,-y,z
loop_
_atom_site_type_symbol
_atom_site_label
_atom_site_fract_x
_atom_site_fract_y
_atom_site_fract_z
Si Si1 0.762614 0.000000 0.699136
Si Si2 0.323704 0.243515 0.104168
Si Si3 0.591000 0.370104 0.991879
Si Si4 0.996484 0.371590 0.400967
Si Si5 0.048273 0.639636 0.256321
Si Si6 0.817612 0.000000 0.959635
Si Si7 0.394363 0.246859 0.491377
O O1 0.654368 0.889787 0.564232
O O2 0.756719 0.000000 0.801969
O O3 0.966086 0.000000 0.843057
O O4 0.427237 0.274610 0.103518
O O5 0.262827 0.108876 0.057015
O O6 0.471767 0.272534 0.309084
O O7 0.142174 0.320273 0.954705
O O8 0.506941 0.500000 0.892989
O O9 0.500000 0.316209 0.000000
O O10 0.796184 0.391767 0.192976
O O11 0.088897 0.500000 0.499943
O O12 0.000000 0.300631 0.500000
O O13 0.085033 0.309565 0.391388
O O14 0.044963 0.500000 0.258411
O O15 0.208417 0.682457 0.335261
O O16 0.500000 0.296994 0.500000
#
# Coordination Sequence:
#
# PCOD8067247 Si02
#       7
#     2   4   4   4   4   2   4
#     4  11  22  43  66  90 111 150 213 268 303 369
#     4  11  22  39  63  92 120 161 201 257 307 357
#     4   9  19  35  57  88 123 160 200 239 292 364
#     4   8  15  30  53  78 109 150 196 240 281 336
#     4  10  23  40  56  87 129 164 200 243 303 371
#     4  11  21  40  72  84 115 156 202 264 321 351
#     4  12  24  39  64  90 118 155 210 257 305 360
#
# _framework density 19.081164000000001
#
# number of rings (size 3 to 8) (size 9 to 14) (size 15 to 20)
#    0.000    1.833    3.333    2.250    2.333    2.333 
#    0.000    1.250    0.000    0.000    0.000    4.083 
#    0.000    0.000    0.000    0.000    0.000    0.000 
#
# Total GULP energy -297323.523951 kJ/mol
# GULP energy per Si atom -12388.480165 kJ/mol
# Density = 1.903773 g / cm^3
# Si number density = 19.081164 Si / 1000 Ang^3
#
#
#
# Elastic Constant Matrix: (Units=GPa)
#
#
# Indices 1 2 3 4 5 6 
#
# 1 154.8097 55.5401 50.0408 0.0000 -2.8673 0.0000
# 2 55.5401 81.2548 29.2168 0.0000 -7.4484 0.0000
# 3 50.0408 29.2168 100.0921 0.0000 -9.7998 0.0000
# 4 0.0000 0.0000 0.0000 20.1912 0.0000 -0.4795
# 5 -2.8673 -7.4484 -9.7998 0.0000 32.5967 0.0000
# 6 0.0000 0.0000 0.0000 -0.4795 0.0000 22.3854
#
#
#
# Elastic Compliance Matrix: (Units=1/GPa)
#
#
# Indices 1 2 3 4 5 6 
#
# 1 0.009427 -0.005394 -0.003275 0.000000 -0.001388 0.000000
# 2 -0.005394 0.016963 -0.001980 0.000000 0.002806 0.000000
# 3 -0.003275 -0.001980 0.012501 0.000000 0.003018 0.000000
# 4 0.000000 0.000000 0.000000 0.049552 0.000000 0.001062
# 5 -0.001388 0.002806 0.003018 0.000000 0.032104 0.000000
# 6 0.000000 0.000000 0.000000 0.001062 0.000000 0.044695
#
#
# Mechanical properties :
#
#
# Convention : Reuss Voigt Hill
#
# Bulk Modulus (GPa) = 56.83487 67.30576 62.07032
# Shear Modulus (GPa) = 25.98691 28.45858 27.22275
#
# Velocity S-wave (km/s) = 3.69442 3.86612 3.78124
# Velocity P-wave (km/s) = 6.93172 7.43499 7.18776
#
# Compressibility (1/GPa) = 0.01759483
#
# Stress axis : x y z
#
# Youngs Moduli (GPa) = 106.07394 58.95204 79.99071
#
# Poissons Ratio (x) = 0.31797 0.26194
# Poissons Ratio (y) = 0.57212 0.15840
# Poissons Ratio (z) = 0.34736 0.11673
#
# Static dielectric constant tensor:
#      x y z
#    x 5.309590 0.000000 -0.029270 
#    y 0.000000 3.378790 0.000000 
#    z -0.029270 0.000000 3.542580 
# 
# 
# High freq. dielectric constant tensor:
#      x y z
#    x 1.755720 0.000000 0.005920 
#    y 0.000000 1.704010 0.000000 
#    z 0.005920 0.000000 1.751290 
# 
# From -- ./inp_files/67441.got.cif
#   From: 2010.06.25/outbox.cif.g09.slc.cpg/sg10_34_cif.got.tgz:67441.got - 2010.06.27 22:07:45.
