data_PCOD8067889
_publ_section_title
;
Structure prediction by ZEFSAII (Michael W. Deem and Ramdas Pophale) SiO2 
 PCOD8067889
Probable space group: P 2/M
;
_chemical_formula_sum "Si O2"
_cell_formula_units_Z 24
_cell_length_a 22.528130
_cell_length_b 7.596218
_cell_length_c 12.443475
_cell_angle_alpha 90.000000
_cell_angle_beta 138.175522
_cell_angle_gamma 90.000000
_cell_volume 1420.015157
_symmetry_space_group_name_H-M "P 2/M"
_symmetry_group_IT_number 10
_symmetry_cell_setting 'monoclinic'
loop_
_space_group_symop_operation_xyz
x,y,z
-x,y,-z
-x,-y,-z
x,-y,z
loop_
_atom_site_type_symbol
_atom_site_label
_atom_site_fract_x
_atom_site_fract_y
_atom_site_fract_z
Si Si1 0.487787 0.209352 0.151474
Si Si2 0.638400 0.791605 0.196965
Si Si3 0.748149 0.200419 0.698847
Si Si4 0.873831 0.500000 0.915874
Si Si5 0.811119 0.200878 0.541784
Si Si6 0.546239 0.209064 0.456341
Si Si7 0.936965 0.500000 0.757814
O O1 0.570638 0.285028 0.194670
O O2 0.493814 0.283892 0.280911
O O3 0.493900 0.000000 0.162624
O O4 0.395514 0.267594 0.967742
O O5 0.739129 0.729460 0.356865
O O6 0.636460 0.000000 0.204807
O O7 0.815558 0.324496 0.855834
O O8 0.763720 0.217060 0.592956
O O9 0.648892 0.266948 0.590393
O O10 0.763586 0.000000 0.758392
O O11 0.911568 0.500000 0.847425
O O12 0.956075 0.500000 0.110631
O O13 0.897514 0.324568 0.649070
O O14 0.841484 0.000000 0.561090
O O15 0.500000 0.289820 0.500000
O O16 0.540255 0.000000 0.449639
#
# Coordination Sequence:
#
# PCOD8067889 Si02
#       7
#     4   4   4   2   4   4   2
#     4   8  12  19  33  55  80 109 143 170 197 236
#     4   8  12  19  35  56  78 107 142 169 194 243
#     4   9  16  27  42  58  80 111 142 169 203 246
#     4   9  18  30  41  57  81 108 138 172 210 254
#     4   9  15  25  41  59  82 110 138 167 204 251
#     4   9  15  23  37  59  86 113 143 174 202 236
#     4   9  18  28  40  60  82 105 135 173 214 252
#
# _framework density 16.901228
#
# number of rings (size 3 to 8) (size 9 to 14) (size 15 to 20)
#    0.000    3.333    1.667    1.000    0.000    0.667 
#    0.000    3.750    0.000    3.000    0.000    0.000 
#    0.000    2.667    0.000   13.000    0.000    0.333 
#
# Total GULP energy -297365.598025 kJ/mol
# GULP energy per Si atom -12390.233251 kJ/mol
# Density = 1.686276 g / cm^3
# Si number density = 16.901228 Si / 1000 Ang^3
#
#
#
# Elastic Constant Matrix: (Units=GPa)
#
#
# Indices 1 2 3 4 5 6 
#
# 1 51.5218 15.6898 52.8005 0.0000 -3.4673 0.0000
# 2 15.6898 66.3142 51.8431 0.0000 12.2444 0.0000
# 3 52.8005 51.8431 173.5476 0.0000 13.8359 0.0000
# 4 0.0000 0.0000 0.0000 -12.0052 0.0000 -2.3501
# 5 -3.4673 12.2444 13.8359 0.0000 23.1683 0.0000
# 6 0.0000 0.0000 0.0000 -2.3501 0.0000 2.4451
#
#
#
# Elastic Compliance Matrix: (Units=1/GPa)
#
#
# Indices 1 2 3 4 5 6 
#
# 1 0.030647 -0.001754 -0.009701 0.000000 0.011307 0.000000
# 2 -0.001754 0.021001 -0.005076 0.000000 -0.008330 0.000000
# 3 -0.009701 -0.005076 0.010638 0.000000 -0.005123 0.000000
# 4 0.000000 0.000000 0.000000 -0.070107 0.000000 -0.067382
# 5 0.011307 -0.008330 -0.005123 0.000000 0.052317 0.000000
# 6 0.000000 0.000000 0.000000 -0.067382 0.000000 0.344210
#
#
# Mechanical properties :
#
#
# Convention : Reuss Voigt Hill
#
# Bulk Modulus (GPa) = 34.21949 59.11673 46.66811
# Shear Modulus (GPa) = 11.58721 14.12499 12.85610
#
# Velocity S-wave (km/s) = 2.62121 2.89405 2.76100
# Velocity P-wave (km/s) = 5.42694 6.79861 6.15113
#
# Compressibility (1/GPa) = 0.02922311
#
# Stress axis : x y z
#
# Youngs Moduli (GPa) = 32.62998 47.61676 93.99997
#
# Poissons Ratio (x) = 0.08354 0.91193
# Poissons Ratio (y) = 0.05725 0.47711
# Poissons Ratio (z) = 0.31656 0.24169
#
# Static dielectric constant tensor:
#      x y z
#    x 2.860440 0.000000 -0.017820 
#    y 0.000000 2.995110 0.000000 
#    z -0.017820 0.000000 3.572490 
# 
# 
# High freq. dielectric constant tensor:
#      x y z
#    x 1.581620 0.000000 0.006640 
#    y 0.000000 1.639830 0.000000 
#    z 0.006640 0.000000 1.655890 
# 
# From -- ./inp_files/48925.got.cif
#   From: 2010.06.25/outbox.cif.g09.slc.cpg/sg10_25_cif.got.tgz:48925.got - 2010.06.27 22:07:45.
