data_PCOD8067055
_publ_section_title
;
Structure prediction by ZEFSAII (Michael W. Deem and Ramdas Pophale) SiO2 
 PCOD8067055
Probable space group: P 2/M
;
_chemical_formula_sum "Si O2"
_cell_formula_units_Z 32
_cell_length_a 12.149764
_cell_length_b 8.616701
_cell_length_c 31.086124
_cell_angle_alpha 90.000000
_cell_angle_beta 28.628078
_cell_angle_gamma 90.000000
_cell_volume 1559.271018
_symmetry_space_group_name_H-M "P 2/M"
_symmetry_group_IT_number 10
_symmetry_cell_setting 'monoclinic'
loop_
_space_group_symop_operation_xyz
x,y,z
-x,y,-z
-x,-y,-z
x,-y,z
loop_
_atom_site_type_symbol
_atom_site_label
_atom_site_fract_x
_atom_site_fract_y
_atom_site_fract_z
Si Si1 0.234855 0.679916 0.584813
Si Si2 0.049604 0.314696 0.934855
Si Si3 0.391591 0.317213 0.399482
Si Si4 0.519917 0.684098 0.728183
Si Si5 0.667031 0.319332 0.004143
Si Si6 0.777817 0.178869 0.323950
Si Si7 0.812182 0.318444 0.858461
Si Si8 0.999114 0.181643 0.583863
O O1 0.500000 0.723954 0.500000
O O2 0.195138 0.500000 0.587537
O O3 0.127739 0.725437 0.667406
O O4 0.122249 0.781980 0.586504
O O5 0.052933 0.500000 0.932665
O O6 0.291048 0.255779 0.831420
O O7 0.000000 0.253527 0.000000
O O8 0.839638 0.241444 0.979150
O O9 0.411681 0.500000 0.397352
O O10 0.478434 0.263233 0.322614
O O11 0.539650 0.241044 0.386665
O O12 0.130066 0.264245 0.498865
O O13 0.540098 0.500000 0.724262
O O14 0.738919 0.758094 0.676365
O O15 0.678452 0.500000 0.009008
O O16 0.400015 0.268463 0.100001
O O17 0.748121 0.281406 0.928899
O O18 0.973772 0.206637 0.221802
O O19 0.746899 0.000000 0.346346
O O20 0.876155 0.500000 0.830619
O O21 0.000528 0.000000 0.574730
#
# Coordination Sequence:
#
# PCOD8067055 Si02
#       8
#     4   4   4   4   4   4   4   4
#     4  11  23  41  64  84 110 153 199 237 281 345
#     4   9  17  31  54  84 115 146 188 246 300 340
#     4  11  22  39  62  86 117 160 208 251 293 348
#     4  10  22  39  61  89 120 157 204 251 293 350
#     4   8  15  30  53  80 109 146 196 251 297 339
#     4  12  24  36  56  88 124 157 194 242 301 360
#     4   9  17  32  55  81 111 149 196 245 291 346
#     4  12  25  40  61  89 124 158 194 246 303 357
#
# _framework density 20.522411000000002
#
# number of rings (size 3 to 8) (size 9 to 14) (size 15 to 20)
#    0.000    1.750    1.250    4.875    0.000    6.000 
#    0.000    3.750    0.000    1.125    0.000    0.000 
#    0.000    0.000    0.000    0.000    0.000    0.000 
#
# Total GULP energy -396708.249933 kJ/mol
# GULP energy per Si atom -12397.132810 kJ/mol
# Density = 2.047570 g / cm^3
# Si number density = 20.522411 Si / 1000 Ang^3
#
#
#
# Elastic Constant Matrix: (Units=GPa)
#
#
# Indices 1 2 3 4 5 6 
#
# 1 127.8955 23.9457 47.8865 0.0000 -5.9166 0.0000
# 2 23.9457 41.2434 14.3067 0.0000 -5.7371 0.0000
# 3 47.8865 14.3067 92.3575 0.0000 -6.5412 0.0000
# 4 0.0000 0.0000 0.0000 12.5887 0.0000 -2.1612
# 5 -5.9166 -5.7371 -6.5412 0.0000 36.3499 0.0000
# 6 0.0000 0.0000 0.0000 -2.1612 0.0000 15.5664
#
#
#
# Elastic Compliance Matrix: (Units=1/GPa)
#
#
# Indices 1 2 3 4 5 6 
#
# 1 0.010410 -0.004390 -0.004707 0.000000 0.000155 0.000000
# 2 -0.004390 0.027889 -0.001806 0.000000 0.003362 0.000000
# 3 -0.004707 -0.001806 0.013647 0.000000 0.001405 0.000000
# 4 0.000000 0.000000 0.000000 0.081376 0.000000 0.011298
# 5 0.000155 0.003362 0.001405 0.000000 0.028319 0.000000
# 6 0.000000 0.000000 0.000000 0.011298 0.000000 0.065809
#
#
# Mechanical properties :
#
#
# Convention : Reuss Voigt Hill
#
# Bulk Modulus (GPa) = 33.17681 48.19712 40.68697
# Shear Modulus (GPa) = 19.28245 24.59149 21.93697
#
# Velocity S-wave (km/s) = 3.06858 3.46537 3.27299
# Velocity P-wave (km/s) = 5.36248 6.28870 5.84397
#
# Compressibility (1/GPa) = 0.03014154
#
# Stress axis : x y z
#
# Youngs Moduli (GPa) = 96.05955 35.85610 73.27582
#
# Poissons Ratio (x) = 0.15741 0.34488
# Poissons Ratio (y) = 0.42170 0.13233
# Poissons Ratio (z) = 0.45212 0.06475
#
# Static dielectric constant tensor:
#      x y z
#    x 3.974890 0.000000 -0.063510 
#    y 0.000000 3.303560 0.000000 
#    z -0.063510 0.000000 3.903090 
# 
# 
# High freq. dielectric constant tensor:
#      x y z
#    x 1.811220 0.000000 -0.004250 
#    y 0.000000 1.766390 0.000000 
#    z -0.004250 0.000000 1.809680 
# 
# From -- ./inp_files/94990.got.cif
#   From: 2010.06.25/outbox.cif.g09.slc.cpg/sg10_48_cif.got.tgz:94990.got - 2010.06.27 22:07:45.
