data_PCOD8067419
_publ_section_title
;
Structure prediction by ZEFSAII (Michael W. Deem and Ramdas Pophale) SiO2 
 PCOD8067419
Probable space group: P 2/M
;
_chemical_formula_sum "Si O2"
_cell_formula_units_Z 28
_cell_length_a 13.991663
_cell_length_b 8.810258
_cell_length_c 17.527684
_cell_angle_alpha 90.000000
_cell_angle_beta 126.179676
_cell_angle_gamma 90.000000
_cell_volume 1744.003618
_symmetry_space_group_name_H-M "P 2/M"
_symmetry_group_IT_number 10
_symmetry_cell_setting 'monoclinic'
loop_
_space_group_symop_operation_xyz
x,y,z
-x,y,-z
-x,-y,-z
x,-y,z
loop_
_atom_site_type_symbol
_atom_site_label
_atom_site_fract_x
_atom_site_fract_y
_atom_site_fract_z
Si Si1 0.586780 0.319299 0.213399
Si Si2 0.288070 0.672706 0.879222
Si Si3 0.925650 0.319253 0.037756
Si Si4 0.971755 0.679572 0.609176
Si Si5 0.664732 0.327967 0.928245
Si Si6 0.043860 0.177509 0.791093
Si Si7 0.817160 0.320033 0.399640
O O1 0.578840 0.500000 0.213678
O O2 0.626699 0.270326 0.147587
O O3 0.453564 0.252370 0.165765
O O4 0.684061 0.257673 0.320136
O O5 0.242837 0.500000 0.842515
O O6 0.176541 0.783114 0.829303
O O7 0.357812 0.679890 0.991652
O O8 0.921779 0.500000 0.044502
O O9 0.791123 0.251818 0.965971
O O10 0.987785 0.253897 0.142673
O O11 0.000000 0.265513 0.000000
O O12 0.966910 0.500000 0.618742
O O13 0.956924 0.760149 0.683951
O O14 0.094802 0.730549 0.626944
O O15 0.864022 0.736775 0.503883
O O16 0.672951 0.500000 0.903524
O O17 0.025872 0.000000 0.791120
O O18 0.816851 0.500000 0.400162
#
# Coordination Sequence:
#
# PCOD8067419 Si02
#       7
#     4   4   4   4   4   4   4
#     4   9  13  20  38  64  87 109 141 176 206 239
#     4   9  15  25  40  58  84 117 146 170 198 244
#     4   9  18  33  50  66  84 108 138 174 217 261
#     4   9  15  27  42  59  83 114 150 178 205 245
#     4   8  14  22  38  65  87 104 134 175 212 249
#     4  11  20  28  42  64  88 114 143 177 214 248
#     4   8  14  22  39  62  84 113 147 180 206 236
#
# _framework density 16.055012999999999
#
# number of rings (size 3 to 8) (size 9 to 14) (size 15 to 20)
#    0.000    3.000    1.429    3.429    0.000    2.000 
#    0.000    1.429    0.000    6.857    0.000    1.000 
#    0.000    8.000    0.000    0.000    0.000    0.000 
#
# Total GULP energy -346866.656440 kJ/mol
# GULP energy per Si atom -12388.094873 kJ/mol
# Density = 1.601847 g / cm^3
# Si number density = 16.055013 Si / 1000 Ang^3
#
#
#
# Elastic Constant Matrix: (Units=GPa)
#
#
# Indices 1 2 3 4 5 6 
#
# 1 86.3452 15.3546 69.0787 0.0000 0.5363 0.0000
# 2 15.3546 29.5692 24.2410 0.0000 -3.1137 0.0000
# 3 69.0787 24.2410 131.0969 0.0000 5.3550 0.0000
# 4 0.0000 0.0000 0.0000 5.5248 0.0000 -1.2266
# 5 0.5363 -3.1137 5.3550 0.0000 22.5649 0.0000
# 6 0.0000 0.0000 0.0000 -1.2266 0.0000 5.9538
#
#
#
# Elastic Compliance Matrix: (Units=1/GPa)
#
#
# Indices 1 2 3 4 5 6 
#
# 1 0.020194 -0.001794 -0.010380 0.000000 0.001736 0.000000
# 2 -0.001794 0.041256 -0.006985 0.000000 0.007393 0.000000
# 3 -0.010380 -0.006985 0.014559 0.000000 -0.004172 0.000000
# 4 0.000000 0.000000 0.000000 0.189677 0.000000 0.039076
# 5 0.001736 0.007393 -0.004172 0.000000 0.046286 0.000000
# 6 0.000000 0.000000 0.000000 0.039076 0.000000 0.176010
#
#
# Mechanical properties :
#
#
# Convention : Reuss Voigt Hill
#
# Bulk Modulus (GPa) = 26.53175 51.59556 39.06366
# Shear Modulus (GPa) = 9.27879 16.03116 12.65497
#
# Velocity S-wave (km/s) = 2.40664 3.16336 2.81058
# Velocity P-wave (km/s) = 4.92788 6.74899 5.90901
#
# Compressibility (1/GPa) = 0.03769069
#
# Stress axis : x y z
#
# Youngs Moduli (GPa) = 49.51990 24.23919 68.68371
#
# Poissons Ratio (x) = 0.04348 0.71293
# Poissons Ratio (y) = 0.08884 0.47977
# Poissons Ratio (z) = 0.51401 0.16932
#
# Static dielectric constant tensor:
#      x y z
#    x 2.972440 0.000000 0.250400 
#    y 0.000000 2.561270 0.000000 
#    z 0.250400 0.000000 3.418520 
# 
# 
# High freq. dielectric constant tensor:
#      x y z
#    x 1.579440 0.000000 0.014990 
#    y 0.000000 1.568070 0.000000 
#    z 0.014990 0.000000 1.622200 
# 
# From -- ./inp_files/65917.got.cif
#   From: 2010.06.25/outbox.cif.g09.slc.cpg/sg10_33_cif.got.tgz:65917.got - 2010.06.27 22:07:45.
