data_PCOD8067363
_publ_section_title
;
Structure prediction by ZEFSAII (Michael W. Deem and Ramdas Pophale) SiO2 
 PCOD8067363
Probable space group: P 2/M
;
_chemical_formula_sum "Si O2"
_cell_formula_units_Z 28
_cell_length_a 12.501273
_cell_length_b 8.570239
_cell_length_c 14.460934
_cell_angle_alpha 90.000000
_cell_angle_beta 58.851335
_cell_angle_gamma 90.000000
_cell_volume 1325.958811
_symmetry_space_group_name_H-M "P 2/M"
_symmetry_group_IT_number 10
_symmetry_cell_setting 'monoclinic'
loop_
_space_group_symop_operation_xyz
x,y,z
-x,y,-z
-x,-y,-z
x,-y,z
loop_
_atom_site_type_symbol
_atom_site_label
_atom_site_fract_x
_atom_site_fract_y
_atom_site_fract_z
Si Si1 0.461101 0.678259 0.414053
Si Si2 0.914698 0.182669 0.125380
Si Si3 0.522437 0.682074 0.885930
Si Si4 0.993442 0.680644 0.282914
Si Si5 0.216957 0.179139 0.276920
Si Si6 0.640306 0.819251 0.190051
Si Si7 0.202350 0.821218 0.493423
O O1 0.500000 0.714721 0.500000
O O2 0.490055 0.500000 0.372820
O O3 0.538618 0.793775 0.315011
O O4 0.314616 0.708159 0.470764
O O5 0.964245 0.277539 0.190597
O O6 0.774642 0.239168 0.165275
O O7 0.918912 0.000000 0.147309
O O8 0.000000 0.224166 0.000000
O O9 0.551530 0.500000 0.867887
O O10 0.638325 0.773324 0.789940
O O11 0.398128 0.722758 0.883739
O O12 0.500000 0.738693 0.000000
O O13 0.964556 0.500000 0.312202
O O14 0.913998 0.783764 0.389397
O O15 0.138561 0.716936 0.239657
O O16 0.164721 0.206338 0.403703
O O17 0.203985 0.000000 0.252892
O O18 0.645867 0.000000 0.160546
O O19 0.243032 0.000000 0.491070
#
# Coordination Sequence:
#
# PCOD8067363 Si02
#       7
#     4   4   4   4   4   4   4
#     4  11  23  38  61  93 130 170 211 264 325 381
#     4  10  24  46  69  95 127 170 221 271 321 380
#     4  11  25  43  66  98 134 170 213 268 328 384
#     4  12  26  42  65  97 133 174 215 264 328 386
#     4  11  24  43  68  97 130 171 220 268 319 383
#     4  11  23  41  66  96 128 169 217 266 319 381
#     4  11  23  41  65  95 128 168 217 266 319 383
#
# _framework density 21.116793999999999
#
# number of rings (size 3 to 8) (size 9 to 14) (size 15 to 20)
#    0.000    1.000    1.429    4.714    2.000    9.429 
#    0.000    0.000    0.000    0.000    0.000    0.000 
#    0.000    0.000    0.000    0.000    0.000    0.000 
#
# Total GULP energy -347430.187105 kJ/mol
# GULP energy per Si atom -12408.220968 kJ/mol
# Density = 2.106873 g / cm^3
# Si number density = 21.116794 Si / 1000 Ang^3
#
#
#
# Elastic Constant Matrix: (Units=GPa)
#
#
# Indices 1 2 3 4 5 6 
#
# 1 135.4341 35.2155 31.9522 0.0000 14.6037 0.0000
# 2 35.2155 67.1274 37.8073 0.0000 17.3301 0.0000
# 3 31.9522 37.8073 86.5663 0.0000 15.3941 0.0000
# 4 0.0000 0.0000 0.0000 17.2746 0.0000 -0.3566
# 5 14.6037 17.3301 15.3941 0.0000 34.3279 0.0000
# 6 0.0000 0.0000 0.0000 -0.3566 0.0000 31.2754
#
#
#
# Elastic Compliance Matrix: (Units=1/GPa)
#
#
# Indices 1 2 3 4 5 6 
#
# 1 0.008770 -0.003404 -0.001513 0.000000 -0.001334 0.000000
# 2 -0.003404 0.022574 -0.007426 0.000000 -0.006618 0.000000
# 3 -0.001513 -0.007426 0.015835 0.000000 -0.002709 0.000000
# 4 0.000000 0.000000 0.000000 0.057902 0.000000 0.000660
# 5 -0.001334 -0.006618 -0.002709 0.000000 0.034254 0.000000
# 6 0.000000 0.000000 0.000000 0.000660 0.000000 0.031982
#
#
# Mechanical properties :
#
#
# Convention : Reuss Voigt Hill
#
# Bulk Modulus (GPa) = 44.45841 55.45308 49.95574
# Shear Modulus (GPa) = 24.57019 28.85244 26.71131
#
# Velocity S-wave (km/s) = 3.41477 3.70040 3.56045
# Velocity P-wave (km/s) = 6.05366 6.67641 6.37265
#
# Compressibility (1/GPa) = 0.02249293
#
# Stress axis : x y z
#
# Youngs Moduli (GPa) = 114.03072 44.29960 63.15099
#
# Poissons Ratio (x) = 0.15080 0.09555
# Poissons Ratio (y) = 0.38817 0.46893
# Poissons Ratio (z) = 0.17253 0.32895
#
# Static dielectric constant tensor:
#      x y z
#    x 3.940760 0.000000 0.066090 
#    y 0.000000 3.718110 0.000000 
#    z 0.066090 0.000000 3.747430 
# 
# 
# High freq. dielectric constant tensor:
#      x y z
#    x 1.842750 0.000000 0.005480 
#    y 0.000000 1.829930 0.000000 
#    z 0.005480 0.000000 1.830040 
# 
# From -- ./inp_files/63664.got.cif
#   From: 2010.06.25/outbox.cif.g09.slc.cpg/sg10_32_cif.got.tgz:63664.got - 2010.06.27 22:07:45.
