data_PCOD8067730
_publ_section_title
;
Structure prediction by ZEFSAII (Michael W. Deem and Ramdas Pophale) SiO2 
 PCOD8067730
Probable space group: P 2/M
;
_chemical_formula_sum "Si O2"
_cell_formula_units_Z 20
_cell_length_a 10.713508
_cell_length_b 11.700871
_cell_length_c 9.976360
_cell_angle_alpha 90.000000
_cell_angle_beta 48.854646
_cell_angle_gamma 90.000000
_cell_volume 941.763075
_symmetry_space_group_name_H-M "P 2/M"
_symmetry_group_IT_number 10
_symmetry_cell_setting 'monoclinic'
loop_
_space_group_symop_operation_xyz
x,y,z
-x,y,-z
-x,-y,-z
x,-y,z
loop_
_atom_site_type_symbol
_atom_site_label
_atom_site_fract_x
_atom_site_fract_y
_atom_site_fract_z
Si Si1 0.024296 0.500000 0.322958
Si Si2 0.678714 0.288827 0.412136
Si Si3 0.577623 0.366725 0.765800
Si Si4 0.247067 0.292430 0.104225
Si Si5 0.014545 0.868193 0.832235
Si Si6 0.165187 0.500000 0.792066
O O1 0.859099 0.500000 0.352353
O O2 0.000000 0.500000 0.500000
O O3 0.111624 0.389360 0.205107
O O4 0.500000 0.234882 0.500000
O O5 0.664209 0.351565 0.564021
O O6 0.728849 0.383393 0.261818
O O7 0.815208 0.191049 0.333510
O O8 0.592971 0.500000 0.801458
O O9 0.671070 0.284494 0.806428
O O10 0.386573 0.326508 0.896877
O O11 0.149775 0.178744 0.126816
O O12 0.027742 0.000000 0.783733
O O13 0.000000 0.848243 0.000000
O O14 0.000000 0.500000 0.000000
#
# Coordination Sequence:
#
# PCOD8067730 Si02
#       6
#     2   4   4   4   4   2
#     4  12  22  35  66  97 137 172 212 259 327 403
#     4  12  25  40  64  98 135 170 218 270 331 389
#     4  11  22  39  64 102 142 175 202 264 332 414
#     4  11  22  40  66  96 132 177 217 258 329 396
#     4  11  26  48  68  89 124 176 230 280 328 380
#     4  12  25  36  60  99 136 168 212 268 335 399
#
# _framework density 21.236764999999998
#
# number of rings (size 3 to 8) (size 9 to 14) (size 15 to 20)
#    0.000    0.600    5.000    3.900    2.800    0.400 
#    0.000    5.000    0.000    0.000    0.000    0.000 
#    0.000    0.000    0.000    0.000    0.000    0.000 
#
# Total GULP energy -247879.782069 kJ/mol
# GULP energy per Si atom -12393.989103 kJ/mol
# Density = 2.118843 g / cm^3
# Si number density = 21.236765 Si / 1000 Ang^3
#
#
#
# Elastic Constant Matrix: (Units=GPa)
#
#
# Indices 1 2 3 4 5 6 
#
# 1 112.7897 51.2168 43.5631 0.0000 -12.6829 0.0000
# 2 51.2168 134.8127 61.1084 0.0000 -18.2980 0.0000
# 3 43.5631 61.1084 137.0092 0.0000 -15.7681 0.0000
# 4 0.0000 0.0000 0.0000 23.3623 0.0000 -2.6269
# 5 -12.6829 -18.2980 -15.7681 0.0000 34.5091 0.0000
# 6 0.0000 0.0000 0.0000 -2.6269 0.0000 35.4675
#
#
#
# Elastic Compliance Matrix: (Units=1/GPa)
#
#
# Indices 1 2 3 4 5 6 
#
# 1 0.011243 -0.003160 -0.001987 0.000000 0.001548 0.000000
# 2 -0.003160 0.010534 -0.003361 0.000000 0.002888 0.000000
# 3 -0.001987 -0.003361 0.009648 0.000000 0.001896 0.000000
# 4 0.000000 0.000000 0.000000 0.043164 0.000000 0.003197
# 5 0.001548 0.002888 0.001896 0.000000 0.031945 0.000000
# 6 0.000000 0.000000 0.000000 0.003197 0.000000 0.028432
#
#
# Mechanical properties :
#
#
# Convention : Reuss Voigt Hill
#
# Bulk Modulus (GPa) = 69.40743 77.37646 73.39194
# Shear Modulus (GPa) = 31.89113 33.91599 32.90356
#
# Velocity S-wave (km/s) = 3.87937 4.00064 3.94047
# Velocity P-wave (km/s) = 7.26772 7.60621 7.43889
#
# Compressibility (1/GPa) = 0.01440768
#
# Stress axis : x y z
#
# Youngs Moduli (GPa) = 88.94664 94.93172 103.65058
#
# Poissons Ratio (x) = 0.30003 0.20594
# Poissons Ratio (y) = 0.28111 0.34837
# Poissons Ratio (z) = 0.17673 0.31907
#
# Static dielectric constant tensor:
#      x y z
#    x 4.078990 0.000000 -0.124680 
#    y 0.000000 3.520640 0.000000 
#    z -0.124680 0.000000 4.068430 
# 
# 
# High freq. dielectric constant tensor:
#      x y z
#    x 1.849030 0.000000 -0.008000 
#    y 0.000000 1.791360 0.000000 
#    z -0.008000 0.000000 1.855030 
# 
# From -- ./inp_files/46463.got.cif
#   From: 2010.06.25/outbox.cif.g09.slc.cpg/sg10_24_cif.got.tgz:46463.got - 2010.06.27 22:07:45.
