data_PCOD8067984
_publ_section_title
;
Structure prediction by ZEFSAII (Michael W. Deem and Ramdas Pophale) SiO2 
 PCOD8067984
Probable space group: P 2/M
;
_chemical_formula_sum "Si O2"
_cell_formula_units_Z 28
_cell_length_a 21.758188
_cell_length_b 17.441367
_cell_length_c 15.348705
_cell_angle_alpha 90.000000
_cell_angle_beta 161.126556
_cell_angle_gamma 90.000000
_cell_volume 1884.173620
_symmetry_space_group_name_H-M "P 2/M"
_symmetry_group_IT_number 10
_symmetry_cell_setting 'monoclinic'
loop_
_space_group_symop_operation_xyz
x,y,z
-x,y,-z
-x,-y,-z
x,-y,z
loop_
_atom_site_type_symbol
_atom_site_label
_atom_site_fract_x
_atom_site_fract_y
_atom_site_fract_z
Si Si1 0.398241 0.698927 0.199964
Si Si2 0.678055 0.086641 0.179814
Si Si3 0.714287 0.585940 0.820707
Si Si4 0.814016 0.698416 0.809615
Si Si5 0.298377 0.178409 0.212713
Si Si6 0.918143 0.913427 0.206299
Si Si7 0.204403 0.803180 0.809391
O O1 0.287472 0.621975 0.083477
O O2 0.625200 0.684280 0.497292
O O3 0.353252 0.757102 0.216927
O O4 0.318328 0.729575 0.999870
O O5 0.678386 0.152919 0.107861
O O6 0.856808 0.094503 0.483514
O O7 0.673714 0.000000 0.133548
O O8 0.500000 0.103452 0.000000
O O9 0.500000 0.587024 0.500000
O O10 0.797379 0.500000 0.937742
O O11 0.838613 0.634032 0.917948
O O12 0.794387 0.782383 0.826880
O O13 0.000000 0.695737 0.000000
O O14 0.500000 0.135393 0.500000
O O15 0.143972 0.118135 0.971045
O O16 0.814991 0.866024 0.142326
O O17 0.848944 0.000000 0.123706
O O18 0.000000 0.774956 0.500000
#
# Coordination Sequence:
#
# PCOD8067984 Si02
#       7
#     4   4   4   4   4   4   4
#     4   8  15  27  41  58  79 103 129 158 191 226
#     4   9  17  27  38  56  81 103 125 160 204 239
#     4   8  14  26  43  61  82 105 126 153 190 227
#     4   9  16  25  39  60  84 106 127 153 186 228
#     4   8  15  27  39  53  76 103 130 160 194 230
#     4   9  16  26  41  57  72  97 133 169 200 228
#     4   9  16  27  43  59  75  98 133 169 195 225
#
# _framework density 14.860626999999999
#
# number of rings (size 3 to 8) (size 9 to 14) (size 15 to 20)
#    0.000    3.429    0.000    2.143    0.000    3.429 
#    0.000    0.000    0.000    0.857    0.000    0.000 
#    0.000    1.714    0.000    0.000    0.000    0.000 
#
# Total GULP energy -346947.193069 kJ/mol
# GULP energy per Si atom -12390.971181 kJ/mol
# Density = 1.482680 g / cm^3
# Si number density = 14.860627 Si / 1000 Ang^3
#
#
#
# Elastic Constant Matrix: (Units=GPa)
#
#
# Indices 1 2 3 4 5 6 
#
# 1 79.7430 41.6566 52.1039 0.0000 7.9777 0.0000
# 2 41.6566 76.8215 45.4587 0.0000 -5.9097 0.0000
# 3 52.1039 45.4587 72.1118 0.0000 2.6021 0.0000
# 4 0.0000 0.0000 0.0000 18.6366 0.0000 11.5072
# 5 7.9777 -5.9097 2.6021 0.0000 25.4753 0.0000
# 6 0.0000 0.0000 0.0000 11.5072 0.0000 98.5777
#
#
#
# Elastic Compliance Matrix: (Units=1/GPa)
#
#
# Indices 1 2 3 4 5 6 
#
# 1 0.026197 -0.006061 -0.014815 0.000000 -0.008096 0.000000
# 2 -0.006061 0.023180 -0.010534 0.000000 0.008351 0.000000
# 3 -0.014815 -0.010534 0.031249 0.000000 -0.000996 0.000000
# 4 0.000000 0.000000 0.000000 0.057826 0.000000 -0.006750
# 5 -0.008096 0.008351 -0.000996 0.000000 0.043828 0.000000
# 6 0.000000 0.000000 0.000000 -0.006750 0.000000 0.010932
#
#
# Mechanical properties :
#
#
# Convention : Reuss Voigt Hill
#
# Bulk Modulus (GPa) = 56.16744 56.34609 56.25677
# Shear Modulus (GPa) = 19.08630 34.50173 26.79401
#
# Velocity S-wave (km/s) = 3.58768 4.82362 4.25081
# Velocity P-wave (km/s) = 7.41890 8.30793 7.87597
#
# Compressibility (1/GPa) = 0.01780391
#
# Stress axis : x y z
#
# Youngs Moduli (GPa) = 38.17249 43.14061 32.00138
#
# Poissons Ratio (x) = 0.26149 0.47411
# Poissons Ratio (y) = 0.23138 0.33711
# Poissons Ratio (z) = 0.56553 0.45445
#
# Static dielectric constant tensor:
#      x y z
#    x 2.776770 0.000000 -0.196750 
#    y 0.000000 3.019350 0.000000 
#    z -0.196750 0.000000 2.969080 
# 
# 
# High freq. dielectric constant tensor:
#      x y z
#    x 1.549850 0.000000 0.001650 
#    y 0.000000 1.554370 0.000000 
#    z 0.001650 0.000000 1.556070 
# 
# From -- ./inp_files/25537.got.cif
#   From: 2010.06.25/outbox.cif.g09.slc.cpg/sg10_13_cif.got.tgz:25537.got - 2010.06.27 22:07:45.
