data_PCOD8067558
_publ_section_title
;
Structure prediction by ZEFSAII (Michael W. Deem and Ramdas Pophale) SiO2 
 PCOD8067558
Probable space group: P 2/M
;
_chemical_formula_sum "Si O2"
_cell_formula_units_Z 32
_cell_length_a 11.176809
_cell_length_b 8.932575
_cell_length_c 20.891714
_cell_angle_alpha 90.000000
_cell_angle_beta 64.244487
_cell_angle_gamma 90.000000
_cell_volume 1878.571493
_symmetry_space_group_name_H-M "P 2/M"
_symmetry_group_IT_number 10
_symmetry_cell_setting 'monoclinic'
loop_
_space_group_symop_operation_xyz
x,y,z
-x,y,-z
-x,-y,-z
x,-y,z
loop_
_atom_site_type_symbol
_atom_site_label
_atom_site_fract_x
_atom_site_fract_y
_atom_site_fract_z
Si Si1 0.304330 0.678767 0.532743
Si Si2 0.419480 0.334484 0.879369
Si Si3 0.473915 0.821445 0.600275
Si Si4 0.504740 0.324827 0.723831
Si Si5 0.652381 0.833827 0.985896
Si Si6 0.802720 0.675056 0.695823
Si Si7 0.032019 0.173807 0.565884
Si Si8 0.722428 0.334746 0.851463
O O1 0.322753 0.500000 0.529128
O O2 0.354572 0.750079 0.587328
O O3 0.387163 0.750078 0.455094
O O4 0.151765 0.720561 0.559597
O O5 0.358413 0.500000 0.893310
O O6 0.422906 0.271982 0.805942
O O7 0.568325 0.339587 0.870392
O O8 0.328453 0.239186 0.948628
O O9 0.450717 0.777235 0.679104
O O10 0.476815 0.000000 0.590972
O O11 0.479482 0.500000 0.715850
O O12 0.660459 0.295420 0.697113
O O13 0.746200 0.762161 0.909600
O O14 0.704109 0.000000 0.981461
O O15 0.500000 0.824789 0.000000
O O16 0.840952 0.500000 0.680507
O O17 0.801483 0.725066 0.770889
O O18 0.905561 0.781967 0.637024
O O19 0.000000 0.206882 0.500000
O O20 0.067288 0.000000 0.568984
O O21 0.773433 0.500000 0.856282
#
# Coordination Sequence:
#
# PCOD8067558 Si02
#       8
#     4   4   4   4   4   4   4   4
#     4  11  22  37  55  71  90 120 158 193 226 271
#     4   8  14  24  38  56  82 117 153 188 222 263
#     4  11  21  34  52  73  97 120 148 190 238 280
#     4   9  17  30  47  68  94 125 161 193 227 274
#     4   9  15  21  32  53  81 113 149 187 227 270
#     4   9  18  31  47  67  91 123 161 196 228 272
#     4  11  23  36  50  71  98 124 151 188 235 279
#     4   8  14  25  39  55  79 114 154 189 223 265
#
# _framework density 17.034219
#
# number of rings (size 3 to 8) (size 9 to 14) (size 15 to 20)
#    0.000    2.500    0.000    6.000    0.000    6.000 
#    0.000    2.500    0.000    0.000    0.000    0.000 
#    0.000    1.000    0.000   10.500    0.000    8.000 
#
# Total GULP energy -396659.867871 kJ/mol
# GULP energy per Si atom -12395.620871 kJ/mol
# Density = 1.699545 g / cm^3
# Si number density = 17.034219 Si / 1000 Ang^3
#
#
#
# Elastic Constant Matrix: (Units=GPa)
#
#
# Indices 1 2 3 4 5 6 
#
# 1 42.8018 33.1691 36.6103 0.0000 9.1861 0.0000
# 2 33.1691 117.3875 68.5709 0.0000 13.6594 0.0000
# 3 36.6103 68.5709 147.5643 0.0000 24.2422 0.0000
# 4 0.0000 0.0000 0.0000 21.4956 0.0000 3.3349
# 5 9.1861 13.6594 24.2422 0.0000 19.8862 0.0000
# 6 0.0000 0.0000 0.0000 3.3349 0.0000 19.9036
#
#
#
# Elastic Compliance Matrix: (Units=1/GPa)
#
#
# Indices 1 2 3 4 5 6 
#
# 1 0.033113 -0.006096 -0.004448 0.000000 -0.005686 0.000000
# 2 -0.006096 0.012865 -0.004347 0.000000 -0.000721 0.000000
# 3 -0.004448 -0.004347 0.011344 0.000000 -0.008788 0.000000
# 4 0.000000 0.000000 0.000000 0.047763 0.000000 -0.008003
# 5 -0.005686 -0.000721 -0.008788 0.000000 0.064121 0.000000
# 6 0.000000 0.000000 0.000000 -0.008003 0.000000 0.051583
#
#
# Mechanical properties :
#
#
# Convention : Reuss Voigt Hill
#
# Bulk Modulus (GPa) = 36.31309 64.93934 50.62622
# Shear Modulus (GPa) = 19.24918 23.55064 21.39991
#
# Velocity S-wave (km/s) = 3.36524 3.72230 3.54826
# Velocity P-wave (km/s) = 6.03853 7.52859 6.82435
#
# Compressibility (1/GPa) = 0.02753828
#
# Stress axis : x y z
#
# Youngs Moduli (GPa) = 30.19962 77.73287 88.15185
#
# Poissons Ratio (x) = 0.47389 0.39212
# Poissons Ratio (y) = 0.18411 0.38320
# Poissons Ratio (z) = 0.13434 0.33791
#
# Static dielectric constant tensor:
#      x y z
#    x 2.723130 0.000000 0.190850 
#    y 0.000000 3.267060 0.000000 
#    z 0.190850 0.000000 3.407880 
# 
# 
# High freq. dielectric constant tensor:
#      x y z
#    x 1.598260 0.000000 0.019700 
#    y 0.000000 1.662620 0.000000 
#    z 0.019700 0.000000 1.669270 
# 
# From -- ./inp_files/83364.got.cif
#   From: 2010.06.25/outbox.cif.g09.slc.cpg/sg10_42_cif.got.tgz:83364.got - 2010.06.27 22:07:45.
