data_PCOD8067562
_publ_section_title
;
Structure prediction by ZEFSAII (Michael W. Deem and Ramdas Pophale) SiO2 
 PCOD8067562
Probable space group: P 2/M
;
_chemical_formula_sum "Si O2"
_cell_formula_units_Z 32
_cell_length_a 7.914751
_cell_length_b 17.386181
_cell_length_c 23.244929
_cell_angle_alpha 90.000000
_cell_angle_beta 31.426814
_cell_angle_gamma 90.000000
_cell_volume 1667.816344
_symmetry_space_group_name_H-M "P 2/M"
_symmetry_group_IT_number 10
_symmetry_cell_setting 'monoclinic'
loop_
_space_group_symop_operation_xyz
x,y,z
-x,y,-z
-x,-y,-z
x,-y,z
loop_
_atom_site_type_symbol
_atom_site_label
_atom_site_fract_x
_atom_site_fract_y
_atom_site_fract_z
Si Si1 0.377662 0.175026 0.875380
Si Si2 0.635098 0.413297 0.222039
Si Si3 0.690371 0.590311 0.385009
Si Si4 0.211685 0.321108 0.045952
Si Si5 0.723285 0.912417 0.879634
Si Si6 0.421184 0.653011 0.172176
Si Si7 0.225401 0.814620 0.798718
Si Si8 0.358092 0.307253 0.384685
O O1 0.559804 0.122640 0.869697
O O2 0.567665 0.256054 0.819591
O O3 0.407794 0.142973 0.799773
O O4 0.000000 0.180191 0.000000
O O5 0.579995 0.500000 0.254384
O O6 0.634813 0.395302 0.154901
O O7 0.342858 0.366416 0.335777
O O8 0.985806 0.384304 0.143846
O O9 0.500000 0.599862 0.500000
O O10 0.686593 0.500000 0.367313
O O11 0.511504 0.645749 0.392517
O O12 0.058992 0.619994 0.280155
O O13 0.001493 0.244069 0.097670
O O14 0.500000 0.289240 0.000000
O O15 0.379952 0.362163 0.943416
O O16 0.050777 0.870905 0.804795
O O17 0.806436 0.000000 0.840047
O O18 0.500000 0.906434 0.000000
O O19 0.448226 0.768262 0.689737
O O20 0.000000 0.277918 0.500000
#
# Coordination Sequence:
#
# PCOD8067562 Si02
#       8
#     4   4   4   4   4   4   4   4
#     4  12  20  36  63  89 123 165 202 239 293 355
#     4  11  23  36  53  81 114 150 194 249 306 354
#     4  11  25  40  56  81 115 155 199 259 323 367
#     4  11  21  34  55  80 111 153 200 241 296 355
#     4  11  23  37  60  97 135 165 192 232 291 365
#     4  12  20  36  57  80 111 154 202 247 293 361
#     4  11  22  40  61  90 122 159 201 249 297 356
#     4  11  23  41  62  83 110 149 205 253 302 360
#
# _framework density 19.186765999999999
#
# number of rings (size 3 to 8) (size 9 to 14) (size 15 to 20)
#    0.000    0.750    5.000    5.250    0.000    4.500 
#    0.000    0.000    0.000    0.375    0.000    0.875 
#    0.000    0.000    0.000    0.000    0.000    0.000 
#
# Total GULP energy -396418.746512 kJ/mol
# GULP energy per Si atom -12388.085829 kJ/mol
# Density = 1.914310 g / cm^3
# Si number density = 19.186766 Si / 1000 Ang^3
#
#
#
# Elastic Constant Matrix: (Units=GPa)
#
#
# Indices 1 2 3 4 5 6 
#
# 1 125.3753 59.1461 45.9346 0.0000 6.3737 0.0000
# 2 59.1461 112.8906 46.8757 0.0000 -10.5187 0.0000
# 3 45.9346 46.8757 105.2298 0.0000 -5.4922 0.0000
# 4 0.0000 0.0000 0.0000 12.6438 0.0000 -1.8807
# 5 6.3737 -10.5187 -5.4922 0.0000 24.8290 0.0000
# 6 0.0000 0.0000 0.0000 -1.8807 0.0000 24.4676
#
#
#
# Elastic Compliance Matrix: (Units=1/GPa)
#
#
# Indices 1 2 3 4 5 6 
#
# 1 0.012070 -0.005615 -0.003089 0.000000 -0.006161 0.000000
# 2 -0.005615 0.013804 -0.003356 0.000000 0.006547 0.000000
# 3 -0.003089 -0.003356 0.012457 0.000000 0.002127 0.000000
# 4 0.000000 0.000000 0.000000 0.080005 0.000000 0.006150
# 5 -0.006161 0.006547 0.002127 0.000000 0.045101 0.000000
# 6 0.000000 0.000000 0.000000 0.006150 0.000000 0.041343
#
#
# Mechanical properties :
#
#
# Convention : Reuss Voigt Hill
#
# Bulk Modulus (GPa) = 70.37047 71.93427 71.15237
# Shear Modulus (GPa) = 21.40068 25.15735 23.27902
#
# Velocity S-wave (km/s) = 3.34337 3.62495 3.48700
# Velocity P-wave (km/s) = 7.18751 7.42249 7.30595
#
# Compressibility (1/GPa) = 0.01421051
#
# Stress axis : x y z
#
# Youngs Moduli (GPa) = 82.85080 72.44472 80.27335
#
# Poissons Ratio (x) = 0.40678 0.24796
# Poissons Ratio (y) = 0.46521 0.26941
# Poissons Ratio (z) = 0.25592 0.24314
#
# Static dielectric constant tensor:
#      x y z
#    x 3.975950 0.000000 0.066480 
#    y 0.000000 3.434700 0.000000 
#    z 0.066480 0.000000 3.540490 
# 
# 
# High freq. dielectric constant tensor:
#      x y z
#    x 1.767340 0.000000 0.007930 
#    y 0.000000 1.724300 0.000000 
#    z 0.007930 0.000000 1.735000 
# 
# From -- ./inp_files/88318.got.cif
#   From: 2010.06.25/outbox.cif.g09.slc.cpg/sg10_45_cif.got.tgz:88318.got - 2010.06.27 22:07:45.
