data_PCOD8067595
_publ_section_title
;
Structure prediction by ZEFSAII (Michael W. Deem and Ramdas Pophale) SiO2 
 PCOD8067595
Probable space group: P 2/M
;
_chemical_formula_sum "Si O2"
_cell_formula_units_Z 32
_cell_length_a 21.886279
_cell_length_b 8.903121
_cell_length_c 15.014850
_cell_angle_alpha 90.000000
_cell_angle_beta 33.090860
_cell_angle_gamma 90.000000
_cell_volume 1597.359420
_symmetry_space_group_name_H-M "P 2/M"
_symmetry_group_IT_number 10
_symmetry_cell_setting 'monoclinic'
loop_
_space_group_symop_operation_xyz
x,y,z
-x,y,-z
-x,-y,-z
x,-y,z
loop_
_atom_site_type_symbol
_atom_site_label
_atom_site_fract_x
_atom_site_fract_y
_atom_site_fract_z
Si Si1 0.043179 0.668746 0.109936
Si Si2 0.385029 0.323877 0.498946
Si Si3 0.614458 0.173424 0.166422
Si Si4 0.742114 0.323559 0.854117
Si Si5 0.199661 0.823388 0.390712
Si Si6 0.030531 0.668615 0.330120
Si Si7 0.206617 0.323747 0.567036
Si Si8 0.740629 0.172476 0.192112
O O1 0.057107 0.500000 0.054853
O O2 0.072778 0.672312 0.177723
O O3 0.916656 0.727720 0.249027
O O4 0.130802 0.775370 0.952202
O O5 0.409912 0.500000 0.470461
O O6 0.496908 0.235570 0.342410
O O7 0.294299 0.281002 0.535315
O O8 0.340139 0.273384 0.649373
O O9 0.705149 0.196408 0.133373
O O10 0.601017 0.000000 0.158327
O O11 0.651282 0.260293 0.033278
O O12 0.723363 0.500000 0.870159
O O13 0.723603 0.248637 0.780305
O O14 0.867175 0.281642 0.732916
O O15 0.241278 0.760856 0.434638
O O16 0.070363 0.782757 0.531122
O O17 0.215339 0.000000 0.370252
O O18 0.989145 0.500000 0.405084
O O19 0.202426 0.500000 0.549988
O O20 0.729822 0.000000 0.235009
#
# Coordination Sequence:
#
# PCOD8067595 Si02
#       8
#     4   4   4   4   4   4   4   4
#     4   9  17  34  59  86 117 153 194 238 286 343
#     4  11  24  42  65  86 110 153 205 247 289 347
#     4  11  24  41  60  87 124 154 189 244 300 349
#     4  11  21  36  59  85 116 156 200 240 285 344
#     4  11  22  34  55  87 121 156 192 236 293 351
#     4   9  18  33  54  82 118 158 196 236 284 342
#     4   9  21  42  62  84 116 155 200 247 289 339
#     4  11  23  38  59  89 124 154 186 237 300 354
#
# _framework density 20.033062999999999
#
# number of rings (size 3 to 8) (size 9 to 14) (size 15 to 20)
#    0.000    1.750    1.250    4.125    0.000    9.000 
#    0.000    3.125    0.000    3.750    0.000    0.000 
#    0.000    0.000    0.000    0.000    0.000    0.000 
#
# Total GULP energy -396913.614286 kJ/mol
# GULP energy per Si atom -12403.550446 kJ/mol
# Density = 1.998747 g / cm^3
# Si number density = 20.033063 Si / 1000 Ang^3
#
#
#
# Elastic Constant Matrix: (Units=GPa)
#
#
# Indices 1 2 3 4 5 6 
#
# 1 42.4496 31.6118 25.4591 0.0000 -8.4633 0.0000
# 2 31.6118 97.4651 59.8504 0.0000 -8.0529 0.0000
# 3 25.4591 59.8504 131.2630 0.0000 -6.7852 0.0000
# 4 0.0000 0.0000 0.0000 15.8190 0.0000 16.1267
# 5 -8.4633 -8.0529 -6.7852 0.0000 31.9876 0.0000
# 6 0.0000 0.0000 0.0000 16.1267 0.0000 15.4559
#
#
#
# Elastic Compliance Matrix: (Units=1/GPa)
#
#
# Indices 1 2 3 4 5 6 
#
# 1 0.032511 -0.008846 -0.001964 0.000000 0.005958 0.000000
# 2 -0.008846 0.016817 -0.005919 0.000000 0.000638 0.000000
# 3 -0.001964 -0.005919 0.010712 0.000000 0.000262 0.000000
# 4 0.000000 0.000000 0.000000 -0.992293 0.000000 1.035364
# 5 0.005958 0.000638 0.000262 0.000000 0.033055 0.000000
# 6 0.000000 0.000000 0.000000 1.035364 0.000000 -1.015604
#
#
# Mechanical properties :
#
#
# Convention : Reuss Voigt Hill
#
# Bulk Modulus (GPa) = 37.62153 56.11336 46.86744
# Shear Modulus (GPa) = -2.67025 22.93623 10.13299
#
# Velocity S-wave (km/s) = -1.15577 3.38734 2.25147
# Velocity P-wave (km/s) = 4.12788 6.58558 5.49588
#
# Compressibility (1/GPa) = 0.02658053
#
# Stress axis : x y z
#
# Youngs Moduli (GPa) = 30.75886 59.46516 93.35674
#
# Poissons Ratio (x) = 0.52604 0.18337
# Poissons Ratio (y) = 0.27210 0.55257
# Poissons Ratio (z) = 0.06042 0.35197
#
# Static dielectric constant tensor:
#      x y z
#    x 3.594880 0.000000 0.085100 
#    y 0.000000 3.601230 0.000000 
#    z 0.085100 0.000000 3.615580 
# 
# 
# High freq. dielectric constant tensor:
#      x y z
#    x 1.771310 0.000000 0.010600 
#    y 0.000000 1.781600 0.000000 
#    z 0.010600 0.000000 1.783540 
# 
# From -- ./inp_files/71533.got.cif
#   From: 2010.06.25/outbox.cif.g09.slc.cpg/sg10_36_cif.got.tgz:71533.got - 2010.06.27 22:07:45.
