data_PCOD8067112
_publ_section_title
;
Structure prediction by ZEFSAII (Michael W. Deem and Ramdas Pophale) SiO2 
 PCOD8067112
Probable space group: P 2/M
;
_chemical_formula_sum "Si O2"
_cell_formula_units_Z 32
_cell_length_a 14.691096
_cell_length_b 8.582277
_cell_length_c 14.951035
_cell_angle_alpha 90.000000
_cell_angle_beta 59.750117
_cell_angle_gamma 90.000000
_cell_volume 1628.394212
_symmetry_space_group_name_H-M "P 2/M"
_symmetry_group_IT_number 10
_symmetry_cell_setting 'monoclinic'
loop_
_space_group_symop_operation_xyz
x,y,z
-x,y,-z
-x,-y,-z
x,-y,z
loop_
_atom_site_type_symbol
_atom_site_label
_atom_site_fract_x
_atom_site_fract_y
_atom_site_fract_z
Si Si1 0.387773 0.317615 0.014104
Si Si2 0.434436 0.182357 0.803948
Si Si3 0.659358 0.681945 0.664867
Si Si4 0.224262 0.816549 0.229567
Si Si5 0.284639 0.179712 0.722246
Si Si6 0.779444 0.681696 0.428794
Si Si7 0.946216 0.819173 0.112436
Si Si8 0.996471 0.815811 0.279430
O O1 0.367569 0.500000 0.037977
O O2 0.296431 0.222060 0.108602
O O3 0.500000 0.267771 0.000000
O O4 0.384591 0.275890 0.911197
O O5 0.557165 0.215961 0.734613
O O6 0.379076 0.237455 0.739176
O O7 0.415058 0.000000 0.830091
O O8 0.629480 0.500000 0.681043
O O9 0.742352 0.717509 0.701357
O O10 0.707324 0.735587 0.546919
O O11 0.104511 0.761592 0.271164
O O12 0.230895 0.000000 0.246040
O O13 0.282273 0.274697 0.631266
O O14 0.178609 0.206543 0.831339
O O15 0.297759 0.000000 0.688754
O O16 0.798789 0.500000 0.421972
O O17 0.893774 0.759971 0.384166
O O18 0.991025 0.744348 0.181759
O O19 0.976601 0.000000 0.097056
O O20 0.000000 0.736598 0.000000
O O21 0.989581 0.000000 0.277543
#
# Coordination Sequence:
#
# PCOD8067112 Si02
#       8
#     4   4   4   4   4   4   4   4
#     4  11  23  39  59  84 122 163 192 234 293 349
#     4  11  23  38  61  90 117 152 198 245 291 344
#     4  11  24  41  59  83 116 155 198 242 294 351
#     4  11  23  38  61  90 117 152 198 245 291 344
#     4   9  20  37  58  86 117 149 190 243 293 341
#     4  10  22  40  62  84 114 156 195 239 292 353
#     4   8  14  28  53  79 108 145 180 222 281 338
#     4   9  20  37  58  86 117 149 190 243 293 341
#
# _framework density 19.651261000000002
#
# number of rings (size 3 to 8) (size 9 to 14) (size 15 to 20)
#    0.000    2.000    1.250    2.625    1.750    5.500 
#    0.000    5.000    0.000    1.500    0.000    0.000 
#    0.000    0.000    0.000    0.000    0.000    0.000 
#
# Total GULP energy -396850.815281 kJ/mol
# GULP energy per Si atom -12401.587978 kJ/mol
# Density = 1.960653 g / cm^3
# Si number density = 19.651261 Si / 1000 Ang^3
#
#
#
# Elastic Constant Matrix: (Units=GPa)
#
#
# Indices 1 2 3 4 5 6 
#
# 1 102.2325 15.1440 19.3267 0.0000 16.5426 0.0000
# 2 15.1440 25.1777 13.3167 0.0000 -1.6393 0.0000
# 3 19.3267 13.3167 102.8617 0.0000 17.8556 0.0000
# 4 0.0000 0.0000 0.0000 30.3172 0.0000 3.7198
# 5 16.5426 -1.6393 17.8556 0.0000 13.1043 0.0000
# 6 0.0000 0.0000 0.0000 3.7198 0.0000 21.0732
#
#
#
# Elastic Compliance Matrix: (Units=1/GPa)
#
#
# Indices 1 2 3 4 5 6 
#
# 1 0.015000 -0.012230 0.003036 0.000000 -0.024602 0.000000
# 2 -0.012230 0.055647 -0.011519 0.000000 0.038095 0.000000
# 3 0.003036 -0.011519 0.015139 0.000000 -0.025901 0.000000
# 4 0.000000 0.000000 0.000000 0.033715 0.000000 -0.005951
# 5 -0.024602 0.038095 -0.025901 0.000000 0.147425 0.000000
# 6 0.000000 0.000000 0.000000 -0.005951 0.000000 0.048504
#
#
# Mechanical properties :
#
#
# Convention : Reuss Voigt Hill
#
# Bulk Modulus (GPa) = 22.54344 36.20519 29.37432
# Shear Modulus (GPa) = 13.45378 25.06458 19.25918
#
# Velocity S-wave (km/s) = 2.61938 3.57525 3.13397
# Velocity P-wave (km/s) = 4.54366 5.95878 5.29867
#
# Compressibility (1/GPa) = 0.04435880
#
# Stress axis : x y z
#
# Youngs Moduli (GPa) = 66.66508 17.97057 66.05531
#
# Poissons Ratio (x) = 0.21978 -0.20051
# Poissons Ratio (y) = 0.81530 0.76091
# Poissons Ratio (z) = -0.20236 0.20701
#
# Static dielectric constant tensor:
#      x y z
#    x 3.734530 0.000000 0.092660 
#    y 0.000000 3.367970 0.000000 
#    z 0.092660 0.000000 3.762450 
# 
# 
# High freq. dielectric constant tensor:
#      x y z
#    x 1.770920 0.000000 0.003160 
#    y 0.000000 1.751750 0.000000 
#    z 0.003160 0.000000 1.771380 
# 
# From -- ./inp_files/66531.got.cif
#   From: 2010.06.25/outbox.cif.g09.slc.cpg/sg10_34_cif.got.tgz:66531.got - 2010.06.27 22:07:45.
