data_PCOD8067879
_publ_section_title
;
Structure prediction by ZEFSAII (Michael W. Deem and Ramdas Pophale) SiO2 
 PCOD8067879
Probable space group: P 2/M
;
_chemical_formula_sum "Si O2"
_cell_formula_units_Z 32
_cell_length_a 11.677479
_cell_length_b 9.493599
_cell_length_c 21.108942
_cell_angle_alpha 90.000000
_cell_angle_beta 116.470077
_cell_angle_gamma 90.000000
_cell_volume 2094.838945
_symmetry_space_group_name_H-M "P 2/M"
_symmetry_group_IT_number 10
_symmetry_cell_setting 'monoclinic'
loop_
_space_group_symop_operation_xyz
x,y,z
-x,y,-z
-x,-y,-z
x,-y,z
loop_
_atom_site_type_symbol
_atom_site_label
_atom_site_fract_x
_atom_site_fract_y
_atom_site_fract_z
Si Si1 0.976342 0.168188 0.065301
Si Si2 0.529488 0.167535 0.105460
Si Si3 0.645949 0.658690 0.513667
Si Si4 0.790363 0.167483 0.794392
Si Si5 0.516955 0.167938 0.768031
Si Si6 0.714576 0.157181 0.641103
Si Si7 0.298891 0.167533 0.963358
Si Si8 0.576522 0.842544 0.386002
O O1 0.841471 0.229704 0.057313
O O2 0.087602 0.228967 0.138196
O O3 0.975779 0.000000 0.066501
O O4 0.000000 0.222775 0.000000
O O5 0.539566 0.226918 0.179624
O O6 0.650649 0.218677 0.093354
O O7 0.526716 0.000000 0.106106
O O8 0.397538 0.221584 0.041264
O O9 0.500000 0.659888 0.500000
O O10 0.696654 0.500000 0.518171
O O11 0.734273 0.737121 0.587281
O O12 0.660085 0.738078 0.449897
O O13 0.660726 0.228000 0.794194
O O14 0.797435 0.210895 0.721821
O O15 0.788156 0.000000 0.798617
O O16 0.425238 0.214535 0.687071
O O17 0.523916 0.000000 0.769810
O O18 0.567803 0.151872 0.625331
O O19 0.757554 0.000000 0.630850
O O20 0.293506 0.000000 0.963844
O O21 0.635613 0.000000 0.404666
#
# Coordination Sequence:
#
# PCOD8067879 Si02
#       8
#     4   4   4   4   4   4   4   4
#     4   9  14  18  25  38  58  83 110 139 168 196
#     4   8  12  18  26  36  54  81 112 138 161 197
#     4   9  15  21  30  45  65  88 111 135 166 203
#     4   8  13  19  27  40  57  80 111 141 165 192
#     4   8  12  18  28  40  55  79 111 141 164 191
#     4   8  13  21  31  42  60  87 115 140 165 197
#     4   8  13  18  24  36  55  82 111 137 167 199
#     4   8  13  20  30  44  61  84 114 141 165 198
#
# _framework density 15.275638000000001
#
# number of rings (size 3 to 8) (size 9 to 14) (size 15 to 20)
#    0.000    3.750    0.000    3.375    0.000    4.500 
#    0.000    0.000    0.000    0.000    0.000    0.000 
#    0.000    1.500    0.000   17.875    0.000   15.250 
#
# Total GULP energy -396449.946829 kJ/mol
# GULP energy per Si atom -12389.060838 kJ/mol
# Density = 1.524087 g / cm^3
# Si number density = 15.275638 Si / 1000 Ang^3
#
#
#
# Elastic Constant Matrix: (Units=GPa)
#
#
# Indices 1 2 3 4 5 6 
#
# 1 75.1557 14.7975 56.8486 0.0000 -12.8165 0.0000
# 2 14.7975 36.7047 37.8056 0.0000 -7.3213 0.0000
# 3 56.8486 37.8056 152.6694 0.0000 -24.9203 0.0000
# 4 0.0000 0.0000 0.0000 1.8827 0.0000 0.2921
# 5 -12.8165 -7.3213 -24.9203 0.0000 21.0916 0.0000
# 6 0.0000 0.0000 0.0000 0.2921 0.0000 2.2868
#
#
#
# Elastic Compliance Matrix: (Units=1/GPa)
#
#
# Indices 1 2 3 4 5 6 
#
# 1 0.018781 -0.000331 -0.006278 0.000000 0.003880 0.000000
# 2 -0.000331 0.036683 -0.008567 0.000000 0.002410 0.000000
# 3 -0.006278 -0.008567 0.012267 0.000000 0.007705 0.000000
# 4 0.000000 0.000000 0.000000 0.541889 0.000000 -0.069206
# 5 0.003880 0.002410 0.007705 0.000000 0.059710 0.000000
# 6 0.000000 0.000000 0.000000 -0.069206 0.000000 0.446130
#
#
# Mechanical properties :
#
#
# Convention : Reuss Voigt Hill
#
# Bulk Modulus (GPa) = 26.75366 53.71480 40.23423
# Shear Modulus (GPa) = 4.31677 15.39076 9.85376
#
# Velocity S-wave (km/s) = 1.68287 3.17761 2.54257
# Velocity P-wave (km/s) = 4.61823 6.97875 5.91739
#
# Compressibility (1/GPa) = 0.03737806
#
# Stress axis : x y z
#
# Youngs Moduli (GPa) = 53.24396 27.26081 81.51959
#
# Poissons Ratio (x) = 0.00903 0.51179
# Poissons Ratio (y) = 0.01765 0.69838
# Poissons Ratio (z) = 0.33427 0.23354
#
# Static dielectric constant tensor:
#      x y z
#    x 2.798070 0.000000 -0.206400 
#    y 0.000000 2.449290 0.000000 
#    z -0.206400 0.000000 3.335330 
# 
# 
# High freq. dielectric constant tensor:
#      x y z
#    x 1.537960 0.000000 -0.019960 
#    y 0.000000 1.519550 0.000000 
#    z -0.019960 0.000000 1.598330 
# 
# From -- ./inp_files/88455.got.cif
#   From: 2010.06.25/outbox.cif.g09.slc.cpg/sg10_45_cif.got.tgz:88455.got - 2010.06.27 22:07:45.
