data_PCOD8067458
_publ_section_title
;
Structure prediction by ZEFSAII (Michael W. Deem and Ramdas Pophale) SiO2 
 PCOD8067458
Probable space group: P 2/M
;
_chemical_formula_sum "Si O2"
_cell_formula_units_Z 28
_cell_length_a 9.589441
_cell_length_b 9.230096
_cell_length_c 31.326973
_cell_angle_alpha 90.000000
_cell_angle_beta 35.155453
_cell_angle_gamma 90.000000
_cell_volume 1596.567201
_symmetry_space_group_name_H-M "P 2/M"
_symmetry_group_IT_number 10
_symmetry_cell_setting 'monoclinic'
loop_
_space_group_symop_operation_xyz
x,y,z
-x,y,-z
-x,-y,-z
x,-y,z
loop_
_atom_site_type_symbol
_atom_site_label
_atom_site_fract_x
_atom_site_fract_y
_atom_site_fract_z
Si Si1 0.751836 0.670376 0.299626
Si Si2 0.625550 0.171224 0.099109
Si Si3 0.957836 0.170884 0.942654
Si Si4 0.715458 0.330671 0.695099
Si Si5 0.214202 0.671637 0.417559
Si Si6 0.838661 0.333377 0.181997
Si Si7 0.872489 0.827385 0.738118
O O1 0.770275 0.500000 0.305304
O O2 0.474296 0.725553 0.369484
O O3 0.868771 0.704594 0.224249
O O4 0.886970 0.762208 0.301616
O O5 0.356650 0.228477 0.176427
O O6 0.812677 0.229728 0.087746
O O7 0.632822 0.000000 0.100404
O O8 0.714277 0.217891 0.029419
O O9 0.965001 0.242945 0.894210
O O10 0.966843 0.000000 0.933899
O O11 0.760121 0.500000 0.693580
O O12 0.826869 0.285092 0.621444
O O13 0.431162 0.294607 0.765978
O O14 0.849902 0.232598 0.696024
O O15 0.215048 0.500000 0.420673
O O16 0.000000 0.739840 0.500000
O O17 0.894209 0.500000 0.159960
O O18 0.889516 0.000000 0.732435
#
# Coordination Sequence:
#
# PCOD8067458 Si02
#       7
#     4   4   4   4   4   4   4
#     4   9  19  34  51  72 101 130 156 197 246 286
#     4   8  16  28  44  67  94 125 162 206 243 274
#     4   9  15  28  48  67  90 123 165 210 246 274
#     4   9  17  30  51  76  99 124 157 200 244 282
#     4   8  15  32  58  81  97 121 162 202 233 278
#     4   9  17  30  47  70  97 124 159 202 247 292
#     4  11  20  32  49  72 100 131 166 198 235 290
#
# _framework density 17.537627000000001
#
# number of rings (size 3 to 8) (size 9 to 14) (size 15 to 20)
#    0.000    3.000    1.429    3.000    0.000    0.571 
#    0.000    6.429    0.000   10.286    0.000    0.000 
#    0.000    0.000    0.000    0.000    0.000    0.000 
#
# Total GULP energy -347058.611579 kJ/mol
# GULP energy per Si atom -12394.950414 kJ/mol
# Density = 1.749771 g / cm^3
# Si number density = 17.537627 Si / 1000 Ang^3
#
#
#
# Elastic Constant Matrix: (Units=GPa)
#
#
# Indices 1 2 3 4 5 6 
#
# 1 109.1105 42.2977 49.3685 0.0000 5.0590 0.0000
# 2 42.2977 47.6386 33.3273 0.0000 6.2602 0.0000
# 3 49.3685 33.3273 126.2379 0.0000 13.0057 0.0000
# 4 0.0000 0.0000 0.0000 17.2542 0.0000 -1.7861
# 5 5.0590 6.2602 13.0057 0.0000 21.5870 0.0000
# 6 0.0000 0.0000 0.0000 -1.7861 0.0000 6.1925
#
#
#
# Elastic Compliance Matrix: (Units=1/GPa)
#
#
# Indices 1 2 3 4 5 6 
#
# 1 0.014810 -0.011275 -0.002979 0.000000 0.001594 0.000000
# 2 -0.011275 0.034594 -0.004225 0.000000 -0.004845 0.000000
# 3 -0.002979 -0.004225 0.010666 0.000000 -0.004503 0.000000
# 4 0.000000 0.000000 0.000000 0.059740 0.000000 0.017230
# 5 0.001594 -0.004845 -0.004503 0.000000 0.050068 0.000000
# 6 0.000000 0.000000 0.000000 0.017230 0.000000 0.166455
#
#
# Mechanical properties :
#
#
# Convention : Reuss Voigt Hill
#
# Bulk Modulus (GPa) = 43.26648 59.21932 51.24290
# Shear Modulus (GPa) = 13.12352 19.53964 16.33158
#
# Velocity S-wave (km/s) = 2.73849 3.34152 3.05492
# Velocity P-wave (km/s) = 5.89265 6.98054 6.45954
#
# Compressibility (1/GPa) = 0.02311258
#
# Stress axis : x y z
#
# Youngs Moduli (GPa) = 67.52234 28.90669 93.75625
#
# Poissons Ratio (x) = 0.32591 0.27934
# Poissons Ratio (y) = 0.76129 0.39608
# Poissons Ratio (z) = 0.20118 0.12212
#
# Static dielectric constant tensor:
#      x y z
#    x 3.080250 0.000000 0.070010 
#    y 0.000000 2.896580 0.000000 
#    z 0.070010 0.000000 3.594570 
# 
# 
# High freq. dielectric constant tensor:
#      x y z
#    x 1.662720 0.000000 0.012710 
#    y 0.000000 1.647460 0.000000 
#    z 0.012710 0.000000 1.676310 
# 
# From -- ./inp_files/37910.got.cif
#   From: 2010.06.25/outbox.cif.g09.slc.cpg/sg10_19_cif.got.tgz:37910.got - 2010.06.27 22:07:45.
