data_PCOD8067909
_publ_section_title
;
Structure prediction by ZEFSAII (Michael W. Deem and Ramdas Pophale) SiO2 
 PCOD8067909
Probable space group: P 2/M
;
_chemical_formula_sum "Si O2"
_cell_formula_units_Z 32
_cell_length_a 19.034293
_cell_length_b 19.031343
_cell_length_c 20.347002
_cell_angle_alpha 90.000000
_cell_angle_beta 20.693437
_cell_angle_gamma 90.000000
_cell_volume 2604.554517
_symmetry_space_group_name_H-M "P 2/M"
_symmetry_group_IT_number 10
_symmetry_cell_setting 'monoclinic'
loop_
_space_group_symop_operation_xyz
x,y,z
-x,y,-z
-x,-y,-z
x,-y,z
loop_
_atom_site_type_symbol
_atom_site_label
_atom_site_fract_x
_atom_site_fract_y
_atom_site_fract_z
Si Si1 0.083819 0.921457 0.999999
Si Si2 0.803631 0.417673 1.000000
Si Si3 0.421412 0.416143 0.999999
Si Si4 0.017619 0.583240 0.293366
Si Si5 0.623403 0.188914 0.293370
Si Si6 0.210142 0.811086 0.706631
Si Si7 0.604351 0.583241 0.706634
Si Si8 0.082346 0.303606 1.000000
O O1 0.293943 0.879978 0.816786
O O2 0.115648 0.000000 0.999999
O O3 0.000000 0.923690 0.000000
O O4 0.927516 0.879979 0.183213
O O5 0.821431 0.500000 0.000005
O O6 0.941893 0.395828 0.817478
O O7 0.576853 0.395825 0.182516
O O8 0.876830 0.376789 1.000000
O O9 0.423838 0.500000 0.000002
O O10 0.563259 0.389344 0.816702
O O11 0.500000 0.384406 0.000000
O O12 0.196665 0.389342 0.183293
O O13 0.009360 0.500000 0.305861
O O14 0.809498 0.616759 0.500000
O O15 0.694008 0.184783 0.305992
O O16 0.383240 0.190459 0.500001
O O17 0.713327 0.259310 0.182555
O O18 0.078436 0.740690 0.817447
O O19 0.621074 0.500000 0.694143
O O20 0.000000 0.321334 0.000000
#
# Coordination Sequence:
#
# PCOD8067909 Si02
#       8
#     4   4   4   4   4   4   4   4
#     4   8  13  20  31  49  68  82  98 117 138 175
#     4   9  17  27  37  48  60  76 103 139 177 215
#     4   8  13  20  31  49  68  82  98 117 138 175
#     4   8  14  24  35  46  62  82 100 121 154 194
#     4   8  14  24  35  46  62  82 100 121 154 194
#     4   8  14  24  35  46  62  82 100 121 154 194
#     4   8  14  24  35  46  62  82 100 121 154 194
#     4   9  17  27  37  48  60  76 103 139 177 215
#
# _framework density 12.286171
#
# number of rings (size 3 to 8) (size 9 to 14) (size 15 to 20)
#    0.000    3.750    0.000    3.000    0.000    2.250 
#    0.000    5.000    0.000    0.000    0.000    7.000 
#    0.000    0.000    0.000    0.000    0.000    0.000 
#
# Total GULP energy -396493.342370 kJ/mol
# GULP energy per Si atom -12390.416949 kJ/mol
# Density = 1.225821 g / cm^3
# Si number density = 12.286171 Si / 1000 Ang^3
#
#
#
# Elastic Constant Matrix: (Units=GPa)
#
#
# Indices 1 2 3 4 5 6 
#
# 1 52.4954 32.2621 34.5870 0.0000 -0.4613 0.0000
# 2 32.2621 52.6469 33.3425 0.0000 0.1366 0.0000
# 3 34.5870 33.3425 123.7650 0.0000 9.4376 0.0000
# 4 0.0000 0.0000 0.0000 6.9804 0.0000 0.7607
# 5 -0.4613 0.1366 9.4376 0.0000 8.3662 0.0000
# 6 0.0000 0.0000 0.0000 0.7607 0.0000 0.9392
#
#
#
# Elastic Compliance Matrix: (Units=1/GPa)
#
#
# Indices 1 2 3 4 5 6 
#
# 1 0.032976 -0.016884 -0.005281 0.000000 0.008051 0.000000
# 2 -0.016884 0.031951 -0.004134 0.000000 0.003211 0.000000
# 3 -0.005281 -0.004134 0.011692 0.000000 -0.013413 0.000000
# 4 0.000000 0.000000 0.000000 0.157129 0.000000 -0.127267
# 5 0.008051 0.003211 -0.013413 0.000000 0.135051 0.000000
# 6 0.000000 0.000000 0.000000 -0.127267 0.000000 1.167779
#
#
# Mechanical properties :
#
#
# Convention : Reuss Voigt Hill
#
# Bulk Modulus (GPa) = 41.63004 47.69894 44.66449
# Shear Modulus (GPa) = 3.13051 11.83820 7.48436
#
# Velocity S-wave (km/s) = 1.59798 3.10746 2.47081
# Velocity P-wave (km/s) = 6.11244 7.19601 6.67625
#
# Compressibility (1/GPa) = 0.02402112
#
# Stress axis : x y z
#
# Youngs Moduli (GPa) = 30.32540 31.29804 85.52807
#
# Poissons Ratio (x) = 0.52844 0.45164
# Poissons Ratio (y) = 0.51202 0.35358
# Poissons Ratio (z) = 0.16014 0.12939
#
# Static dielectric constant tensor:
#      x y z
#    x 2.258800 0.000000 0.103790 
#    y 0.000000 2.244820 0.000000 
#    z 0.103790 0.000000 3.083110 
# 
# 
# High freq. dielectric constant tensor:
#      x y z
#    x 1.425070 0.000000 0.007120 
#    y 0.000000 1.423720 0.000000 
#    z 0.007120 0.000000 1.481650 
# 
# From -- ./inp_files/79777.got.cif
#   From: 2010.06.25/outbox.cif.g09.slc.cpg/sg10_40_cif.got.tgz:79777.got - 2010.06.27 22:07:45.
