data_PCOD8067180
_publ_section_title
;
Structure prediction by ZEFSAII (Michael W. Deem and Ramdas Pophale) SiO2 
 PCOD8067180
Probable space group: P 2/M
;
_chemical_formula_sum "Si O2"
_cell_formula_units_Z 20
_cell_length_a 28.994541
_cell_length_b 7.653963
_cell_length_c 9.262628
_cell_angle_alpha 90.000000
_cell_angle_beta 151.607445
_cell_angle_gamma 90.000000
_cell_volume 977.454129
_symmetry_space_group_name_H-M "P 2/M"
_symmetry_group_IT_number 10
_symmetry_cell_setting 'monoclinic'
loop_
_space_group_symop_operation_xyz
x,y,z
-x,y,-z
-x,-y,-z
x,-y,z
loop_
_atom_site_type_symbol
_atom_site_label
_atom_site_fract_x
_atom_site_fract_y
_atom_site_fract_z
Si Si1 0.596775 0.301335 0.841326
Si Si2 0.213930 0.196673 0.794260
Si Si3 0.223867 0.200589 0.153733
Si Si4 0.065410 0.500000 0.317008
Si Si5 0.586576 0.796732 0.140727
Si Si6 0.081462 0.500000 0.839183
O O1 0.500000 0.221254 0.500000
O O2 0.608818 0.500000 0.823649
O O3 0.690885 0.199670 0.043841
O O4 0.590185 0.295993 0.996145
O O5 0.132132 0.328417 0.512620
O O6 0.171409 0.000000 0.669624
O O7 0.243562 0.244853 0.040013
O O8 0.318054 0.242522 0.505817
O O9 0.191083 0.000000 0.082591
O O10 0.141909 0.323281 0.992012
O O11 0.974660 0.500000 0.169628
O O12 0.000000 0.500000 0.000000
O O13 0.570161 0.000000 0.065325
O O14 0.500000 0.720001 0.000000
O O15 0.000000 0.500000 0.500000
#
# Coordination Sequence:
#
# PCOD8067180 Si02
#       6
#     4   4   4   2   4   2
#     4  11  24  40  63  96 135 173 212 257 314 385
#     4  11  23  44  69  94 129 171 212 262 323 380
#     4  10  23  41  67  98 127 162 214 265 313 381
#     4  12  28  46  65  94 133 164 217 272 319 384
#     4  10  22  41  64  95 130 167 212 260 314 377
#     4  12  24  44  69  92 123 172 209 266 327 372
#
# _framework density 20.461320000000001
#
# number of rings (size 3 to 8) (size 9 to 14) (size 15 to 20)
#    0.000    1.200    3.000    1.800    4.200    5.200 
#    0.000    0.000    0.000    0.000    0.000    0.000 
#    0.000    0.000    0.000    0.000    0.000    0.000 
#
# Total GULP energy -247986.776899 kJ/mol
# GULP energy per Si atom -12399.338845 kJ/mol
# Density = 2.041475 g / cm^3
# Si number density = 20.461320 Si / 1000 Ang^3
#
#
#
# Elastic Constant Matrix: (Units=GPa)
#
#
# Indices 1 2 3 4 5 6 
#
# 1 165.3449 43.4986 80.9909 0.0000 5.3633 0.0000
# 2 43.4986 106.3926 72.0025 0.0000 7.7338 0.0000
# 3 80.9909 72.0025 165.4091 0.0000 -8.7361 0.0000
# 4 0.0000 0.0000 0.0000 -177.3951 0.0000 -221.4068
# 5 5.3633 7.7338 -8.7361 0.0000 45.0555 0.0000
# 6 0.0000 0.0000 0.0000 -221.4068 0.0000 -178.5141
#
#
#
# Elastic Compliance Matrix: (Units=1/GPa)
#
#
# Indices 1 2 3 4 5 6 
#
# 1 0.008120 -0.000648 -0.003778 0.000000 -0.001588 0.000000
# 2 -0.000648 0.013928 -0.005929 0.000000 -0.003463 0.000000
# 3 -0.003778 -0.005929 0.010663 0.000000 0.003535 0.000000
# 4 0.000000 0.000000 0.000000 0.010287 0.000000 -0.012759
# 5 -0.001588 -0.003463 0.003535 0.000000 0.023664 0.000000
# 6 0.000000 0.000000 0.000000 -0.012759 0.000000 0.010222
#
#
# Mechanical properties :
#
#
# Convention : Reuss Voigt Hill
#
# Bulk Modulus (GPa) = 83.31533 92.23675 87.77604
# Shear Modulus (GPa) = 49.21553 -46.12709 1.54422
#
# Velocity S-wave (km/s) = 4.90970 -4.75316 0.86968
# Velocity P-wave (km/s) = 8.54091 3.87984 6.63326
#
# Compressibility (1/GPa) = 0.01200259
#
# Stress axis : x y z
#
# Youngs Moduli (GPa) = 123.14565 71.79797 93.78359
#
# Poissons Ratio (x) = 0.04651 0.35431
# Poissons Ratio (y) = 0.07978 0.55600
# Poissons Ratio (z) = 0.46524 0.42566
#
# Static dielectric constant tensor:
#      x y z
#    x 3.746840 0.000000 -0.017580 
#    y 0.000000 3.764540 0.000000 
#    z -0.017580 0.000000 3.768480 
# 
# 
# High freq. dielectric constant tensor:
#      x y z
#    x 1.811640 0.000000 -0.004160 
#    y 0.000000 1.807790 0.000000 
#    z -0.004160 0.000000 1.806050 
# 
# From -- ./inp_files/36854.got.cif
#   From: 2010.06.25/outbox.cif.g09.slc.cpg/sg10_19_cif.got.tgz:36854.got - 2010.06.27 22:07:45.
