data_PCOD8067328
_publ_section_title
;
Structure prediction by ZEFSAII (Michael W. Deem and Ramdas Pophale) SiO2 
 PCOD8067328
Probable space group: P 2/M
;
_chemical_formula_sum "Si O2"
_cell_formula_units_Z 32
_cell_length_a 11.703027
_cell_length_b 14.548570
_cell_length_c 17.664477
_cell_angle_alpha 90.000000
_cell_angle_beta 149.163940
_cell_angle_gamma 90.000000
_cell_volume 1541.642963
_symmetry_space_group_name_H-M "P 2/M"
_symmetry_group_IT_number 10
_symmetry_cell_setting 'monoclinic'
loop_
_space_group_symop_operation_xyz
x,y,z
-x,y,-z
-x,-y,-z
x,-y,z
loop_
_atom_site_type_symbol
_atom_site_label
_atom_site_fract_x
_atom_site_fract_y
_atom_site_fract_z
Si Si1 0.409960 0.600707 0.868855
Si Si2 0.300387 0.709439 0.075623
Si Si3 0.610762 0.902239 0.405221
Si Si4 0.520381 0.295565 0.656337
Si Si5 0.068337 0.837930 0.622953
Si Si6 0.456661 0.099831 0.148377
Si Si7 0.887501 0.389716 0.773067
Si Si8 0.958383 0.339155 0.641858
O O1 0.517175 0.500000 0.917304
O O2 0.486401 0.665365 0.844175
O O3 0.140812 0.587761 0.716505
O O4 0.500000 0.640958 0.000000
O O5 0.340381 0.705267 0.187721
O O6 0.286000 0.815264 0.036623
O O7 0.077854 0.652575 0.934455
O O8 0.530037 0.809205 0.402353
O O9 0.490620 0.900647 0.256791
O O10 0.876541 0.906263 0.543089
O O11 0.548036 0.000000 0.410849
O O12 0.650074 0.352694 0.666599
O O13 0.283013 0.346674 0.535571
O O14 0.307143 0.887028 0.759389
O O15 0.000000 0.801554 0.500000
O O16 0.078467 0.756308 0.689550
O O17 0.358035 0.000000 0.066390
O O18 0.891346 0.500000 0.777590
O O19 0.926326 0.350155 0.712626
#
# Coordination Sequence:
#
# PCOD8067328 Si02
#       8
#     4   4   4   4   4   4   4   4
#     4  11  22  38  60  86 118 159 197 236 305 381
#     4  11  22  40  63  89 121 155 199 250 299 354
#     4   8  15  30  55  87 120 153 190 233 292 360
#     4  10  24  40  63  92 117 151 205 261 297 327
#     4   9  16  29  55  89 124 156 188 231 293 357
#     4   9  16  29  54  89 122 152 188 235 291 355
#     4  12  26  45  63  79 114 169 214 242 295 371
#     4  11  22  38  63  88 122 153 195 246 301 354
#
# _framework density 20.757076000000001
#
# number of rings (size 3 to 8) (size 9 to 14) (size 15 to 20)
#    0.000    1.875    2.500    2.625    0.000    4.500 
#    0.000    1.250    0.000   16.125    0.000    0.000 
#    0.000    0.000    0.000    0.000    0.000    0.000 
#
# Total GULP energy -396467.745246 kJ/mol
# GULP energy per Si atom -12389.617039 kJ/mol
# Density = 2.070983 g / cm^3
# Si number density = 20.757076 Si / 1000 Ang^3
#
#
#
# Elastic Constant Matrix: (Units=GPa)
#
#
# Indices 1 2 3 4 5 6 
#
# 1 68.0601 43.1586 4.1349 0.0000 15.4187 0.0000
# 2 43.1586 146.0031 28.0756 0.0000 2.2650 0.0000
# 3 4.1349 28.0756 54.4783 0.0000 13.8679 0.0000
# 4 0.0000 0.0000 0.0000 14.8849 0.0000 -0.0807
# 5 15.4187 2.2650 13.8679 0.0000 24.4876 0.0000
# 6 0.0000 0.0000 0.0000 -0.0807 0.0000 21.2460
#
#
#
# Elastic Compliance Matrix: (Units=1/GPa)
#
#
# Indices 1 2 3 4 5 6 
#
# 1 0.023366 -0.007951 0.006873 0.000000 -0.017869 0.000000
# 2 -0.007951 0.010375 -0.006746 0.000000 0.007867 0.000000
# 3 0.006873 -0.006746 0.026002 0.000000 -0.018429 0.000000
# 4 0.000000 0.000000 0.000000 0.067184 0.000000 0.000255
# 5 -0.017869 0.007867 -0.018429 0.000000 0.061798 0.000000
# 6 0.000000 0.000000 0.000000 0.000255 0.000000 0.047069
#
#
# Mechanical properties :
#
#
# Convention : Reuss Voigt Hill
#
# Bulk Modulus (GPa) = 22.67872 46.58664 34.63268
# Shear Modulus (GPa) = 18.78720 25.00187 21.89453
#
# Velocity S-wave (km/s) = 3.01175 3.47435 3.25129
# Velocity P-wave (km/s) = 4.80038 6.21187 5.55117
#
# Compressibility (1/GPa) = 0.04409421
#
# Stress axis : x y z
#
# Youngs Moduli (GPa) = 42.79790 96.38816 38.45847
#
# Poissons Ratio (x) = 0.76641 -0.26433
# Poissons Ratio (y) = 0.34030 0.25943
# Poissons Ratio (z) = -0.29415 0.65022
#
# Static dielectric constant tensor:
#      x y z
#    x 3.627230 0.000000 0.207150 
#    y 0.000000 4.181350 0.000000 
#    z 0.207150 0.000000 3.634920 
# 
# 
# High freq. dielectric constant tensor:
#      x y z
#    x 1.795370 0.000000 0.016560 
#    y 0.000000 1.821360 0.000000 
#    z 0.016560 0.000000 1.790270 
# 
# From -- ./inp_files/77027.got.cif
#   From: 2010.06.25/outbox.cif.g09.slc.cpg/sg10_39_cif.got.tgz:77027.got - 2010.06.27 22:07:45.
