data_PCOD8067718
_publ_section_title
;
Structure prediction by ZEFSAII (Michael W. Deem and Ramdas Pophale) SiO2 
 PCOD8067718
Probable space group: P 2/M
;
_chemical_formula_sum "Si O2"
_cell_formula_units_Z 20
_cell_length_a 8.737871
_cell_length_b 12.707353
_cell_length_c 16.972757
_cell_angle_alpha 90.000000
_cell_angle_beta 145.444720
_cell_angle_gamma 90.000000
_cell_volume 1068.932262
_symmetry_space_group_name_H-M "P 2/M"
_symmetry_group_IT_number 10
_symmetry_cell_setting 'monoclinic'
loop_
_space_group_symop_operation_xyz
x,y,z
-x,y,-z
-x,-y,-z
x,-y,z
loop_
_atom_site_type_symbol
_atom_site_label
_atom_site_fract_x
_atom_site_fract_y
_atom_site_fract_z
Si Si1 0.314023 0.000000 0.303642
Si Si2 0.898076 0.379882 0.615049
Si Si3 0.901858 0.000000 0.612895
Si Si4 0.829922 0.805357 0.348675
Si Si5 0.690311 0.379711 0.696826
Si Si6 0.239803 0.807198 0.162027
O O1 0.637742 0.000000 0.445996
O O2 0.177233 0.000000 0.330152
O O3 0.216530 0.896209 0.218107
O O4 0.974589 0.500000 0.627986
O O5 0.878521 0.363128 0.700437
O O6 0.615152 0.349171 0.454818
O O7 0.128287 0.306242 0.676825
O O8 0.077999 0.897315 0.670563
O O9 0.515893 0.818336 0.231502
O O10 0.000000 0.811180 0.500000
O O11 0.706952 0.500000 0.732728
O O12 0.789185 0.306247 0.809203
O O13 0.000000 0.822803 0.000000
#
# Coordination Sequence:
#
# PCOD8067718 Si02
#       6
#     2   4   2   4   4   4
#     4  11  22  41  62  85 112 151 186 232 285 339
#     4   9  18  34  60  89 112 144 193 243 280 322
#     4  11  22  38  66  88 108 140 197 240 279 329
#     4  12  21  36  59  89 116 143 188 243 278 327
#     4   9  18  36  59  84 116 151 190 232 281 335
#     4  12  25  39  56  84 122 154 183 227 289 343
#
# _framework density 18.710260000000002
#
# number of rings (size 3 to 8) (size 9 to 14) (size 15 to 20)
#    0.000    1.400    4.000    3.600    0.000    4.800 
#    0.000    5.000    0.000    2.400    0.000    0.000 
#    0.000    0.000    0.000    0.000    0.000    0.000 
#
# Total GULP energy -248096.597935 kJ/mol
# GULP energy per Si atom -12404.829897 kJ/mol
# Density = 1.866767 g / cm^3
# Si number density = 18.710260 Si / 1000 Ang^3
#
#
#
# Elastic Constant Matrix: (Units=GPa)
#
#
# Indices 1 2 3 4 5 6 
#
# 1 92.0959 55.2850 50.0662 0.0000 4.3168 0.0000
# 2 55.2850 121.9627 40.9563 0.0000 -5.0520 0.0000
# 3 50.0662 40.9563 109.8069 0.0000 -0.3649 0.0000
# 4 0.0000 0.0000 0.0000 23.1022 0.0000 -8.2890
# 5 4.3168 -5.0520 -0.3649 0.0000 22.4175 0.0000
# 6 0.0000 0.0000 0.0000 -8.2890 0.0000 41.7169
#
#
#
# Elastic Compliance Matrix: (Units=1/GPa)
#
#
# Indices 1 2 3 4 5 6 
#
# 1 0.018185 -0.006474 -0.005894 0.000000 -0.005057 0.000000
# 2 -0.006474 0.011773 -0.001427 0.000000 0.003877 0.000000
# 3 -0.005894 -0.001427 0.012330 0.000000 0.001014 0.000000
# 4 0.000000 0.000000 0.000000 0.046609 0.000000 0.009261
# 5 -0.005057 0.003877 0.001014 0.000000 0.046472 0.000000
# 6 0.000000 0.000000 0.000000 0.009261 0.000000 0.025811
#
#
# Mechanical properties :
#
#
# Convention : Reuss Voigt Hill
#
# Bulk Modulus (GPa) = 68.02694 68.49784 68.26239
# Shear Modulus (GPa) = 25.81724 29.28451 27.55088
#
# Velocity S-wave (km/s) = 3.71866 3.96050 3.84148
# Velocity P-wave (km/s) = 7.40776 7.58969 7.49927
#
# Compressibility (1/GPa) = 0.01470006
#
# Stress axis : x y z
#
# Youngs Moduli (GPa) = 54.98901 84.93738 81.10472
#
# Poissons Ratio (x) = 0.54985 0.47802
# Poissons Ratio (y) = 0.35598 0.11572
# Poissons Ratio (z) = 0.32410 0.12119
#
# Static dielectric constant tensor:
#      x y z
#    x 3.583420 0.000000 0.066150 
#    y 0.000000 3.625410 0.000000 
#    z 0.066150 0.000000 3.126170 
# 
# 
# High freq. dielectric constant tensor:
#      x y z
#    x 1.738970 0.000000 -0.002360 
#    y 0.000000 1.746810 0.000000 
#    z -0.002360 0.000000 1.686550 
# 
# From -- ./inp_files/23608.got.cif
#   From: 2010.06.25/outbox.cif.g09.slc.cpg/sg10_12_cif.got.tgz:23608.got - 2010.06.27 22:07:45.
