data_PCOD8067481
_publ_section_title
;
Structure prediction by ZEFSAII (Michael W. Deem and Ramdas Pophale) SiO2 
 PCOD8067481
Probable space group: P 2/M
;
_chemical_formula_sum "Si O2"
_cell_formula_units_Z 32
_cell_length_a 22.024329
_cell_length_b 14.588255
_cell_length_c 19.135602
_cell_angle_alpha 90.000000
_cell_angle_beta 159.945833
_cell_angle_gamma 90.000000
_cell_volume 2108.270082
_symmetry_space_group_name_H-M "P 2/M"
_symmetry_group_IT_number 10
_symmetry_cell_setting 'monoclinic'
loop_
_space_group_symop_operation_xyz
x,y,z
-x,y,-z
-x,-y,-z
x,-y,z
loop_
_atom_site_type_symbol
_atom_site_label
_atom_site_fract_x
_atom_site_fract_y
_atom_site_fract_z
Si Si1 0.513343 0.708095 0.430964
Si Si2 0.911720 0.390683 0.235129
Si Si3 0.267607 0.390986 0.687738
Si Si4 0.411479 0.901371 0.329682
Si Si5 0.830839 0.608609 0.992522
Si Si6 0.993274 0.901372 0.075071
Si Si7 0.095718 0.291901 0.178097
Si Si8 0.347444 0.609016 0.927305
O O1 0.500000 0.709498 0.500000
O O2 0.491238 0.812238 0.377075
O O3 0.362683 0.642749 0.238181
O O4 0.704504 0.670079 0.613504
O O5 0.912664 0.500000 0.237990
O O6 0.762285 0.351184 0.126036
O O7 0.101501 0.351182 0.465240
O O8 0.871340 0.354813 0.114029
O O9 0.261909 0.500000 0.681043
O O10 0.260724 0.356758 0.760719
O O11 0.449273 0.356595 0.847784
O O12 0.500000 0.909938 0.500000
O O13 0.444470 0.000000 0.326224
O O14 0.204651 0.882482 0.113948
O O15 0.828899 0.500000 0.986691
O O16 0.987174 0.642748 0.111671
O O17 0.105396 0.812240 0.219561
O O18 0.062712 0.000000 0.180961
O O19 0.000000 0.909935 0.000000
O O20 0.000000 0.290503 0.000000
O O21 0.342740 0.500000 0.923603
#
# Coordination Sequence:
#
# PCOD8067481 Si02
#       8
#     4   4   4   4   4   4   4   4
#     4  11  20  35  51  63  82 106 141 190 237 274
#     4   9  17  28  41  55  79 107 138 181 219 255
#     4   8  13  22  39  62  83 102 126 161 210 264
#     4   9  15  25  45  70  91 104 119 156 218 286
#     4  11  24  37  45  60  81 113 163 203 231 256
#     4   9  15  25  45  70  91 104 119 156 218 286
#     4  11  20  35  51  63  82 106 141 190 237 274
#     4   8  13  22  39  62  83 102 126 161 210 264
#
# _framework density 15.178321
#
# number of rings (size 3 to 8) (size 9 to 14) (size 15 to 20)
#    0.000    2.500    2.500    3.375    0.000    5.000 
#    0.000    2.500    0.000    0.000    0.000    0.000 
#    0.000    0.000    0.000    0.000    0.000   10.000 
#
# Total GULP energy -396448.115683 kJ/mol
# GULP energy per Si atom -12389.003615 kJ/mol
# Density = 1.514377 g / cm^3
# Si number density = 15.178321 Si / 1000 Ang^3
#
#
#
# Elastic Constant Matrix: (Units=GPa)
#
#
# Indices 1 2 3 4 5 6 
#
# 1 87.8964 27.5970 65.0592 0.0000 8.0801 0.0000
# 2 27.5970 55.1841 28.8648 0.0000 1.3815 0.0000
# 3 65.0592 28.8648 109.7926 0.0000 15.8273 0.0000
# 4 0.0000 0.0000 0.0000 9.0692 0.0000 6.0488
# 5 8.0801 1.3815 15.8273 0.0000 23.5932 0.0000
# 6 0.0000 0.0000 0.0000 6.0488 0.0000 3.5344
#
#
#
# Elastic Compliance Matrix: (Units=1/GPa)
#
#
# Indices 1 2 3 4 5 6 
#
# 1 0.021272 -0.004649 -0.011482 0.000000 0.000690 0.000000
# 2 -0.004649 0.022188 -0.003455 0.000000 0.002611 0.000000
# 3 -0.011482 -0.003455 0.017961 0.000000 -0.007914 0.000000
# 4 0.000000 0.000000 0.000000 -0.779678 0.000000 1.334327
# 5 0.000690 0.002611 -0.007914 0.000000 0.047305 0.000000
# 6 0.000000 0.000000 0.000000 1.334327 0.000000 -2.000614
#
#
# Mechanical properties :
#
#
# Convention : Reuss Voigt Hill
#
# Bulk Modulus (GPa) = 44.94593 55.10170 50.02381
# Shear Modulus (GPa) = -1.90478 15.99617 7.04569
#
# Velocity S-wave (km/s) = -1.12145 3.24988 2.15685
# Velocity P-wave (km/s) = 5.29144 7.10380 6.26352
#
# Compressibility (1/GPa) = 0.02224896
#
# Stress axis : x y z
#
# Youngs Moduli (GPa) = 47.00917 45.06971 55.67529
#
# Poissons Ratio (x) = 0.20955 0.63929
# Poissons Ratio (y) = 0.21856 0.19233
# Poissons Ratio (z) = 0.53978 0.15569
#
# Static dielectric constant tensor:
#      x y z
#    x 2.890640 0.000000 0.200630 
#    y 0.000000 2.906800 0.000000 
#    z 0.200630 0.000000 3.074010 
# 
# 
# High freq. dielectric constant tensor:
#      x y z
#    x 1.557980 0.000000 0.029060 
#    y 0.000000 1.541080 0.000000 
#    z 0.029060 0.000000 1.584540 
# 
# From -- ./inp_files/79739.got.cif
#   From: 2010.06.25/outbox.cif.g09.slc.cpg/sg10_40_cif.got.tgz:79739.got - 2010.06.27 22:07:45.
