data_PCOD8067035
_publ_section_title
;
Structure prediction by ZEFSAII (Michael W. Deem and Ramdas Pophale) SiO2 
 PCOD8067035
Probable space group: P 2/M
;
_chemical_formula_sum "Si O2"
_cell_formula_units_Z 24
_cell_length_a 8.812268
_cell_length_b 8.347756
_cell_length_c 30.669861
_cell_angle_alpha 90.000000
_cell_angle_beta 30.415062
_cell_angle_gamma 90.000000
_cell_volume 1142.202962
_symmetry_space_group_name_H-M "P 2/M"
_symmetry_group_IT_number 10
_symmetry_cell_setting 'monoclinic'
loop_
_space_group_symop_operation_xyz
x,y,z
-x,y,-z
-x,-y,-z
x,-y,z
loop_
_atom_site_type_symbol
_atom_site_label
_atom_site_fract_x
_atom_site_fract_y
_atom_site_fract_z
Si Si1 0.349122 0.313869 0.741676
Si Si2 0.345897 0.812698 0.914908
Si Si3 0.306780 0.684917 0.589129
Si Si4 0.342877 0.815150 0.251676
Si Si5 0.657739 0.814884 0.581697
Si Si6 0.321317 0.686910 0.084908
O O1 0.348182 0.500000 0.728322
O O2 0.529874 0.294392 0.741544
O O3 0.505769 0.209733 0.665871
O O4 0.014363 0.242676 0.830082
O O5 0.496024 0.760164 0.832533
O O6 0.507163 0.716625 0.912935
O O7 0.387192 0.000000 0.913710
O O8 0.000000 0.762315 0.000000
O O9 0.500000 0.743137 0.500000
O O10 0.214453 0.500000 0.607087
O O11 0.498289 0.706680 0.585230
O O12 0.011254 0.792060 0.665290
O O13 0.412697 0.000000 0.244532
O O14 0.000000 0.758211 0.500000
O O15 0.634741 0.000000 0.573578
O O16 0.292387 0.500000 0.083411
O O17 0.500000 0.766843 0.000000
#
# Coordination Sequence:
#
# PCOD8067035 Si02
#       6
#     4   4   4   4   4   4
#     4  11  23  39  61  88 119 155 196 242 292 347
#     4  10  22  39  59  86 118 153 194 239 289 345
#     4  11  24  41  62  88 119 155 195 241 292 347
#     4  11  23  39  61  88 119 155 196 242 292 347
#     4  11  24  41  62  88 119 155 195 241 292 347
#     4  10  22  39  59  86 118 153 194 239 289 345
#
# _framework density 21.012028000000001
#
# number of rings (size 3 to 8) (size 9 to 14) (size 15 to 20)
#    0.000    1.333    0.000    5.000    0.000   11.333 
#    0.000    0.000    0.000    0.000    0.000    0.000 
#    0.000    0.000    0.000    0.000    0.000    0.000 
#
# Total GULP energy -297792.060971 kJ/mol
# GULP energy per Si atom -12408.002540 kJ/mol
# Density = 2.096420 g / cm^3
# Si number density = 21.012028 Si / 1000 Ang^3
#
#
#
# Elastic Constant Matrix: (Units=GPa)
#
#
# Indices 1 2 3 4 5 6 
#
# 1 130.3942 4.7210 67.6780 0.0000 -0.6592 0.0000
# 2 4.7210 30.2564 17.4100 0.0000 -0.2093 0.0000
# 3 67.6780 17.4100 188.0465 -0.0003 0.1719 0.0000
# 4 0.0000 0.0000 -0.0003 7.3705 0.0000 10.7044
# 5 -0.6592 -0.2093 0.1719 0.0000 44.6835 0.0000
# 6 0.0000 0.0000 0.0000 10.7044 0.0000 30.3401
#
#
#
# Elastic Compliance Matrix: (Units=1/GPa)
#
#
# Indices 1 2 3 4 5 6 
#
# 1 0.009439 0.000510 -0.003445 0.000000 0.000155 0.000000
# 2 0.000510 0.034940 -0.003419 0.000000 0.000184 0.000000
# 3 -0.003445 -0.003419 0.006874 0.000000 -0.000093 0.000000
# 4 0.000000 0.000000 0.000000 0.278254 0.000000 -0.098172
# 5 0.000155 0.000184 -0.000093 0.000000 0.022383 0.000000
# 6 0.000000 0.000000 0.000000 -0.098172 0.000000 0.067596
#
#
# Mechanical properties :
#
#
# Convention : Reuss Voigt Hill
#
# Bulk Modulus (GPa) = 25.94226 58.70168 42.32197
# Shear Modulus (GPa) = 11.23492 33.73802 22.48647
#
# Velocity S-wave (km/s) = 2.31485 4.01141 3.27490
# Velocity P-wave (km/s) = 4.41790 7.03228 5.87243
#
# Compressibility (1/GPa) = 0.03854715
#
# Stress axis : x y z
#
# Youngs Moduli (GPa) = 105.94146 28.62076 145.47297
#
# Poissons Ratio (x) = -0.01461 0.50109
# Poissons Ratio (y) = -0.05406 0.49732
# Poissons Ratio (z) = 0.36492 0.09785
#
# Static dielectric constant tensor:
#      x y z
#    x 3.763960 0.000000 0.066600 
#    y 0.000000 3.533560 0.000000 
#    z 0.066600 0.000000 2.154360 
# 
# 
# High freq. dielectric constant tensor:
#      x y z
#    x 1.833320 0.000000 -0.000230 
#    y 0.000000 1.814520 0.000000 
#    z -0.000230 0.000000 1.844930 
# 
# From -- ./inp_files/90056.got.cif
#   From: 2010.06.25/outbox.cif.g09.slc.cpg/sg10_46_cif.got.tgz:90056.got - 2010.06.27 22:07:45.
