data_PCOD8067290
_publ_section_title
;
Structure prediction by ZEFSAII (Michael W. Deem and Ramdas Pophale) SiO2 
 PCOD8067290
Probable space group: P 2/M
;
_chemical_formula_sum "Si O2"
_cell_formula_units_Z 28
_cell_length_a 14.826345
_cell_length_b 8.620460
_cell_length_c 10.977358
_cell_angle_alpha 90.000000
_cell_angle_beta 113.174140
_cell_angle_gamma 90.000000
_cell_volume 1289.810164
_symmetry_space_group_name_H-M "P 2/M"
_symmetry_group_IT_number 10
_symmetry_cell_setting 'monoclinic'
loop_
_space_group_symop_operation_xyz
x,y,z
-x,y,-z
-x,-y,-z
x,-y,z
loop_
_atom_site_type_symbol
_atom_site_label
_atom_site_fract_x
_atom_site_fract_y
_atom_site_fract_z
Si Si1 0.590341 0.827682 0.958150
Si Si2 0.959472 0.681292 0.847588
Si Si3 0.256328 0.680257 0.336685
Si Si4 0.649276 0.820498 0.400056
Si Si5 0.549186 0.321732 0.693374
Si Si6 0.055222 0.816951 0.654353
Si Si7 0.268012 0.319058 0.788989
O O1 0.559321 0.703884 0.841626
O O2 0.607842 0.000000 0.912413
O O3 0.500000 0.833577 0.000000
O O4 0.691420 0.771732 0.072579
O O5 0.984486 0.500000 0.847195
O O6 0.843149 0.713993 0.789197
O O7 0.002194 0.766436 0.751450
O O8 0.000000 0.743234 0.000000
O O9 0.263757 0.500000 0.375832
O O10 0.260274 0.781253 0.462297
O O11 0.348469 0.737574 0.307100
O O12 0.545383 0.772696 0.407551
O O13 0.660992 0.718980 0.285635
O O14 0.650358 0.000000 0.364664
O O15 0.530134 0.500000 0.652033
O O16 0.159144 0.734576 0.701694
O O17 0.000000 0.766918 0.500000
O O18 0.069816 0.000000 0.665443
O O19 0.269841 0.500000 0.818404
#
# Coordination Sequence:
#
# PCOD8067290 Si02
#       7
#     4   4   4   4   4   4   4
#     4  11  23  40  62  92 130 168 208 262 321 380
#     4  10  23  44  69  97 131 172 221 276 330 392
#     4  10  23  42  64  92 127 167 214 263 315 378
#     4  12  24  40  62  93 130 168 211 263 321 380
#     4  11  23  39  63  93 127 170 216 259 311 380
#     4  11  25  45  69 100 135 171 217 277 337 399
#     4  12  25  41  67  95 126 169 215 264 321 385
#
# _framework density 21.70862
#
# number of rings (size 3 to 8) (size 9 to 14) (size 15 to 20)
#    0.000    1.000    1.429    5.143    2.000    7.714 
#    0.000    0.000    0.000    0.000    0.000    0.000 
#    0.000    0.000    0.000    0.000    0.000    0.000 
#
# Total GULP energy -347228.875336 kJ/mol
# GULP energy per Si atom -12401.031262 kJ/mol
# Density = 2.165921 g / cm^3
# Si number density = 21.708620 Si / 1000 Ang^3
#
#
#
# Elastic Constant Matrix: (Units=GPa)
#
#
# Indices 1 2 3 4 5 6 
#
# 1 98.2479 28.5118 34.4718 0.0000 11.5070 0.0000
# 2 28.5118 77.6059 30.9665 0.0000 5.4421 0.0000
# 3 34.4718 30.9665 135.7591 0.0000 14.3690 0.0000
# 4 0.0000 0.0000 0.0000 22.9562 0.0000 -1.2570
# 5 11.5070 5.4421 14.3690 0.0000 39.6813 0.0000
# 6 0.0000 0.0000 0.0000 -1.2570 0.0000 22.7682
#
#
#
# Elastic Compliance Matrix: (Units=1/GPa)
#
#
# Indices 1 2 3 4 5 6 
#
# 1 0.012183 -0.003495 -0.002052 0.000000 -0.002311 0.000000
# 2 -0.003495 0.015203 -0.002565 0.000000 -0.000143 0.000000
# 3 -0.002052 -0.002565 0.008706 0.000000 -0.002206 0.000000
# 4 0.000000 0.000000 0.000000 0.043693 0.000000 0.002412
# 5 -0.002311 -0.000143 -0.002206 0.000000 0.026689 0.000000
# 6 0.000000 0.000000 0.000000 0.002412 0.000000 0.044054
#
#
# Mechanical properties :
#
#
# Convention : Reuss Voigt Hill
#
# Bulk Modulus (GPa) = 50.33332 55.50146 52.91739
# Shear Modulus (GPa) = 28.83913 31.59198 30.21555
#
# Velocity S-wave (km/s) = 3.64876 3.81894 3.73482
# Velocity P-wave (km/s) = 6.40215 6.71326 6.55955
#
# Compressibility (1/GPa) = 0.01986755
#
# Stress axis : x y z
#
# Youngs Moduli (GPa) = 82.08039 65.77493 114.86944
#
# Poissons Ratio (x) = 0.22990 0.23568
# Poissons Ratio (y) = 0.28689 0.29467
# Poissons Ratio (z) = 0.16840 0.16873
#
# Static dielectric constant tensor:
#      x y z
#    x 3.996660 0.000000 0.080140 
#    y 0.000000 3.892530 0.000000 
#    z 0.080140 0.000000 4.187090 
# 
# 
# High freq. dielectric constant tensor:
#      x y z
#    x 1.855160 0.000000 0.008550 
#    y 0.000000 1.848660 0.000000 
#    z 0.008550 0.000000 1.869300 
# 
# From -- ./inp_files/50035.got.cif
#   From: 2010.06.25/outbox.cif.g09.slc.cpg/sg10_26_cif.got.tgz:50035.got - 2010.06.27 22:07:45.
