data_PCOD8067912
_publ_section_title
;
Structure prediction by ZEFSAII (Michael W. Deem and Ramdas Pophale) SiO2 
 PCOD8067912
Probable space group: P 2/M
;
_chemical_formula_sum "Si O2"
_cell_formula_units_Z 32
_cell_length_a 20.735741
_cell_length_b 9.684251
_cell_length_c 22.661835
_cell_angle_alpha 90.000000
_cell_angle_beta 156.208168
_cell_angle_gamma 90.000000
_cell_volume 1835.830405
_symmetry_space_group_name_H-M "P 2/M"
_symmetry_group_IT_number 10
_symmetry_cell_setting 'monoclinic'
loop_
_space_group_symop_operation_xyz
x,y,z
-x,y,-z
-x,-y,-z
x,-y,z
loop_
_atom_site_type_symbol
_atom_site_label
_atom_site_fract_x
_atom_site_fract_y
_atom_site_fract_z
Si Si1 0.788816 0.155150 0.174019
Si Si2 0.334814 0.335776 0.334812
Si Si3 0.045025 0.340099 0.171563
Si Si4 0.068455 0.845446 0.826279
Si Si5 0.325229 0.343727 0.825231
Si Si6 0.415911 0.154554 0.173730
Si Si7 0.440771 0.844850 0.825977
Si Si8 0.701882 0.340099 0.828424
O O1 0.915890 0.197857 0.229495
O O2 0.799194 0.264260 0.236143
O O3 0.826308 0.000000 0.228436
O O4 0.612992 0.156777 0.999998
O O5 0.500000 0.279428 0.500000
O O6 0.329992 0.500000 0.329990
O O7 0.189007 0.280828 0.252503
O O8 0.316019 0.280828 0.252517
O O9 0.069203 0.500000 0.207269
O O10 0.046482 0.259172 0.234998
O O11 0.883603 0.315040 0.999994
O O12 0.997735 0.000000 0.771892
O O13 0.241766 0.840398 0.000005
O O14 0.264534 0.500000 0.764537
O O15 0.326900 0.264260 0.763855
O O16 0.500000 0.344017 0.000000
O O17 0.543111 0.197857 0.229501
O O18 0.423530 0.259171 0.235009
O O19 0.453966 0.000000 0.228118
O O20 0.369428 0.000000 0.771561
O O21 0.654650 0.500000 0.792720
#
# Coordination Sequence:
#
# PCOD8067912 Si02
#       8
#     4   4   4   4   4   4   4   4
#     4   8  13  21  31  42  61  93 129 159 189 231
#     4   9  17  29  44  61  82 108 134 159 194 244
#     4   9  16  26  42  62  80 100 131 170 204 233
#     4   8  14  24  37  53  73  98 129 164 201 240
#     4   9  15  19  25  41  65  93 126 163 198 229
#     4   8  14  24  37  53  73  98 129 164 201 240
#     4   8  13  21  31  42  61  93 129 159 189 231
#     4   9  16  26  42  62  80 100 131 170 204 233
#
# _framework density 17.430804999999999
#
# number of rings (size 3 to 8) (size 9 to 14) (size 15 to 20)
#    0.000    3.500    0.000    2.250    0.000    4.000 
#    0.000    5.625    0.000    4.500    0.000    0.000 
#    0.000    0.000    0.000    1.125    0.000   24.000 
#
# Total GULP energy -396574.069311 kJ/mol
# GULP energy per Si atom -12392.939666 kJ/mol
# Density = 1.739113 g / cm^3
# Si number density = 17.430805 Si / 1000 Ang^3
#
#
#
# Elastic Constant Matrix: (Units=GPa)
#
#
# Indices 1 2 3 4 5 6 
#
# 1 186.4813 97.4917 31.5439 0.0000 -22.2589 0.0000
# 2 97.4917 103.9059 19.9850 0.0000 -11.2677 0.0000
# 3 31.5439 19.9850 22.2572 0.0000 -1.6166 0.0000
# 4 0.0000 0.0000 0.0000 4.9654 0.0000 -4.4356
# 5 -22.2589 -11.2677 -1.6166 0.0000 3.9125 0.0000
# 6 0.0000 0.0000 0.0000 -4.4356 0.0000 35.4788
#
#
#
# Elastic Compliance Matrix: (Units=1/GPa)
#
#
# Indices 1 2 3 4 5 6 
#
# 1 0.031598 -0.009140 -0.026217 0.000000 0.142610 0.000000
# 2 -0.009140 0.019153 -0.004139 0.000000 0.001451 0.000000
# 3 -0.026217 -0.004139 0.076395 0.000000 -0.129507 0.000000
# 4 0.000000 0.000000 0.000000 0.226714 0.000000 0.028344
# 5 0.142610 0.001451 -0.129507 0.000000 1.017587 0.000000
# 6 0.000000 0.000000 0.000000 0.028344 0.000000 0.031729
#
#
# Mechanical properties :
#
#
# Convention : Reuss Voigt Hill
#
# Bulk Modulus (GPa) = 20.76650 67.85397 44.31023
# Shear Modulus (GPa) = 3.33729 19.77960 11.55845
#
# Velocity S-wave (km/s) = 1.38519 3.37226 2.57788
# Velocity P-wave (km/s) = 3.80761 7.36036 5.85973
#
# Compressibility (1/GPa) = 0.04815447
#
# Stress axis : x y z
#
# Youngs Moduli (GPa) = 31.64771 52.21046 13.08980
#
# Poissons Ratio (x) = 0.47720 0.34318
# Poissons Ratio (y) = 0.28926 0.05418
# Poissons Ratio (z) = 0.82971 0.21610
#
# Static dielectric constant tensor:
#      x y z
#    x 3.691280 0.000000 -0.157790 
#    y 0.000000 3.281270 0.000000 
#    z -0.157790 0.000000 2.605830 
# 
# 
# High freq. dielectric constant tensor:
#      x y z
#    x 1.690220 0.000000 -0.013210 
#    y 0.000000 1.658880 0.000000 
#    z -0.013210 0.000000 1.599370 
# 
# From -- ./inp_files/86159.got.cif
#   From: 2010.06.25/outbox.cif.g09.slc.cpg/sg10_44_cif.got.tgz:86159.got - 2010.06.27 22:07:45.
