data_PCOD8067386
_publ_section_title
;
Structure prediction by ZEFSAII (Michael W. Deem and Ramdas Pophale) SiO2 
 PCOD8067386
Probable space group: P 2/M
;
_chemical_formula_sum "Si O2"
_cell_formula_units_Z 32
_cell_length_a 12.609394
_cell_length_b 9.308579
_cell_length_c 22.546374
_cell_angle_alpha 90.000000
_cell_angle_beta 124.004970
_cell_angle_gamma 90.000000
_cell_volume 2193.830712
_symmetry_space_group_name_H-M "P 2/M"
_symmetry_group_IT_number 10
_symmetry_cell_setting 'monoclinic'
loop_
_space_group_symop_operation_xyz
x,y,z
-x,y,-z
-x,-y,-z
x,-y,z
loop_
_atom_site_type_symbol
_atom_site_label
_atom_site_fract_x
_atom_site_fract_y
_atom_site_fract_z
Si Si1 0.540715 0.664328 0.417823
Si Si2 0.421462 0.329864 0.921462
Si Si3 0.294931 0.335672 0.417823
Si Si4 0.080363 0.829347 0.580363
Si Si5 0.371920 0.829932 0.666690
Si Si6 0.171440 0.660884 0.790164
Si Si7 0.408888 0.660884 0.790164
Si Si8 0.961459 0.829932 0.666690
O O1 0.559550 0.500000 0.403173
O O2 0.645609 0.704792 0.500000
O O3 0.399722 0.686796 0.399722
O O4 0.555235 0.770395 0.367460
O O5 0.430483 0.500000 0.930483
O O6 0.268940 0.289402 0.874102
O O7 0.479264 0.289402 0.874102
O O8 0.500000 0.254905 0.000000
O O9 0.246796 0.500000 0.403173
O O10 0.179685 0.229605 0.367460
O O11 0.225666 0.774855 0.620017
O O12 0.000000 0.766307 0.500000
O O13 0.014368 0.774855 0.620017
O O14 0.078912 0.000000 0.578912
O O15 0.441246 0.769774 0.747341
O O16 0.382684 0.000000 0.670608
O O17 0.118450 0.500000 0.785351
O O18 0.256120 0.661687 0.756120
O O19 0.053436 0.769774 0.747341
O O20 0.452253 0.500000 0.785351
O O21 0.958531 0.000000 0.670608
#
# Coordination Sequence:
#
# PCOD8067386 Si02
#       8
#     4   4   4   4   4   4   4   4
#     4   9  19  35  50  62  79 106 143 188 232 267
#     4   7  11  22  41  63  86 115 150 181 204 236
#     4   9  19  35  50  62  79 106 143 188 232 267
#     4   9  17  26  35  53  80 107 134 166 206 245
#     4  11  19  28  43  61  87 116 142 175 213 257
#     4   8  15  26  41  60  85 115 143 172 206 246
#     4   8  15  26  41  60  85 115 143 172 206 246
#     4  11  19  28  43  61  87 116 142 175 213 257
#
# _framework density 14.586358000000001
#
# number of rings (size 3 to 8) (size 9 to 14) (size 15 to 20)
#    0.750    2.250    1.250    2.250    0.000    2.000 
#    0.000    1.250    0.000    4.500    0.000    0.000 
#    0.000    1.000    0.000   11.500    0.000    3.250 
#
# Total GULP energy -396423.790509 kJ/mol
# GULP energy per Si atom -12388.243453 kJ/mol
# Density = 1.455316 g / cm^3
# Si number density = 14.586358 Si / 1000 Ang^3
#
#
#
# Elastic Constant Matrix: (Units=GPa)
#
#
# Indices 1 2 3 4 5 6 
#
# 1 54.3267 31.4486 41.8742 0.0000 0.0000 0.0000
# 2 31.4486 62.8058 46.5155 0.0000 0.0000 0.0000
# 3 41.8742 46.5155 120.1892 0.0000 0.0000 0.0000
# 4 0.0000 0.0000 0.0000 11.7985 0.0000 0.0000
# 5 0.0000 0.0000 0.0000 0.0000 15.8338 0.0000
# 6 0.0000 0.0000 0.0000 0.0000 0.0000 20.7316
#
#
#
# Elastic Compliance Matrix: (Units=1/GPa)
#
#
# Indices 1 2 3 4 5 6 
#
# 1 0.028942 -0.009846 -0.006273 0.000000 0.000000 0.000000
# 2 -0.009846 0.025670 -0.006504 0.000000 0.000000 0.000000
# 3 -0.006273 -0.006504 0.013023 0.000000 0.000000 0.000000
# 4 0.000000 0.000000 0.000000 0.084757 0.000000 0.000000
# 5 0.000000 0.000000 0.000000 0.000000 0.063156 0.000000
# 6 0.000000 0.000000 0.000000 0.000000 0.000000 0.048236
#
#
# Mechanical properties :
#
#
# Convention : Reuss Voigt Hill
#
# Bulk Modulus (GPa) = 44.66674 52.99979 48.83327
# Shear Modulus (GPa) = 15.79822 17.50500 16.65161
#
# Velocity S-wave (km/s) = 3.29459 3.46800 3.38240
# Velocity P-wave (km/s) = 6.72021 7.24224 6.98610
#
# Compressibility (1/GPa) = 0.02238802
#
# Stress axis : x y z
#
# Youngs Moduli (GPa) = 34.55207 38.95672 76.78805
#
# Poissons Ratio (x) = 0.38358 0.48167
# Poissons Ratio (y) = 0.34021 0.49944
# Poissons Ratio (z) = 0.21674 0.25338
#
# Static dielectric constant tensor:
#      x y z
#    x 2.573220 0.000000 0.000000 
#    y 0.000000 2.622400 0.000000 
#    z 0.000000 0.000000 2.992830 
# 
# 
# High freq. dielectric constant tensor:
#      x y z
#    x 1.526250 0.000000 0.000000 
#    y 0.000000 1.545180 0.000000 
#    z 0.000000 0.000000 1.546010 
# 
# From -- ./inp_files/88454.got.cif
#   From: 2010.06.25/outbox.cif.g09.slc.cpg/sg10_45_cif.got.tgz:88454.got - 2010.06.27 22:07:45.
