data_PCOD8067489
_publ_section_title
;
Structure prediction by ZEFSAII (Michael W. Deem and Ramdas Pophale) SiO2 
 PCOD8067489
Probable space group: P 2/M
;
_chemical_formula_sum "Si O2"
_cell_formula_units_Z 26
_cell_length_a 14.006750
_cell_length_b 20.336044
_cell_length_c 13.735878
_cell_angle_alpha 90.000000
_cell_angle_beta 159.323406
_cell_angle_gamma 90.000000
_cell_volume 1381.493934
_symmetry_space_group_name_H-M "P 2/M"
_symmetry_group_IT_number 10
_symmetry_cell_setting 'monoclinic'
loop_
_space_group_symop_operation_xyz
x,y,z
-x,y,-z
-x,-y,-z
x,-y,z
loop_
_atom_site_type_symbol
_atom_site_label
_atom_site_fract_x
_atom_site_fract_y
_atom_site_fract_z
Si Si1 0.729495 0.000000 0.795736
Si Si2 0.005929 0.297520 0.123405
Si Si3 0.467358 0.242518 0.686742
Si Si4 0.228822 0.571111 0.296280
Si Si5 0.830047 0.073031 0.477382
Si Si6 0.300653 0.899193 0.071699
Si Si7 0.258446 0.790190 0.695318
O O1 0.500000 0.000000 0.500000
O O2 0.725284 0.066417 0.851173
O O3 0.000000 0.000000 0.000000
O O4 0.216002 0.245754 0.371721
O O5 0.128738 0.369443 0.270113
O O6 0.000000 0.287957 0.000000
O O7 0.705665 0.293982 0.884750
O O8 0.620660 0.174187 0.826803
O O9 0.342896 0.248447 0.677310
O O10 0.500000 0.593717 0.500000
O O11 0.273083 0.500000 0.393092
O O12 0.000000 0.559655 0.000000
O O13 0.527088 0.063893 0.225918
O O14 0.822034 0.132548 0.393035
O O15 0.916522 0.000000 0.518875
O O16 0.020556 0.096712 0.746669
O O17 0.000000 0.755465 0.500000
O O18 0.500000 0.785764 0.000000
#
# Coordination Sequence:
#
# PCOD8067489 Si02
#       7
#     2   4   4   4   4   4   4
#     4  12  24  36  52  72  94 132 184 230 270 322
#     4  11  21  36  57  86 118 152 193 222 259 331
#     4  11  23  38  58  79 113 151 183 235 284 322
#     4   9  17  31  52  81 119 157 185 220 268 313
#     4  11  20  37  61  75  97 131 164 220 292 360
#     4  11  22  39  52  72 102 137 176 225 284 327
#     4  11  23  39  57  82 110 138 182 233 293 355
#
# _framework density 18.820205000000001
#
# number of rings (size 3 to 8) (size 9 to 14) (size 15 to 20)
#    0.000    1.231    1.538    7.846    0.000    2.462 
#    0.000    0.000    0.000    0.000    0.000    0.000 
#    0.000   12.308    0.000    0.000    0.000    0.000 
#
# Total GULP energy -322098.504430 kJ/mol
# GULP energy per Si atom -12388.404017 kJ/mol
# Density = 1.877737 g / cm^3
# Si number density = 18.820205 Si / 1000 Ang^3
#
#
#
# Elastic Constant Matrix: (Units=GPa)
#
#
# Indices 1 2 3 4 5 6 
#
# 1 150.8649 45.5292 114.3590 0.0000 22.6272 0.0000
# 2 45.5292 77.6334 45.8539 0.0000 10.5219 0.0000
# 3 114.3590 45.8539 297.4469 0.0000 20.5943 0.0000
# 4 0.0000 0.0000 0.0000 23.7495 0.0000 1.0566
# 5 22.6272 10.5219 20.5943 0.0000 41.2648 0.0000
# 6 0.0000 0.0000 0.0000 1.0566 0.0000 10.8477
#
#
#
# Elastic Compliance Matrix: (Units=1/GPa)
#
#
# Indices 1 2 3 4 5 6 
#
# 1 0.010834 -0.003943 -0.003331 0.000000 -0.003273 0.000000
# 2 -0.003943 0.015884 -0.000831 0.000000 -0.001474 0.000000
# 3 -0.003331 -0.000831 0.004795 0.000000 -0.000355 0.000000
# 4 0.000000 0.000000 0.000000 0.042289 0.000000 -0.004119
# 5 -0.003273 -0.001474 -0.000355 0.000000 0.026581 0.000000
# 6 0.000000 0.000000 0.000000 -0.004119 0.000000 0.092586
#
#
# Mechanical properties :
#
#
# Convention : Reuss Voigt Hill
#
# Bulk Modulus (GPa) = 65.34164 104.15882 84.75023
# Shear Modulus (GPa) = 23.33386 36.51926 29.92656
#
# Velocity S-wave (km/s) = 3.52494 4.40981 3.99197
# Velocity P-wave (km/s) = 7.16667 9.02180 8.14721
#
# Compressibility (1/GPa) = 0.01530418
#
# Stress axis : x y z
#
# Youngs Moduli (GPa) = 92.30024 62.95740 208.54072
#
# Poissons Ratio (x) = 0.24823 0.69464
# Poissons Ratio (y) = 0.36393 0.17323
# Poissons Ratio (z) = 0.30745 0.05230
#
# Static dielectric constant tensor:
#      x y z
#    x 2.944400 0.000000 0.215720 
#    y 0.000000 3.144880 0.000000 
#    z 0.215720 0.000000 3.664170 
# 
# 
# High freq. dielectric constant tensor:
#      x y z
#    x 1.710080 0.000000 0.016990 
#    y 0.000000 1.710760 0.000000 
#    z 0.016990 0.000000 1.761730 
# 
# From -- ./inp_files/67828.got.cif
#   From: 2010.06.25/outbox.cif.g09.slc.cpg/sg10_34_cif.got.tgz:67828.got - 2010.06.27 22:07:45.
