data_PCOD8067267
_publ_section_title
;
Structure prediction by ZEFSAII (Michael W. Deem and Ramdas Pophale) SiO2 
 PCOD8067267
Probable space group: P 2/M
;
_chemical_formula_sum "Si O2"
_cell_formula_units_Z 26
_cell_length_a 8.736426
_cell_length_b 19.753629
_cell_length_c 9.481682
_cell_angle_alpha 90.000000
_cell_angle_beta 126.906401
_cell_angle_gamma 90.000000
_cell_volume 1308.423731
_symmetry_space_group_name_H-M "P 2/M"
_symmetry_group_IT_number 10
_symmetry_cell_setting 'monoclinic'
loop_
_space_group_symop_operation_xyz
x,y,z
-x,y,-z
-x,-y,-z
x,-y,z
loop_
_atom_site_type_symbol
_atom_site_label
_atom_site_fract_x
_atom_site_fract_y
_atom_site_fract_z
Si Si1 0.000000 0.840941 0.500000
Si Si2 0.579294 0.805139 0.200661
Si Si3 0.312831 0.920883 0.138878
Si Si4 0.819047 0.576984 0.489701
Si Si5 0.186716 0.427189 0.191342
Si Si6 0.952284 0.921415 0.751352
Si Si7 0.508931 0.322082 0.670989
O O1 0.188059 0.799209 0.656886
O O2 0.076665 0.884083 0.411590
O O3 0.504350 0.877829 0.216437
O O4 0.482284 0.748157 0.242947
O O5 0.500000 0.793431 0.000000
O O6 0.216120 0.899961 0.233969
O O7 0.369685 0.000000 0.170050
O O8 0.160551 0.904926 0.931065
O O9 0.753873 0.500000 0.418831
O O10 0.873207 0.586324 0.681914
O O11 0.658517 0.631005 0.361403
O O12 0.000000 0.598512 0.500000
O O13 0.299538 0.500000 0.246374
O O14 0.302508 0.365016 0.191327
O O15 0.000000 0.434269 0.000000
O O16 0.935099 0.000000 0.710953
O O17 0.500000 0.307645 0.500000
#
# Coordination Sequence:
#
# PCOD8067267 Si02
#       7
#     2   4   4   4   4   4   4
#     4  12  25  40  64  92 125 160 206 260 304 378
#     4  12  27  45  60  91 126 170 207 261 314 367
#     4   9  20  42  67  91 124 162 205 258 315 375
#     4   9  18  35  62  91 120 154 196 248 299 350
#     4   9  18  37  63  93 121 155 202 247 299 365
#     4   9  19  39  68  97 120 153 202 259 319 377
#     4  10  23  41  60  86 122 165 206 244 303 367
#
# _framework density 19.871238000000002
#
# number of rings (size 3 to 8) (size 9 to 14) (size 15 to 20)
#    0.000    2.154    1.538    1.615    3.231    4.615 
#    5.538    1.538    0.000    4.615    0.000    0.000 
#    0.000    0.000    0.000    0.000    0.000    0.000 
#
# Total GULP energy -322273.663285 kJ/mol
# GULP energy per Si atom -12395.140896 kJ/mol
# Density = 1.982601 g / cm^3
# Si number density = 19.871238 Si / 1000 Ang^3
#
#
#
# Elastic Constant Matrix: (Units=GPa)
#
#
# Indices 1 2 3 4 5 6 
#
# 1 105.3370 54.4605 41.4970 0.0000 4.0741 0.0000
# 2 54.4605 100.2983 38.0932 0.0000 -1.2176 0.0000
# 3 41.4970 38.0932 87.4949 0.0000 1.2905 0.0000
# 4 0.0000 0.0000 0.0000 17.0837 0.0000 -10.3123
# 5 4.0741 -1.2176 1.2905 0.0000 27.7155 0.0000
# 6 0.0000 0.0000 0.0000 -10.3123 0.0000 23.7593
#
#
#
# Elastic Compliance Matrix: (Units=1/GPa)
#
#
# Indices 1 2 3 4 5 6 
#
# 1 0.014454 -0.006331 -0.004066 0.000000 -0.002213 0.000000
# 2 -0.006331 0.014735 -0.003438 0.000000 0.001738 0.000000
# 3 -0.004066 -0.003438 0.014858 0.000000 -0.000245 0.000000
# 4 0.000000 0.000000 0.000000 0.079316 0.000000 0.034426
# 5 -0.002213 0.001738 -0.000245 0.000000 0.036494 0.000000
# 6 0.000000 0.000000 0.000000 0.034426 0.000000 0.057031
#
#
# Mechanical properties :
#
#
# Convention : Reuss Voigt Hill
#
# Bulk Modulus (GPa) = 61.06347 62.35909 61.71128
# Shear Modulus (GPa) = 19.99866 24.31699 22.15782
#
# Velocity S-wave (km/s) = 3.17584 3.50198 3.34289
# Velocity P-wave (km/s) = 6.65163 6.91386 6.78402
#
# Compressibility (1/GPa) = 0.01637640
#
# Stress axis : x y z
#
# Youngs Moduli (GPa) = 69.18536 67.86693 67.30233
#
# Poissons Ratio (x) = 0.42965 0.27367
# Poissons Ratio (y) = 0.43800 0.23140
# Poissons Ratio (z) = 0.28133 0.23334
#
# Static dielectric constant tensor:
#      x y z
#    x 3.595160 0.000000 0.015260 
#    y 0.000000 3.623490 0.000000 
#    z 0.015260 0.000000 3.477350 
# 
# 
# High freq. dielectric constant tensor:
#      x y z
#    x 1.779100 0.000000 -0.005710 
#    y 0.000000 1.770970 0.000000 
#    z -0.005710 0.000000 1.770430 
# 
# From -- ./inp_files/20482.got.cif
#   From: 2010.06.25/outbox.cif.g09.slc.cpg/sg10_11_cif.got.tgz:20482.got - 2010.06.27 22:07:45.
