data_PCOD8067374
_publ_section_title
;
Structure prediction by ZEFSAII (Michael W. Deem and Ramdas Pophale) SiO2 
 PCOD8067374
Probable space group: P 2/M
;
_chemical_formula_sum "Si O2"
_cell_formula_units_Z 32
_cell_length_a 11.557517
_cell_length_b 14.234278
_cell_length_c 13.156343
_cell_angle_alpha 90.000000
_cell_angle_beta 66.729527
_cell_angle_gamma 90.000000
_cell_volume 1988.315504
_symmetry_space_group_name_H-M "P 2/M"
_symmetry_group_IT_number 10
_symmetry_cell_setting 'monoclinic'
loop_
_space_group_symop_operation_xyz
x,y,z
-x,y,-z
-x,-y,-z
x,-y,z
loop_
_atom_site_type_symbol
_atom_site_label
_atom_site_fract_x
_atom_site_fract_y
_atom_site_fract_z
Si Si1 0.235231 0.893632 0.770263
Si Si2 0.439284 0.749997 0.207040
Si Si3 0.239343 0.394078 0.771850
Si Si4 0.629392 0.605678 0.064885
Si Si5 0.633375 0.894003 0.062481
Si Si6 0.567073 0.248031 0.369832
Si Si7 0.756135 0.248435 0.878894
Si Si8 0.026776 0.748167 0.869884
O O1 0.276349 0.889244 0.872223
O O2 0.341486 0.842264 0.666018
O O3 0.101133 0.842079 0.811702
O O4 0.220424 0.000000 0.735515
O O5 0.500469 0.653104 0.146739
O O6 0.505954 0.837125 0.127090
O O7 0.457529 0.758519 0.321932
O O8 0.292231 0.751972 0.222541
O O9 0.228569 0.500000 0.733171
O O10 0.269458 0.392431 0.880334
O O11 0.349788 0.341711 0.672041
O O12 0.106153 0.342517 0.807981
O O13 0.598939 0.500000 0.040466
O O14 0.689400 0.661925 0.951812
O O15 0.596571 0.000000 0.046733
O O16 0.712098 0.848637 0.944467
O O17 0.500000 0.251177 0.500000
O O18 0.905090 0.256202 0.839994
O O19 0.000000 0.747427 0.000000
#
# Coordination Sequence:
#
# PCOD8067374 Si02
#       8
#     4   4   4   4   4   4   4   4
#     4   9  18  31  48  71  95 121 157 194 226 265
#     4   9  19  30  42  67  94 114 150 193 231 278
#     4   9  18  31  48  71  95 121 157 194 226 265
#     4   9  16  28  45  64  92 126 152 182 223 268
#     4   9  16  28  45  64  92 126 152 182 223 268
#     4   9  18  35  55  71  87 111 151 204 249 280
#     4  11  19  27  41  65  96 129 155 178 214 269
#     4  11  18  30  44  66 100 134 162 181 205 263
#
# _framework density 16.094024999999998
#
# number of rings (size 3 to 8) (size 9 to 14) (size 15 to 20)
#    0.000    2.500    2.500    3.000    0.000    4.000 
#    0.000    0.000    0.000    3.000    0.000    1.750 
#    0.000    0.000    0.000    0.000    0.000    0.000 
#
# Total GULP energy -396638.355450 kJ/mol
# GULP energy per Si atom -12394.948608 kJ/mol
# Density = 1.605739 g / cm^3
# Si number density = 16.094025 Si / 1000 Ang^3
#
#
#
# Elastic Constant Matrix: (Units=GPa)
#
#
# Indices 1 2 3 4 5 6 
#
# 1 114.6042 16.8111 35.4978 0.0000 9.4210 0.0000
# 2 16.8111 118.8339 26.8367 0.0000 -0.0835 0.0000
# 3 35.4978 26.8367 77.5246 0.0000 -4.5446 0.0000
# 4 0.0000 0.0000 0.0000 10.3795 0.0000 -0.1404
# 5 9.4210 -0.0835 -4.5446 0.0000 8.7428 0.0000
# 6 0.0000 0.0000 0.0000 -0.1404 0.0000 8.0359
#
#
#
# Elastic Compliance Matrix: (Units=1/GPa)
#
#
# Indices 1 2 3 4 5 6 
#
# 1 0.012094 -0.000277 -0.006401 0.000000 -0.016362 0.000000
# 2 -0.000277 0.009157 -0.003115 0.000000 -0.001234 0.000000
# 3 -0.006401 -0.003115 0.017855 0.000000 0.016149 0.000000
# 4 0.000000 0.000000 0.000000 0.096367 0.000000 0.001684
# 5 -0.016362 -0.001234 0.016149 0.000000 0.140395 0.000000
# 6 0.000000 0.000000 0.000000 0.001684 0.000000 0.124471
#
#
# Mechanical properties :
#
#
# Convention : Reuss Voigt Hill
#
# Bulk Modulus (GPa) = 51.23057 52.13932 51.68495
# Shear Modulus (GPa) = 11.72520 20.88610 16.30565
#
# Velocity S-wave (km/s) = 2.70208 3.60634 3.18645
# Velocity P-wave (km/s) = 6.45261 7.05748 6.76181
#
# Compressibility (1/GPa) = 0.01951960
#
# Stress axis : x y z
#
# Youngs Moduli (GPa) = 82.68558 109.20636 56.00590
#
# Poissons Ratio (x) = 0.03023 0.35850
# Poissons Ratio (y) = 0.02289 0.17448
# Poissons Ratio (z) = 0.52928 0.34022
#
# Static dielectric constant tensor:
#      x y z
#    x 3.081540 0.000000 0.095010 
#    y 0.000000 3.490350 0.000000 
#    z 0.095010 0.000000 2.609310 
# 
# 
# High freq. dielectric constant tensor:
#      x y z
#    x 1.618410 0.000000 0.008780 
#    y 0.000000 1.631250 0.000000 
#    z 0.008780 0.000000 1.566060 
# 
# From -- ./inp_files/47395.got.cif
#   From: 2010.06.25/outbox.cif.g09.slc.cpg/sg10_24_cif.got.tgz:47395.got - 2010.06.27 22:07:45.
