data_PCOD8067552
_publ_section_title
;
Structure prediction by ZEFSAII (Michael W. Deem and Ramdas Pophale) SiO2 
 PCOD8067552
Probable space group: P 2/M
;
_chemical_formula_sum "Si O2"
_cell_formula_units_Z 32
_cell_length_a 9.940429
_cell_length_b 13.710107
_cell_length_c 14.342868
_cell_angle_alpha 90.000000
_cell_angle_beta 79.857849
_cell_angle_gamma 90.000000
_cell_volume 1924.163907
_symmetry_space_group_name_H-M "P 2/M"
_symmetry_group_IT_number 10
_symmetry_cell_setting 'monoclinic'
loop_
_space_group_symop_operation_xyz
x,y,z
-x,y,-z
-x,-y,-z
x,-y,z
loop_
_atom_site_type_symbol
_atom_site_label
_atom_site_fract_x
_atom_site_fract_y
_atom_site_fract_z
Si Si1 0.593312 0.884869 0.119474
Si Si2 0.215385 0.608737 0.515699
Si Si3 0.930022 0.197825 0.760368
Si Si4 0.697932 0.115678 0.908604
Si Si5 0.223726 0.884312 0.733503
Si Si6 0.067609 0.609149 0.344962
Si Si7 0.343797 0.197830 0.530474
Si Si8 0.129711 0.886791 0.428276
O O1 0.434784 0.851733 0.135906
O O2 0.667285 0.845994 0.203367
O O3 0.594866 0.000000 0.117948
O O4 0.674307 0.849652 0.017762
O O5 0.276941 0.500000 0.517556
O O6 0.177080 0.630538 0.412963
O O7 0.327077 0.685165 0.540158
O O8 0.082606 0.619317 0.595247
O O9 0.829996 0.173379 0.857372
O O10 0.914772 0.312456 0.739281
O O11 0.888056 0.131219 0.678322
O O12 0.083425 0.171699 0.771708
O O13 0.723163 0.000000 0.898341
O O14 0.280075 0.858156 0.625458
O O15 0.198939 0.000000 0.742669
O O16 0.089787 0.500000 0.301821
O O17 0.500000 0.168264 0.500000
O O18 0.266593 0.164337 0.446790
O O19 0.000000 0.842082 0.500000
O O20 0.142312 0.000000 0.447806
#
# Coordination Sequence:
#
# PCOD8067552 Si02
#       8
#     4   4   4   4   4   4   4   4
#     4   8  18  36  52  71 103 135 169 207 245 295
#     4   9  17  34  53  69  93 131 176 219 255 289
#     4  12  20  31  53  78  99 127 169 213 250 297
#     4   9  18  34  55  76  99 133 169 206 250 296
#     4  11  22  34  48  72 105 138 169 206 247 294
#     4   9  17  31  54  75  94 126 170 216 254 294
#     4  12  24  34  47  73 107 143 172 206 252 302
#     4  11  21  34  48  67 104 144 174 201 235 292
#
# _framework density 16.630600000000001
#
# number of rings (size 3 to 8) (size 9 to 14) (size 15 to 20)
#    0.000    1.875    3.750    3.000    1.750    1.750 
#    0.000    1.875    0.000    0.000    0.000    4.375 
#    0.000    0.000    0.000    0.000    0.000    0.000 
#
# Total GULP energy -396784.038135 kJ/mol
# GULP energy per Si atom -12399.501192 kJ/mol
# Density = 1.659275 g / cm^3
# Si number density = 16.630600 Si / 1000 Ang^3
#
#
#
# Elastic Constant Matrix: (Units=GPa)
#
#
# Indices 1 2 3 4 5 6 
#
# 1 82.9223 20.1301 16.5035 0.0000 -4.5123 0.0000
# 2 20.1301 77.2940 11.6747 0.0000 -2.8162 0.0000
# 3 16.5035 11.6747 37.9592 0.0000 -2.1960 0.0000
# 4 0.0000 0.0000 0.0000 16.5012 0.0000 -2.2065
# 5 -4.5123 -2.8162 -2.1960 0.0000 30.0707 0.0000
# 6 0.0000 0.0000 0.0000 -2.2065 0.0000 19.2880
#
#
#
# Elastic Compliance Matrix: (Units=1/GPa)
#
#
# Indices 1 2 3 4 5 6 
#
# 1 0.013822 -0.002781 -0.005071 0.000000 0.001443 0.000000
# 2 -0.002781 0.014156 -0.003105 0.000000 0.000682 0.000000
# 3 -0.005071 -0.003105 0.029568 0.000000 0.001108 0.000000
# 4 0.000000 0.000000 0.000000 0.061543 0.000000 0.007040
# 5 0.001443 0.000682 0.001108 0.000000 0.033616 0.000000
# 6 0.000000 0.000000 0.000000 0.007040 0.000000 0.052651
#
#
# Mechanical properties :
#
#
# Convention : Reuss Voigt Hill
#
# Bulk Modulus (GPa) = 28.06487 32.75471 30.40979
# Shear Modulus (GPa) = 20.90758 23.16313 22.03535
#
# Velocity S-wave (km/s) = 3.54951 3.73607 3.64399
# Velocity P-wave (km/s) = 5.80610 6.19267 6.00250
#
# Compressibility (1/GPa) = 0.03563174
#
# Stress axis : x y z
#
# Youngs Moduli (GPa) = 72.34632 70.64232 33.82074
#
# Poissons Ratio (x) = 0.19648 0.17149
# Poissons Ratio (y) = 0.20122 0.10502
# Poissons Ratio (z) = 0.36684 0.21935
#
# Static dielectric constant tensor:
#      x y z
#    x 3.224630 0.000000 0.155500 
#    y 0.000000 3.151340 0.000000 
#    z 0.155500 0.000000 3.052670 
# 
# 
# High freq. dielectric constant tensor:
#      x y z
#    x 1.639490 0.000000 0.002920 
#    y 0.000000 1.625480 0.000000 
#    z 0.002920 0.000000 1.619820 
# 
# From -- ./inp_files/61533.got.cif
#   From: 2010.06.25/outbox.cif.g09.slc.cpg/sg10_31_cif.got.tgz:61533.got - 2010.06.27 22:07:45.
