data_PCOD8067799
_publ_section_title
;
Structure prediction by ZEFSAII (Michael W. Deem and Ramdas Pophale) SiO2 
 PCOD8067799
Probable space group: P 2/M
;
_chemical_formula_sum "Si O2"
_cell_formula_units_Z 20
_cell_length_a 12.337530
_cell_length_b 8.422923
_cell_length_c 18.726511
_cell_angle_alpha 90.000000
_cell_angle_beta 150.818376
_cell_angle_gamma 90.000000
_cell_volume 948.841148
_symmetry_space_group_name_H-M "P 2/M"
_symmetry_group_IT_number 10
_symmetry_cell_setting 'monoclinic'
loop_
_space_group_symop_operation_xyz
x,y,z
-x,y,-z
-x,-y,-z
x,-y,z
loop_
_atom_site_type_symbol
_atom_site_label
_atom_site_fract_x
_atom_site_fract_y
_atom_site_fract_z
Si Si1 0.838022 0.684783 0.342999
Si Si2 0.856645 0.815696 0.598422
Si Si3 0.955108 0.686433 0.806221
Si Si4 0.408035 0.683176 0.286826
Si Si5 0.375640 0.183045 0.116906
O O1 0.779508 0.500000 0.315690
O O2 0.613486 0.784557 0.218555
O O3 0.000000 0.738887 0.500000
O O4 0.952396 0.720629 0.333408
O O5 0.840644 0.749628 0.668931
O O6 0.620264 0.791205 0.424879
O O7 0.917338 0.000000 0.632914
O O8 0.994036 0.500000 0.823266
O O9 0.793798 0.732299 0.778428
O O10 0.190196 0.772257 0.952135
O O11 0.474899 0.500000 0.336372
O O12 0.333700 0.710911 0.162864
O O13 0.356651 0.000000 0.127173
#
# Coordination Sequence:
#
# PCOD8067799 Si02
#       5
#     4   4   4   4   4
#     4  11  23  42  69  94 124 167 215 259 310 382
#     4  12  25  41  66  98 131 165 210 267 322 372
#     4  11  25  44  65  92 131 173 215 259 312 381
#     4  11  23  42  67  94 127 173 219 257 308 379
#     4  12  25  41  66  98 131 165 210 267 322 372
#
# _framework density 21.078344999999999
#
# number of rings (size 3 to 8) (size 9 to 14) (size 15 to 20)
#    0.000    0.600    2.000    6.600    0.000    9.600 
#    0.000    4.000    0.000    0.000    0.000    0.000 
#    0.000    0.000    0.000    0.000    0.000    0.000 
#
# Total GULP energy -248216.220710 kJ/mol
# GULP energy per Si atom -12410.811035 kJ/mol
# Density = 2.103037 g / cm^3
# Si number density = 21.078345 Si / 1000 Ang^3
#
#
#
# Elastic Constant Matrix: (Units=GPa)
#
#
# Indices 1 2 3 4 5 6 
#
# 1 58.3058 28.4441 30.8498 0.0000 0.8360 0.0000
# 2 28.4441 77.4208 21.5928 0.0000 10.2333 0.0000
# 3 30.8498 21.5928 61.9886 0.0000 5.2754 0.0000
# 4 0.0000 0.0000 0.0000 29.8347 0.0000 -5.9168
# 5 0.8360 10.2333 5.2754 0.0000 29.7680 0.0000
# 6 0.0000 0.0000 0.0000 -5.9168 0.0000 25.7868
#
#
#
# Elastic Compliance Matrix: (Units=1/GPa)
#
#
# Indices 1 2 3 4 5 6 
#
# 1 0.026364 -0.007113 -0.010953 0.000000 0.003646 0.000000
# 2 -0.007113 0.016735 -0.001845 0.000000 -0.005226 0.000000
# 3 -0.010953 -0.001845 0.022485 0.000000 -0.003043 0.000000
# 4 0.000000 0.000000 0.000000 0.035116 0.000000 0.008057
# 5 0.003646 -0.005226 -0.003043 0.000000 0.035827 0.000000
# 6 0.000000 0.000000 0.000000 0.008057 0.000000 0.040628
#
#
# Mechanical properties :
#
#
# Convention : Reuss Voigt Hill
#
# Bulk Modulus (GPa) = 38.81703 39.94317 39.38010
# Shear Modulus (GPa) = 22.16670 24.86648 23.51659
#
# Velocity S-wave (km/s) = 3.24641 3.43843 3.34380
# Velocity P-wave (km/s) = 5.70156 5.89531 5.79925
#
# Compressibility (1/GPa) = 0.02576189
#
# Stress axis : x y z
#
# Youngs Moduli (GPa) = 37.93040 59.75492 44.47496
#
# Poissons Ratio (x) = 0.42504 0.48714
# Poissons Ratio (y) = 0.26980 0.08204
# Poissons Ratio (z) = 0.41546 0.11023
#
# Static dielectric constant tensor:
#      x y z
#    x 3.860910 0.000000 0.001590 
#    y 0.000000 3.790530 0.000000 
#    z 0.001590 0.000000 3.770770 
# 
# 
# High freq. dielectric constant tensor:
#      x y z
#    x 1.835350 0.000000 0.003380 
#    y 0.000000 1.835240 0.000000 
#    z 0.003380 0.000000 1.829340 
# 
# From -- ./inp_files/40882.got.cif
#   From: 2010.06.25/outbox.cif.g09.slc.cpg/sg10_21_cif.got.tgz:40882.got - 2010.06.27 22:07:45.
