data_PCOD8067295
_publ_section_title
;
Structure prediction by ZEFSAII (Michael W. Deem and Ramdas Pophale) SiO2 
 PCOD8067295
Probable space group: P 2/M
;
_chemical_formula_sum "Si O2"
_cell_formula_units_Z 20
_cell_length_a 9.632397
_cell_length_b 7.702217
_cell_length_c 13.157382
_cell_angle_alpha 90.000000
_cell_angle_beta 104.760956
_cell_angle_gamma 90.000000
_cell_volume 943.940980
_symmetry_space_group_name_H-M "P 2/M"
_symmetry_group_IT_number 10
_symmetry_cell_setting 'monoclinic'
loop_
_space_group_symop_operation_xyz
x,y,z
-x,y,-z
-x,-y,-z
x,-y,z
loop_
_atom_site_type_symbol
_atom_site_label
_atom_site_fract_x
_atom_site_fract_y
_atom_site_fract_z
Si Si1 0.342178 0.704482 0.004211
Si Si2 0.781324 0.805562 0.808686
Si Si3 0.344508 0.500000 0.344594
Si Si4 0.323015 0.500000 0.576826
Si Si5 0.916331 0.296136 0.186225
Si Si6 0.874678 0.804204 0.400897
O O1 0.336456 0.500000 0.022642
O O2 0.302514 0.796821 0.101244
O O3 0.500000 0.766027 0.000000
O O4 0.229739 0.761403 0.896733
O O5 0.718188 0.673862 0.715045
O O6 0.948818 0.759749 0.858077
O O7 0.764212 0.000000 0.762111
O O8 0.299227 0.500000 0.452709
O O9 0.513269 0.500000 0.359498
O O10 0.257652 0.673592 0.613026
O O11 0.918200 0.500000 0.206620
O O12 0.930898 0.199175 0.296169
O O13 0.000000 0.742533 0.500000
O O14 0.825351 0.000000 0.419068
#
# Coordination Sequence:
#
# PCOD8067295 Si02
#       6
#     4   4   2   2   4   4
#     4  10  23  42  68  99 134 175 222 272 329 399
#     4  12  25  43  69  97 134 176 221 274 333 395
#     4  11  26  46  67  97 132 176 229 269 334 401
#     4  11  25  44  69  94 134 181 218 279 337 386
#     4  11  22  40  69  98 135 180 223 272 330 394
#     4  11  24  41  68 103 135 172 226 276 327 393
#
# _framework density 21.187767000000001
#
# number of rings (size 3 to 8) (size 9 to 14) (size 15 to 20)
#    0.000    1.000    3.000    2.700    2.800    7.600 
#    0.000    2.000    0.000    0.000    0.000    0.000 
#    0.000    0.000    0.000    0.000    0.000    0.000 
#
# Total GULP energy -248130.226746 kJ/mol
# GULP energy per Si atom -12406.511337 kJ/mol
# Density = 2.113954 g / cm^3
# Si number density = 21.187767 Si / 1000 Ang^3
#
#
#
# Elastic Constant Matrix: (Units=GPa)
#
#
# Indices 1 2 3 4 5 6 
#
# 1 158.6858 48.0628 65.1407 0.0000 -1.4580 0.0000
# 2 48.0628 119.4642 21.9996 0.0000 14.9753 0.0000
# 3 65.1407 21.9996 69.5776 0.0000 16.9022 0.0000
# 4 0.0000 0.0000 0.0000 4.2108 0.0000 -14.0079
# 5 -1.4580 14.9753 16.9022 0.0000 28.6146 0.0000
# 6 0.0000 0.0000 0.0000 -14.0079 0.0000 7.2572
#
#
#
# Elastic Compliance Matrix: (Units=1/GPa)
#
#
# Indices 1 2 3 4 5 6 
#
# 1 0.013384 -0.004217 -0.013892 0.000000 0.011095 0.000000
# 2 -0.004217 0.010526 0.002347 0.000000 -0.007110 0.000000
# 3 -0.013892 0.002347 0.031648 0.000000 -0.020630 0.000000
# 4 0.000000 0.000000 0.000000 -0.043807 0.000000 -0.084557
# 5 0.011095 -0.007110 -0.020630 0.000000 0.051419 0.000000
# 6 0.000000 0.000000 0.000000 -0.084557 0.000000 -0.025418
#
#
# Mechanical properties :
#
#
# Convention : Reuss Voigt Hill
#
# Bulk Modulus (GPa) = 41.60756 68.68152 55.14454
# Shear Modulus (GPa) = 64.69340 22.18481 43.43911
#
# Velocity S-wave (km/s) = 5.53170 3.23934 4.53282
# Velocity P-wave (km/s) = 7.77687 6.81741 7.31289
#
# Compressibility (1/GPa) = 0.02403409
#
# Stress axis : x y z
#
# Youngs Moduli (GPa) = 74.71824 94.99963 31.59753
#
# Poissons Ratio (x) = 0.40061 0.43895
# Poissons Ratio (y) = 0.31509 -0.07416
# Poissons Ratio (z) = 1.03798 -0.22296
#
# Static dielectric constant tensor:
#      x y z
#    x 3.966060 0.000000 -0.000080 
#    y 0.000000 3.813960 0.000000 
#    z -0.000080 0.000000 3.812500 
# 
# 
# High freq. dielectric constant tensor:
#      x y z
#    x 1.837090 0.000000 -0.003850 
#    y 0.000000 1.838000 0.000000 
#    z -0.003850 0.000000 1.834150 
# 
# From -- ./inp_files/36635.got.cif
#   From: 2010.06.25/outbox.cif.g09.slc.cpg/sg10_19_cif.got.tgz:36635.got - 2010.06.27 22:07:45.
