data_PCOD8067338
_publ_section_title
;
Structure prediction by ZEFSAII (Michael W. Deem and Ramdas Pophale) SiO2 
 PCOD8067338
Probable space group: P 2/M
;
_chemical_formula_sum "Si O2"
_cell_formula_units_Z 24
_cell_length_a 9.403112
_cell_length_b 17.151397
_cell_length_c 15.035429
_cell_angle_alpha 90.000000
_cell_angle_beta 28.452057
_cell_angle_gamma 90.000000
_cell_volume 1155.260337
_symmetry_space_group_name_H-M "P 2/M"
_symmetry_group_IT_number 10
_symmetry_cell_setting 'monoclinic'
loop_
_space_group_symop_operation_xyz
x,y,z
-x,y,-z
-x,-y,-z
x,-y,z
loop_
_atom_site_type_symbol
_atom_site_label
_atom_site_fract_x
_atom_site_fract_y
_atom_site_fract_z
Si Si1 0.985336 0.847572 0.404260
Si Si2 0.342096 0.585917 0.492762
Si Si3 0.835236 0.700860 0.176923
Si Si4 0.039812 0.000000 0.080965
Si Si5 0.257151 0.000000 0.281230
Si Si6 0.380496 0.139150 0.660912
Si Si7 0.146884 0.698019 0.195127
O O1 0.211033 0.918215 0.254982
O O2 0.053815 0.775062 0.301655
O O3 0.000000 0.821538 0.500000
O O4 0.663156 0.887842 0.563666
O O5 0.500000 0.576420 0.500000
O O6 0.325398 0.500000 0.456675
O O7 0.543405 0.647577 0.330967
O O8 0.007566 0.621386 0.678017
O O9 0.746349 0.789964 0.212350
O O10 0.033548 0.699425 0.156386
O O11 0.000000 0.670307 0.000000
O O12 0.607875 0.000000 0.104938
O O13 0.873499 0.925483 0.214873
O O14 0.000000 0.000000 0.000000
O O15 0.000000 0.000000 0.500000
O O16 0.500000 0.169199 0.500000
O O17 0.500000 0.687200 0.000000
#
# Coordination Sequence:
#
# PCOD8067338 Si02
#       7
#     4   4   4   2   2   4   4
#     4  11  23  42  67  89 134 174 213 270 332 381
#     4   9  19  42  68  94 131 171 212 267 323 386
#     4  11  23  41  67  96 129 172 223 266 317 386
#     4  12  25  40  66  97 126 169 225 270 320 384
#     4  10  24  42  61  95 134 172 213 270 334 382
#     4  12  23  44  65  94 128 170 222 270 319 386
#     4  11  24  39  64 101 133 167 216 265 326 391
#
# _framework density 20.774539999999998
#
# number of rings (size 3 to 8) (size 9 to 14) (size 15 to 20)
#    0.000    1.167    3.333    3.750    4.667    0.667 
#    0.000    1.250    0.000    3.500    0.000    0.000 
#    0.000    0.000    0.000    0.000    0.000    0.000 
#
# Total GULP energy -297318.300686 kJ/mol
# GULP energy per Si atom -12388.262529 kJ/mol
# Density = 2.072726 g / cm^3
# Si number density = 20.774540 Si / 1000 Ang^3
#
#
#
# Elastic Constant Matrix: (Units=GPa)
#
#
# Indices 1 2 3 4 5 6 
#
# 1 93.6904 26.8822 52.7200 0.0000 -14.3811 0.0000
# 2 26.8822 166.4423 68.2422 0.0000 -18.1732 0.0000
# 3 52.7200 68.2422 152.3484 0.0000 -30.6986 0.0000
# 4 0.0000 0.0000 0.0000 14.5425 0.0000 43.7651
# 5 -14.3811 -18.1732 -30.6986 0.0000 49.7839 0.0000
# 6 0.0000 0.0000 0.0000 43.7651 0.0000 42.1306
#
#
#
# Elastic Compliance Matrix: (Units=1/GPa)
#
#
# Indices 1 2 3 4 5 6 
#
# 1 0.013322 -0.000284 -0.004257 0.000000 0.001120 0.000000
# 2 -0.000284 0.007390 -0.003066 0.000000 0.000725 0.000000
# 3 -0.004257 -0.003066 0.010205 0.000000 0.003944 0.000000
# 4 0.000000 0.000000 0.000000 -0.032341 0.000000 0.033596
# 5 0.001120 0.000725 0.003944 0.000000 0.023107 0.000000
# 6 0.000000 0.000000 0.000000 0.033596 0.000000 -0.011163
#
#
# Mechanical properties :
#
#
# Convention : Reuss Voigt Hill
#
# Bulk Modulus (GPa) = 63.68120 78.68554 71.18337
# Shear Modulus (GPa) = 161.44907 38.93384 100.19146
#
# Velocity S-wave (km/s) = 8.82517 4.33380 6.95217
# Velocity P-wave (km/s) = 11.60021 7.93729 9.93895
#
# Compressibility (1/GPa) = 0.01570322
#
# Stress axis : x y z
#
# Youngs Moduli (GPa) = 75.06128 135.31483 97.98884
#
# Poissons Ratio (x) = 0.03842 0.41718
# Poissons Ratio (y) = 0.02131 0.30043
# Poissons Ratio (z) = 0.31957 0.41487
#
# Static dielectric constant tensor:
#      x y z
#    x 3.683840 0.000000 -0.094050 
#    y 0.000000 3.965890 0.000000 
#    z -0.094050 0.000000 3.752100 
# 
# 
# High freq. dielectric constant tensor:
#      x y z
#    x 1.801830 0.000000 -0.012530 
#    y 0.000000 1.817250 0.000000 
#    z -0.012530 0.000000 1.820890 
# 
# From -- ./inp_files/62273.got.cif
#   From: 2010.06.25/outbox.cif.g09.slc.cpg/sg10_32_cif.got.tgz:62273.got - 2010.06.27 22:07:45.
