data_PCOD8067087
_publ_section_title
;
Structure prediction by ZEFSAII (Michael W. Deem and Ramdas Pophale) SiO2 
 PCOD8067087
Probable space group: P 2/M
;
_chemical_formula_sum "Si O2"
_cell_formula_units_Z 28
_cell_length_a 9.051161
_cell_length_b 13.585460
_cell_length_c 15.112407
_cell_angle_alpha 90.000000
_cell_angle_beta 124.635478
_cell_angle_gamma 90.000000
_cell_volume 1528.968128
_symmetry_space_group_name_H-M "P 2/M"
_symmetry_group_IT_number 10
_symmetry_cell_setting 'monoclinic'
loop_
_space_group_symop_operation_xyz
x,y,z
-x,y,-z
-x,-y,-z
x,-y,z
loop_
_atom_site_type_symbol
_atom_site_label
_atom_site_fract_x
_atom_site_fract_y
_atom_site_fract_z
Si Si1 0.078058 0.110817 0.167134
Si Si2 0.861904 0.614332 0.529203
Si Si3 0.867771 0.303322 0.718810
Si Si4 0.719010 0.110382 0.946054
Si Si5 0.771787 0.385818 0.102063
Si Si6 0.517959 0.385891 0.684266
Si Si7 0.478898 0.697989 0.122950
O O1 0.139629 0.186719 0.263951
O O2 0.195351 0.129858 0.120258
O O3 0.109325 0.000000 0.213362
O O4 0.869248 0.126638 0.072357
O O5 0.885627 0.500000 0.562895
O O6 0.909733 0.680409 0.630126
O O7 0.661377 0.638078 0.430438
O O8 0.000000 0.644897 0.500000
O O9 0.682108 0.356641 0.677783
O O10 0.022563 0.351722 0.832074
O O11 0.557403 0.186428 0.906357
O O12 0.640477 0.000000 0.925327
O O13 0.759527 0.500000 0.121155
O O14 0.670076 0.327065 0.145297
O O15 0.679608 0.365797 0.976181
O O16 0.527683 0.500000 0.713401
O O17 0.520356 0.322326 0.773427
#
# Coordination Sequence:
#
# PCOD8067087 Si02
#       7
#     4   4   4   4   4   4   4
#     4   9  18  34  57  85 114 145 183 235 293 337
#     4  10  22  40  59  80 111 152 191 228 280 341
#     4  12  21  36  59  84 111 143 194 238 282 331
#     4   9  17  34  57  82 113 149 190 234 282 336
#     4  11  23  35  50  78 122 162 183 218 284 349
#     4  11  22  35  56  83 112 146 192 239 273 326
#     4  11  20  36  53  79 115 155 188 227 278 342
#
# _framework density 18.313003999999999
#
# number of rings (size 3 to 8) (size 9 to 14) (size 15 to 20)
#    0.000    1.571    2.857    5.143    0.000    2.857 
#    0.000    3.571    0.000    3.000    0.000    0.000 
#    0.000    0.000    0.000    0.000    0.000    0.000 
#
# Total GULP energy -347310.743841 kJ/mol
# GULP energy per Si atom -12403.955137 kJ/mol
# Density = 1.827132 g / cm^3
# Si number density = 18.313004 Si / 1000 Ang^3
#
#
#
# Elastic Constant Matrix: (Units=GPa)
#
#
# Indices 1 2 3 4 5 6 
#
# 1 62.8664 34.9170 23.9443 0.0000 8.7185 0.0000
# 2 34.9170 110.7542 25.4888 0.0000 9.0670 0.0000
# 3 23.9443 25.4888 71.8372 0.0000 -2.7056 0.0000
# 4 0.0000 0.0000 0.0000 26.1686 0.0000 -5.1168
# 5 8.7185 9.0670 -2.7056 0.0000 30.4000 0.0000
# 6 0.0000 0.0000 0.0000 -5.1168 0.0000 24.4443
#
#
#
# Elastic Compliance Matrix: (Units=1/GPa)
#
#
# Indices 1 2 3 4 5 6 
#
# 1 0.021578 -0.005096 -0.005579 0.000000 -0.005165 0.000000
# 2 -0.005096 0.011367 -0.002415 0.000000 -0.002144 0.000000
# 3 -0.005579 -0.002415 0.016780 0.000000 0.003814 0.000000
# 4 0.000000 0.000000 0.000000 0.039845 0.000000 0.008340
# 5 -0.005165 -0.002144 0.003814 0.000000 0.035355 0.000000
# 6 0.000000 0.000000 0.000000 0.008340 0.000000 0.042655
#
#
# Mechanical properties :
#
#
# Convention : Reuss Voigt Hill
#
# Bulk Modulus (GPa) = 42.47104 46.01755 44.24430
# Shear Modulus (GPa) = 24.80048 26.94310 25.87179
#
# Velocity S-wave (km/s) = 3.68401 3.83986 3.76274
# Velocity P-wave (km/s) = 6.42946 6.69643 6.56431
#
# Compressibility (1/GPa) = 0.02354546
#
# Stress axis : x y z
#
# Youngs Moduli (GPa) = 46.34280 87.97401 59.59327
#
# Poissons Ratio (x) = 0.44833 0.33245
# Poissons Ratio (y) = 0.23617 0.14393
# Poissons Ratio (z) = 0.25853 0.21248
#
# Static dielectric constant tensor:
#      x y z
#    x 3.322650 0.000000 0.076720 
#    y 0.000000 3.407530 0.000000 
#    z 0.076720 0.000000 3.235670 
# 
# 
# High freq. dielectric constant tensor:
#      x y z
#    x 1.710700 0.000000 0.002170 
#    y 0.000000 1.706200 0.000000 
#    z 0.002170 0.000000 1.697000 
# 
# From -- ./inp_files/28693.got.cif
#   From: 2010.06.25/outbox.cif.g09.slc.cpg/sg10_15_cif.got.tgz:28693.got - 2010.06.27 22:07:45.
