data_PCOD8067169
_publ_section_title
;
Structure prediction by ZEFSAII (Michael W. Deem and Ramdas Pophale) SiO2 
 PCOD8067169
Probable space group: P 2/M
;
_chemical_formula_sum "Si O2"
_cell_formula_units_Z 20
_cell_length_a 7.347956
_cell_length_b 10.169747
_cell_length_c 21.059817
_cell_angle_alpha 90.000000
_cell_angle_beta 34.392745
_cell_angle_gamma 90.000000
_cell_volume 888.943274
_symmetry_space_group_name_H-M "P 2/M"
_symmetry_group_IT_number 10
_symmetry_cell_setting 'monoclinic'
loop_
_space_group_symop_operation_xyz
x,y,z
-x,y,-z
-x,-y,-z
x,-y,z
loop_
_atom_site_type_symbol
_atom_site_label
_atom_site_fract_x
_atom_site_fract_y
_atom_site_fract_z
Si Si1 0.737747 0.644242 0.521026
Si Si2 0.279502 0.239154 0.747092
Si Si3 0.671710 0.853778 0.857816
Si Si4 0.859175 0.850998 0.662232
Si Si5 0.143433 0.648773 0.026657
O O1 0.708674 0.500000 0.496831
O O2 0.399170 0.680663 0.650985
O O3 0.000000 0.638295 0.500000
O O4 0.845861 0.752228 0.438032
O O5 0.572201 0.157719 0.693518
O O6 0.003584 0.141837 0.801549
O O7 0.136228 0.339079 0.840436
O O8 0.726131 0.813021 0.769347
O O9 0.433143 0.748714 0.958478
O O10 0.518650 0.000000 0.905835
O O11 0.994017 0.000000 0.622240
O O12 0.278082 0.500000 0.988369
O O13 0.000000 0.686741 0.000000
#
# Coordination Sequence:
#
# PCOD8067169 Si02
#       5
#     4   4   4   4   4
#     4   9  20  38  63  92 124 163 207 255 308 368
#     4  11  22  40  66  93 124 165 207 259 310 370
#     4  11  25  42  64  96 127 164 211 257 309 373
#     4  10  22  41  63  91 127 165 206 256 308 365
#     4  11  24  43  67  93 124 166 210 258 314 374
#
# _framework density 22.498624
#
# number of rings (size 3 to 8) (size 9 to 14) (size 15 to 20)
#    0.000    1.600    2.000    1.800    0.000   12.000 
#    0.000    3.000    0.000    0.000    0.000    0.000 
#    0.000    0.000    0.000    0.000    0.000    0.000 
#
# Total GULP energy -248033.969639 kJ/mol
# GULP energy per Si atom -12401.698482 kJ/mol
# Density = 2.244742 g / cm^3
# Si number density = 22.498624 Si / 1000 Ang^3
#
#
#
# Elastic Constant Matrix: (Units=GPa)
#
#
# Indices 1 2 3 4 5 6 
#
# 1 63.2572 14.4161 17.1911 0.0000 0.1101 0.0000
# 2 14.4161 152.5615 77.7287 0.0000 4.7104 0.0000
# 3 17.1911 77.7287 142.3461 0.0000 3.1102 0.0000
# 4 0.0000 0.0000 0.0000 19.5988 0.0000 -3.8687
# 5 0.1101 4.7104 3.1102 0.0000 23.0321 0.0000
# 6 0.0000 0.0000 0.0000 -3.8687 0.0000 11.3966
#
#
#
# Elastic Compliance Matrix: (Units=1/GPa)
#
#
# Indices 1 2 3 4 5 6 
#
# 1 0.016408 -0.000757 -0.001574 0.000000 0.000289 0.000000
# 2 -0.000757 0.009149 -0.004878 0.000000 -0.001209 0.000000
# 3 -0.001574 -0.004878 0.009886 0.000000 -0.000330 0.000000
# 4 0.000000 0.000000 0.000000 0.054688 0.000000 0.018564
# 5 0.000289 -0.001209 -0.000330 0.000000 0.043708 0.000000
# 6 0.000000 0.000000 0.000000 0.018564 0.000000 0.094047
#
#
# Mechanical properties :
#
#
# Convention : Reuss Voigt Hill
#
# Bulk Modulus (GPa) = 47.56435 64.09296 55.82866
# Shear Modulus (GPa) = 20.05502 27.39409 23.72455
#
# Velocity S-wave (km/s) = 2.98885 3.49318 3.25081
# Velocity P-wave (km/s) = 5.75308 6.69471 6.24167
#
# Compressibility (1/GPa) = 0.02102415
#
# Stress axis : x y z
#
# Youngs Moduli (GPa) = 60.94422 109.30324 101.15220
#
# Poissons Ratio (x) = 0.08277 0.15926
# Poissons Ratio (y) = 0.04615 0.49341
# Poissons Ratio (z) = 0.09595 0.53317
#
# Static dielectric constant tensor:
#      x y z
#    x 3.876840 0.000000 0.133750 
#    y 0.000000 4.025400 0.000000 
#    z 0.133750 0.000000 4.156860 
# 
# 
# High freq. dielectric constant tensor:
#      x y z
#    x 1.884980 0.000000 0.012360 
#    y 0.000000 1.883930 0.000000 
#    z 0.012360 0.000000 1.888310 
# 
# From -- ./inp_files/87794.got.cif
#   From: 2010.06.25/outbox.cif.g09.slc.cpg/sg10_44_cif.got.tgz:87794.got - 2010.06.27 22:07:45.
