data_PCOD8067050
_publ_section_title
;
Structure prediction by ZEFSAII (Michael W. Deem and Ramdas Pophale) SiO2 
 PCOD8067050
Probable space group: P 2/M
;
_chemical_formula_sum "Si O2"
_cell_formula_units_Z 30
_cell_length_a 28.326634
_cell_length_b 10.665146
_cell_length_c 31.122485
_cell_angle_alpha 90.000000
_cell_angle_beta 8.922585
_cell_angle_gamma 90.000000
_cell_volume 1458.301461
_symmetry_space_group_name_H-M "P 2/M"
_symmetry_group_IT_number 10
_symmetry_cell_setting 'monoclinic'
loop_
_space_group_symop_operation_xyz
x,y,z
-x,y,-z
-x,-y,-z
x,-y,z
loop_
_atom_site_type_symbol
_atom_site_label
_atom_site_fract_x
_atom_site_fract_y
_atom_site_fract_z
Si Si1 0.638731 0.000000 0.327013
Si Si2 0.773471 0.210094 0.323844
Si Si3 0.243695 0.850553 0.108113
Si Si4 0.342783 0.850890 0.184910
Si Si5 0.944867 0.638719 0.096523
Si Si6 0.580245 0.361052 0.572400
Si Si7 0.431592 0.855492 0.268471
Si Si8 0.593582 0.138821 0.216583
O O1 0.500000 0.000000 0.500000
O O2 0.516079 0.119232 0.410201
O O3 0.000000 0.000000 0.000000
O O4 0.718919 0.271748 0.325952
O O5 0.791695 0.320651 0.342602
O O6 0.083545 0.131984 0.049544
O O7 0.456339 0.804970 0.955726
O O8 0.386667 0.794495 0.935171
O O9 0.227441 0.000000 0.119741
O O10 0.904080 0.795715 0.421640
O O11 0.000000 0.798434 0.500000
O O12 0.331360 0.000000 0.192848
O O13 0.500000 0.798416 0.000000
O O14 0.803606 0.500000 0.217240
O O15 0.000000 0.699019 0.000000
O O16 0.241144 0.631699 0.859548
O O17 0.680126 0.500000 0.499361
O O18 0.610455 0.252934 0.581414
O O19 0.633226 0.836964 0.130084
O O20 0.381122 0.000000 0.302312
O O21 0.439048 0.000000 0.362485
#
# Coordination Sequence:
#
# PCOD8067050 Si02
#       8
#     2   4   4   4   4   4   4   4
#     4  12  32  46  64  92 124 156 188 234 296 351
#     4  11  24  40  63  85 117 149 191 235 288 355
#     4   9  16  27  41  65 100 136 185 241 286 333
#     4   9  15  22  35  56  88 136 187 233 278 328
#     4   9  20  39  63  89 114 146 186 230 281 341
#     4  10  23  39  61  87 117 149 189 237 288 353
#     4   9  18  30  48  73 101 137 181 238 292 333
#     4  10  22  39  61  86 112 149 192 246 293 349
#
# _framework density 20.571877000000001
#
# number of rings (size 3 to 8) (size 9 to 14) (size 15 to 20)
#    0.000    2.267    0.667    1.200    8.400    3.733 
#    0.000    2.000    0.000    1.200    0.000    0.000 
#    0.000    0.000    0.000    0.000    0.000   13.333 
#
# Total GULP energy -371817.570522 kJ/mol
# GULP energy per Si atom -12393.919017 kJ/mol
# Density = 2.052505 g / cm^3
# Si number density = 20.571877 Si / 1000 Ang^3
#
#
#
# Elastic Constant Matrix: (Units=GPa)
#
#
# Indices 1 2 3 4 5 6 
#
# 1 140.9933 40.8163 42.3220 0.0000 23.1470 0.0000
# 2 40.8163 92.2683 15.8704 0.0000 11.5967 0.0000
# 3 42.3220 15.8704 100.4286 0.0000 17.7279 0.0000
# 4 0.0000 0.0000 0.0000 8.4222 0.0000 7.1257
# 5 23.1470 11.5967 17.7279 0.0000 38.7832 0.0000
# 6 0.0000 0.0000 0.0000 7.1257 0.0000 10.5449
#
#
#
# Elastic Compliance Matrix: (Units=1/GPa)
#
#
# Indices 1 2 3 4 5 6 
#
# 1 0.009451 -0.003265 -0.002875 0.000000 -0.003350 0.000000
# 2 -0.003265 0.012545 -0.000314 0.000000 -0.001659 0.000000
# 3 -0.002875 -0.000314 0.011856 0.000000 -0.003609 0.000000
# 4 0.000000 0.000000 0.000000 0.277235 0.000000 -0.187340
# 5 -0.003350 -0.001659 -0.003609 0.000000 0.029930 0.000000
# 6 0.000000 0.000000 0.000000 -0.187340 0.000000 0.221427
#
#
# Mechanical properties :
#
#
# Convention : Reuss Voigt Hill
#
# Bulk Modulus (GPa) = 47.74833 59.07863 53.41348
# Shear Modulus (GPa) = 8.58617 27.19548 17.89083
#
# Velocity S-wave (km/s) = 2.04519 3.63984 2.95222
# Velocity P-wave (km/s) = 5.37010 6.81506 6.13527
#
# Compressibility (1/GPa) = 0.02094314
#
# Stress axis : x y z
#
# Youngs Moduli (GPa) = 105.81096 79.71442 84.34719
#
# Poissons Ratio (x) = 0.26028 0.24253
# Poissons Ratio (y) = 0.34548 0.02645
# Poissons Ratio (z) = 0.30425 0.02500
#
# Static dielectric constant tensor:
#      x y z
#    x 3.785150 0.000000 0.183610 
#    y 0.000000 3.516470 0.000000 
#    z 0.183610 0.000000 3.734490 
# 
# 
# High freq. dielectric constant tensor:
#      x y z
#    x 1.802870 0.000000 0.012930 
#    y 0.000000 1.745690 0.000000 
#    z 0.012930 0.000000 1.802750 
# 
# From -- ./inp_files/95914.got.cif
#   From: 2010.06.25/outbox.cif.g09.slc.cpg/sg10_48_cif.got.tgz:95914.got - 2010.06.27 22:07:45.
