data_PCOD8067827
_publ_section_title
;
Structure prediction by ZEFSAII (Michael W. Deem and Ramdas Pophale) SiO2 
 PCOD8067827
Probable space group: P 2/M
;
_chemical_formula_sum "Si O2"
_cell_formula_units_Z 18
_cell_length_a 8.176939
_cell_length_b 19.964871
_cell_length_c 9.377024
_cell_angle_alpha 90.000000
_cell_angle_beta 148.207490
_cell_angle_gamma 90.000000
_cell_volume 806.500981
_symmetry_space_group_name_H-M "P 2/M"
_symmetry_group_IT_number 10
_symmetry_cell_setting 'monoclinic'
loop_
_space_group_symop_operation_xyz
x,y,z
-x,y,-z
-x,-y,-z
x,-y,z
loop_
_atom_site_type_symbol
_atom_site_label
_atom_site_fract_x
_atom_site_fract_y
_atom_site_fract_z
Si Si1 0.407278 0.129987 0.092904
Si Si2 0.574625 0.423037 0.890900
Si Si3 0.233312 0.799282 0.415856
Si Si4 0.642456 0.000000 0.761165
Si Si5 0.210512 0.644552 0.386677
O O1 0.053606 0.154079 0.839185
O O2 0.500000 0.115548 0.000000
O O3 0.636788 0.185878 0.329381
O O4 0.463836 0.063982 0.227595
O O5 0.571219 0.500000 0.839970
O O6 0.909248 0.392236 0.101142
O O7 0.500000 0.414409 0.000000
O O8 0.299864 0.383983 0.607254
O O9 0.500000 0.815549 0.500000
O O10 0.127058 0.722631 0.332240
O O11 0.500000 0.000000 0.500000
O O12 0.000000 0.000000 0.000000
O O13 0.500000 0.629577 0.500000
#
# Coordination Sequence:
#
# PCOD8067827 Si02
#       5
#     4   4   4   2   4
#     4  12  25  42  66  98 129 162 210 263 309 363
#     4  11  24  41  62  90 126 166 208 258 318 379
#     4  11  24  43  65  92 128 168 209 254 314 379
#     4  12  25  44  69  94 127 172 211 250 311 372
#     4  11  24  41  64  93 124 163 212 262 309 370
#
# _framework density 22.318632999999998
#
# number of rings (size 3 to 8) (size 9 to 14) (size 15 to 20)
#    0.000    0.667    0.000    8.333    0.000   13.333 
#    0.000    3.333    0.000    0.000    0.000    0.000 
#    0.000    0.000    0.000    0.000    0.000    0.000 
#
# Total GULP energy -223342.735006 kJ/mol
# GULP energy per Si atom -12407.929723 kJ/mol
# Density = 2.226783 g / cm^3
# Si number density = 22.318633 Si / 1000 Ang^3
#
#
#
# Elastic Constant Matrix: (Units=GPa)
#
#
# Indices 1 2 3 4 5 6 
#
# 1 84.7260 63.4321 27.0181 0.0000 -11.2217 0.0000
# 2 63.4321 114.1090 41.9612 0.0000 -2.8520 0.0000
# 3 27.0181 41.9612 133.7729 0.0000 -6.2074 0.0000
# 4 0.0000 0.0000 0.0000 26.1658 0.0000 -5.4505
# 5 -11.2217 -2.8520 -6.2074 0.0000 43.9993 0.0000
# 6 0.0000 0.0000 0.0000 -5.4505 0.0000 11.9075
#
#
#
# Elastic Compliance Matrix: (Units=1/GPa)
#
#
# Indices 1 2 3 4 5 6 
#
# 1 0.021144 -0.011470 -0.000460 0.000000 0.004584 0.000000
# 2 -0.011470 0.016130 -0.002849 0.000000 -0.002282 0.000000
# 3 -0.000460 -0.002849 0.008504 0.000000 0.000898 0.000000
# 4 0.000000 0.000000 0.000000 0.042246 0.000000 0.019338
# 5 0.004584 -0.002282 0.000898 0.000000 0.023876 0.000000
# 6 0.000000 0.000000 0.000000 0.019338 0.000000 0.092833
#
#
# Mechanical properties :
#
#
# Convention : Reuss Voigt Hill
#
# Bulk Modulus (GPa) = 61.65214 66.38120 64.01667
# Shear Modulus (GPa) = 20.85977 29.76094 25.31036
#
# Velocity S-wave (km/s) = 3.06050 3.65562 3.37121
# Velocity P-wave (km/s) = 6.33817 6.90109 6.62561
#
# Compressibility (1/GPa) = 0.01622004
#
# Stress axis : x y z
#
# Youngs Moduli (GPa) = 47.29521 61.99553 117.59825
#
# Poissons Ratio (x) = 0.71109 0.05408
# Poissons Ratio (y) = 0.54247 0.33503
# Poissons Ratio (z) = 0.02175 0.17662
#
# Static dielectric constant tensor:
#      x y z
#    x 3.955880 0.000000 -0.037060 
#    y 0.000000 4.983810 0.000000 
#    z -0.037060 0.000000 4.261730 
# 
# 
# High freq. dielectric constant tensor:
#      x y z
#    x 1.883350 0.000000 -0.003010 
#    y 0.000000 1.889700 0.000000 
#    z -0.003010 0.000000 1.898960 
# 
# From -- ./inp_files/20370.got.cif
#   From: 2010.06.25/outbox.cif.g09.slc.cpg/sg10_11_cif.got.tgz:20370.got - 2010.06.27 22:07:45.
