data_PCOD8067915
_publ_section_title
;
Structure prediction by ZEFSAII (Michael W. Deem and Ramdas Pophale) SiO2 
 PCOD8067915
Probable space group: P 2/M
;
_chemical_formula_sum "Si O2"
_cell_formula_units_Z 32
_cell_length_a 10.417575
_cell_length_b 9.471246
_cell_length_c 24.527578
_cell_angle_alpha 90.000000
_cell_angle_beta 54.666818
_cell_angle_gamma 90.000000
_cell_volume 1974.302099
_symmetry_space_group_name_H-M "P 2/M"
_symmetry_group_IT_number 10
_symmetry_cell_setting 'monoclinic'
loop_
_space_group_symop_operation_xyz
x,y,z
-x,y,-z
-x,-y,-z
x,-y,z
loop_
_atom_site_type_symbol
_atom_site_label
_atom_site_fract_x
_atom_site_fract_y
_atom_site_fract_z
Si Si1 0.323837 0.832210 0.544468
Si Si2 0.828543 0.167953 0.527906
Si Si3 0.549434 0.837417 0.673180
Si Si4 0.232803 0.162321 0.685163
Si Si5 0.749683 0.158465 0.079794
Si Si6 0.070257 0.158421 0.067987
Si Si7 0.922876 0.340941 0.189280
Si Si8 0.398498 0.340829 0.798839
O O1 0.500000 0.768408 0.500000
O O2 0.226046 0.771405 0.517284
O O3 0.235768 0.787936 0.621665
O O4 0.335907 0.000000 0.538050
O O5 0.707054 0.215260 0.604553
O O6 0.000000 0.230259 0.500000
O O7 0.833094 0.000000 0.523787
O O8 0.406882 0.817014 0.666238
O O9 0.528545 0.743056 0.732166
O O10 0.561566 0.000000 0.688752
O O11 0.105424 0.258049 0.747472
O O12 0.179737 0.000000 0.704223
O O13 0.623235 0.265041 0.137191
O O14 0.905941 0.158979 0.077202
O O15 0.679204 0.000000 0.096664
O O16 0.792227 0.206862 0.007650
O O17 0.062163 0.264707 0.121110
O O18 0.104450 0.000000 0.080951
O O19 0.976699 0.500000 0.189209
O O20 0.764397 0.339632 0.193420
O O21 0.457403 0.500000 0.794479
#
# Coordination Sequence:
#
# PCOD8067915 Si02
#       8
#     4   4   4   4   4   4   4   4
#     4   9  14  23  39  59  79 101 132 167 203 245
#     4   9  16  25  39  61  84 102 127 169 214 247
#     4   9  15  24  38  54  73  99 129 162 200 241
#     4   9  15  23  38  55  72  98 132 165 195 236
#     4   8  13  21  32  46  65  93 129 165 196 232
#     4   8  13  21  32  45  65  95 130 162 194 236
#     4   9  16  23  31  47  72  98 126 163 203 237
#     4   9  16  23  32  48  70  96 128 165 200 235
#
# _framework density 16.208259000000002
#
# number of rings (size 3 to 8) (size 9 to 14) (size 15 to 20)
#    0.000    3.250    1.250    1.500    0.000    3.500 
#    0.000    2.500    0.000    1.500    0.000    0.000 
#    0.000    0.000    0.000    1.125    0.000   26.250 
#
# Total GULP energy -396618.149495 kJ/mol
# GULP energy per Si atom -12394.317172 kJ/mol
# Density = 1.617137 g / cm^3
# Si number density = 16.208259 Si / 1000 Ang^3
#
#
#
# Elastic Constant Matrix: (Units=GPa)
#
#
# Indices 1 2 3 4 5 6 
#
# 1 41.9181 17.7052 40.1526 0.0000 4.7667 0.0000
# 2 17.7052 90.5457 80.8970 0.0000 6.4633 0.0000
# 3 40.1526 80.8970 173.1496 0.0000 12.7451 0.0000
# 4 0.0000 0.0000 0.0000 8.3048 0.0000 0.2322
# 5 4.7667 6.4633 12.7451 0.0000 9.0804 0.0000
# 6 0.0000 0.0000 0.0000 0.2322 0.0000 3.4033
#
#
#
# Elastic Compliance Matrix: (Units=1/GPa)
#
#
# Indices 1 2 3 4 5 6 
#
# 1 0.031077 0.000688 -0.007016 0.000000 -0.006956 0.000000
# 2 0.000688 0.018984 -0.008931 0.000000 -0.001339 0.000000
# 3 -0.007016 -0.008931 0.012084 0.000000 -0.006921 0.000000
# 4 0.000000 0.000000 0.000000 0.120642 0.000000 -0.008231
# 5 -0.006956 -0.001339 -0.006921 0.000000 0.124447 0.000000
# 6 0.000000 0.000000 0.000000 -0.008231 0.000000 0.294395
#
#
# Mechanical properties :
#
#
# Convention : Reuss Voigt Hill
#
# Bulk Modulus (GPa) = 31.61716 64.79145 48.20430
# Shear Modulus (GPa) = 7.77981 15.28161 11.53071
#
# Velocity S-wave (km/s) = 2.19325 3.07388 2.67012
# Velocity P-wave (km/s) = 5.09538 7.25668 6.26986
#
# Compressibility (1/GPa) = 0.03162840
#
# Stress axis : x y z
#
# Youngs Moduli (GPa) = 32.17817 52.67584 82.75226
#
# Poissons Ratio (x) = -0.03626 0.58060
# Poissons Ratio (y) = -0.02215 0.73902
# Poissons Ratio (z) = 0.22577 0.47042
#
# Static dielectric constant tensor:
#      x y z
#    x 2.554460 0.000000 0.111060 
#    y 0.000000 2.965950 0.000000 
#    z 0.111060 0.000000 3.352140 
# 
# 
# High freq. dielectric constant tensor:
#      x y z
#    x 1.544660 0.000000 0.011880 
#    y 0.000000 1.598280 0.000000 
#    z 0.011880 0.000000 1.642930 
# 
# From -- ./inp_files/86129.got.cif
#   From: 2010.06.25/outbox.cif.g09.slc.cpg/sg10_44_cif.got.tgz:86129.got - 2010.06.27 22:07:45.
