data_PCOD8067891
_publ_section_title
;
Structure prediction by ZEFSAII (Michael W. Deem and Ramdas Pophale) SiO2 
 PCOD8067891
Probable space group: P 2/M
;
_chemical_formula_sum "Si O2"
_cell_formula_units_Z 24
_cell_length_a 21.474098
_cell_length_b 12.957724
_cell_length_c 16.088100
_cell_angle_alpha 90.000000
_cell_angle_beta 33.365932
_cell_angle_gamma 90.000000
_cell_volume 2462.060159
_symmetry_space_group_name_H-M "P 2/M"
_symmetry_group_IT_number 10
_symmetry_cell_setting 'monoclinic'
loop_
_space_group_symop_operation_xyz
x,y,z
-x,y,-z
-x,-y,-z
x,-y,z
loop_
_atom_site_type_symbol
_atom_site_label
_atom_site_fract_x
_atom_site_fract_y
_atom_site_fract_z
Si Si1 0.646587 0.114512 0.253333
Si Si2 0.646325 0.500000 0.253439
Si Si3 0.214897 0.694532 0.885400
Si Si4 0.979169 0.382669 0.121028
Si Si5 0.256600 0.305466 0.643102
Si Si6 0.604971 0.114512 0.495110
Si Si7 0.395349 0.500000 0.504412
O O1 0.741707 0.198420 0.121967
O O2 0.627173 0.117808 0.372828
O O3 0.527303 0.140779 0.341379
O O4 0.688329 0.000000 0.180272
O O5 0.716543 0.600951 0.149094
O O6 0.528324 0.500000 0.335429
O O7 0.624579 0.500000 0.375421
O O8 0.237293 0.695222 0.762706
O O9 0.081436 0.678602 0.051846
O O10 0.971950 0.500000 0.162953
O O11 0.863148 0.321392 0.270134
O O12 0.000000 0.387079 0.000000
O O13 0.314981 0.198421 0.548689
O O14 0.339320 0.399050 0.526316
O O15 0.633692 0.000000 0.497710
#
# Coordination Sequence:
#
# PCOD8067891 Si02
#       7
#     4   2   4   4   4   4   2
#     4   8  13  20  27  32  37  43  48  54  62  67
#     4   9  14  17  23  33  39  40  45  57  65  67
#     4   9  14  19  25  31  37  43  50  54  59  67
#     4   9  14  20  25  29  37  47  50  51  59  67
#     4   9  14  19  25  31  37  43  50  54  59  67
#     4   8  13  20  27  32  37  43  48  54  62  67
#     4   9  14  17  23  33  39  40  45  57  65  67
#
# _framework density 9.7479340000000008
#
# number of rings (size 3 to 8) (size 9 to 14) (size 15 to 20)
#    0.000    3.333    1.667    2.000    0.000    4.000 
#    0.000    0.833    0.000    5.000    0.000    0.000 
#    0.000    0.000    0.000    0.000    0.000    0.000 
#
# Total GULP energy -297364.286311 kJ/mol
# GULP energy per Si atom -12390.178596 kJ/mol
# Density = 0.972575 g / cm^3
# Si number density = 9.747934 Si / 1000 Ang^3
#
#
#
# Elastic Constant Matrix: (Units=GPa)
#
#
# Indices 1 2 3 4 5 6 
#
# 1 35.8103 37.3265 25.1367 0.0000 -30.0027 0.0000
# 2 37.3265 100.0267 26.2014 0.0000 -31.2731 0.0000
# 3 25.1367 26.2014 17.6445 0.0000 -21.0607 0.0000
# 4 0.0000 0.0000 0.0000 7.8964 0.0000 -9.4248
# 5 -30.0027 -31.2731 -21.0607 0.0000 25.1367 0.0000
# 6 0.0000 0.0000 0.0000 -9.4248 0.0000 11.2494
#
#
#
# Elastic Compliance Matrix: (Units=1/GPa)
#
#
# Indices 1 2 3 4 5 6 
#
# 1 ********** -0.001554********** 0.000000********** 0.000000
# 2 -0.001554 0.016361 -0.008902 0.000000 0.011041 0.000000
# 3 ********** -0.008902300.574628 0.000001********** 0.000001
# 4 -0.000001 0.000000 0.000000********** -0.000001**********
# 5 ********** 0.011041********** 0.000000-90.146928 0.000000
# 6 -0.000001 0.000000 0.000000********** -0.000001**********
#
#
# Mechanical properties :
#
#
# Convention : Reuss Voigt Hill
#
# Bulk Modulus (GPa) = -0.00118 36.75673 18.37778
# Shear Modulus (GPa) = 0.00030 13.17764 6.58897
#
# Velocity S-wave (km/s) = 0.01764 3.68073 2.60270
# Velocity P-wave (km/s) = 0.02821 7.47347 5.28450
#
# Compressibility (1/GPa) = -849.23215257
#
# Stress axis : x y z
#
# Youngs Moduli (GPa) = 0.00050 61.11959 0.00333
#
# Poissons Ratio (x) = 0.09500 5.23752
# Poissons Ratio (y) = 0.00000 0.00003
# Poissons Ratio (z) = 0.78763 0.54412
#
# Static dielectric constant tensor:
#      x y z
#    x 2.021230 0.000000 -0.495140 
#    y 0.000000 2.461650 0.000000 
#    z -0.495140 0.000000 1.845030 
# 
# 
# High freq. dielectric constant tensor:
#      x y z
#    x 1.327570 0.000000 -0.065110 
#    y 0.000000 1.382980 0.000000 
#    z -0.065110 0.000000 1.304380 
# 
# From -- ./inp_files/53318.got.cif
#   From: 2010.06.25/outbox.cif.g09.slc.cpg/sg10_27_cif.got.tgz:53318.got - 2010.06.27 22:07:45.
