data_PCOD8067725
_publ_section_title
;
Structure prediction by ZEFSAII (Michael W. Deem and Ramdas Pophale) SiO2 
 PCOD8067725
Probable space group: P 2/M
;
_chemical_formula_sum "Si O2"
_cell_formula_units_Z 24
_cell_length_a 26.696029
_cell_length_b 8.309436
_cell_length_c 5.094681
_cell_angle_alpha 90.000000
_cell_angle_beta 90.086493
_cell_angle_gamma 90.000000
_cell_volume 1130.146421
_symmetry_space_group_name_H-M "P 2/M"
_symmetry_group_IT_number 10
_symmetry_cell_setting 'monoclinic'
loop_
_space_group_symop_operation_xyz
x,y,z
-x,y,-z
-x,-y,-z
x,-y,z
loop_
_atom_site_type_symbol
_atom_site_label
_atom_site_fract_x
_atom_site_fract_y
_atom_site_fract_z
Si Si1 0.056372 0.192089 0.514775
Si Si2 0.228492 0.188592 0.969724
Si Si3 0.115471 0.808432 0.014368
Si Si4 0.718362 0.312364 0.529433
Si Si5 0.391218 0.813668 0.430245
Si Si6 0.555724 0.686791 0.071361
O O1 0.083343 0.259906 0.772750
O O2 0.000000 0.260455 0.500000
O O3 0.055064 0.000000 0.513154
O O4 0.088730 0.258092 0.273137
O O5 0.172191 0.255425 0.002804
O O6 0.245262 0.222244 0.673011
O O7 0.231512 0.000000 0.029105
O O8 0.264167 0.279889 0.173874
O O9 0.115803 0.000000 0.006033
O O10 0.719137 0.500000 0.467808
O O11 0.663023 0.246192 0.483640
O O12 0.428110 0.787297 0.674723
O O13 0.389869 0.000000 0.354489
O O14 0.408301 0.715889 0.175071
O O15 0.557102 0.500000 0.148138
O O16 0.500000 0.744280 0.000000
#
# Coordination Sequence:
#
# PCOD8067725 Si02
#       6
#     4   4   4   4   4   4
#     4   9  15  24  40  67 106 147 182 221 280 348
#     4  11  22  39  61  86 118 155 198 245 298 356
#     4   9  17  28  45  71 105 145 184 229 285 342
#     4  12  25  42  62  87 120 156 198 246 300 357
#     4  12  25  42  65  93 124 159 202 249 298 351
#     4  11  24  43  66  93 127 165 202 243 295 351
#
# _framework density 21.236187000000001
#
# number of rings (size 3 to 8) (size 9 to 14) (size 15 to 20)
#    0.000    1.333    0.000    7.000    0.000    8.000 
#    0.000    0.000    0.000    0.000    0.000    0.000 
#    0.000   46.667    0.000    0.000    0.000    0.000 
#
# Total GULP energy -297757.326063 kJ/mol
# GULP energy per Si atom -12406.555253 kJ/mol
# Density = 2.118785 g / cm^3
# Si number density = 21.236187 Si / 1000 Ang^3
#
#
#
# Elastic Constant Matrix: (Units=GPa)
#
#
# Indices 1 2 3 4 5 6 
#
# 1 105.5664 29.4042 11.7001 0.0000 0.5411 0.0000
# 2 29.4042 50.8408 6.2571 0.0000 3.9963 0.0000
# 3 11.7001 6.2571 104.5877 0.0000 0.9544 0.0000
# 4 0.0000 0.0000 0.0000 21.5737 0.0000 -13.5469
# 5 0.5411 3.9963 0.9544 0.0000 46.0293 0.0000
# 6 0.0000 0.0000 0.0000 -13.5469 0.0000 -6.8780
#
#
#
# Elastic Compliance Matrix: (Units=1/GPa)
#
#
# Indices 1 2 3 4 5 6 
#
# 1 0.011382 -0.006509 -0.000888 0.000000 0.000450 0.000000
# 2 -0.006509 0.023671 -0.000670 0.000000 -0.001965 0.000000
# 3 -0.000888 -0.000670 0.009702 0.000000 -0.000133 0.000000
# 4 0.000000 0.000000 0.000000 0.020723 0.000000 -0.040816
# 5 0.000450 -0.001965 -0.000133 0.000000 0.021893 0.000000
# 6 0.000000 0.000000 0.000000 -0.040816 0.000000 -0.065000
#
#
# Mechanical properties :
#
#
# Convention : Reuss Voigt Hill
#
# Bulk Modulus (GPa) = 34.93980 39.52418 37.23199
# Shear Modulus (GPa) = 104.07067 26.38722 65.22895
#
# Velocity S-wave (km/s) = 7.00804 3.52882 5.54821
# Velocity P-wave (km/s) = 9.05385 5.93764 7.65597
#
# Compressibility (1/GPa) = 0.02862065
#
# Stress axis : x y z
#
# Youngs Moduli (GPa) = 87.85988 42.24658 103.07164
#
# Poissons Ratio (x) = 0.27497 0.09153
# Poissons Ratio (y) = 0.57186 0.06906
# Poissons Ratio (z) = 0.07802 0.02831
#
# Static dielectric constant tensor:
#      x y z
#    x 4.052730 0.000000 -0.000070 
#    y 0.000000 3.438770 0.000000 
#    z -0.000070 0.000000 3.903040 
# 
# 
# High freq. dielectric constant tensor:
#      x y z
#    x 1.850640 0.000000 0.000040 
#    y 0.000000 1.801900 0.000000 
#    z 0.000040 0.000000 1.847770 
# 
# From -- ./inp_files/13011.got.cif
#   From: 2010.06.25/outbox.cif.g09.slc.cpg/sg10_7_cif.got.tgz:13011.got - 2010.06.27 22:07:45.
