data_PCOD8067154
_publ_section_title
;
Structure prediction by ZEFSAII (Michael W. Deem and Ramdas Pophale) SiO2 
 PCOD8067154
Probable space group: P 2/M
;
_chemical_formula_sum "Si O2"
_cell_formula_units_Z 16
_cell_length_a 5.184525
_cell_length_b 14.052804
_cell_length_c 10.361328
_cell_angle_alpha 90.000000
_cell_angle_beta 71.625212
_cell_angle_gamma 90.000000
_cell_volume 716.407917
_symmetry_space_group_name_H-M "P 2/M"
_symmetry_group_IT_number 10
_symmetry_cell_setting 'monoclinic'
loop_
_space_group_symop_operation_xyz
x,y,z
-x,y,-z
-x,-y,-z
x,-y,z
loop_
_atom_site_type_symbol
_atom_site_label
_atom_site_fract_x
_atom_site_fract_y
_atom_site_fract_z
Si Si1 0.460358 0.500000 0.686778
Si Si2 0.160265 0.500000 0.144021
Si Si3 0.685273 0.299282 0.582190
Si Si4 0.000000 0.662688 0.000000
Si Si5 0.308312 0.000000 0.908718
Si Si6 0.435575 0.204538 0.856624
O O1 0.131294 0.500000 0.735825
O O2 0.582666 0.407719 0.599572
O O3 0.569215 0.500000 0.814959
O O4 0.190884 0.595540 0.055889
O O5 0.500000 0.248597 0.500000
O O6 0.662043 0.246185 0.724567
O O7 0.000000 0.295319 0.500000
O O8 0.826690 0.728993 0.123471
O O9 0.370222 0.096695 0.820024
O O10 0.500000 0.000000 0.000000
O O11 0.000000 0.000000 0.000000
O O12 0.500000 0.208199 0.000000
#
# Coordination Sequence:
#
# PCOD8067154 Si02
#       6
#     2   2   4   2   2   4
#     4  12  22  44  60  87 134 176 224 253 323 380
#     4  11  24  35  62  99 129 170 214 276 312 385
#     4  12  27  44  65  96 135 179 219 265 327 389
#     4  11  22  37  64  96 136 163 220 267 334 370
#     4  10  22  40  68 104 128 160 217 277 328 382
#     4  11  24  43  72  97 131 171 221 273 328 389
#
# _framework density 22.333645000000001
#
# number of rings (size 3 to 8) (size 9 to 14) (size 15 to 20)
#    0.000    0.750    3.750    3.750    3.500    1.000 
#    0.000    1.250    0.000    0.000    0.000    0.000 
#    0.000    0.000    0.000    0.000    0.000    0.000 
#
# Total GULP energy -198309.208097 kJ/mol
# GULP energy per Si atom -12394.325506 kJ/mol
# Density = 2.228281 g / cm^3
# Si number density = 22.333645 Si / 1000 Ang^3
#
#
#
# Elastic Constant Matrix: (Units=GPa)
#
#
# Indices 1 2 3 4 5 6 
#
# 1 100.2474 22.4193 39.0265 0.0000 -21.3625 0.0000
# 2 22.4193 167.1654 56.4261 0.0000 -20.7327 0.0000
# 3 39.0265 56.4261 125.6654 0.0000 -17.5181 0.0000
# 4 0.0000 0.0000 0.0000 33.2119 0.0000 4.7852
# 5 -21.3625 -20.7327 -17.5181 0.0000 55.7624 0.0000
# 6 0.0000 0.0000 0.0000 4.7852 0.0000 12.1448
#
#
#
# Elastic Compliance Matrix: (Units=1/GPa)
#
#
# Indices 1 2 3 4 5 6 
#
# 1 0.011995 -0.000091 -0.003188 0.000000 0.003560 0.000000
# 2 -0.000091 0.007209 -0.002970 0.000000 0.001712 0.000000
# 3 -0.003188 -0.002970 0.010413 0.000000 0.000946 0.000000
# 4 0.000000 0.000000 0.000000 0.031922 0.000000 -0.012577
# 5 0.003560 0.001712 0.000946 0.000000 0.020231 0.000000
# 6 0.000000 0.000000 0.000000 -0.012577 0.000000 0.087295
#
#
# Mechanical properties :
#
#
# Convention : Reuss Voigt Hill
#
# Bulk Modulus (GPa) = 58.41352 69.86911 64.14132
# Shear Modulus (GPa) = 26.69929 38.57091 32.63510
#
# Velocity S-wave (km/s) = 3.46131 4.16027 3.82678
# Velocity P-wave (km/s) = 6.49507 7.37762 6.95037
#
# Compressibility (1/GPa) = 0.01711932
#
# Stress axis : x y z
#
# Youngs Moduli (GPa) = 83.36484 138.71081 96.03203
#
# Poissons Ratio (x) = 0.01264 0.30616
# Poissons Ratio (y) = 0.00759 0.28522
# Poissons Ratio (z) = 0.26578 0.41198
#
# Static dielectric constant tensor:
#      x y z
#    x 4.001760 0.000000 0.057380 
#    y 0.000000 4.682300 0.000000 
#    z 0.057380 0.000000 4.049680 
# 
# 
# High freq. dielectric constant tensor:
#      x y z
#    x 1.888360 0.000000 -0.004860 
#    y 0.000000 1.879540 0.000000 
#    z -0.004860 0.000000 1.867510 
# 
# From -- ./inp_files/6689.got.cif
#   From: 2010.06.25/outbox.cif.g09.slc.cpg/sg10_4_cif.got.tgz:6689.got - 2010.06.27 22:07:45.
