data_PCOD8067038
_publ_section_title
;
Structure prediction by ZEFSAII (Michael W. Deem and Ramdas Pophale) SiO2 
 PCOD8067038
Probable space group: P 2/M
;
_chemical_formula_sum "Si O2"
_cell_formula_units_Z 28
_cell_length_a 22.422241
_cell_length_b 8.345103
_cell_length_c 8.887002
_cell_angle_alpha 90.000000
_cell_angle_beta 126.390408
_cell_angle_gamma 90.000000
_cell_volume 1338.622653
_symmetry_space_group_name_H-M "P 2/M"
_symmetry_group_IT_number 10
_symmetry_cell_setting 'monoclinic'
loop_
_space_group_symop_operation_xyz
x,y,z
-x,y,-z
-x,-y,-z
x,-y,z
loop_
_atom_site_type_symbol
_atom_site_label
_atom_site_fract_x
_atom_site_fract_y
_atom_site_fract_z
Si Si1 0.069071 0.815734 0.201161
Si Si2 0.354823 0.311447 0.630628
Si Si3 0.218253 0.813552 0.241230
Si Si4 0.927030 0.313846 0.466760
Si Si5 0.495323 0.313616 0.659888
Si Si6 0.780973 0.311708 0.087968
Si Si7 0.637149 0.816129 0.027070
O O1 0.143091 0.789418 0.218993
O O2 0.073004 0.710640 0.355875
O O3 0.057902 0.000000 0.231145
O O4 0.000000 0.754137 0.000000
O O5 0.361664 0.500000 0.671505
O O6 0.282729 0.274424 0.426825
O O7 0.426144 0.241402 0.648775
O O8 0.347849 0.221571 0.777453
O O9 0.208050 0.723106 0.069974
O O10 0.237174 0.000000 0.245449
O O11 0.927025 0.500000 0.427903
O O12 0.000000 0.233845 0.500000
O O13 0.852467 0.240971 0.282448
O O14 0.500000 0.234245 0.500000
O O15 0.479613 0.500000 0.616188
O O16 0.570198 0.289519 0.864262
O O17 0.769518 0.500000 0.099576
O O18 0.709999 0.218056 0.040685
O O19 0.614760 0.000000 0.974623
#
# Coordination Sequence:
#
# PCOD8067038 Si02
#       7
#     4   4   4   4   4   4   4
#     4  10  22  39  59  86 120 158 197 239 294 357
#     4  11  23  40  63  89 121 160 200 243 294 355
#     4  11  23  39  61  90 122 155 198 248 296 350
#     4  10  22  39  60  88 118 152 199 250 295 344
#     4  10  22  41  64  89 118 155 199 244 295 357
#     4  11  23  40  62  87 119 158 199 243 298 360
#     4  12  25  40  61  89 122 157 198 249 298 348
#
# _framework density 20.917021999999999
#
# number of rings (size 3 to 8) (size 9 to 14) (size 15 to 20)
#    0.000    1.286    0.000    5.571    0.000    9.429 
#    0.000    0.000    0.000    0.000    0.000    0.000 
#    0.000    0.000    0.000    0.000    0.000    0.000 
#
# Total GULP energy -347366.393984 kJ/mol
# GULP energy per Si atom -12405.942642 kJ/mol
# Density = 2.086941 g / cm^3
# Si number density = 20.917022 Si / 1000 Ang^3
#
#
#
# Elastic Constant Matrix: (Units=GPa)
#
#
# Indices 1 2 3 4 5 6 
#
# 1 117.6907 13.3446 46.7969 0.0000 6.3105 0.0000
# 2 13.3446 34.7658 -1.9783 0.0000 -0.9798 0.0000
# 3 46.7969 -1.9783 140.6039 0.0000 2.4414 0.0000
# 4 0.0000 0.0000 0.0000 38.9397 0.0000 -15.7474
# 5 6.3105 -0.9798 2.4414 0.0000 44.7367 0.0000
# 6 0.0000 0.0000 0.0000 -15.7474 0.0000 40.0885
#
#
#
# Elastic Compliance Matrix: (Units=1/GPa)
#
#
# Indices 1 2 3 4 5 6 
#
# 1 0.010450 -0.004250 -0.003514 0.000000 -0.001375 0.000000
# 2 -0.004250 0.030532 0.001824 0.000000 0.001169 0.000000
# 3 -0.003514 0.001824 0.008306 0.000000 0.000082 0.000000
# 4 0.000000 0.000000 0.000000 0.030531 0.000000 0.011993
# 5 -0.001375 0.001169 0.000082 0.000000 0.022568 0.000000
# 6 0.000000 0.000000 0.000000 0.011993 0.000000 0.029656
#
#
# Mechanical properties :
#
#
# Convention : Reuss Voigt Hill
#
# Bulk Modulus (GPa) = 26.73248 45.48744 36.10996
# Shear Modulus (GPa) = 31.97114 40.41279 36.19196
#
# Velocity S-wave (km/s) = 3.91381 4.40028 4.16416
# Velocity P-wave (km/s) = 5.76471 6.90003 6.35777
#
# Compressibility (1/GPa) = 0.03740768
#
# Stress axis : x y z
#
# Youngs Moduli (GPa) = 95.69685 32.75269 120.39607
#
# Poissons Ratio (x) = 0.13919 0.42305
# Poissons Ratio (y) = 0.40669 -0.21957
# Poissons Ratio (z) = 0.33627 -0.05973
#
# Static dielectric constant tensor:
#      x y z
#    x 4.032880 0.000000 0.073660 
#    y 0.000000 3.666480 0.000000 
#    z 0.073660 0.000000 3.845950 
# 
# 
# High freq. dielectric constant tensor:
#      x y z
#    x 1.839400 0.000000 0.001900 
#    y 0.000000 1.807810 0.000000 
#    z 0.001900 0.000000 1.836210 
# 
# From -- ./inp_files/34295.got.cif
#   From: 2010.06.25/outbox.cif.g09.slc.cpg/sg10_18_cif.got.tgz:34295.got - 2010.06.27 22:07:45.
