data_PCOD8067241
_publ_section_title
;
Structure prediction by ZEFSAII (Michael W. Deem and Ramdas Pophale) SiO2 
 PCOD8067241
Probable space group: P 2/M
;
_chemical_formula_sum "Si O2"
_cell_formula_units_Z 28
_cell_length_a 11.562758
_cell_length_b 7.984542
_cell_length_c 14.715148
_cell_angle_alpha 90.000000
_cell_angle_beta 117.249215
_cell_angle_gamma 90.000000
_cell_volume 1207.784021
_symmetry_space_group_name_H-M "P 2/M"
_symmetry_group_IT_number 10
_symmetry_cell_setting 'monoclinic'
loop_
_space_group_symop_operation_xyz
x,y,z
-x,y,-z
-x,-y,-z
x,-y,z
loop_
_atom_site_type_symbol
_atom_site_label
_atom_site_fract_x
_atom_site_fract_y
_atom_site_fract_z
Si Si1 0.410466 0.000000 0.061657
Si Si2 0.094862 0.188485 0.324871
Si Si3 0.246839 0.313402 0.216175
Si Si4 0.229425 0.693864 0.550031
Si Si5 0.829147 0.307562 0.267723
Si Si6 0.495780 0.808827 0.395961
Si Si7 0.457860 0.317014 0.881881
Si Si8 0.843140 0.000000 0.933898
O O1 0.453480 0.170057 0.131125
O O2 0.250525 0.000000 0.007561
O O3 0.500000 0.000000 0.000000
O O4 0.165134 0.309099 0.279710
O O5 0.129478 0.243733 0.438838
O O6 0.939136 0.198946 0.257483
O O7 0.141867 0.000000 0.322695
O O8 0.228909 0.500000 0.166494
O O9 0.397575 0.292612 0.296825
O O10 0.193506 0.169929 0.130959
O O11 0.262765 0.500000 0.548218
O O12 0.164005 0.728973 0.622943
O O13 0.362391 0.797478 0.596408
O O14 0.859356 0.500000 0.257978
O O15 0.690849 0.256505 0.175488
O O16 0.500000 0.734876 0.500000
O O17 0.447553 0.000000 0.382030
O O18 0.474780 0.500000 0.838679
O O19 0.500000 0.339599 0.000000
O O20 0.000000 0.000000 0.000000
#
# Coordination Sequence:
#
# PCOD8067241 Si02
#       8
#     2   4   4   4   4   4   4   2
#     4  10  24  46  76 107 136 180 228 287 360 420
#     4  12  24  42  64  95 138 187 241 292 356 438
#     4  12  26  47  74 104 142 192 240 293 364 435
#     4  11  23  38  61  95 137 185 237 294 361 437
#     4  10  23  39  60  95 136 181 236 298 362 435
#     4  11  22  39  66 100 138 181 239 296 355 429
#     4   9  20  41  68 101 137 177 232 291 351 423
#     4  12  30  54  77 113 152 187 243 309 361 436
#
# _framework density 23.182950999999999
#
# number of rings (size 3 to 8) (size 9 to 14) (size 15 to 20)
#    0.000    1.143    2.857    2.571    3.000    6.571 
#    0.000    1.429    0.000    0.000    0.000    0.000 
#    0.000    0.000    0.000    0.000    0.000    0.000 
#
# Total GULP energy -347068.970675 kJ/mol
# GULP energy per Si atom -12395.320381 kJ/mol
# Density = 2.313019 g / cm^3
# Si number density = 23.182951 Si / 1000 Ang^3
#
#
#
# Elastic Constant Matrix: (Units=GPa)
#
#
# Indices 1 2 3 4 5 6 
#
# 1 126.5770 21.4318 28.2515 0.0000 27.7798 0.0000
# 2 21.4318 124.0484 30.4781 0.0000 2.5719 0.0000
# 3 28.2515 30.4781 80.4518 0.0000 26.3220 0.0000
# 4 0.0000 0.0000 0.0000 20.6263 0.0000 13.6832
# 5 27.7798 2.5719 26.3220 0.0000 28.4042 0.0000
# 6 0.0000 0.0000 0.0000 13.6832 0.0000 33.0257
#
#
#
# Elastic Compliance Matrix: (Units=1/GPa)
#
#
# Indices 1 2 3 4 5 6 
#
# 1 0.010368 -0.001668 0.000372 0.000000 -0.010334 0.000000
# 2 -0.001668 0.009381 -0.004627 0.000000 0.005070 0.000000
# 3 0.000372 -0.004627 0.020140 0.000000 -0.018609 0.000000
# 4 0.000000 0.000000 0.000000 0.066858 0.000000 -0.027701
# 5 -0.010334 0.005070 -0.018609 0.000000 0.062099 0.000000
# 6 0.000000 0.000000 0.000000 -0.027701 0.000000 0.041756
#
#
# Mechanical properties :
#
#
# Convention : Reuss Voigt Hill
#
# Bulk Modulus (GPa) = 35.65913 54.60000 45.12956
# Shear Modulus (GPa) = 21.57068 33.13894 27.35481
#
# Velocity S-wave (km/s) = 3.05364 3.78491 3.43877
# Velocity P-wave (km/s) = 5.27712 6.53480 5.93935
#
# Compressibility (1/GPa) = 0.02804331
#
# Stress axis : x y z
#
# Youngs Moduli (GPa) = 96.45378 106.59497 49.65145
#
# Poissons Ratio (x) = 0.17785 -0.01849
# Poissons Ratio (y) = 0.16093 0.22973
# Poissons Ratio (z) = -0.03591 0.49320
#
# Static dielectric constant tensor:
#      x y z
#    x 4.188020 0.000000 0.119910 
#    y 0.000000 4.888430 0.000000 
#    z 0.119910 0.000000 4.011150 
# 
# 
# High freq. dielectric constant tensor:
#      x y z
#    x 1.922680 0.000000 0.009490 
#    y 0.000000 1.929200 0.000000 
#    z 0.009490 0.000000 1.897520 
# 
# From -- ./inp_files/63949.got.cif
#   From: 2010.06.25/outbox.cif.g09.slc.cpg/sg10_32_cif.got.tgz:63949.got - 2010.06.27 22:07:45.
