data_PCOD8067492
_publ_section_title
;
Structure prediction by ZEFSAII (Michael W. Deem and Ramdas Pophale) SiO2 
 PCOD8067492
Probable space group: P 2/M
;
_chemical_formula_sum "Si O2"
_cell_formula_units_Z 20
_cell_length_a 19.110977
_cell_length_b 10.069184
_cell_length_c 11.830130
_cell_angle_alpha 90.000000
_cell_angle_beta 153.948388
_cell_angle_gamma 90.000000
_cell_volume 999.792406
_symmetry_space_group_name_H-M "P 2/M"
_symmetry_group_IT_number 10
_symmetry_cell_setting 'monoclinic'
loop_
_space_group_symop_operation_xyz
x,y,z
-x,y,-z
-x,-y,-z
x,-y,z
loop_
_atom_site_type_symbol
_atom_site_label
_atom_site_fract_x
_atom_site_fract_y
_atom_site_fract_z
Si Si1 0.756746 0.500000 0.342615
Si Si2 0.259315 0.000000 0.725610
Si Si3 0.458415 0.500000 0.751687
Si Si4 0.731143 0.844591 0.880483
Si Si5 0.052621 0.748780 0.453824
Si Si6 0.384325 0.000000 0.668454
Si Si7 0.568312 0.768122 0.422589
O O1 0.673162 0.500000 0.342214
O O2 0.864009 0.630661 0.492520
O O3 0.632551 0.500000 0.059538
O O4 0.172608 0.129596 0.647548
O O5 0.258553 0.000000 0.588350
O O6 0.437173 0.000000 0.027677
O O7 0.438013 0.624996 0.641812
O O8 0.676013 0.762027 0.691030
O O9 0.609796 0.817609 0.807040
O O10 0.729981 0.000000 0.849287
O O11 0.905277 0.797077 0.165751
O O12 0.000000 0.695926 0.500000
O O13 0.350713 0.131207 0.547536
#
# Coordination Sequence:
#
# PCOD8067492 Si02
#       7
#     2   2   2   4   4   2   4
#     4  11  25  45  63  94 128 168 208 259 312 383
#     4  11  23  35  59  94 118 160 216 257 304 371
#     4  11  24  44  67  91 128 164 216 259 307 370
#     4  11  22  41  65  97 129 160 214 263 308 375
#     4  12  24  40  65  92 130 163 204 262 323 365
#     4  11  20  38  61  85 122 166 212 255 305 366
#     4  11  22  40  67  91 123 171 209 258 311 365
#
# _framework density 20.004154
#
# number of rings (size 3 to 8) (size 9 to 14) (size 15 to 20)
#    0.000    0.800    3.000    6.000    0.000    6.400 
#    0.000    6.000    0.000    0.000    0.000    0.000 
#    0.000    0.000    0.000    0.000    0.000    0.000 
#
# Total GULP energy -248146.832149 kJ/mol
# GULP energy per Si atom -12407.341607 kJ/mol
# Density = 1.995862 g / cm^3
# Si number density = 20.004154 Si / 1000 Ang^3
#
#
#
# Elastic Constant Matrix: (Units=GPa)
#
#
# Indices 1 2 3 4 5 6 
#
# 1 99.4689 37.1556 30.4293 0.0000 -7.2536 0.0000
# 2 37.1556 143.5608 35.7049 0.0000 -5.2308 0.0000
# 3 30.4293 35.7049 85.9183 0.0000 0.6361 0.0000
# 4 0.0000 0.0000 0.0000 56.2176 0.0000 18.9020
# 5 -7.2536 -5.2308 0.6361 0.0000 28.3693 0.0000
# 6 0.0000 0.0000 0.0000 18.9020 0.0000 62.1307
#
#
#
# Elastic Compliance Matrix: (Units=1/GPa)
#
#
# Indices 1 2 3 4 5 6 
#
# 1 0.012113 -0.002188 -0.003401 0.000000 0.002770 0.000000
# 2 -0.002188 0.008229 -0.002652 0.000000 0.001017 0.000000
# 3 -0.003401 -0.002652 0.013958 0.000000 -0.001672 0.000000
# 4 0.000000 0.000000 0.000000 0.019815 0.000000 -0.006028
# 5 0.002770 0.001017 -0.001672 0.000000 0.036183 0.000000
# 6 0.000000 0.000000 0.000000 -0.006028 0.000000 0.017929
#
#
# Mechanical properties :
#
#
# Convention : Reuss Voigt Hill
#
# Bulk Modulus (GPa) = 56.12664 59.50306 57.81485
# Shear Modulus (GPa) = 38.27051 44.38739 41.32895
#
# Velocity S-wave (km/s) = 4.37868 4.71564 4.55028
# Velocity P-wave (km/s) = 7.32681 7.71101 7.52136
#
# Compressibility (1/GPa) = 0.01781685
#
# Stress axis : x y z
#
# Youngs Moduli (GPa) = 82.55395 121.52574 71.64307
#
# Poissons Ratio (x) = 0.26593 0.24368
# Poissons Ratio (y) = 0.18065 0.19001
# Poissons Ratio (z) = 0.28079 0.32230
#
# Static dielectric constant tensor:
#      x y z
#    x 3.863630 0.000000 0.021800 
#    y 0.000000 3.529640 0.000000 
#    z 0.021800 0.000000 3.605490 
# 
# 
# High freq. dielectric constant tensor:
#      x y z
#    x 1.793230 0.000000 -0.004100 
#    y 0.000000 1.787200 0.000000 
#    z -0.004100 0.000000 1.779760 
# 
# From -- ./inp_files/53166.got.cif
#   From: 2010.06.25/outbox.cif.g09.slc.cpg/sg10_27_cif.got.tgz:53166.got - 2010.06.27 22:07:45.
