data_PCOD8067327
_publ_section_title
;
Structure prediction by ZEFSAII (Michael W. Deem and Ramdas Pophale) SiO2 
 PCOD8067327
Probable space group: P 2/M
;
_chemical_formula_sum "Si O2"
_cell_formula_units_Z 32
_cell_length_a 9.190615
_cell_length_b 17.936218
_cell_length_c 12.755046
_cell_angle_alpha 90.000000
_cell_angle_beta 117.367653
_cell_angle_gamma 90.000000
_cell_volume 1867.270121
_symmetry_space_group_name_H-M "P 2/M"
_symmetry_group_IT_number 10
_symmetry_cell_setting 'monoclinic'
loop_
_space_group_symop_operation_xyz
x,y,z
-x,y,-z
-x,-y,-z
x,-y,z
loop_
_atom_site_type_symbol
_atom_site_label
_atom_site_fract_x
_atom_site_fract_y
_atom_site_fract_z
Si Si1 0.975744 0.713642 0.114883
Si Si2 0.840411 0.418600 0.874026
Si Si3 0.679698 0.913887 0.541129
Si Si4 0.001992 0.141687 0.258991
Si Si5 0.375002 0.663882 0.044129
Si Si6 0.536015 0.825646 0.892163
Si Si7 0.256150 0.911643 0.678457
Si Si8 0.160434 0.081570 0.988139
O O1 0.107599 0.647729 0.188450
O O2 0.004613 0.776932 0.209293
O O3 0.000000 0.737875 0.000000
O O4 0.789028 0.688497 0.071113
O O5 0.809655 0.500000 0.811008
O O6 0.675663 0.396433 0.884052
O O7 0.000000 0.423889 0.000000
O O8 0.500000 0.877674 0.500000
O O9 0.808316 0.879043 0.665325
O O10 0.739809 0.900191 0.443943
O O11 0.670430 0.000000 0.567222
O O12 0.908282 0.131233 0.338496
O O13 0.893446 0.087626 0.150289
O O14 0.463061 0.736351 0.125790
O O15 0.500000 0.628215 0.000000
O O16 0.411187 0.868708 0.777238
O O17 0.717299 0.855793 0.929423
O O18 0.500000 0.845969 0.000000
O O19 0.257605 0.000000 0.706952
O O20 0.238887 0.000000 0.031904
O O21 0.000000 0.094831 0.000000
#
# Coordination Sequence:
#
# PCOD8067327 Si02
#       8
#     4   4   4   4   4   4   4   4
#     4   9  18  31  50  74 102 132 164 201 251 298
#     4   8  16  29  46  67  98 135 165 191 235 303
#     4  10  24  40  52  68  92 130 175 221 263 295
#     4  12  20  35  54  70  96 130 172 212 256 302
#     4   9  16  27  43  71 100 129 161 202 247 289
#     4  11  20  33  50  72 103 131 168 206 256 303
#     4  11  23  37  53  70  98 136 175 218 254 298
#     4  11  23  31  45  72  98 129 167 211 254 298
#
# _framework density 17.137316999999999
#
# number of rings (size 3 to 8) (size 9 to 14) (size 15 to 20)
#    0.000    2.125    2.500    3.000    3.500    1.750 
#    0.000    0.000    0.000    0.000    0.000    0.000 
#    0.000    6.500    0.000    0.000    0.000    0.250 
#
# Total GULP energy -396496.529972 kJ/mol
# GULP energy per Si atom -12390.516562 kJ/mol
# Density = 1.709831 g / cm^3
# Si number density = 17.137317 Si / 1000 Ang^3
#
#
#
# Elastic Constant Matrix: (Units=GPa)
#
#
# Indices 1 2 3 4 5 6 
#
# 1 106.6119 39.1114 17.1591 0.0000 5.0305 0.0000
# 2 39.1114 101.3167 17.5316 0.0000 -6.4415 0.0000
# 3 17.1591 17.5316 38.9803 0.0000 13.0743 0.0000
# 4 0.0000 0.0000 0.0000 8.0398 0.0000 -3.2830
# 5 5.0305 -6.4415 13.0743 0.0000 23.9390 0.0000
# 6 0.0000 0.0000 0.0000 -3.2830 0.0000 18.3863
#
#
#
# Elastic Compliance Matrix: (Units=1/GPa)
#
#
# Indices 1 2 3 4 5 6 
#
# 1 0.011382 -0.004110 -0.002434 0.000000 -0.002168 0.000000
# 2 -0.004110 0.013157 -0.006838 0.000000 0.008139 0.000000
# 3 -0.002434 -0.006838 0.037030 0.000000 -0.021552 0.000000
# 4 0.000000 0.000000 0.000000 0.134163 0.000000 0.023956
# 5 -0.002168 0.008139 -0.021552 0.000000 0.056189 0.000000
# 6 0.000000 0.000000 0.000000 0.023956 0.000000 0.058666
#
#
# Mechanical properties :
#
#
# Convention : Reuss Voigt Hill
#
# Bulk Modulus (GPa) = 28.73269 43.83478 36.28373
# Shear Modulus (GPa) = 14.32853 21.61348 17.97100
#
# Velocity S-wave (km/s) = 2.89468 3.55518 3.24180
# Velocity P-wave (km/s) = 5.28912 6.51817 5.93554
#
# Compressibility (1/GPa) = 0.03480356
#
# Stress axis : x y z
#
# Youngs Moduli (GPa) = 87.85925 76.00260 27.00525
#
# Poissons Ratio (x) = 0.31240 0.06574
# Poissons Ratio (y) = 0.36113 0.18466
# Poissons Ratio (z) = 0.21388 0.51971
#
# Static dielectric constant tensor:
#      x y z
#    x 3.467080 0.000000 0.091560 
#    y 0.000000 3.508970 0.000000 
#    z 0.091560 0.000000 2.801520 
# 
# 
# High freq. dielectric constant tensor:
#      x y z
#    x 1.686300 0.000000 0.002990 
#    y 0.000000 1.646510 0.000000 
#    z 0.002990 0.000000 1.611590 
# 
# From -- ./inp_files/43530.got.cif
#   From: 2010.06.25/outbox.cif.g09.slc.cpg/sg10_22_cif.got.tgz:43530.got - 2010.06.27 22:07:45.
