data_PCOD8067181
_publ_section_title
;
Structure prediction by ZEFSAII (Michael W. Deem and Ramdas Pophale) SiO2 
 PCOD8067181
Probable space group: P 2/M
;
_chemical_formula_sum "Si O2"
_cell_formula_units_Z 20
_cell_length_a 9.119087
_cell_length_b 8.509025
_cell_length_c 12.507685
_cell_angle_alpha 90.000000
_cell_angle_beta 89.295659
_cell_angle_gamma 90.000000
_cell_volume 970.454723
_symmetry_space_group_name_H-M "P 2/M"
_symmetry_group_IT_number 10
_symmetry_cell_setting 'monoclinic'
loop_
_space_group_symop_operation_xyz
x,y,z
-x,y,-z
-x,-y,-z
x,-y,z
loop_
_atom_site_type_symbol
_atom_site_label
_atom_site_fract_x
_atom_site_fract_y
_atom_site_fract_z
Si Si1 0.829740 0.316878 0.898518
Si Si2 0.664262 0.682269 0.308113
Si Si3 0.650584 0.817329 0.711645
Si Si4 0.138374 0.182539 0.874857
Si Si5 0.169112 0.180899 0.499664
O O1 0.819905 0.500000 0.923766
O O2 0.703532 0.269254 0.817680
O O3 0.989746 0.276951 0.849415
O O4 0.801916 0.223469 0.008309
O O5 0.664333 0.500000 0.278708
O O6 0.500542 0.743373 0.326050
O O7 0.738086 0.777148 0.211522
O O8 0.749132 0.708348 0.417634
O O9 0.769388 0.788612 0.618609
O O10 0.629184 0.000000 0.736762
O O11 0.099448 0.000000 0.868739
O O12 0.000000 0.228714 0.500000
O O13 0.191004 0.000000 0.534558
#
# Coordination Sequence:
#
# PCOD8067181 Si02
#       5
#     4   4   4   4   4
#     4  11  22  39  63  93 125 156 198 250 302 352
#     4  12  25  40  60  89 124 159 200 253 308 354
#     4  11  23  40  62  89 123 163 204 244 296 363
#     4  11  22  40  64  89 120 161 206 246 295 359
#     4  10  22  41  65  90 118 156 202 248 297 361
#
# _framework density 20.608896999999999
#
# number of rings (size 3 to 8) (size 9 to 14) (size 15 to 20)
#    0.000    1.000    0.000    9.000    0.000    6.800 
#    0.000    4.000    0.000    0.000    0.000    0.000 
#    0.000    0.000    0.000    0.000    0.000    0.000 
#
# Total GULP energy -248173.051649 kJ/mol
# GULP energy per Si atom -12408.652582 kJ/mol
# Density = 2.056199 g / cm^3
# Si number density = 20.608897 Si / 1000 Ang^3
#
#
#
# Elastic Constant Matrix: (Units=GPa)
#
#
# Indices 1 2 3 4 5 6 
#
# 1 58.7369 14.3862 34.9076 0.0000 52.1387 0.0000
# 2 14.3862 96.3947 20.3246 0.0000 3.4398 0.0000
# 3 34.9076 20.3246 77.4231 0.0000 9.4729 0.0000
# 4 0.0000 0.0000 0.0000 31.9049 0.0000 3.2660
# 5 52.1387 3.4398 9.4729 0.0000 -8.0539 0.0000
# 6 0.0000 0.0000 0.0000 3.2660 0.0000 29.7190
#
#
#
# Elastic Compliance Matrix: (Units=1/GPa)
#
#
# Indices 1 2 3 4 5 6 
#
# 1 0.003442 -0.000384 -0.003634 0.000000 0.017841 0.000000
# 2 -0.000384 0.011013 -0.002613 0.000000 -0.000856 0.000000
# 3 -0.003634 -0.002613 0.015959 0.000000 -0.005870 0.000000
# 4 0.000000 0.000000 0.000000 0.031700 0.000000 -0.003484
# 5 0.017841 -0.000856 -0.005870 0.000000 -0.015933 0.000000
# 6 0.000000 0.000000 0.000000 -0.003484 0.000000 0.034031
#
#
# Mechanical properties :
#
#
# Convention : Reuss Voigt Hill
#
# Bulk Modulus (GPa) = 58.30542 41.31017 49.80779
# Shear Modulus (GPa) = 50.40834 21.57642 35.99238
#
# Velocity S-wave (km/s) = 4.95102 3.23917 4.18359
# Velocity P-wave (km/s) = 7.81257 5.83763 6.89617
#
# Compressibility (1/GPa) = 0.01715106
#
# Stress axis : x y z
#
# Youngs Moduli (GPa) = 290.56842 90.80291 62.66237
#
# Poissons Ratio (x) = 0.03488 0.22770
# Poissons Ratio (y) = 0.11161 0.16374
# Poissons Ratio (z) = 1.05586 0.23727
#
# Static dielectric constant tensor:
#      x y z
#    x 3.779290 0.000000 -0.032670 
#    y 0.000000 3.830610 0.000000 
#    z -0.032670 0.000000 3.710190 
# 
# 
# High freq. dielectric constant tensor:
#      x y z
#    x 1.810700 0.000000 0.000300 
#    y 0.000000 1.816340 0.000000 
#    z 0.000300 0.000000 1.815510 
# 
# From -- ./inp_files/22281.got.cif
#   From: 2010.06.25/outbox.cif.g09.slc.cpg/sg10_12_cif.got.tgz:22281.got - 2010.06.27 22:07:45.
