data_PCOD8067315
_publ_section_title
;
Structure prediction by ZEFSAII (Michael W. Deem and Ramdas Pophale) SiO2 
 PCOD8067315
Probable space group: P 2/M
;
_chemical_formula_sum "Si O2"
_cell_formula_units_Z 32
_cell_length_a 14.809474
_cell_length_b 14.419946
_cell_length_c 20.775021
_cell_angle_alpha 90.000000
_cell_angle_beta 161.002617
_cell_angle_gamma 90.000000
_cell_volume 1444.205661
_symmetry_space_group_name_H-M "P 2/M"
_symmetry_group_IT_number 10
_symmetry_cell_setting 'monoclinic'
loop_
_space_group_symop_operation_xyz
x,y,z
-x,y,-z
-x,-y,-z
x,-y,z
loop_
_atom_site_type_symbol
_atom_site_label
_atom_site_fract_x
_atom_site_fract_y
_atom_site_fract_z
Si Si1 0.628701 0.740155 0.980999
Si Si2 0.678642 0.657784 0.428753
Si Si3 0.636394 0.302889 0.662225
Si Si4 0.736983 0.597692 0.212451
Si Si5 0.966891 0.829864 0.650914
Si Si6 0.496857 0.898847 0.421456
Si Si7 0.764804 0.104690 0.293876
Si Si8 0.190166 0.392062 0.005047
O O1 0.816385 0.757219 0.170540
O O2 0.334614 0.686158 0.792255
O O3 0.521227 0.840177 0.884854
O O4 0.809172 0.678988 0.054284
O O5 0.569891 0.645416 0.428081
O O6 0.459700 0.621612 0.229744
O O7 0.956831 0.598596 0.610164
O O8 0.746498 0.766860 0.462858
O O9 0.500000 0.308403 0.500000
O O10 0.681305 0.194186 0.714534
O O11 0.919333 0.359665 0.861017
O O12 0.712442 0.500000 0.235080
O O13 0.500000 0.596697 0.000000
O O14 0.133657 0.892213 0.712344
O O15 0.805388 0.887894 0.597446
O O16 0.500000 0.904955 0.500000
O O17 0.379267 0.000000 0.317280
O O18 0.000000 0.142738 0.500000
O O19 0.688835 0.000000 0.260063
O O20 0.165379 0.500000 0.967302
#
# Coordination Sequence:
#
# PCOD8067315 Si02
#       8
#     4   4   4   4   4   4   4   4
#     4  12  23  42  64  95 134 173 223 278 336 397
#     4  11  22  42  65  94 132 176 221 280 341 407
#     4  10  23  44  69  96 129 175 225 288 341 400
#     4  11  22  37  62  94 128 171 220 275 335 399
#     4  11  21  40  67  96 136 178 221 274 341 401
#     4   9  18  35  64 100 132 164 212 272 333 399
#     4  11  24  41  64  96 135 179 224 274 338 406
#     4  12  27  44  66  96 133 180 229 280 344 414
#
# _framework density 22.157509999999998
#
# number of rings (size 3 to 8) (size 9 to 14) (size 15 to 20)
#    0.000    1.125    2.500    4.875    0.000    3.250 
#    0.000    1.875    0.000    6.750    0.000    0.000 
#    0.000    0.000    0.000    0.000    0.000    0.000 
#
# Total GULP energy -396462.014408 kJ/mol
# GULP energy per Si atom -12389.437950 kJ/mol
# Density = 2.210708 g / cm^3
# Si number density = 22.157510 Si / 1000 Ang^3
#
#
#
# Elastic Constant Matrix: (Units=GPa)
#
#
# Indices 1 2 3 4 5 6 
#
# 1 79.3270 25.2295 19.0590 0.0000 9.6645 0.0000
# 2 25.2295 120.6455 38.8732 0.0000 6.7330 0.0000
# 3 19.0590 38.8732 102.7516 0.0000 10.2845 0.0000
# 4 0.0000 0.0000 0.0000 54.0531 0.0000 14.8353
# 5 9.6645 6.7330 10.2845 0.0000 33.6856 0.0000
# 6 0.0000 0.0000 0.0000 14.8353 0.0000 12.8374
#
#
#
# Elastic Compliance Matrix: (Units=1/GPa)
#
#
# Indices 1 2 3 4 5 6 
#
# 1 0.014064 -0.002308 -0.001421 0.000000 -0.003140 0.000000
# 2 -0.002308 0.009840 -0.003264 0.000000 -0.000308 0.000000
# 3 -0.001421 -0.003264 0.011475 0.000000 -0.002443 0.000000
# 4 0.000000 0.000000 0.000000 0.027094 0.000000 -0.031310
# 5 -0.003140 -0.000308 -0.002443 0.000000 0.031395 0.000000
# 6 0.000000 0.000000 0.000000 -0.031310 0.000000 0.114081
#
#
# Mechanical properties :
#
#
# Convention : Reuss Voigt Hill
#
# Bulk Modulus (GPa) = 46.74343 52.11639 49.42991
# Shear Modulus (GPa) = 21.82777 34.75272 28.29024
#
# Velocity S-wave (km/s) = 3.14206 3.96465 3.57708
# Velocity P-wave (km/s) = 5.85706 6.67307 6.27834
#
# Compressibility (1/GPa) = 0.02139338
#
# Stress axis : x y z
#
# Youngs Moduli (GPa) = 71.10316 101.62373 87.14462
#
# Poissons Ratio (x) = 0.23454 0.12386
# Poissons Ratio (y) = 0.16410 0.28443
# Poissons Ratio (z) = 0.10106 0.33168
#
# Static dielectric constant tensor:
#      x y z
#    x 4.182670 0.000000 0.409100 
#    y 0.000000 4.500370 0.000000 
#    z 0.409100 0.000000 4.018510 
# 
# 
# High freq. dielectric constant tensor:
#      x y z
#    x 1.868460 0.000000 0.017960 
#    y 0.000000 1.888110 0.000000 
#    z 0.017960 0.000000 1.851300 
# 
# From -- ./inp_files/85428.got.cif
#   From: 2010.06.25/outbox.cif.g09.slc.cpg/sg10_43_cif.got.tgz:85428.got - 2010.06.27 22:07:45.
