data_PCOD8067053
_publ_section_title
;
Structure prediction by ZEFSAII (Michael W. Deem and Ramdas Pophale) SiO2 
 PCOD8067053
Probable space group: P 2/M
;
_chemical_formula_sum "Si O2"
_cell_formula_units_Z 18
_cell_length_a 17.874897
_cell_length_b 10.761940
_cell_length_c 7.876398
_cell_angle_alpha 90.000000
_cell_angle_beta 37.253171
_cell_angle_gamma 90.000000
_cell_volume 917.190895
_symmetry_space_group_name_H-M "P 2/M"
_symmetry_group_IT_number 10
_symmetry_cell_setting 'monoclinic'
loop_
_space_group_symop_operation_xyz
x,y,z
-x,y,-z
-x,-y,-z
x,-y,z
loop_
_atom_site_type_symbol
_atom_site_label
_atom_site_fract_x
_atom_site_fract_y
_atom_site_fract_z
Si Si1 0.222980 0.641447 0.491991
Si Si2 0.042314 0.000000 0.168316
Si Si3 0.000000 0.204756 0.000000
Si Si4 0.343868 0.739158 0.944992
Si Si5 0.613860 0.353006 0.485364
Si Si6 0.789713 0.000000 0.808159
O O1 0.191012 0.500000 0.585292
O O2 0.312845 0.688478 0.479596
O O3 0.282399 0.655546 0.200516
O O4 0.095073 0.713308 0.723342
O O5 0.073723 0.878547 0.002268
O O6 0.894546 0.000000 0.473679
O O7 0.134365 0.000000 0.156640
O O8 0.308085 0.682313 0.825046
O O9 0.490689 0.730118 0.706218
O O10 0.298637 0.880750 0.045594
O O11 0.581799 0.500000 0.543463
#
# Coordination Sequence:
#
# PCOD8067053 Si02
#       6
#     4   2   2   4   4   2
#     4  11  22  38  61  90 119 153 195 240 289 345
#     4  10  22  40  61  79 118 158 193 237 297 342
#     4  11  21  40  62  86 115 155 198 242 288 347
#     4  11  21  39  60  87 117 156 195 237 289 346
#     4  10  22  39  61  88 121 155 189 236 297 350
#     4  11  22  39  60  86 113 156 198 240 286 348
#
# _framework density 19.625140999999999
#
# number of rings (size 3 to 8) (size 9 to 14) (size 15 to 20)
#    0.000    1.333    2.222    5.000    0.000    3.556 
#    0.000    4.444    0.000    5.333    0.000    0.000 
#    0.000    0.000    0.000    0.000    0.000    0.000 
#
# Total GULP energy -223214.986990 kJ/mol
# GULP energy per Si atom -12400.832611 kJ/mol
# Density = 1.958047 g / cm^3
# Si number density = 19.625141 Si / 1000 Ang^3
#
#
#
# Elastic Constant Matrix: (Units=GPa)
#
#
# Indices 1 2 3 4 5 6 
#
# 1 78.6659 35.3717 42.0515 0.0000 9.3753 0.0000
# 2 35.3717 92.2457 26.0864 0.0000 -8.4405 0.0000
# 3 42.0515 26.0864 99.1540 0.0000 20.1745 0.0000
# 4 0.0000 0.0000 0.0000 119.1557 0.0000 -75.3976
# 5 9.3753 -8.4405 20.1745 0.0000 31.0689 0.0000
# 6 0.0000 0.0000 0.0000 -75.3976 0.0000 148.0238
#
#
#
# Elastic Compliance Matrix: (Units=1/GPa)
#
#
# Indices 1 2 3 4 5 6 
#
# 1 0.018866 -0.005952 -0.005701 0.000000 -0.003608 0.000000
# 2 -0.005952 0.014637 -0.002882 0.000000 0.007644 0.000000
# 3 -0.005701 -0.002882 0.015060 0.000000 -0.008842 0.000000
# 4 0.000000 0.000000 0.000000 0.012384 0.000000 0.006308
# 5 -0.003608 0.007644 -0.008842 0.000000 0.041093 0.000000
# 6 0.000000 0.000000 0.000000 0.006308 0.000000 0.009969
#
#
# Mechanical properties :
#
#
# Convention : Reuss Voigt Hill
#
# Bulk Modulus (GPa) = 51.29907 53.00944 52.15425
# Shear Modulus (GPa) = 33.88052 70.75341 52.31697
#
# Velocity S-wave (km/s) = 4.15948 6.01088 5.16875
# Velocity P-wave (km/s) = 7.01888 8.67432 7.89014
#
# Compressibility (1/GPa) = 0.01949353
#
# Stress axis : x y z
#
# Youngs Moduli (GPa) = 53.00588 68.31825 66.39918
#
# Poissons Ratio (x) = 0.40663 0.37854
# Poissons Ratio (y) = 0.31549 0.19136
# Poissons Ratio (z) = 0.30219 0.19689
#
# Static dielectric constant tensor:
#      x y z
#    x 3.612710 0.000000 0.272680 
#    y 0.000000 3.528850 0.000000 
#    z 0.272680 0.000000 3.737840 
# 
# 
# High freq. dielectric constant tensor:
#      x y z
#    x 1.766890 0.000000 0.017410 
#    y 0.000000 1.767270 0.000000 
#    z 0.017410 0.000000 1.770680 
# 
# From -- ./inp_files/22216.got.cif
#   From: 2010.06.25/outbox.cif.g09.slc.cpg/sg10_12_cif.got.tgz:22216.got - 2010.06.27 22:07:45.
