data_PCOD8067487
_publ_section_title
;
Structure prediction by ZEFSAII (Michael W. Deem and Ramdas Pophale) SiO2 
 PCOD8067487
Probable space group: P 2/M
;
_chemical_formula_sum "Si O2"
_cell_formula_units_Z 28
_cell_length_a 10.106513
_cell_length_b 8.305680
_cell_length_c 29.910465
_cell_angle_alpha 90.000000
_cell_angle_beta 34.283357
_cell_angle_gamma 90.000000
_cell_volume 1414.258199
_symmetry_space_group_name_H-M "P 2/M"
_symmetry_group_IT_number 10
_symmetry_cell_setting 'monoclinic'
loop_
_space_group_symop_operation_xyz
x,y,z
-x,y,-z
-x,-y,-z
x,-y,z
loop_
_atom_site_type_symbol
_atom_site_label
_atom_site_fract_x
_atom_site_fract_y
_atom_site_fract_z
Si Si1 0.135702 0.312368 0.239073
Si Si2 0.911674 0.690617 0.091952
Si Si3 0.125832 0.186791 0.340056
Si Si4 0.354770 0.308804 0.920215
Si Si5 0.573224 0.686169 0.261449
Si Si6 0.361905 0.689560 0.494057
Si Si7 0.331339 0.816507 0.670511
O O1 0.087696 0.500000 0.243200
O O2 0.153692 0.287802 0.287070
O O3 0.377352 0.249243 0.148464
O O4 0.927524 0.209954 0.276434
O O5 0.916174 0.500000 0.087637
O O6 0.747520 0.758858 0.098015
O O7 0.803440 0.746763 0.169426
O O8 0.182106 0.750837 0.008725
O O9 0.350363 0.209664 0.308961
O O10 0.904877 0.253455 0.429062
O O11 0.091114 0.000000 0.338192
O O12 0.361895 0.500000 0.915637
O O13 0.520600 0.500000 0.265478
O O14 0.625669 0.705143 0.298809
O O15 0.500000 0.742110 0.500000
O O16 0.378380 0.500000 0.481885
O O17 0.476706 0.777499 0.420196
O O18 0.358234 0.000000 0.678033
#
# Coordination Sequence:
#
# PCOD8067487 Si02
#       7
#     4   4   4   4   4   4   4
#     4  11  20  36  61  90 118 156 204 247 289 348
#     4   8  14  28  54  88 119 149 191 249 297 334
#     4  12  24  38  61  91 124 157 193 241 298 355
#     4   8  14  27  54  90 119 145 193 252 294 333
#     4  11  22  40  63  88 120 160 203 245 293 352
#     4  11  23  41  66  91 116 150 200 249 289 344
#     4  12  26  42  60  86 123 160 194 242 304 359
#
# _framework density 19.798365
#
# number of rings (size 3 to 8) (size 9 to 14) (size 15 to 20)
#    0.000    1.571    2.857    4.714    0.000    1.143 
#    0.000    3.571    0.000    8.571    0.000    0.000 
#    0.000    0.000    0.000    0.000    0.000    0.000 
#
# Total GULP energy -347184.061756 kJ/mol
# GULP energy per Si atom -12399.430777 kJ/mol
# Density = 1.975330 g / cm^3
# Si number density = 19.798365 Si / 1000 Ang^3
#
#
#
# Elastic Constant Matrix: (Units=GPa)
#
#
# Indices 1 2 3 4 5 6 
#
# 1 80.7724 -0.0546 55.3767 0.0000 1.1537 0.0000
# 2 -0.0546 43.2289 6.5477 0.0000 -1.6321 0.0000
# 3 55.3767 6.5477 151.3097 0.0000 -19.2022 0.0000
# 4 0.0000 0.0000 0.0000 -1.7654 0.0000 -3.5116
# 5 1.1537 -1.6321 -19.2022 0.0000 30.4402 0.0000
# 6 0.0000 0.0000 0.0000 -3.5116 0.0000 20.3985
#
#
#
# Elastic Compliance Matrix: (Units=1/GPa)
#
#
# Indices 1 2 3 4 5 6 
#
# 1 0.017241 0.000890 -0.006984 0.000000 -0.005012 0.000000
# 2 0.000890 0.023344 -0.001284 0.000000 0.000408 0.000000
# 3 -0.006984 -0.001284 0.010050 0.000000 0.006536 0.000000
# 4 0.000000 0.000000 0.000000 -0.421955 0.000000 -0.072639
# 5 -0.005012 0.000408 0.006536 0.000000 0.037186 0.000000
# 6 0.000000 0.000000 0.000000 -0.072639 0.000000 0.036519
#
#
# Mechanical properties :
#
#
# Convention : Reuss Voigt Hill
#
# Bulk Modulus (GPa) = 27.87197 44.33896 36.10547
# Shear Modulus (GPa) = -18.45703 24.04407 2.79352
#
# Velocity S-wave (km/s) = -3.05659 3.48867 1.18914
# Velocity P-wave (km/s) = 1.28510 6.21865 4.49016
#
# Compressibility (1/GPa) = 0.03587834
#
# Stress axis : x y z
#
# Youngs Moduli (GPa) = 58.00078 42.83803 99.50094
#
# Poissons Ratio (x) = -0.03815 0.69496
# Poissons Ratio (y) = -0.05165 0.12779
# Poissons Ratio (z) = 0.40511 0.05502
#
# Static dielectric constant tensor:
#      x y z
#    x 3.410610 0.000000 -0.151290 
#    y 0.000000 3.325220 0.000000 
#    z -0.151290 0.000000 4.132280 
# 
# 
# High freq. dielectric constant tensor:
#      x y z
#    x 1.747840 0.000000 -0.010010 
#    y 0.000000 1.752640 0.000000 
#    z -0.010010 0.000000 1.794790 
# 
# From -- ./inp_files/91973.got.cif
#   From: 2010.06.25/outbox.cif.g09.slc.cpg/sg10_46_cif.got.tgz:91973.got - 2010.06.27 22:07:45.
