data_PCOD8067266
_publ_section_title
;
Structure prediction by ZEFSAII (Michael W. Deem and Ramdas Pophale) SiO2 
 PCOD8067266
Probable space group: P 2/M
;
_chemical_formula_sum "Si O2"
_cell_formula_units_Z 24
_cell_length_a 12.651828
_cell_length_b 8.980003
_cell_length_c 10.893627
_cell_angle_alpha 90.000000
_cell_angle_beta 91.271921
_cell_angle_gamma 90.000000
_cell_volume 1237.357633
_symmetry_space_group_name_H-M "P 2/M"
_symmetry_group_IT_number 10
_symmetry_cell_setting 'monoclinic'
loop_
_space_group_symop_operation_xyz
x,y,z
-x,y,-z
-x,-y,-z
x,-y,z
loop_
_atom_site_type_symbol
_atom_site_label
_atom_site_fract_x
_atom_site_fract_y
_atom_site_fract_z
Si Si1 0.958573 0.825344 0.633309
Si Si2 0.752588 0.324246 0.717499
Si Si3 0.736936 0.668169 0.993345
Si Si4 0.456638 0.828925 0.363594
Si Si5 0.345763 0.174770 0.793255
Si Si6 0.859522 0.668414 0.225389
O O1 0.843174 0.755988 0.642936
O O2 0.000000 0.784121 0.500000
O O3 0.035815 0.757198 0.737256
O O4 0.951924 0.000000 0.654722
O O5 0.769426 0.500000 0.709191
O O6 0.757822 0.267780 0.858749
O O7 0.641512 0.279571 0.656402
O O8 0.692340 0.500000 0.983450
O O9 0.650453 0.768911 0.064405
O O10 0.846157 0.670667 0.075968
O O11 0.500000 0.805623 0.500000
O O12 0.546122 0.779565 0.269523
O O13 0.422415 0.000000 0.341120
O O14 0.246375 0.253817 0.720913
O O15 0.326203 0.000000 0.786733
O O16 0.867624 0.500000 0.275756
#
# Coordination Sequence:
#
# PCOD8067266 Si02
#       6
#     4   4   4   4   4   4
#     4  11  25  42  61  86 121 158 195 242 296 352
#     4  11  24  41  61  89 120 153 199 246 295 351
#     4   8  19  38  59  87 122 155 189 244 300 347
#     4  10  23  41  60  85 122 161 196 243 298 349
#     4   9  18  35  61  88 116 155 199 238 289 352
#     4   9  19  38  62  87 119 154 194 240 293 349
#
# _framework density 19.396170000000001
#
# number of rings (size 3 to 8) (size 9 to 14) (size 15 to 20)
#    1.000    1.333    0.000    1.500    2.333    5.667 
#    0.000    6.667    0.000    0.000    0.000    0.000 
#    0.000    0.000    0.000    0.000    0.000    0.000 
#
# Total GULP energy -297502.536798 kJ/mol
# GULP energy per Si atom -12395.939033 kJ/mol
# Density = 1.935202 g / cm^3
# Si number density = 19.396170 Si / 1000 Ang^3
#
#
#
# Elastic Constant Matrix: (Units=GPa)
#
#
# Indices 1 2 3 4 5 6 
#
# 1 119.7640 52.6752 41.6819 0.0000 -8.4806 0.0000
# 2 52.6752 87.9964 44.1051 0.0000 -10.0330 0.0000
# 3 41.6819 44.1051 91.0354 0.0000 -10.2817 0.0000
# 4 0.0000 0.0000 0.0000 20.7969 0.0000 8.7755
# 5 -8.4806 -10.0330 -10.2817 0.0000 30.9025 0.0000
# 6 0.0000 0.0000 0.0000 8.7755 0.0000 30.6338
#
#
#
# Elastic Compliance Matrix: (Units=1/GPa)
#
#
# Indices 1 2 3 4 5 6 
#
# 1 0.011794 -0.005710 -0.002574 0.000000 0.000526 0.000000
# 2 -0.005710 0.017969 -0.005828 0.000000 0.002328 0.000000
# 3 -0.002574 -0.005828 0.015267 0.000000 0.002481 0.000000
# 4 0.000000 0.000000 0.000000 0.054696 0.000000 -0.015668
# 5 0.000526 0.002328 0.002481 0.000000 0.034085 0.000000
# 6 0.000000 0.000000 0.000000 -0.015668 0.000000 0.037132
#
#
# Mechanical properties :
#
#
# Convention : Reuss Voigt Hill
#
# Bulk Modulus (GPa) = 59.50507 63.96891 61.73699
# Shear Modulus (GPa) = 24.41760 27.15556 25.78658
#
# Velocity S-wave (km/s) = 3.55193 3.74578 3.65014
# Velocity P-wave (km/s) = 6.89688 7.19441 7.04722
#
# Compressibility (1/GPa) = 0.01680529
#
# Stress axis : x y z
#
# Youngs Moduli (GPa) = 84.78644 55.65250 65.49906
#
# Poissons Ratio (x) = 0.31776 0.16862
# Poissons Ratio (y) = 0.48411 0.38175
# Poissons Ratio (z) = 0.21828 0.32436
#
# Static dielectric constant tensor:
#      x y z
#    x 3.364740 0.000000 -0.054940 
#    y 0.000000 3.566970 0.000000 
#    z -0.054940 0.000000 3.531170 
# 
# 
# High freq. dielectric constant tensor:
#      x y z
#    x 1.746220 0.000000 0.000100 
#    y 0.000000 1.761990 0.000000 
#    z 0.000100 0.000000 1.749750 
# 
# From -- ./inp_files/45126.got.cif
#   From: 2010.06.25/outbox.cif.g09.slc.cpg/sg10_23_cif.got.tgz:45126.got - 2010.06.27 22:07:45.
