data_PCOD8067505
_publ_section_title
;
Structure prediction by ZEFSAII (Michael W. Deem and Ramdas Pophale) SiO2 
 PCOD8067505
Probable space group: P 2/M
;
_chemical_formula_sum "Si O2"
_cell_formula_units_Z 32
_cell_length_a 22.826324
_cell_length_b 9.188449
_cell_length_c 12.433987
_cell_angle_alpha 90.000000
_cell_angle_beta 50.659947
_cell_angle_gamma 90.000000
_cell_volume 2016.931830
_symmetry_space_group_name_H-M "P 2/M"
_symmetry_group_IT_number 10
_symmetry_cell_setting 'monoclinic'
loop_
_space_group_symop_operation_xyz
x,y,z
-x,y,-z
-x,-y,-z
x,-y,z
loop_
_atom_site_type_symbol
_atom_site_label
_atom_site_fract_x
_atom_site_fract_y
_atom_site_fract_z
Si Si1 0.345659 0.166225 0.248230
Si Si2 0.068118 0.672234 0.696804
Si Si3 0.088978 0.839968 0.877748
Si Si4 0.820962 0.164577 0.579427
Si Si5 0.783029 0.830763 0.869050
Si Si6 0.909709 0.828623 0.888688
Si Si7 0.358377 0.670856 0.011627
Si Si8 0.478364 0.662743 0.150246
O O1 0.259297 0.176552 0.391408
O O2 0.408469 0.228418 0.259251
O O3 0.366058 0.000000 0.195642
O O4 0.349116 0.265165 0.140211
O O5 0.061792 0.500000 0.706412
O O6 0.107555 0.725824 0.762034
O O7 0.119879 0.721863 0.537534
O O8 0.985520 0.739575 0.776458
O O9 0.119236 0.000000 0.807770
O O10 0.123568 0.793012 0.953167
O O11 0.000000 0.848200 0.000000
O O12 0.810469 0.204590 0.716734
O O13 0.852609 0.000000 0.531645
O O14 0.847433 0.777534 0.875767
O O15 0.765414 0.000000 0.903649
O O16 0.705121 0.746096 0.989382
O O17 0.928593 0.000000 0.856764
O O18 0.342903 0.500000 0.034390
O O19 0.445093 0.702276 0.871261
O O20 0.451587 0.500000 0.210069
O O21 0.500000 0.674372 0.000000
#
# Coordination Sequence:
#
# PCOD8067505 Si02
#       8
#     4   4   4   4   4   4   4   4
#     4   9  16  25  39  57  76 105 144 180 209 240
#     4  11  21  30  44  65  86 110 142 178 212 249
#     4   8  15  30  50  66  81 104 133 170 218 261
#     4   9  18  31  43  58  85 117 145 174 210 249
#     4   9  18  31  46  63  83 112 148 179 206 244
#     4   9  18  33  50  65  83 109 140 175 217 257
#     4   9  16  25  37  55  82 113 139 167 208 251
#     4   8  14  23  35  53  78 108 138 168 206 249
#
# _framework density 15.865682
#
# number of rings (size 3 to 8) (size 9 to 14) (size 15 to 20)
#    0.000    3.000    0.000    4.125    0.000    8.500 
#    0.000    2.500    0.000    0.000    0.000    0.000 
#    0.000    1.000    0.000   11.250    0.000    7.750 
#
# Total GULP energy -396489.280756 kJ/mol
# GULP energy per Si atom -12390.290024 kJ/mol
# Density = 1.582957 g / cm^3
# Si number density = 15.865682 Si / 1000 Ang^3
#
#
#
# Elastic Constant Matrix: (Units=GPa)
#
#
# Indices 1 2 3 4 5 6 
#
# 1 121.6389 62.6609 48.7683 0.0000 -10.8408 0.0000
# 2 62.6609 83.9063 24.9414 0.0000 -7.3624 0.0000
# 3 48.7683 24.9414 24.9998 0.0000 2.0534 0.0000
# 4 0.0000 0.0000 0.0000 10.8337 0.0000 -8.0865
# 5 -10.8408 -7.3624 2.0534 0.0000 13.0064 0.0000
# 6 0.0000 0.0000 0.0000 -8.0865 0.0000 22.4647
#
#
#
# Elastic Compliance Matrix: (Units=1/GPa)
#
#
# Indices 1 2 3 4 5 6 
#
# 1 0.109319 -0.006549 -0.216710 0.000000 0.121624 0.000000
# 2 -0.006549 0.019577 -0.007312 0.000000 0.006777 0.000000
# 3 -0.216710 -0.007312 0.491594 0.000000 -0.262378 0.000000
# 4 0.000000 0.000000 0.000000 0.126216 0.000000 0.045433
# 5 0.121624 0.006777 -0.262378 0.000000 0.223518 0.000000
# 6 0.000000 0.000000 0.000000 0.045433 0.000000 0.060869
#
#
# Mechanical properties :
#
#
# Convention : Reuss Voigt Hill
#
# Bulk Modulus (GPa) = 6.27561 55.92068 31.09814
# Shear Modulus (GPa) = 3.23551 15.53926 9.38738
#
# Velocity S-wave (km/s) = 1.42959 3.13297 2.43508
# Velocity P-wave (km/s) = 2.58632 6.95774 5.24877
#
# Compressibility (1/GPa) = 0.15934718
#
# Stress axis : x y z
#
# Youngs Moduli (GPa) = 9.14751 51.07935 2.03420
#
# Poissons Ratio (x) = 0.33454 0.44083
# Poissons Ratio (y) = 0.05991 0.01487
# Poissons Ratio (z) = 1.98236 0.37349
#
# Static dielectric constant tensor:
#      x y z
#    x 3.587040 0.000000 -0.189550 
#    y 0.000000 3.076310 0.000000 
#    z -0.189550 0.000000 2.775640 
# 
# 
# High freq. dielectric constant tensor:
#      x y z
#    x 1.605970 0.000000 -0.018990 
#    y 0.000000 1.613000 0.000000 
#    z -0.018990 0.000000 1.557160 
# 
# From -- ./inp_files/56440.got.cif
#   From: 2010.06.25/outbox.cif.g09.slc.cpg/sg10_29_cif.got.tgz:56440.got - 2010.06.27 22:07:45.
