data_PCOD8067771
_publ_section_title
;
Structure prediction by ZEFSAII (Michael W. Deem and Ramdas Pophale) SiO2 
 PCOD8067771
Probable space group: P 2/M
;
_chemical_formula_sum "Si O2"
_cell_formula_units_Z 16
_cell_length_a 15.350512
_cell_length_b 8.863709
_cell_length_c 20.059496
_cell_angle_alpha 90.000000
_cell_angle_beta 19.018105
_cell_angle_gamma 90.000000
_cell_volume 889.403103
_symmetry_space_group_name_H-M "P 2/M"
_symmetry_group_IT_number 10
_symmetry_cell_setting 'monoclinic'
loop_
_space_group_symop_operation_xyz
x,y,z
-x,y,-z
-x,-y,-z
x,-y,z
loop_
_atom_site_type_symbol
_atom_site_label
_atom_site_fract_x
_atom_site_fract_y
_atom_site_fract_z
Si Si1 0.843193 0.321637 0.548527
Si Si2 0.243799 0.321352 0.643510
Si Si3 0.716883 0.828668 0.025069
Si Si4 0.954171 0.828895 0.334724
O O1 0.843477 0.500000 0.544244
O O2 0.541577 0.264268 0.768015
O O3 0.000000 0.263032 0.500000
O O4 0.995538 0.256301 0.374210
O O5 0.500000 0.269464 0.500000
O O6 0.215065 0.500000 0.661420
O O7 0.269546 0.255696 0.549288
O O8 0.977639 0.249642 0.870473
O O9 0.688440 0.000000 0.071367
O O10 0.764773 0.825136 0.909824
O O11 0.860524 0.000000 0.415675
#
# Coordination Sequence:
#
# PCOD8067771 Si02
#       4
#     4   4   4   4
#     4  11  23  37  56  81 110 145 183 226 272 321
#     4   9  17  33  58  83 110 143 177 220 272 323
#     4   9  20  36  56  81 111 144 180 224 270 320
#     4   9  20  36  56  81 111 144 180 224 270 320
#
# _framework density 17.989594
#
# number of rings (size 3 to 8) (size 9 to 14) (size 15 to 20)
#    1.500    1.000    0.000    2.250    0.000    5.000 
#    0.000    6.250    0.000    7.500    0.000    0.000 
#    0.000    0.000    0.000    0.000    0.000    0.000 
#
# Total GULP energy -198254.039368 kJ/mol
# GULP energy per Si atom -12390.877460 kJ/mol
# Density = 1.794865 g / cm^3
# Si number density = 17.989594 Si / 1000 Ang^3
#
#
#
# Elastic Constant Matrix: (Units=GPa)
#
#
# Indices 1 2 3 4 5 6 
#
# 1 45.5842 15.0827 -16.4737 0.0000 0.1595 0.0000
# 2 15.0827 80.9728 2.8045 0.0000 -1.9622 0.0000
# 3 -16.4737 2.8045 42.4172 0.0000 -3.0383 0.0000
# 4 0.0000 0.0000 0.0000 18.9910 0.0000 10.3590
# 5 0.1595 -1.9622 -3.0383 0.0000 25.1245 0.0000
# 6 0.0000 0.0000 0.0000 10.3590 0.0000 25.8717
#
#
#
# Elastic Compliance Matrix: (Units=1/GPa)
#
#
# Indices 1 2 3 4 5 6 
#
# 1 0.027831 -0.005555 0.011230 0.000000 0.000747 0.000000
# 2 -0.005555 0.013506 -0.002998 0.000000 0.000727 0.000000
# 3 0.011230 -0.002998 0.028359 0.000000 0.003124 0.000000
# 4 0.000000 0.000000 0.000000 0.067371 0.000000 -0.026975
# 5 0.000747 0.000727 0.003124 0.000000 0.040232 0.000000
# 6 0.000000 0.000000 0.000000 -0.026975 0.000000 0.049453
#
#
# Mechanical properties :
#
#
# Convention : Reuss Voigt Hill
#
# Bulk Modulus (GPa) = 13.32466 19.08901 16.20683
# Shear Modulus (GPa) = 20.29102 25.16814 22.72958
#
# Velocity S-wave (km/s) = 3.36211 3.74443 3.55841
# Velocity P-wave (km/s) = 4.74286 5.41558 5.09034
#
# Compressibility (1/GPa) = 0.07504884
#
# Stress axis : x y z
#
# Youngs Moduli (GPa) = 35.93102 74.04114 35.26262
#
# Poissons Ratio (x) = 0.41129 -0.39599
# Poissons Ratio (y) = 0.19959 0.10573
# Poissons Ratio (z) = -0.40349 0.22199
#
# Static dielectric constant tensor:
#      x y z
#    x 3.228050 0.000000 -0.013090 
#    y 0.000000 3.372740 0.000000 
#    z -0.013090 0.000000 3.090760 
# 
# 
# High freq. dielectric constant tensor:
#      x y z
#    x 1.676920 0.000000 0.001930 
#    y 0.000000 1.716440 0.000000 
#    z 0.001930 0.000000 1.679100 
# 
# From -- ./inp_files/10418.got.cif
#   From: 2010.06.25/outbox.cif.g09.slc.cpg/sg10_6_cif.got.tgz:10418.got - 2010.06.27 22:07:45.
