data_PCOD8067105
_publ_section_title
;
Structure prediction by ZEFSAII (Michael W. Deem and Ramdas Pophale) SiO2 
 PCOD8067105
Probable space group: P 2/M
;
_chemical_formula_sum "Si O2"
_cell_formula_units_Z 32
_cell_length_a 24.876751
_cell_length_b 8.834469
_cell_length_c 15.230666
_cell_angle_alpha 90.000000
_cell_angle_beta 27.612899
_cell_angle_gamma 90.000000
_cell_volume 1551.452769
_symmetry_space_group_name_H-M "P 2/M"
_symmetry_group_IT_number 10
_symmetry_cell_setting 'monoclinic'
loop_
_space_group_symop_operation_xyz
x,y,z
-x,y,-z
-x,-y,-z
x,-y,z
loop_
_atom_site_type_symbol
_atom_site_label
_atom_site_fract_x
_atom_site_fract_y
_atom_site_fract_z
Si Si1 0.465802 0.328923 0.150083
Si Si2 0.651053 0.674285 0.024662
Si Si3 0.769735 0.174724 0.476300
Si Si4 0.122528 0.821324 0.363522
Si Si5 0.606966 0.325712 0.284341
Si Si6 0.931355 0.678728 0.381246
Si Si7 0.161667 0.178730 0.991571
Si Si8 0.119794 0.176544 0.859778
O O1 0.430329 0.500000 0.228615
O O2 0.359911 0.215579 0.311926
O O3 0.500000 0.323751 0.000000
O O4 0.568927 0.270711 0.063820
O O5 0.685734 0.500000 0.960966
O O6 0.770290 0.769658 0.852616
O O7 0.581810 0.696805 0.216828
O O8 0.863973 0.273307 0.391245
O O9 0.782044 0.207777 0.354699
O O10 0.794695 0.000000 0.462242
O O11 0.138640 0.743467 0.434593
O O12 0.000000 0.768484 0.500000
O O13 0.126419 0.000000 0.369371
O O14 0.500000 0.272046 0.500000
O O15 0.637129 0.500000 0.261683
O O16 0.714588 0.219904 0.149441
O O17 0.935831 0.500000 0.381091
O O18 0.061316 0.744005 0.194162
O O19 0.143479 0.000000 0.023412
O O20 0.156992 0.245417 0.899243
O O21 0.098660 0.000000 0.905761
O O22 0.000000 0.251602 0.000000
#
# Coordination Sequence:
#
# PCOD8067105 Si02
#       8
#     4   4   4   4   4   4   4   4
#     4  10  22  40  61  88 122 160 204 254 308 365
#     4  10  22  41  63  88 125 168 205 252 310 367
#     4  11  22  38  62  90 121 158 202 249 304 364
#     4  11  24  41  64  93 122 154 200 255 308 364
#     4  10  23  42  62  88 125 168 211 253 305 369
#     4  12  24  39  61  91 125 161 199 245 306 373
#     4  11  22  39  63  89 122 161 208 260 310 361
#     4   9  18  36  59  86 123 160 193 245 312 366
#
# _framework density 20.625831000000002
#
# number of rings (size 3 to 8) (size 9 to 14) (size 15 to 20)
#    0.000    1.500    1.250    3.750    1.750    5.500 
#    0.000    2.500    0.000    0.000    0.000    0.000 
#    0.000    0.000    0.000    0.000    0.000    0.000 
#
# Total GULP energy -396907.739061 kJ/mol
# GULP energy per Si atom -12403.366846 kJ/mol
# Density = 2.057889 g / cm^3
# Si number density = 20.625831 Si / 1000 Ang^3
#
#
#
# Elastic Constant Matrix: (Units=GPa)
#
#
# Indices 1 2 3 4 5 6 
#
# 1 105.7540 25.5396 36.2450 0.0000 2.0524 0.0000
# 2 25.5396 79.0774 39.6032 0.0000 1.1160 0.0000
# 3 36.2450 39.6032 124.7528 0.0000 1.0863 0.0000
# 4 0.0000 0.0000 0.0000 17.0625 0.0000 -6.6676
# 5 2.0524 1.1160 1.0863 0.0000 37.3570 0.0000
# 6 0.0000 0.0000 0.0000 -6.6676 0.0000 27.5944
#
#
#
# Elastic Compliance Matrix: (Units=1/GPa)
#
#
# Indices 1 2 3 4 5 6 
#
# 1 0.010846 -0.002283 -0.002422 0.000000 -0.000457 0.000000
# 2 -0.002283 0.015521 -0.004262 0.000000 -0.000214 0.000000
# 3 -0.002422 -0.004262 0.010073 0.000000 -0.000032 0.000000
# 4 0.000000 0.000000 0.000000 0.064719 0.000000 0.015638
# 5 -0.000457 -0.000214 -0.000032 0.000000 0.026801 0.000000
# 6 0.000000 0.000000 0.000000 0.015638 0.000000 0.040018
#
#
# Mechanical properties :
#
#
# Convention : Reuss Voigt Hill
#
# Bulk Modulus (GPa) = 54.04031 56.92887 55.48459
# Shear Modulus (GPa) = 26.03060 30.28254 28.15657
#
# Velocity S-wave (km/s) = 3.55637 3.83585 3.69875
# Velocity P-wave (km/s) = 6.56665 6.87597 6.72309
#
# Compressibility (1/GPa) = 0.01850470
#
# Stress axis : x y z
#
# Youngs Moduli (GPa) = 92.19601 64.42996 99.27668
#
# Poissons Ratio (x) = 0.14712 0.24049
# Poissons Ratio (y) = 0.21052 0.42310
# Poissons Ratio (z) = 0.22334 0.27459
#
# Static dielectric constant tensor:
#      x y z
#    x 4.002820 0.000000 0.154090 
#    y 0.000000 3.571750 0.000000 
#    z 0.154090 0.000000 3.763370 
# 
# 
# High freq. dielectric constant tensor:
#      x y z
#    x 1.817050 0.000000 0.010360 
#    y 0.000000 1.792270 0.000000 
#    z 0.010360 0.000000 1.812470 
# 
# From -- ./inp_files/71404.got.cif
#   From: 2010.06.25/outbox.cif.g09.slc.cpg/sg10_36_cif.got.tgz:71404.got - 2010.06.27 22:07:45.
