data_PCOD8067830
_publ_section_title
;
Structure prediction by ZEFSAII (Michael W. Deem and Ramdas Pophale) SiO2 
 PCOD8067830
Probable space group: P 2/M
;
_chemical_formula_sum "Si O2"
_cell_formula_units_Z 16
_cell_length_a 11.133463
_cell_length_b 7.604644
_cell_length_c 9.470314
_cell_angle_alpha 90.000000
_cell_angle_beta 104.337794
_cell_angle_gamma 90.000000
_cell_volume 776.839398
_symmetry_space_group_name_H-M "P 2/M"
_symmetry_group_IT_number 10
_symmetry_cell_setting 'monoclinic'
loop_
_space_group_symop_operation_xyz
x,y,z
-x,y,-z
-x,-y,-z
x,-y,z
loop_
_atom_site_type_symbol
_atom_site_label
_atom_site_fract_x
_atom_site_fract_y
_atom_site_fract_z
Si Si1 0.204489 0.695152 0.907143
Si Si2 0.618478 0.000000 0.132716
Si Si3 0.248533 0.702759 0.235913
Si Si4 0.553434 0.000000 0.668482
Si Si5 0.017782 0.795027 0.345414
O O1 0.261259 0.500000 0.909268
O O2 0.301137 0.827095 0.866786
O O3 0.074270 0.698294 0.788268
O O4 0.182198 0.738790 0.065938
O O5 0.571677 0.000000 0.277757
O O6 0.500000 0.000000 0.000000
O O7 0.289437 0.500000 0.264001
O O8 0.369243 0.823965 0.278927
O O9 0.156846 0.754804 0.335986
O O10 0.500000 0.000000 0.500000
O O11 0.000000 0.724147 0.500000
O O12 0.987663 0.000000 0.330832
#
# Coordination Sequence:
#
# PCOD8067830 Si02
#       5
#     4   2   4   2   4
#     4  11  24  42  69  99 128 167 215 266 318 382
#     4  12  24  45  68  93 127 174 217 264 314 374
#     4  11  24  44  68  97 129 168 215 265 321 382
#     4  12  28  45  66  93 133 172 217 266 316 376
#     4  11  24  41  68  99 132 168 210 264 328 385
#
# _framework density 20.596278999999999
#
# number of rings (size 3 to 8) (size 9 to 14) (size 15 to 20)
#    0.000    0.750    5.000    1.500    3.500    7.000 
#    0.000    0.000    0.000    0.000    0.000    0.000 
#    0.000    0.000    0.000    0.000    0.000    0.000 
#
# Total GULP energy -198472.018107 kJ/mol
# GULP energy per Si atom -12404.501132 kJ/mol
# Density = 2.054940 g / cm^3
# Si number density = 20.596279 Si / 1000 Ang^3
#
#
#
# Elastic Constant Matrix: (Units=GPa)
#
#
# Indices 1 2 3 4 5 6 
#
# 1 82.1705 39.9376 32.0386 0.0000 -25.0359 0.0000
# 2 39.9376 123.0386 45.4477 0.0000 -9.4242 0.0000
# 3 32.0386 45.4477 147.3351 0.0000 -15.3063 0.0000
# 4 0.0000 0.0000 0.0000 12.8711 0.0000 6.1038
# 5 -25.0359 -9.4242 -15.3063 0.0000 48.3242 0.0000
# 6 0.0000 0.0000 0.0000 6.1038 0.0000 -4.5362
#
#
#
# Elastic Compliance Matrix: (Units=1/GPa)
#
#
# Indices 1 2 3 4 5 6 
#
# 1 0.017252 -0.004430 -0.001599 0.000000 0.007568 0.000000
# 2 -0.004430 0.010350 -0.002335 0.000000 -0.001016 0.000000
# 3 -0.001599 -0.002335 0.007985 0.000000 0.001245 0.000000
# 4 0.000000 0.000000 0.000000 0.047429 0.000000 0.063819
# 5 0.007568 -0.001016 0.001245 0.000000 0.024810 0.000000
# 6 0.000000 0.000000 0.000000 0.063819 0.000000 -0.134576
#
#
# Mechanical properties :
#
#
# Convention : Reuss Voigt Hill
#
# Bulk Modulus (GPa) = 53.02366 65.26578 59.14472
# Shear Modulus (GPa) = -1338.09637 27.00652 -655.54493
#
# Velocity S-wave (km/s) = -25.51645 3.62502 -17.85985
# Velocity P-wave (km/s) = 29.02273 7.01983 19.91282
#
# Compressibility (1/GPa) = 0.01885951
#
# Stress axis : x y z
#
# Youngs Moduli (GPa) = 57.96471 96.61831 125.24172
#
# Poissons Ratio (x) = 0.42798 0.20025
# Poissons Ratio (y) = 0.25676 0.29243
# Poissons Ratio (z) = 0.09268 0.22560
#
# Static dielectric constant tensor:
#      x y z
#    x 2.738230 0.000000 -0.059340 
#    y 0.000000 4.167800 0.000000 
#    z -0.059340 0.000000 3.981380 
# 
# 
# High freq. dielectric constant tensor:
#      x y z
#    x 1.797090 0.000000 -0.007010 
#    y 0.000000 1.821560 0.000000 
#    z -0.007010 0.000000 1.818420 
# 
# From -- ./inp_files/16590.got.cif
#   From: 2010.06.25/outbox.cif.g09.slc.cpg/sg10_9_cif.got.tgz:16590.got - 2010.06.27 22:07:45.
