data_PCOD8067783
_publ_section_title
;
Structure prediction by ZEFSAII (Michael W. Deem and Ramdas Pophale) SiO2 
 PCOD8067783
Probable space group: P 2/M
;
_chemical_formula_sum "Si O2"
_cell_formula_units_Z 24
_cell_length_a 13.285468
_cell_length_b 13.845949
_cell_length_c 8.668073
_cell_angle_alpha 90.000000
_cell_angle_beta 48.564755
_cell_angle_gamma 90.000000
_cell_volume 1195.396685
_symmetry_space_group_name_H-M "P 2/M"
_symmetry_group_IT_number 10
_symmetry_cell_setting 'monoclinic'
loop_
_space_group_symop_operation_xyz
x,y,z
-x,y,-z
-x,-y,-z
x,-y,z
loop_
_atom_site_type_symbol
_atom_site_label
_atom_site_fract_x
_atom_site_fract_y
_atom_site_fract_z
Si Si1 0.651539 0.608793 0.528564
Si Si2 0.523968 0.112925 0.301842
Si Si3 0.774336 0.206381 0.906407
Si Si4 0.275732 0.796967 0.399806
Si Si5 0.022939 0.111939 0.798542
Si Si6 0.661823 0.391290 0.161308
O O1 0.686848 0.500000 0.545896
O O2 0.736086 0.683449 0.546101
O O3 0.494181 0.628974 0.712065
O O4 0.692955 0.623857 0.309490
O O5 0.500000 0.150146 0.500000
O O6 0.425299 0.167290 0.285432
O O7 0.498279 0.000000 0.314278
O O8 0.675949 0.138055 0.104064
O O9 0.753307 0.187250 0.748673
O O10 0.925485 0.177489 0.794265
O O11 0.750828 0.318611 0.970310
O O12 0.174718 0.860304 0.603994
O O13 0.997421 0.000000 0.786739
O O14 0.000000 0.134884 0.000000
O O15 0.699526 0.500000 0.072705
#
# Coordination Sequence:
#
# PCOD8067783 Si02
#       6
#     4   4   4   4   4   4
#     4   9  18  35  61  90 121 160 203 245 292 352
#     4  11  23  39  60  85 116 157 205 250 292 353
#     4  12  24  38  60  92 125 156 194 250 310 358
#     4  12  24  38  60  92 125 156 194 250 310 358
#     4  11  25  45  66  85 114 163 211 248 296 363
#     4   9  18  35  61  90 121 160 203 245 292 352
#
# _framework density 20.077016
#
# number of rings (size 3 to 8) (size 9 to 14) (size 15 to 20)
#    0.000    1.333    1.667    6.000    0.000    7.333 
#    0.000    2.500    0.000    5.000    0.000    0.000 
#    0.000    0.000    0.000    0.000    0.000    0.000 
#
# Total GULP energy -297745.856922 kJ/mol
# GULP energy per Si atom -12406.077372 kJ/mol
# Density = 2.003132 g / cm^3
# Si number density = 20.077016 Si / 1000 Ang^3
#
#
#
# Elastic Constant Matrix: (Units=GPa)
#
#
# Indices 1 2 3 4 5 6 
#
# 1 74.8354 31.0746 5.6088 0.0000 10.7942 0.0000
# 2 31.0746 104.4949 24.6936 0.0000 11.4143 0.0000
# 3 5.6088 24.6936 62.1930 0.0000 7.9083 0.0000
# 4 0.0000 0.0000 0.0000 19.2375 0.0000 -10.5349
# 5 10.7942 11.4143 7.9083 0.0000 29.8448 0.0000
# 6 0.0000 0.0000 0.0000 -10.5349 0.0000 28.2316
#
#
#
# Elastic Compliance Matrix: (Units=1/GPa)
#
#
# Indices 1 2 3 4 5 6 
#
# 1 0.015746 -0.004427 0.000876 0.000000 -0.004234 0.000000
# 2 -0.004427 0.012077 -0.004152 0.000000 -0.001918 0.000000
# 3 0.000876 -0.004152 0.018097 0.000000 -0.003524 0.000000
# 4 0.000000 0.000000 0.000000 0.065332 0.000000 0.024379
# 5 -0.004234 -0.001918 -0.003524 0.000000 0.036705 0.000000
# 6 0.000000 0.000000 0.000000 0.024379 0.000000 0.044519
#
#
# Mechanical properties :
#
#
# Convention : Reuss Voigt Hill
#
# Bulk Modulus (GPa) = 32.77226 40.47524 36.62375
# Shear Modulus (GPa) = 22.93017 27.47254 25.20135
#
# Velocity S-wave (km/s) = 3.38318 3.70315 3.54677
# Velocity P-wave (km/s) = 5.62316 6.20388 5.92064
#
# Compressibility (1/GPa) = 0.03051361
#
# Stress axis : x y z
#
# Youngs Moduli (GPa) = 63.50821 82.80195 55.25877
#
# Poissons Ratio (x) = 0.36657 -0.04841
# Poissons Ratio (y) = 0.28116 0.22944
# Poissons Ratio (z) = -0.05564 0.34380
#
# Static dielectric constant tensor:
#      x y z
#    x 3.487010 0.000000 0.014810 
#    y 0.000000 3.796440 0.000000 
#    z 0.014810 0.000000 3.538700 
# 
# 
# High freq. dielectric constant tensor:
#      x y z
#    x 1.772140 0.000000 0.008830 
#    y 0.000000 1.800470 0.000000 
#    z 0.008830 0.000000 1.773640 
# 
# From -- ./inp_files/29262.got.cif
#   From: 2010.06.25/outbox.cif.g09.slc.cpg/sg10_15_cif.got.tgz:29262.got - 2010.06.27 22:07:45.
