data_PCOD8067885
_publ_section_title
;
Structure prediction by ZEFSAII (Michael W. Deem and Ramdas Pophale) SiO2 
 PCOD8067885
Probable space group: P 2/M
;
_chemical_formula_sum "Si O2"
_cell_formula_units_Z 32
_cell_length_a 12.446484
_cell_length_b 9.190995
_cell_length_c 24.195365
_cell_angle_alpha 90.000000
_cell_angle_beta 49.124352
_cell_angle_gamma 90.000000
_cell_volume 2092.853495
_symmetry_space_group_name_H-M "P 2/M"
_symmetry_group_IT_number 10
_symmetry_cell_setting 'monoclinic'
loop_
_space_group_symop_operation_xyz
x,y,z
-x,y,-z
-x,-y,-z
x,-y,z
loop_
_atom_site_type_symbol
_atom_site_label
_atom_site_fract_x
_atom_site_fract_y
_atom_site_fract_z
Si Si1 0.055527 0.673362 0.539302
Si Si2 0.345903 0.327397 0.614011
Si Si3 0.589931 0.335396 0.025618
Si Si4 0.642352 0.164391 0.839705
Si Si5 0.343867 0.672990 0.490635
Si Si6 0.053957 0.667943 0.754873
Si Si7 0.178272 0.164217 0.109034
Si Si8 0.122458 0.332184 0.296121
O O1 0.057463 0.500000 0.537147
O O2 0.215564 0.733648 0.496011
O O3 0.000000 0.737930 0.500000
O O4 0.952020 0.725693 0.623167
O O5 0.335764 0.500000 0.613590
O O6 0.500869 0.279289 0.585522
O O7 0.326948 0.264931 0.558424
O O8 0.216931 0.273908 0.696584
O O9 0.620469 0.500000 0.034595
O O10 0.503754 0.252656 0.102736
O O11 0.500000 0.335082 0.000000
O O12 0.739332 0.253521 0.966046
O O13 0.730073 0.166566 0.866507
O O14 0.734435 0.239724 0.760726
O O15 0.605687 0.000000 0.834393
O O16 0.335037 0.500000 0.495726
O O17 0.044551 0.500000 0.776142
O O18 0.973739 0.761794 0.828219
O O19 0.986441 0.689828 0.717317
O O20 0.154096 0.000000 0.096355
O O21 0.167504 0.500000 0.286087
#
# Coordination Sequence:
#
# PCOD8067885 Si02
#       8
#     4   4   4   4   4   4   4   4
#     4   9  15  22  33  50  73  97 120 152 194 233
#     4   8  12  18  31  48  68  89 116 156 191 218
#     4   9  15  23  34  48  66  91 122 152 179 211
#     4   9  16  24  34  47  65  91 121 153 184 214
#     4   8  12  19  30  48  69  90 117 152 192 226
#     4   9  14  21  33  49  67  91 122 155 184 213
#     4   9  16  23  31  46  69  95 120 147 180 218
#     4   9  15  23  34  49  68  90 120 154 186 222
#
# _framework density 15.29013
#
# number of rings (size 3 to 8) (size 9 to 14) (size 15 to 20)
#    0.000    3.250    1.250    1.875    0.000    4.500 
#    0.000    0.000    0.000    0.375    0.000    2.625 
#    0.000    0.000    0.000    1.125    0.000   26.625 
#
# Total GULP energy -396551.685663 kJ/mol
# GULP energy per Si atom -12392.240177 kJ/mol
# Density = 1.525533 g / cm^3
# Si number density = 15.290130 Si / 1000 Ang^3
#
#
#
# Elastic Constant Matrix: (Units=GPa)
#
#
# Indices 1 2 3 4 5 6 
#
# 1 60.5299 19.6157 48.7148 0.0000 -16.7256 0.0000
# 2 19.6157 74.9679 54.2077 0.0000 -16.5125 0.0000
# 3 48.7148 54.2077 133.6533 0.0000 -39.5564 0.0000
# 4 0.0000 0.0000 0.0000 7.2730 0.0000 -0.1484
# 5 -16.7256 -16.5125 -39.5564 0.0000 23.0832 0.0000
# 6 0.0000 0.0000 0.0000 -0.1484 0.0000 3.0498
#
#
#
# Elastic Compliance Matrix: (Units=1/GPa)
#
#
# Indices 1 2 3 4 5 6 
#
# 1 0.023638 0.000106 -0.007238 0.000000 0.004800 0.000000
# 2 0.000106 0.018882 -0.007460 0.000000 0.000800 0.000000
# 3 -0.007238 -0.007460 0.020320 0.000000 0.024241 0.000000
# 4 0.000000 0.000000 0.000000 0.137632 0.000000 0.006696
# 5 0.004800 0.000800 0.024241 0.000000 0.088911 0.000000
# 6 0.000000 0.000000 0.000000 0.006696 0.000000 0.328215
#
#
# Mechanical properties :
#
#
# Convention : Reuss Voigt Hill
#
# Bulk Modulus (GPa) = 29.71277 57.13637 43.42457
# Shear Modulus (GPa) = 7.59878 16.45540 12.02709
#
# Velocity S-wave (km/s) = 2.23171 3.28412 2.80767
# Velocity P-wave (km/s) = 5.11033 7.19930 6.24281
#
# Compressibility (1/GPa) = 0.03365557
#
# Stress axis : x y z
#
# Youngs Moduli (GPa) = 42.30475 52.96145 49.21215
#
# Poissons Ratio (x) = -0.00561 0.35620
# Poissons Ratio (y) = -0.00448 0.36712
# Poissons Ratio (z) = 0.30621 0.39509
#
# Static dielectric constant tensor:
#      x y z
#    x 2.657400 0.000000 -0.341560 
#    y 0.000000 2.720950 0.000000 
#    z -0.341560 0.000000 3.113980 
# 
# 
# High freq. dielectric constant tensor:
#      x y z
#    x 1.521240 0.000000 -0.036780 
#    y 0.000000 1.557240 0.000000 
#    z -0.036780 0.000000 1.591460 
# 
# From -- ./inp_files/86155.got.cif
#   From: 2010.06.25/outbox.cif.g09.slc.cpg/sg10_44_cif.got.tgz:86155.got - 2010.06.27 22:07:45.
