data_PCOD8067305
_publ_section_title
;
Structure prediction by ZEFSAII (Michael W. Deem and Ramdas Pophale) SiO2 
 PCOD8067305
Probable space group: P 2/M
;
_chemical_formula_sum "Si O2"
_cell_formula_units_Z 32
_cell_length_a 11.188053
_cell_length_b 14.983216
_cell_length_c 17.660322
_cell_angle_alpha 90.000000
_cell_angle_beta 149.928503
_cell_angle_gamma 90.000000
_cell_volume 1483.424648
_symmetry_space_group_name_H-M "P 2/M"
_symmetry_group_IT_number 10
_symmetry_cell_setting 'monoclinic'
loop_
_space_group_symop_operation_xyz
x,y,z
-x,y,-z
-x,-y,-z
x,-y,z
loop_
_atom_site_type_symbol
_atom_site_label
_atom_site_fract_x
_atom_site_fract_y
_atom_site_fract_z
Si Si1 0.101541 0.778182 0.355882
Si Si2 0.492496 0.599329 0.910165
Si Si3 0.220718 0.601615 0.339512
Si Si4 0.928832 0.356787 0.042332
Si Si5 0.339090 0.175394 0.130613
Si Si6 0.186767 0.260451 0.664267
Si Si7 0.038118 0.096177 0.840590
Si Si8 0.537380 0.100672 0.640835
O O1 0.127680 0.672663 0.350950
O O2 0.351017 0.829992 0.502349
O O3 0.960895 0.794342 0.355535
O O4 0.927148 0.822096 0.197751
O O5 0.398330 0.500000 0.867831
O O6 0.734834 0.598365 0.992686
O O7 0.291655 0.649549 0.754482
O O8 0.500000 0.641062 0.000000
O O9 0.500000 0.596286 0.500000
O O10 0.116127 0.500000 0.294402
O O11 0.164256 0.640569 0.224215
O O12 0.834885 0.260390 0.966582
O O13 0.000000 0.404365 0.000000
O O14 0.607600 0.196483 0.253546
O O15 0.353010 0.134666 0.220747
O O16 0.220411 0.103867 0.010096
O O17 0.000000 0.292086 0.500000
O O18 0.760182 0.098086 0.707942
O O19 0.092501 0.000000 0.832514
O O20 0.428788 0.000000 0.589672
#
# Coordination Sequence:
#
# PCOD8067305 Si02
#       8
#     4   4   4   4   4   4   4   4
#     4  12  24  43  68  95 136 176 218 273 327 392
#     4  10  23  43  67  94 127 172 225 282 338 396
#     4  11  25  42  64  98 137 178 219 269 334 397
#     4  11  23  40  68  99 134 175 221 277 340 398
#     4  11  23  42  66  97 132 175 217 269 332 389
#     4  11  25  44  63  89 126 179 224 264 324 399
#     4  11  23  41  68 103 131 164 218 273 331 396
#     4  11  23  42  70 100 135 173 214 266 335 404
#
# _framework density 21.571705999999999
#
# number of rings (size 3 to 8) (size 9 to 14) (size 15 to 20)
#    0.000    1.000    2.500    4.125    3.500    4.750 
#    0.000    5.000    0.000    0.000    0.000    0.000 
#    0.000    0.000    0.000    0.000    0.000    0.000 
#
# Total GULP energy -396569.703058 kJ/mol
# GULP energy per Si atom -12392.803221 kJ/mol
# Density = 2.152261 g / cm^3
# Si number density = 21.571706 Si / 1000 Ang^3
#
#
#
# Elastic Constant Matrix: (Units=GPa)
#
#
# Indices 1 2 3 4 5 6 
#
# 1 108.1637 25.8172 35.6096 0.0000 -10.3222 0.0000
# 2 25.8172 122.4893 25.9264 0.0000 -7.1184 0.0000
# 3 35.6096 25.9264 114.0972 0.0000 -9.2821 0.0000
# 4 0.0000 0.0000 0.0000 18.6404 0.0000 -6.3937
# 5 -10.3222 -7.1184 -9.2821 0.0000 33.3412 0.0000
# 6 0.0000 0.0000 0.0000 -6.3937 0.0000 14.4072
#
#
#
# Elastic Compliance Matrix: (Units=1/GPa)
#
#
# Indices 1 2 3 4 5 6 
#
# 1 0.010755 -0.001540 -0.002826 0.000000 0.002214 0.000000
# 2 -0.001540 0.008854 -0.001449 0.000000 0.001010 0.000000
# 3 -0.002826 -0.001449 0.010108 0.000000 0.001630 0.000000
# 4 0.000000 0.000000 0.000000 0.063279 0.000000 0.028083
# 5 0.002214 0.001010 0.001630 0.000000 0.031348 0.000000
# 6 0.000000 0.000000 0.000000 0.028083 0.000000 0.081873
#
#
# Mechanical properties :
#
#
# Convention : Reuss Voigt Hill
#
# Bulk Modulus (GPa) = 55.29104 57.71740 56.50422
# Shear Modulus (GPa) = 22.33377 30.43755 26.38566
#
# Velocity S-wave (km/s) = 3.22114 3.76040 3.50117
# Velocity P-wave (km/s) = 6.28659 6.75783 6.52647
#
# Compressibility (1/GPa) = 0.01808611
#
# Stress axis : x y z
#
# Youngs Moduli (GPa) = 92.98355 112.94372 98.92696
#
# Poissons Ratio (x) = 0.17391 0.27962
# Poissons Ratio (y) = 0.14318 0.14336
# Poissons Ratio (z) = 0.26282 0.16367
#
# Static dielectric constant tensor:
#      x y z
#    x 4.111760 0.000000 -0.009100 
#    y 0.000000 4.072860 0.000000 
#    z -0.009100 0.000000 4.364360 
# 
# 
# High freq. dielectric constant tensor:
#      x y z
#    x 1.843090 0.000000 -0.009060 
#    y 0.000000 1.847870 0.000000 
#    z -0.009060 0.000000 1.861730 
# 
# From -- ./inp_files/77048.got.cif
#   From: 2010.06.25/outbox.cif.g09.slc.cpg/sg10_39_cif.got.tgz:77048.got - 2010.06.27 22:07:45.
