data_PCOD8067921
_publ_section_title
;
Structure prediction by ZEFSAII (Michael W. Deem and Ramdas Pophale) SiO2 
 PCOD8067921
Probable space group: P 2/M
;
_chemical_formula_sum "Si O2"
_cell_formula_units_Z 28
_cell_length_a 20.387968
_cell_length_b 9.417064
_cell_length_c 18.185679
_cell_angle_alpha 90.000000
_cell_angle_beta 26.843863
_cell_angle_gamma 90.000000
_cell_volume 1576.649486
_symmetry_space_group_name_H-M "P 2/M"
_symmetry_group_IT_number 10
_symmetry_cell_setting 'monoclinic'
loop_
_space_group_symop_operation_xyz
x,y,z
-x,y,-z
-x,-y,-z
x,-y,z
loop_
_atom_site_type_symbol
_atom_site_label
_atom_site_fract_x
_atom_site_fract_y
_atom_site_fract_z
Si Si1 0.169493 0.835108 0.973822
Si Si2 0.172743 0.840622 0.245723
Si Si3 0.336243 0.831228 0.663689
Si Si4 0.172818 0.840620 0.408574
Si Si5 0.172946 0.340149 0.110827
Si Si6 0.826837 0.659851 0.457077
Si Si7 0.830163 0.835108 0.313289
O O1 0.226879 0.746675 0.986023
O O2 0.999824 0.810738 0.129131
O O3 0.203186 0.000000 0.955398
O O4 0.254000 0.775774 0.818338
O O5 0.223778 0.791214 0.276131
O O6 0.236690 0.734316 0.120465
O O7 0.999961 0.840334 0.414814
O O8 0.229390 0.000000 0.173020
O O9 0.500000 0.772094 0.500000
O O10 0.254403 0.775765 0.673055
O O11 0.333147 0.000000 0.666779
O O12 0.236832 0.734328 0.405822
O O13 0.229480 0.000000 0.367920
O O14 0.234032 0.500000 0.045877
O O15 0.999893 0.339961 0.286442
O O16 0.765749 0.500000 0.514350
O O17 0.772841 0.746663 0.440240
O O18 0.796494 0.000000 0.362254
#
# Coordination Sequence:
#
# PCOD8067921 Si02
#       7
#     4   4   4   4   4   4   4
#     4   9  16  27  44  63  83 109 140 172 208 251
#     4   8  13  21  33  50  75 108 142 173 207 247
#     4   9  17  29  46  67  86 104 134 177 216 248
#     4   8  13  21  33  50  75 108 142 173 207 247
#     4   9  16  24  35  54  80 109 141 175 208 243
#     4   9  16  24  35  54  80 109 141 175 208 243
#     4   9  16  27  44  63  83 109 140 172 208 251
#
# _framework density 17.759179
#
# number of rings (size 3 to 8) (size 9 to 14) (size 15 to 20)
#    0.000    3.286    0.000    2.143    0.000    5.714 
#    0.000    3.571    0.000    5.143    0.000    0.000 
#    0.000    1.143    0.000   13.143    0.000   16.857 
#
# Total GULP energy -347075.872409 kJ/mol
# GULP energy per Si atom -12395.566872 kJ/mol
# Density = 1.771876 g / cm^3
# Si number density = 17.759179 Si / 1000 Ang^3
#
#
#
# Elastic Constant Matrix: (Units=GPa)
#
#
# Indices 1 2 3 4 5 6 
#
# 1 128.6400 75.2830 66.2830 0.0000 53.8211 0.0000
# 2 75.2830 105.9818 40.1001 0.0000 31.6745 0.0000
# 3 66.2830 40.1001 44.8473 0.0000 21.5387 0.0000
# 4 0.0000 0.0000 0.0000 6.7772 0.0000 2.9636
# 5 53.8211 31.6745 21.5387 0.0000 30.3935 0.0000
# 6 0.0000 0.0000 0.0000 2.9636 0.0000 10.0559
#
#
#
# Elastic Compliance Matrix: (Units=1/GPa)
#
#
# Indices 1 2 3 4 5 6 
#
# 1 0.154560 -0.005941 -0.143483 0.000000 -0.165824 0.000000
# 2 -0.005941 0.016244 -0.004042 0.000000 -0.003544 0.000000
# 3 -0.143483 -0.004042 0.172705 0.000000 0.135904 0.000000
# 4 0.000000 0.000000 0.000000 0.169382 0.000000 -0.049920
# 5 -0.165824 -0.003544 0.135904 0.000000 0.233929 0.000000
# 6 0.000000 0.000000 0.000000 -0.049920 0.000000 0.114157
#
#
# Mechanical properties :
#
#
# Convention : Reuss Voigt Hill
#
# Bulk Modulus (GPa) = 27.33911 71.42238 49.38074
# Shear Modulus (GPa) = 4.23692 15.96552 10.10122
#
# Velocity S-wave (km/s) = 1.54627 3.00159 2.38752
# Velocity P-wave (km/s) = 4.31459 7.23306 5.95537
#
# Compressibility (1/GPa) = 0.03657764
#
# Stress axis : x y z
#
# Youngs Moduli (GPa) = 6.46998 61.55999 5.79021
#
# Poissons Ratio (x) = 0.36573 0.83080
# Poissons Ratio (y) = 0.03844 0.02340
# Poissons Ratio (z) = 0.92833 0.24882
#
# Static dielectric constant tensor:
#      x y z
#    x 3.390600 0.000000 0.416300 
#    y 0.000000 3.284600 0.000000 
#    z 0.416300 0.000000 2.929270 
# 
# 
# High freq. dielectric constant tensor:
#      x y z
#    x 1.683260 0.000000 0.040450 
#    y 0.000000 1.669560 0.000000 
#    z 0.040450 0.000000 1.638450 
# 
# From -- ./inp_files/54463.got.cif
#   From: 2010.06.25/outbox.cif.g09.slc.cpg/sg10_28_cif.got.tgz:54463.got - 2010.06.27 22:07:45.
