data_PCOD8067551
_publ_section_title
;
Structure prediction by ZEFSAII (Michael W. Deem and Ramdas Pophale) SiO2 
 PCOD8067551
Probable space group: P 2/M
;
_chemical_formula_sum "Si O2"
_cell_formula_units_Z 32
_cell_length_a 17.775758
_cell_length_b 8.618048
_cell_length_c 11.768359
_cell_angle_alpha 90.000000
_cell_angle_beta 70.096667
_cell_angle_gamma 90.000000
_cell_volume 1695.136800
_symmetry_space_group_name_H-M "P 2/M"
_symmetry_group_IT_number 10
_symmetry_cell_setting 'monoclinic'
loop_
_space_group_symop_operation_xyz
x,y,z
-x,y,-z
-x,-y,-z
x,-y,z
loop_
_atom_site_type_symbol
_atom_site_label
_atom_site_fract_x
_atom_site_fract_y
_atom_site_fract_z
Si Si1 0.717375 0.681412 0.486708
Si Si2 0.363131 0.820360 0.264119
Si Si3 0.190976 0.683416 0.975838
Si Si4 0.413778 0.823195 0.598311
Si Si5 0.464552 0.680404 0.798844
Si Si6 0.343004 0.179294 0.017632
Si Si7 0.853948 0.683953 0.255879
Si Si8 0.020609 0.316297 0.112154
O O1 0.724129 0.500000 0.509812
O O2 0.704796 0.771454 0.611240
O O3 0.644555 0.709306 0.438491
O O4 0.797787 0.748839 0.385373
O O5 0.442714 0.722899 0.245627
O O6 0.328338 0.784863 0.157661
O O7 0.385060 0.000000 0.269534
O O8 0.207687 0.500000 0.975090
O O9 0.177656 0.736683 0.852161
O O10 0.264974 0.775320 0.987842
O O11 0.112301 0.731585 0.092905
O O12 0.500000 0.802289 0.500000
O O13 0.416548 0.774588 0.727802
O O14 0.383442 0.000000 0.603641
O O15 0.456624 0.500000 0.776846
O O16 0.420797 0.723357 0.939109
O O17 0.362648 0.000000 0.987697
O O18 0.849183 0.500000 0.260759
O O19 0.946718 0.740122 0.230934
O O20 0.017749 0.500000 0.107147
O O21 0.000000 0.246966 0.000000
#
# Coordination Sequence:
#
# PCOD8067551 Si02
#       8
#     4   4   4   4   4   4   4   4
#     4  11  21  33  54  81 108 139 179 225 264 305
#     4  11  24  41  55  70  99 142 183 218 266 320
#     4   9  16  30  55  83 108 136 171 211 256 310
#     4  11  22  36  55  77 108 145 173 204 256 319
#     4  12  24  38  59  82 103 129 173 227 269 309
#     4  11  24  39  55  74 103 140 176 218 267 320
#     4   8  15  28  49  82 114 136 163 206 262 315
#     4   7  11  23  47  78 110 138 163 199 254 315
#
# _framework density 18.877533
#
# number of rings (size 3 to 8) (size 9 to 14) (size 15 to 20)
#    0.000    2.000    1.250    5.250    0.000    5.000 
#    0.000    0.625    0.000    5.625    0.000    5.250 
#    0.000    0.000    0.000    0.000    0.000    0.000 
#
# Total GULP energy -396619.399390 kJ/mol
# GULP energy per Si atom -12394.356231 kJ/mol
# Density = 1.883457 g / cm^3
# Si number density = 18.877533 Si / 1000 Ang^3
#
#
#
# Elastic Constant Matrix: (Units=GPa)
#
#
# Indices 1 2 3 4 5 6 
#
# 1 50.9582 14.5752 47.6010 0.0000 -18.9545 0.0000
# 2 14.5752 39.7096 25.4680 0.0000 -5.8305 0.0000
# 3 47.6010 25.4680 132.6821 0.0000 -20.1849 0.0000
# 4 0.0000 0.0000 0.0000 20.5783 0.0000 4.5292
# 5 -18.9545 -5.8305 -20.1849 0.0000 31.9792 0.0000
# 6 0.0000 0.0000 0.0000 4.5292 0.0000 10.3975
#
#
#
# Elastic Compliance Matrix: (Units=1/GPa)
#
#
# Indices 1 2 3 4 5 6 
#
# 1 0.035072 -0.004697 -0.009567 0.000000 0.013892 0.000000
# 2 -0.004697 0.029457 -0.003955 0.000000 0.000090 0.000000
# 3 -0.009567 -0.003955 0.011899 0.000000 0.001118 0.000000
# 4 0.000000 0.000000 0.000000 0.053748 0.000000 -0.023413
# 5 0.013892 0.000090 0.001118 0.000000 0.040227 0.000000
# 6 0.000000 0.000000 0.000000 -0.023413 0.000000 0.106376
#
#
# Mechanical properties :
#
#
# Convention : Reuss Voigt Hill
#
# Bulk Modulus (GPa) = 25.00765 44.29313 34.65039
# Shear Modulus (GPa) = 15.31176 21.63806 18.47491
#
# Velocity S-wave (km/s) = 2.85109 3.38928 3.13177
# Velocity P-wave (km/s) = 4.91064 6.23142 5.61004
#
# Compressibility (1/GPa) = 0.03998776
#
# Stress axis : x y z
#
# Youngs Moduli (GPa) = 28.51290 33.94794 84.04394
#
# Poissons Ratio (x) = 0.15946 0.80407
# Poissons Ratio (y) = 0.13393 0.33242
# Poissons Ratio (z) = 0.27279 0.13428
#
# Static dielectric constant tensor:
#      x y z
#    x 3.538470 0.000000 -0.390160 
#    y 0.000000 3.251320 0.000000 
#    z -0.390160 0.000000 3.855480 
# 
# 
# High freq. dielectric constant tensor:
#      x y z
#    x 1.718320 0.000000 -0.023420 
#    y 0.000000 1.715340 0.000000 
#    z -0.023420 0.000000 1.733140 
# 
# From -- ./inp_files/54769.got.cif
#   From: 2010.06.25/outbox.cif.g09.slc.cpg/sg10_28_cif.got.tgz:54769.got - 2010.06.27 22:07:45.
