data_PCOD8067126
_publ_section_title
;
Structure prediction by ZEFSAII (Michael W. Deem and Ramdas Pophale) SiO2 
 PCOD8067126
Probable space group: P 2/M
;
_chemical_formula_sum "Si O2"
_cell_formula_units_Z 24
_cell_length_a 9.255306
_cell_length_b 7.637726
_cell_length_c 16.329760
_cell_angle_alpha 90.000000
_cell_angle_beta 80.637202
_cell_angle_gamma 90.000000
_cell_volume 1138.964278
_symmetry_space_group_name_H-M "P 2/M"
_symmetry_group_IT_number 10
_symmetry_cell_setting 'monoclinic'
loop_
_space_group_symop_operation_xyz
x,y,z
-x,y,-z
-x,-y,-z
x,-y,z
loop_
_atom_site_type_symbol
_atom_site_label
_atom_site_fract_x
_atom_site_fract_y
_atom_site_fract_z
Si Si1 0.241491 0.296386 0.824661
Si Si2 0.162700 0.000000 0.957930
Si Si3 0.421536 0.300922 0.200611
Si Si4 0.200728 0.705721 0.364603
Si Si5 0.105282 0.698158 0.670944
Si Si6 0.663958 0.198251 0.479702
Si Si7 0.375867 0.000000 0.077934
O O1 0.204833 0.500000 0.848420
O O2 0.204877 0.175962 0.905427
O O3 0.411842 0.277019 0.786047
O O4 0.151540 0.222001 0.754612
O O5 0.227676 0.000000 0.042302
O O6 0.000000 0.000000 0.000000
O O7 0.390609 0.500000 0.175092
O O8 0.318964 0.247818 0.285186
O O9 0.385047 0.175816 0.129257
O O10 0.190158 0.500000 0.383490
O O11 0.252338 0.798537 0.442118
O O12 0.042272 0.786099 0.352309
O O13 0.062973 0.500000 0.693095
O O14 0.240515 0.700898 0.596006
O O15 0.500000 0.281777 0.500000
O O16 0.649995 0.000000 0.450275
O O17 0.500000 0.000000 0.000000
#
# Coordination Sequence:
#
# PCOD8067126 Si02
#       7
#     4   2   4   4   4   4   2
#     4  10  22  43  67  93 127 168 209 257 314 375
#     4  12  28  44  64  97 128 165 210 258 321 380
#     4  10  22  41  68  95 126 166 209 258 316 374
#     4  10  22  40  63  92 123 161 206 255 309 366
#     4  10  22  40  63  90 124 163 205 255 308 365
#     4  11  24  39  58  90 126 167 209 253 301 360
#     4  12  24  44  66  97 126 163 208 264 313 378
#
# _framework density 21.071774999999999
#
# number of rings (size 3 to 8) (size 9 to 14) (size 15 to 20)
#    0.000    1.500    1.667    2.000    4.667    6.667 
#    0.000    0.000    0.000    0.000    0.000    0.000 
#    0.000    0.000    0.000    0.000    0.000    0.000 
#
# Total GULP energy -297588.673787 kJ/mol
# GULP energy per Si atom -12399.528074 kJ/mol
# Density = 2.102381 g / cm^3
# Si number density = 21.071775 Si / 1000 Ang^3
#
#
#
# Elastic Constant Matrix: (Units=GPa)
#
#
# Indices 1 2 3 4 5 6 
#
# 1 135.9952 21.8185 31.6501 0.0000 10.3962 0.0000
# 2 21.8185 73.6333 35.5287 0.0000 4.6998 0.0000
# 3 31.6501 35.5287 94.8429 0.0000 14.0958 0.0000
# 4 0.0000 0.0000 0.0000 31.6635 0.0000 6.5682
# 5 10.3962 4.6998 14.0958 0.0000 50.5647 0.0000
# 6 0.0000 0.0000 0.0000 6.5682 0.0000 17.9884
#
#
#
# Elastic Compliance Matrix: (Units=1/GPa)
#
#
# Indices 1 2 3 4 5 6 
#
# 1 0.008124 -0.001351 -0.002061 0.000000 -0.000970 0.000000
# 2 -0.001351 0.016804 -0.005897 0.000000 0.000360 0.000000
# 3 -0.002061 -0.005897 0.013871 0.000000 -0.002895 0.000000
# 4 0.000000 0.000000 0.000000 0.034170 0.000000 -0.012477
# 5 -0.000970 0.000360 -0.002895 0.000000 0.020750 0.000000
# 6 0.000000 0.000000 0.000000 -0.012477 0.000000 0.060147
#
#
# Mechanical properties :
#
#
# Convention : Reuss Voigt Hill
#
# Bulk Modulus (GPa) = 49.55362 53.60734 51.58048
# Shear Modulus (GPa) = 27.90022 34.40826 31.15424
#
# Velocity S-wave (km/s) = 3.64271 4.04531 3.84927
# Velocity P-wave (km/s) = 6.42340 6.87859 6.65489
#
# Compressibility (1/GPa) = 0.02018016
#
# Stress axis : x y z
#
# Youngs Moduli (GPa) = 123.09675 59.51069 72.09337
#
# Poissons Ratio (x) = 0.08039 0.14856
# Poissons Ratio (y) = 0.16629 0.42517
# Poissons Ratio (z) = 0.25367 0.35096
#
# Static dielectric constant tensor:
#      x y z
#    x 4.086550 0.000000 -0.068470 
#    y 0.000000 3.614200 0.000000 
#    z -0.068470 0.000000 3.437260 
# 
# 
# High freq. dielectric constant tensor:
#      x y z
#    x 1.843220 0.000000 0.003850 
#    y 0.000000 1.822150 0.000000 
#    z 0.003850 0.000000 1.824680 
# 
# From -- ./inp_files/60243.got.cif
#   From: 2010.06.25/outbox.cif.g09.slc.cpg/sg10_31_cif.got.tgz:60243.got - 2010.06.27 22:07:45.
