data_PCOD8067954
_publ_section_title
;
Structure prediction by ZEFSAII (Michael W. Deem and Ramdas Pophale) SiO2 
 PCOD8067954
Probable space group: P 2/M
;
_chemical_formula_sum "Si O2"
_cell_formula_units_Z 32
_cell_length_a 11.505930
_cell_length_b 9.331292
_cell_length_c 23.025105
_cell_angle_alpha 90.000000
_cell_angle_beta 130.155118
_cell_angle_gamma 90.000000
_cell_volume 1889.425556
_symmetry_space_group_name_H-M "P 2/M"
_symmetry_group_IT_number 10
_symmetry_cell_setting 'monoclinic'
loop_
_space_group_symop_operation_xyz
x,y,z
-x,y,-z
-x,-y,-z
x,-y,z
loop_
_atom_site_type_symbol
_atom_site_label
_atom_site_fract_x
_atom_site_fract_y
_atom_site_fract_z
Si Si1 0.936133 0.336655 0.657612
Si Si2 0.201121 0.166007 0.797048
Si Si3 0.660129 0.833141 0.275540
Si Si4 0.651346 0.167395 0.769234
Si Si5 0.062614 0.664832 0.580353
Si Si6 0.100584 0.662557 0.866175
Si Si7 0.236593 0.342156 0.293890
Si Si8 0.028384 0.167866 0.075232
O O1 0.993538 0.500000 0.691384
O O2 0.775030 0.311695 0.639861
O O3 0.049791 0.214565 0.715439
O O4 0.927060 0.321265 0.584835
O O5 0.335148 0.191779 0.792930
O O6 0.222534 0.259039 0.862794
O O7 0.187376 0.000000 0.810412
O O8 0.496019 0.777577 0.243834
O O9 0.787463 0.746991 0.351303
O O10 0.684948 0.000000 0.297640
O O11 0.655291 0.233613 0.705607
O O12 0.799680 0.213617 0.853391
O O13 0.645175 0.000000 0.757952
O O14 0.109785 0.500000 0.586431
O O15 0.000000 0.730527 0.500000
O O16 0.154163 0.500000 0.894356
O O17 0.936663 0.670676 0.783538
O O18 0.092754 0.745675 0.924852
O O19 0.302347 0.500000 0.303037
O O20 0.001545 0.000000 0.077310
O O21 0.000000 0.211637 0.000000
#
# Coordination Sequence:
#
# PCOD8067954 Si02
#       8
#     4   4   4   4   4   4   4   4
#     4   8  14  25  40  60  86 110 136 175 217 253
#     4   9  15  24  40  61  83 107 140 177 211 251
#     4   9  18  30  44  64  89 116 143 175 216 258
#     4   9  17  29  44  63  88 114 141 176 216 257
#     4   9  17  29  46  67  89 114 144 178 216 257
#     4   9  16  26  41  62  87 112 140 177 218 254
#     4   8  14  24  39  60  83 107 137 173 211 250
#     4   9  17  29  46  67  89 114 145 181 219 258
#
# _framework density 16.936364000000001
#
# number of rings (size 3 to 8) (size 9 to 14) (size 15 to 20)
#    0.000    3.250    0.000    1.500    0.000    4.500 
#    0.000    0.000    0.000    1.500    0.000   10.500 
#    0.000    0.000    0.000    0.000    0.000    0.000 
#
# Total GULP energy -396467.058804 kJ/mol
# GULP energy per Si atom -12389.595588 kJ/mol
# Density = 1.689782 g / cm^3
# Si number density = 16.936364 Si / 1000 Ang^3
#
#
#
# Elastic Constant Matrix: (Units=GPa)
#
#
# Indices 1 2 3 4 5 6 
#
# 1 150.6767 56.4029 51.0168 0.0000 -30.8081 0.0000
# 2 56.4029 64.0833 29.0722 0.0000 -13.4985 0.0000
# 3 51.0168 29.0722 58.8569 0.0000 -24.0155 0.0000
# 4 0.0000 0.0000 0.0000 15.9325 0.0000 -7.0134
# 5 -30.8081 -13.4985 -24.0155 0.0000 27.0967 0.0000
# 6 0.0000 0.0000 0.0000 -7.0134 0.0000 26.4944
#
#
#
# Elastic Compliance Matrix: (Units=1/GPa)
#
#
# Indices 1 2 3 4 5 6 
#
# 1 0.012163 -0.007425 -0.004295 0.000000 0.006324 0.000000
# 2 -0.007425 0.024707 -0.006564 0.000000 -0.001952 0.000000
# 3 -0.004295 -0.006564 0.032315 0.000000 0.020487 0.000000
# 4 0.000000 0.000000 0.000000 0.071043 0.000000 0.018806
# 5 0.006324 -0.001952 0.020487 0.000000 0.061280 0.000000
# 6 0.000000 0.000000 0.000000 0.018806 0.000000 0.042722
#
#
# Mechanical properties :
#
#
# Convention : Reuss Voigt Hill
#
# Bulk Modulus (GPa) = 30.65978 60.73339 45.69659
# Shear Modulus (GPa) = 17.14257 23.04638 20.09448
#
# Velocity S-wave (km/s) = 3.18492 3.69285 3.44825
# Velocity P-wave (km/s) = 5.62736 7.35666 6.54934
#
# Compressibility (1/GPa) = 0.03261602
#
# Stress axis : x y z
#
# Youngs Moduli (GPa) = 82.21367 40.47508 30.94504
#
# Poissons Ratio (x) = 0.30053 0.13292
# Poissons Ratio (y) = 0.61043 0.20313
# Poissons Ratio (z) = 0.35314 0.26569
#
# Static dielectric constant tensor:
#      x y z
#    x 3.581960 0.000000 -0.422060 
#    y 0.000000 3.204410 0.000000 
#    z -0.422060 0.000000 2.811490 
# 
# 
# High freq. dielectric constant tensor:
#      x y z
#    x 1.661420 0.000000 -0.040200 
#    y 0.000000 1.656450 0.000000 
#    z -0.040200 0.000000 1.595440 
# 
# From -- ./inp_files/54505.got.cif
#   From: 2010.06.25/outbox.cif.g09.slc.cpg/sg10_28_cif.got.tgz:54505.got - 2010.06.27 22:07:45.
