data_PCOD8067589
_publ_section_title
;
Structure prediction by ZEFSAII (Michael W. Deem and Ramdas Pophale) SiO2 
 PCOD8067589
Probable space group: P 2/M
;
_chemical_formula_sum "Si O2"
_cell_formula_units_Z 20
_cell_length_a 8.149922
_cell_length_b 22.268704
_cell_length_c 9.173150
_cell_angle_alpha 90.000000
_cell_angle_beta 147.006356
_cell_angle_gamma 90.000000
_cell_volume 906.570240
_symmetry_space_group_name_H-M "P 2/M"
_symmetry_group_IT_number 10
_symmetry_cell_setting 'monoclinic'
loop_
_space_group_symop_operation_xyz
x,y,z
-x,y,-z
-x,-y,-z
x,-y,z
loop_
_atom_site_type_symbol
_atom_site_label
_atom_site_fract_x
_atom_site_fract_y
_atom_site_fract_z
Si Si1 0.705615 0.867484 0.014900
Si Si2 0.835655 0.740462 0.223235
Si Si3 0.273211 0.430661 0.600212
Si Si4 0.205987 0.932294 0.510477
Si Si5 0.917892 0.627371 0.104680
O O1 0.488350 0.885668 0.719180
O O2 0.500000 0.882229 0.000000
O O3 0.821750 0.799037 0.108912
O O4 0.993791 0.911256 0.219855
O O5 0.000000 0.754576 0.500000
O O6 0.500000 0.717690 0.000000
O O7 0.995985 0.687995 0.252062
O O8 0.350418 0.500000 0.685144
O O9 0.571386 0.393221 0.860754
O O10 0.000000 0.407861 0.500000
O O11 0.150982 0.421666 0.344222
O O12 0.000000 0.927008 0.500000
O O13 0.323123 0.000000 0.574463
O O14 0.000000 0.638267 0.000000
#
# Coordination Sequence:
#
# PCOD8067589 Si02
#       5
#     4   4   4   4   4
#     4   9  16  26  41  65  94 133 179 218 266 328
#     4  11  21  36  57  77 107 149 192 233 275 335
#     4  11  24  43  66  90 118 154 193 230 277 343
#     4   9  15  23  37  61  97 134 167 213 276 335
#     4  12  25  40  61  90 121 151 190 240 291 336
#
# _framework density 22.061169
#
# number of rings (size 3 to 8) (size 9 to 14) (size 15 to 20)
#    0.000    1.600    0.000    8.400    0.000    6.400 
#    0.000    0.000    0.000    0.000    0.000    0.000 
#    0.000    4.800    0.000    0.000    0.000   17.200 
#
# Total GULP energy -247865.908298 kJ/mol
# GULP energy per Si atom -12393.295415 kJ/mol
# Density = 2.201096 g / cm^3
# Si number density = 22.061169 Si / 1000 Ang^3
#
#
#
# Elastic Constant Matrix: (Units=GPa)
#
#
# Indices 1 2 3 4 5 6 
#
# 1 37.2237 36.4856 11.2922 0.0000 -2.4631 0.0000
# 2 36.4856 130.4512 55.4977 0.0000 6.4755 0.0000
# 3 11.2922 55.4977 130.5175 0.0000 16.5843 0.0000
# 4 0.0000 0.0000 0.0000 39.1089 0.0000 5.4481
# 5 -2.4631 6.4755 16.5843 0.0000 24.0786 0.0000
# 6 0.0000 0.0000 0.0000 5.4481 0.0000 2.9102
#
#
#
# Elastic Compliance Matrix: (Units=1/GPa)
#
#
# Indices 1 2 3 4 5 6 
#
# 1 0.038140 -0.011274 0.000672 0.000000 0.006471 0.000000
# 2 -0.011274 0.012693 -0.004210 0.000000 -0.001667 0.000000
# 3 0.000672 -0.004210 0.010127 0.000000 -0.005774 0.000000
# 4 0.000000 0.000000 0.000000 0.034591 0.000000 -0.064757
# 5 0.006471 -0.001667 -0.005774 0.000000 0.046618 0.000000
# 6 0.000000 0.000000 0.000000 -0.064757 0.000000 0.464854
#
#
# Mechanical properties :
#
#
# Convention : Reuss Voigt Hill
#
# Bulk Modulus (GPa) = 31.91258 56.08260 43.99759
# Shear Modulus (GPa) = 7.72687 26.21399 16.97043
#
# Velocity S-wave (km/s) = 1.87352 3.45083 2.77653
# Velocity P-wave (km/s) = 4.37916 6.43072 5.50142
#
# Compressibility (1/GPa) = 0.03133560
#
# Stress axis : x y z
#
# Youngs Moduli (GPa) = 26.21945 78.78541 98.74133
#
# Poissons Ratio (x) = 0.88825 -0.06635
# Poissons Ratio (y) = 0.29560 0.41568
# Poissons Ratio (z) = -0.01762 0.33167
#
# Static dielectric constant tensor:
#      x y z
#    x 3.368050 0.000000 0.150300 
#    y 0.000000 3.911720 0.000000 
#    z 0.150300 0.000000 4.421450 
# 
# 
# High freq. dielectric constant tensor:
#      x y z
#    x 1.802460 0.000000 0.015230 
#    y 0.000000 1.876300 0.000000 
#    z 0.015230 0.000000 1.892500 
# 
# From -- ./inp_files/20656.got.cif
#   From: 2010.06.25/outbox.cif.g09.slc.cpg/sg10_11_cif.got.tgz:20656.got - 2010.06.27 22:07:45.
