data_PCOD8067735
_publ_section_title
;
Structure prediction by ZEFSAII (Michael W. Deem and Ramdas Pophale) SiO2 
 PCOD8067735
Probable space group: P 2/M
;
_chemical_formula_sum "Si O2"
_cell_formula_units_Z 20
_cell_length_a 9.903669
_cell_length_b 8.441913
_cell_length_c 11.505938
_cell_angle_alpha 90.000000
_cell_angle_beta 89.570336
_cell_angle_gamma 90.000000
_cell_volume 961.937393
_symmetry_space_group_name_H-M "P 2/M"
_symmetry_group_IT_number 10
_symmetry_cell_setting 'monoclinic'
loop_
_space_group_symop_operation_xyz
x,y,z
-x,y,-z
-x,-y,-z
x,-y,z
loop_
_atom_site_type_symbol
_atom_site_label
_atom_site_fract_x
_atom_site_fract_y
_atom_site_fract_z
Si Si1 0.485064 0.682762 0.367252
Si Si2 0.014325 0.683964 0.632363
Si Si3 0.237646 0.184904 0.246396
Si Si4 0.348349 0.812537 0.000932
Si Si5 0.265245 0.816856 0.753866
O O1 0.500000 0.730855 0.500000
O O2 0.522067 0.500000 0.345986
O O3 0.331547 0.716521 0.332686
O O4 0.582644 0.794044 0.291955
O O5 0.977443 0.500000 0.638806
O O6 0.165589 0.711928 0.676620
O O7 0.000000 0.745560 0.500000
O O8 0.916141 0.780690 0.718224
O O9 0.269280 0.000000 0.258619
O O10 0.265575 0.243418 0.114601
O O11 0.264406 0.757581 0.887851
O O12 0.361998 0.000000 0.996523
O O13 0.500000 0.738708 0.000000
O O14 0.223492 0.000000 0.743436
#
# Coordination Sequence:
#
# PCOD8067735 Si02
#       5
#     4   4   4   4   4
#     4  11  23  38  57  86 124 161 198 247 308 359
#     4  11  25  44  61  84 126 167 198 247 312 363
#     4  11  22  39  65  91 118 157 206 251 294 357
#     4   9  18  37  62  91 125 155 190 248 311 352
#     4  11  22  39  65  91 118 157 206 251 294 357
#
# _framework density 20.791373
#
# number of rings (size 3 to 8) (size 9 to 14) (size 15 to 20)
#    0.000    1.400    2.000    3.600    0.000    8.800 
#    0.000    9.000    0.000    0.000    0.000    0.000 
#    0.000    0.000    0.000    0.000    0.000    0.000 
#
# Total GULP energy -248107.732360 kJ/mol
# GULP energy per Si atom -12405.386618 kJ/mol
# Density = 2.074405 g / cm^3
# Si number density = 20.791373 Si / 1000 Ang^3
#
#
#
# Elastic Constant Matrix: (Units=GPa)
#
#
# Indices 1 2 3 4 5 6 
#
# 1 75.9624 12.2225 21.8637 0.0000 -1.4872 0.0000
# 2 12.2225 40.5140 45.4535 0.0000 -0.2956 0.0000
# 3 21.8637 45.4535 127.3410 0.0000 1.7509 0.0000
# 4 0.0000 0.0000 0.0000 2.4684 0.0000 -8.0064
# 5 -1.4872 -0.2956 1.7509 0.0000 43.3558 0.0000
# 6 0.0000 0.0000 0.0000 -8.0064 0.0000 30.1363
#
#
#
# Elastic Compliance Matrix: (Units=1/GPa)
#
#
# Indices 1 2 3 4 5 6 
#
# 1 0.014017 -0.002530 -0.001511 0.000000 0.000525 0.000000
# 2 -0.002530 0.041660 -0.014446 0.000000 0.000781 0.000000
# 3 -0.001511 -0.014446 0.013278 0.000000 -0.000687 0.000000
# 4 0.000000 0.000000 0.000000 2.930391 0.000000 0.778528
# 5 0.000525 0.000781 -0.000687 0.000000 0.023116 0.000000
# 6 0.000000 0.000000 0.000000 0.778528 0.000000 0.240017
#
#
# Mechanical properties :
#
#
# Convention : Reuss Voigt Hill
#
# Bulk Modulus (GPa) = 31.26924 44.76632 38.01778
# Shear Modulus (GPa) = 1.51052 26.14393 13.82723
#
# Velocity S-wave (km/s) = 0.85328 3.54989 2.58165
# Velocity P-wave (km/s) = 4.00537 6.19518 5.21647
#
# Compressibility (1/GPa) = 0.03198031
#
# Stress axis : x y z
#
# Youngs Moduli (GPa) = 71.34411 24.00411 75.31071
#
# Poissons Ratio (x) = 0.06073 0.11378
# Poissons Ratio (y) = 0.18049 1.08797
# Poissons Ratio (z) = 0.10778 0.34677
#
# Static dielectric constant tensor:
#      x y z
#    x 3.533820 0.000000 0.011520 
#    y 0.000000 3.427370 0.000000 
#    z 0.011520 0.000000 4.032980 
# 
# 
# High freq. dielectric constant tensor:
#      x y z
#    x 1.811780 0.000000 0.001610 
#    y 0.000000 1.796650 0.000000 
#    z 0.001610 0.000000 1.829840 
# 
# From -- ./inp_files/22182.got.cif
#   From: 2010.06.25/outbox.cif.g09.slc.cpg/sg10_12_cif.got.tgz:22182.got - 2010.06.27 22:07:45.
