data_PCOD8067013
_publ_section_title
;
Structure prediction by ZEFSAII (Michael W. Deem and Ramdas Pophale) SiO2 
 PCOD8067013
Probable space group: P 2/M
;
_chemical_formula_sum "Si O2"
_cell_formula_units_Z 28
_cell_length_a 17.767030
_cell_length_b 18.775120
_cell_length_c 11.767697
_cell_angle_alpha 90.000000
_cell_angle_beta 20.112872
_cell_angle_gamma 90.000000
_cell_volume 1349.845798
_symmetry_space_group_name_H-M "P 2/M"
_symmetry_group_IT_number 10
_symmetry_cell_setting 'monoclinic'
loop_
_space_group_symop_operation_xyz
x,y,z
-x,y,-z
-x,-y,-z
x,-y,z
loop_
_atom_site_type_symbol
_atom_site_label
_atom_site_fract_x
_atom_site_fract_y
_atom_site_fract_z
Si Si1 0.637380 0.580466 0.064856
Si Si2 0.837905 0.827875 0.980686
Si Si3 0.139211 0.333260 0.055992
Si Si4 0.853533 0.080925 0.320520
Si Si5 0.261726 0.419516 0.326303
Si Si6 0.263008 0.673030 0.639612
Si Si7 0.439703 0.174822 0.398732
O O1 0.629664 0.500000 0.125197
O O2 0.385712 0.608191 0.399194
O O3 0.741835 0.635814 0.003389
O O4 0.786392 0.580787 0.740651
O O5 0.930681 0.748715 0.831056
O O6 0.036950 0.882804 0.722435
O O7 0.693669 0.834720 0.297124
O O8 0.692655 0.842819 0.073179
O O9 0.912439 0.374571 0.355803
O O10 0.301153 0.341827 0.719632
O O11 0.629052 0.121082 0.604615
O O12 0.800968 0.000000 0.428512
O O13 0.000000 0.085450 0.000000
O O14 0.260687 0.500000 0.376304
O O15 0.500000 0.384622 0.000000
O O16 0.388362 0.745512 0.426187
O O17 0.000000 0.678670 0.000000
#
# Coordination Sequence:
#
# PCOD8067013 Si02
#       7
#     4   4   4   4   4   4   4
#     4  11  23  37  54  78 107 141 182 231 283 329
#     4   9  17  29  48  71 102 140 181 220 265 319
#     4  11  20  35  55  77 106 144 184 226 275 327
#     4   9  17  28  45  73 107 144 181 217 265 326
#     4  10  22  39  56  76 105 142 181 228 287 336
#     4  11  21  34  54  78 106 144 186 230 274 325
#     4   9  16  30  46  70 104 142 179 220 270 320
#
# _framework density 20.743110999999999
#
# number of rings (size 3 to 8) (size 9 to 14) (size 15 to 20)
#    0.000    2.000    1.429    4.286    0.000    3.714 
#    0.000    2.857    0.000    0.000    0.000    0.000 
#    0.000    7.429    0.000    0.000    0.000    0.429 
#
# Total GULP energy -346950.404384 kJ/mol
# GULP energy per Si atom -12391.085871 kJ/mol
# Density = 2.069590 g / cm^3
# Si number density = 20.743111 Si / 1000 Ang^3
#
#
#
# Elastic Constant Matrix: (Units=GPa)
#
#
# Indices 1 2 3 4 5 6 
#
# 1 48.6106 37.7459 10.1901 0.0000 -26.6468 0.0000
# 2 37.7459 145.7419 36.7625 0.0000 -13.0360 0.0000
# 3 10.1901 36.7625 44.4184 0.0000 -17.2156 0.0000
# 4 0.0000 0.0000 0.0000 9.4534 0.0000 -12.9962
# 5 -26.6468 -13.0360 -17.2156 0.0000 34.3112 0.0000
# 6 0.0000 0.0000 0.0000 -12.9962 0.0000 33.8660
#
#
#
# Elastic Compliance Matrix: (Units=1/GPa)
#
#
# Indices 1 2 3 4 5 6 
#
# 1 0.050854 -0.013372 0.015814 0.000000 0.042348 0.000000
# 2 -0.013372 0.012192 -0.011486 0.000000 -0.011516 0.000000
# 3 0.015814 -0.011486 0.039055 0.000000 0.027513 0.000000
# 4 0.000000 0.000000 0.000000 0.223911 0.000000 0.085926
# 5 0.042348 -0.011516 0.027513 0.000000 0.071463 0.000000
# 6 0.000000 0.000000 0.000000 0.085926 0.000000 0.062503
#
#
# Mechanical properties :
#
#
# Convention : Reuss Voigt Hill
#
# Bulk Modulus (GPa) = 11.90296 45.35201 28.62748
# Shear Modulus (GPa) = 9.88005 25.79761 17.83883
#
# Velocity S-wave (km/s) = 2.18481 3.53040 2.93574
# Velocity P-wave (km/s) = 3.48070 6.20720 5.03213
#
# Compressibility (1/GPa) = 0.08401270
#
# Stress axis : x y z
#
# Youngs Moduli (GPa) = 19.66420 82.02172 25.60478
#
# Poissons Ratio (x) = 1.09678 -0.40491
# Poissons Ratio (y) = 0.26295 0.29410
# Poissons Ratio (z) = -0.31097 0.94211
#
# Static dielectric constant tensor:
#      x y z
#    x 3.967130 0.000000 -0.357510 
#    y 0.000000 3.734980 0.000000 
#    z -0.357510 0.000000 3.591880 
# 
# 
# High freq. dielectric constant tensor:
#      x y z
#    x 1.815900 0.000000 -0.036760 
#    y 0.000000 1.800340 0.000000 
#    z -0.036760 0.000000 1.774100 
# 
# From -- ./inp_files/54238.got.cif
#   From: 2010.06.25/outbox.cif.g09.slc.cpg/sg10_28_cif.got.tgz:54238.got - 2010.06.27 22:07:45.
