data_PCOD8067850
_publ_section_title
;
Structure prediction by ZEFSAII (Michael W. Deem and Ramdas Pophale) SiO2 
 PCOD8067850
Probable space group: P 2/M
;
_chemical_formula_sum "Si O2"
_cell_formula_units_Z 26
_cell_length_a 24.771837
_cell_length_b 15.518724
_cell_length_c 8.689939
_cell_angle_alpha 90.000000
_cell_angle_beta 29.681681
_cell_angle_gamma 90.000000
_cell_volume 1654.226035
_symmetry_space_group_name_H-M "P 2/M"
_symmetry_group_IT_number 10
_symmetry_cell_setting 'monoclinic'
loop_
_space_group_symop_operation_xyz
x,y,z
-x,y,-z
-x,-y,-z
x,-y,z
loop_
_atom_site_type_symbol
_atom_site_label
_atom_site_fract_x
_atom_site_fract_y
_atom_site_fract_z
Si Si1 0.919834 0.500000 0.426231
Si Si2 0.261977 0.500000 0.342139
Si Si3 0.302420 0.774615 0.877548
Si Si4 0.165306 0.500000 0.895135
Si Si5 0.414248 0.360248 0.824215
Si Si6 0.877466 0.354519 0.764295
Si Si7 0.502294 0.780475 0.812325
Si Si8 0.390069 0.902964 0.871080
O O1 0.864615 0.500000 0.395979
O O2 0.877291 0.414282 0.615457
O O3 0.049291 0.500000 0.096950
O O4 0.260804 0.500000 0.530785
O O5 0.321462 0.417981 0.126305
O O6 0.365923 0.708947 0.828021
O O7 0.374394 0.799374 0.550070
O O8 0.291868 0.859839 0.012500
O O9 0.188717 0.733551 0.102306
O O10 0.176181 0.412534 0.967490
O O11 0.500000 0.411543 0.500000
O O12 0.470691 0.314316 0.829764
O O13 0.000000 0.325906 0.500000
O O14 0.415210 0.851101 0.965892
O O15 0.500000 0.782599 0.000000
O O16 0.500000 0.899788 0.500000
O O17 0.354760 0.000000 0.000121
#
# Coordination Sequence:
#
# PCOD8067850 Si02
#       8
#     2   2   4   2   4   4   4   4
#     4   9  17  32  46  59  82 120 154 196 222 271
#     4  12  18  28  46  61  88 119 150 202 218 268
#     4   9  16  30  49  62  86 124 148 179 217 263
#     4   9  21  28  41  69  88 109 155 200 243 241
#     4   9  19  31  42  61  85 124 162 177 213 268
#     4   9  17  32  47  63  87 117 155 189 226 267
#     4   9  18  29  44  66  96 115 140 185 222 261
#     4   8  15  29  48  71  91 114 147 174 208 268
#
# _framework density 15.717321
#
# number of rings (size 3 to 8) (size 9 to 14) (size 15 to 20)
#    0.000    2.923    1.538    3.231    2.154    0.308 
#    0.000    0.385    0.000    0.462    0.000    0.000 
#    0.000    1.231    0.000    0.000    0.000    0.000 
#
# Total GULP energy -322120.502224 kJ/mol
# GULP energy per Si atom -12389.250086 kJ/mol
# Density = 1.568155 g / cm^3
# Si number density = 15.717321 Si / 1000 Ang^3
#
#
#
# Elastic Constant Matrix: (Units=GPa)
#
#
# Indices 1 2 3 4 5 6 
#
# 1 99.5809 40.0508 37.3158 0.0000 9.8139 0.0000
# 2 40.0508 80.0797 26.3868 0.0000 -1.7670 0.0000
# 3 37.3158 26.3868 53.4820 0.0000 9.7876 0.0000
# 4 0.0000 0.0000 0.0000 14.8987 0.0000 -5.0297
# 5 9.8139 -1.7670 9.7876 0.0000 30.7878 0.0000
# 6 0.0000 0.0000 0.0000 -5.0297 0.0000 -14.8426
#
#
#
# Elastic Compliance Matrix: (Units=1/GPa)
#
#
# Indices 1 2 3 4 5 6 
#
# 1 0.015235 -0.005186 -0.007568 0.000000 -0.002748 0.000000
# 2 -0.005186 0.017019 -0.005584 0.000000 0.004405 0.000000
# 3 -0.007568 -0.005584 0.027978 0.000000 -0.006803 0.000000
# 4 0.000000 0.000000 0.000000 0.060229 0.000000 -0.020410
# 5 -0.002748 0.004405 -0.006803 0.000000 0.035772 0.000000
# 6 0.000000 0.000000 0.000000 -0.020410 0.000000 -0.060457
#
#
# Mechanical properties :
#
#
# Convention : Reuss Voigt Hill
#
# Bulk Modulus (GPa) = 42.45428 48.96105 45.70766
# Shear Modulus (GPa) = 35.63685 14.79473 25.21579
#
# Velocity S-wave (km/s) = 4.76685 3.07139 4.00976
# Velocity P-wave (km/s) = 7.57409 6.61790 7.11208
#
# Compressibility (1/GPa) = 0.02355475
#
# Stress axis : x y z
#
# Youngs Moduli (GPa) = 65.63926 58.75886 35.74202
#
# Poissons Ratio (x) = 0.30475 0.27049
# Poissons Ratio (y) = 0.34043 0.19959
# Poissons Ratio (z) = 0.49675 0.32812
#
# Static dielectric constant tensor:
#      x y z
#    x 2.981660 0.000000 -0.010030 
#    y 0.000000 3.081450 0.000000 
#    z -0.010030 0.000000 2.797660 
# 
# 
# High freq. dielectric constant tensor:
#      x y z
#    x 1.604260 0.000000 0.006480 
#    y 0.000000 1.584090 0.000000 
#    z 0.006480 0.000000 1.577020 
# 
# From -- ./inp_files/28813.got.cif
#   From: 2010.06.25/outbox.cif.g09.slc.cpg/sg10_15_cif.got.tgz:28813.got - 2010.06.27 22:07:45.
