data_PCOD8067091
_publ_section_title
;
Structure prediction by ZEFSAII (Michael W. Deem and Ramdas Pophale) SiO2 
 PCOD8067091
Probable space group: P 2/M
;
_chemical_formula_sum "Si O2"
_cell_formula_units_Z 24
_cell_length_a 9.077593
_cell_length_b 16.561881
_cell_length_c 16.386834
_cell_angle_alpha 90.000000
_cell_angle_beta 29.870603
_cell_angle_gamma 90.000000
_cell_volume 1226.993232
_symmetry_space_group_name_H-M "P 2/M"
_symmetry_group_IT_number 10
_symmetry_cell_setting 'monoclinic'
loop_
_space_group_symop_operation_xyz
x,y,z
-x,y,-z
-x,-y,-z
x,-y,z
loop_
_atom_site_type_symbol
_atom_site_label
_atom_site_fract_x
_atom_site_fract_y
_atom_site_fract_z
Si Si1 0.180834 0.592403 0.614585
Si Si2 0.302412 0.774865 0.887973
Si Si3 0.196189 0.840696 0.609109
Si Si4 0.744758 0.709352 0.558385
Si Si5 0.206780 0.090543 0.324223
Si Si6 0.816825 0.278429 0.883551
O O1 0.500000 0.604350 0.500000
O O2 0.078866 0.500000 0.661346
O O3 0.196807 0.623443 0.513109
O O4 0.944056 0.639481 0.783821
O O5 0.437071 0.715206 0.754640
O O6 0.522938 0.846694 0.808376
O O7 0.223448 0.715242 0.000238
O O8 0.000000 0.814658 0.000000
O O9 0.500000 0.878646 0.500000
O O10 0.267904 0.773762 0.507515
O O11 0.989100 0.906894 0.664730
O O12 0.025752 0.798191 0.765159
O O13 0.000000 0.729253 0.500000
O O14 0.000000 0.112300 0.500000
O O15 0.334993 0.000000 0.270877
O O16 0.500000 0.259032 0.000000
#
# Coordination Sequence:
#
# PCOD8067091 Si02
#       6
#     4   4   4   4   4   4
#     4  10  22  40  59  85 121 159 199 242 291 352
#     4  12  21  36  61  90 118 153 200 247 295 349
#     4  11  20  38  62  85 115 157 205 241 287 354
#     4  11  19  38  62  85 115 156 207 243 279 352
#     4  11  23  41  61  86 120 159 199 245 299 350
#     4  11  21  36  60  88 117 153 193 247 297 348
#
# _framework density 19.560009000000001
#
# number of rings (size 3 to 8) (size 9 to 14) (size 15 to 20)
#    0.000    1.000    5.000    5.000    0.000    1.333 
#    0.000    2.500    0.000    3.000    0.000    0.000 
#    0.000    0.000    0.000    0.000    0.000    0.000 
#
# Total GULP energy -297547.733219 kJ/mol
# GULP energy per Si atom -12397.822217 kJ/mol
# Density = 1.951549 g / cm^3
# Si number density = 19.560009 Si / 1000 Ang^3
#
#
#
# Elastic Constant Matrix: (Units=GPa)
#
#
# Indices 1 2 3 4 5 6 
#
# 1 104.7130 29.3301 43.3783 0.0000 -14.8522 0.0000
# 2 29.3301 95.2825 48.3533 0.0000 3.9923 0.0000
# 3 43.3783 48.3533 129.0197 0.0000 6.7217 0.0000
# 4 0.0000 0.0000 0.0000 -61.5948 0.0000 12.1728
# 5 -14.8522 3.9923 6.7217 0.0000 46.1832 0.0000
# 6 0.0000 0.0000 0.0000 12.1728 0.0000 15.9642
#
#
#
# Elastic Compliance Matrix: (Units=1/GPa)
#
#
# Indices 1 2 3 4 5 6 
#
# 1 0.012295 -0.002172 -0.003563 0.000000 0.004660 0.000000
# 2 -0.002172 0.013352 -0.004209 0.000000 -0.001240 0.000000
# 3 -0.003563 -0.004209 0.010647 0.000000 -0.002332 0.000000
# 4 0.000000 0.000000 0.000000 -0.014109 0.000000 0.010758
# 5 0.004660 -0.001240 -0.002332 0.000000 0.023598 0.000000
# 6 0.000000 0.000000 0.000000 0.010758 0.000000 0.054437
#
#
# Mechanical properties :
#
#
# Convention : Reuss Voigt Hill
#
# Bulk Modulus (GPa) = 60.94968 63.45986 62.20477
# Shear Modulus (GPa) = 39.81638 13.97409 26.89523
#
# Velocity S-wave (km/s) = 4.51666 2.67577 3.71214
# Velocity P-wave (km/s) = 7.64384 6.48540 7.08832
#
# Compressibility (1/GPa) = 0.01640698
#
# Stress axis : x y z
#
# Youngs Moduli (GPa) = 81.33291 74.89727 93.91953
#
# Poissons Ratio (x) = 0.16268 0.33459
# Poissons Ratio (y) = 0.17666 0.39530
# Poissons Ratio (z) = 0.28975 0.31524
#
# Static dielectric constant tensor:
#      x y z
#    x 2.209700 0.000000 -1.567300 
#    y 0.000000 3.383040 0.000000 
#    z -1.567300 0.000000 2.128450 
# 
# 
# High freq. dielectric constant tensor:
#      x y z
#    x 1.776290 0.000000 0.000520 
#    y 0.000000 1.729290 0.000000 
#    z 0.000520 0.000000 1.771780 
# 
# From -- ./inp_files/30034.got.cif
#   From: 2010.06.25/outbox.cif.g09.slc.cpg/sg10_16_cif.got.tgz:30034.got - 2010.06.27 22:07:45.
