data_PCOD8067520
_publ_section_title
;
Structure prediction by ZEFSAII (Michael W. Deem and Ramdas Pophale) SiO2 
 PCOD8067520
Probable space group: P 2/M
;
_chemical_formula_sum "Si O2"
_cell_formula_units_Z 32
_cell_length_a 15.012257
_cell_length_b 18.632365
_cell_length_c 20.507261
_cell_angle_alpha 90.000000
_cell_angle_beta 19.325874
_cell_angle_gamma 90.000000
_cell_volume 1898.329685
_symmetry_space_group_name_H-M "P 2/M"
_symmetry_group_IT_number 10
_symmetry_cell_setting 'monoclinic'
loop_
_space_group_symop_operation_xyz
x,y,z
-x,y,-z
-x,-y,-z
x,-y,z
loop_
_atom_site_type_symbol
_atom_site_label
_atom_site_fract_x
_atom_site_fract_y
_atom_site_fract_z
Si Si1 0.563253 0.581244 0.814916
Si Si2 0.960103 0.418666 0.421394
Si Si3 0.748903 0.080246 0.125757
Si Si4 0.193585 0.576987 0.809667
Si Si5 0.306748 0.331313 0.502395
Si Si6 0.439160 0.175321 0.435489
Si Si7 0.060608 0.668026 0.125949
Si Si8 0.061068 0.175569 0.814929
O O1 0.450061 0.500000 0.896999
O O2 0.733864 0.591061 0.631959
O O3 0.747075 0.597368 0.750824
O O4 0.322659 0.637822 0.981115
O O5 0.951426 0.500000 0.399691
O O6 0.908422 0.361401 0.400478
O O7 0.500584 0.117817 0.335861
O O8 0.654346 0.000000 0.172664
O O9 0.000000 0.077617 0.000000
O O10 0.844368 0.118508 0.992524
O O11 0.296131 0.500000 0.708792
O O12 0.427270 0.621920 0.682113
O O13 0.013820 0.622049 0.884727
O O14 0.000000 0.554595 0.000000
O O15 0.366163 0.247933 0.447028
O O16 0.197089 0.337736 0.650597
O O17 0.194866 0.150606 0.653039
O O18 0.703846 0.189642 0.295434
O O19 0.107948 0.751186 0.075785
#
# Coordination Sequence:
#
# PCOD8067520 Si02
#       8
#     4   4   4   4   4   4   4   4
#     4   9  19  35  51  67  91 126 168 212 255 296
#     4   9  19  35  51  67  91 126 168 212 255 296
#     4   9  18  30  48  72  95 130 167 193 232 286
#     4  11  23  33  45  67  93 128 169 206 246 292
#     4  11  21  32  48  70  96 128 164 204 250 295
#     4   9  18  31  46  69 100 131 162 198 242 290
#     4  11  21  32  48  70  96 128 164 204 250 295
#     4   9  18  31  46  69 100 131 162 198 242 290
#
# _framework density 16.856923999999999
#
# number of rings (size 3 to 8) (size 9 to 14) (size 15 to 20)
#    0.000    2.250    1.250    2.625    3.500    5.500 
#    0.000    3.750    0.000    0.000    0.000    0.000 
#    0.000    2.000    0.000    5.500    0.000    0.250 
#
# Total GULP energy -396644.192005 kJ/mol
# GULP energy per Si atom -12395.131000 kJ/mol
# Density = 1.681856 g / cm^3
# Si number density = 16.856924 Si / 1000 Ang^3
#
#
#
# Elastic Constant Matrix: (Units=GPa)
#
#
# Indices 1 2 3 4 5 6 
#
# 1 20.0165 58.3663 84.1111 0.0000 -12.2334 0.0000
# 2 58.3663 135.2400 46.5495 0.0000 14.5602 0.0000
# 3 84.1111 46.5495 -17.3719 0.0000 30.4293 0.0000
# 4 0.0000 0.0000 0.0000 24.4817 0.0000 -11.6090
# 5 -12.2334 14.5602 30.4293 0.0000 20.1480 0.0000
# 6 0.0000 0.0000 0.0000 -11.6090 0.0000 12.9681
#
#
#
# Elastic Compliance Matrix: (Units=1/GPa)
#
#
# Indices 1 2 3 4 5 6 
#
# 1 0.010695 -0.008524 0.014020 0.000000 -0.008520 0.000000
# 2 -0.008524 0.014243 -0.008285 0.000000 -0.002956 0.000000
# 3 0.014020 -0.008285 0.003707 0.000000 0.008901 0.000000
# 4 0.000000 0.000000 0.000000 0.070975 0.000000 0.063537
# 5 -0.008520 -0.002956 0.008901 0.000000 0.033153 0.000000
# 6 0.000000 0.000000 0.000000 0.063537 0.000000 0.133990
#
#
# Mechanical properties :
#
#
# Convention : Reuss Voigt Hill
#
# Bulk Modulus (GPa) = 43.35218 57.32650 50.33934
# Shear Modulus (GPa) = 17.85514 8.11010 12.98262
#
# Velocity S-wave (km/s) = 3.25809 2.19581 2.77820
# Velocity P-wave (km/s) = 6.31879 6.36477 6.34182
#
# Compressibility (1/GPa) = 0.02306689
#
# Stress axis : x y z
#
# Youngs Moduli (GPa) = 93.49901 70.21016 269.74772
#
# Poissons Ratio (x) = 0.59848 -3.78178
# Poissons Ratio (y) = 0.79700 2.23481
# Poissons Ratio (z) = -1.31083 0.58168
#
# Static dielectric constant tensor:
#      x y z
#    x 3.040000 0.000000 0.156160 
#    y 0.000000 3.247900 0.000000 
#    z 0.156160 0.000000 3.171610 
# 
# 
# High freq. dielectric constant tensor:
#      x y z
#    x 1.627280 0.000000 0.023050 
#    y 0.000000 1.640370 0.000000 
#    z 0.023050 0.000000 1.644980 
# 
# From -- ./inp_files/70856.got.cif
#   From: 2010.06.25/outbox.cif.g09.slc.cpg/sg10_36_cif.got.tgz:70856.got - 2010.06.27 22:07:45.
