data_PCOD8067599
_publ_section_title
;
Structure prediction by ZEFSAII (Michael W. Deem and Ramdas Pophale) SiO2 
 PCOD8067599
Probable space group: P 2/M
;
_chemical_formula_sum "Si O2"
_cell_formula_units_Z 24
_cell_length_a 17.251657
_cell_length_b 14.194162
_cell_length_c 9.780601
_cell_angle_alpha 90.000000
_cell_angle_beta 150.117811
_cell_angle_gamma 90.000000
_cell_volume 1193.234305
_symmetry_space_group_name_H-M "P 2/M"
_symmetry_group_IT_number 10
_symmetry_cell_setting 'monoclinic'
loop_
_space_group_symop_operation_xyz
x,y,z
-x,y,-z
-x,-y,-z
x,-y,z
loop_
_atom_site_type_symbol
_atom_site_label
_atom_site_fract_x
_atom_site_fract_y
_atom_site_fract_z
Si Si1 0.661275 0.891338 0.519251
Si Si2 0.817096 0.207172 0.505196
Si Si3 0.755518 0.602998 0.065095
Si Si4 0.872168 0.891946 0.103405
Si Si5 0.054944 0.603100 0.366271
Si Si6 0.659876 0.794925 0.983314
O O1 0.737431 0.826877 0.520920
O O2 0.752223 0.875737 0.797620
O O3 0.664776 0.000000 0.477731
O O4 0.484761 0.860110 0.275569
O O5 0.880324 0.313242 0.630090
O O6 0.688019 0.204921 0.188744
O O7 0.957863 0.139180 0.682293
O O8 0.672641 0.500000 0.927592
O O9 0.858096 0.607996 0.357358
O O10 0.630361 0.687885 0.882472
O O11 0.870713 0.617377 0.112016
O O12 0.880587 0.000000 0.159919
O O13 0.815352 0.833784 0.148011
O O14 0.083358 0.500000 0.341098
#
# Coordination Sequence:
#
# PCOD8067599 Si02
#       6
#     4   4   4   4   4   4
#     4  11  25  41  54  75 118 162 181 215 292 351
#     4  11  21  36  60  88 110 140 190 238 274 317
#     4   8  14  28  53  84 113 139 174 225 280 327
#     4  11  23  39  58  79 108 150 195 231 272 335
#     4   8  14  28  53  84 113 139 174 225 280 327
#     4  11  21  36  60  88 110 140 190 238 274 317
#
# _framework density 20.113401
#
# number of rings (size 3 to 8) (size 9 to 14) (size 15 to 20)
#    0.000    2.000    1.667    4.000    0.000    6.667 
#    0.000    0.833    0.000   10.000    0.000    0.000 
#    0.000    0.000    0.000    0.000    0.000    0.000 
#
# Total GULP energy -297558.301286 kJ/mol
# GULP energy per Si atom -12398.262554 kJ/mol
# Density = 2.006762 g / cm^3
# Si number density = 20.113401 Si / 1000 Ang^3
#
#
#
# Elastic Constant Matrix: (Units=GPa)
#
#
# Indices 1 2 3 4 5 6 
#
# 1 60.9738 32.5445 -2.3527 0.0000 4.8037 0.0000
# 2 32.5445 147.8800 19.2812 0.0000 -7.3854 0.0000
# 3 -2.3527 19.2812 44.9589 0.0000 6.0170 0.0000
# 4 0.0000 0.0000 0.0000 -2.2062 0.0000 20.4985
# 5 4.8037 -7.3854 6.0170 0.0000 19.8557 0.0000
# 6 0.0000 0.0000 0.0000 20.4985 0.0000 27.7982
#
#
#
# Elastic Compliance Matrix: (Units=1/GPa)
#
#
# Indices 1 2 3 4 5 6 
#
# 1 0.020117 -0.005423 0.004482 0.000000 -0.008242 0.000000
# 2 -0.005423 0.008903 -0.004920 0.000000 0.006114 0.000000
# 3 0.004482 -0.004920 0.026033 0.000000 -0.010803 0.000000
# 4 0.000000 0.000000 0.000000 -0.057730 0.000000 0.042571
# 5 -0.008242 0.006114 -0.010803 0.000000 0.057906 0.000000
# 6 0.000000 0.000000 0.000000 0.042571 0.000000 0.004582
#
#
# Mechanical properties :
#
#
# Convention : Reuss Voigt Hill
#
# Bulk Modulus (GPa) = 23.07894 39.19542 31.13718
# Shear Modulus (GPa) = 58.15530 22.71218 40.43374
#
# Velocity S-wave (km/s) = 5.38298 3.36401 4.48849
# Velocity P-wave (km/s) = 7.08058 5.88373 6.50972
#
# Compressibility (1/GPa) = 0.04332955
#
# Stress axis : x y z
#
# Youngs Moduli (GPa) = 49.70817 112.32632 38.41285
#
# Poissons Ratio (x) = 0.60918 -0.17215
# Poissons Ratio (y) = 0.26958 0.18900
# Poissons Ratio (z) = -0.22278 0.55266
#
# Static dielectric constant tensor:
#      x y z
#    x 3.383920 0.000000 0.045240 
#    y 0.000000 4.292320 0.000000 
#    z 0.045240 0.000000 3.353010 
# 
# 
# High freq. dielectric constant tensor:
#      x y z
#    x 1.766990 0.000000 0.004580 
#    y 0.000000 1.808770 0.000000 
#    z 0.004580 0.000000 1.755900 
# 
# From -- ./inp_files/29667.got.cif
#   From: 2010.06.25/outbox.cif.g09.slc.cpg/sg10_15_cif.got.tgz:29667.got - 2010.06.27 22:07:45.
