data_PCOD8067067
_publ_section_title
;
Structure prediction by ZEFSAII (Michael W. Deem and Ramdas Pophale) SiO2 
 PCOD8067067
Probable space group: P 2/M
;
_chemical_formula_sum "Si O2"
_cell_formula_units_Z 16
_cell_length_a 5.026054
_cell_length_b 13.304966
_cell_length_c 11.501471
_cell_angle_alpha 90.000000
_cell_angle_beta 62.887378
_cell_angle_gamma 90.000000
_cell_volume 684.603592
_symmetry_space_group_name_H-M "P 2/M"
_symmetry_group_IT_number 10
_symmetry_cell_setting 'monoclinic'
loop_
_space_group_symop_operation_xyz
x,y,z
-x,y,-z
-x,-y,-z
x,-y,z
loop_
_atom_site_type_symbol
_atom_site_label
_atom_site_fract_x
_atom_site_fract_y
_atom_site_fract_z
Si Si1 0.235775 0.764994 0.767151
Si Si2 0.200031 0.386862 0.113502
Si Si3 0.346326 0.884322 0.154743
Si Si4 0.705543 0.386305 0.630878
O O1 0.408266 0.850249 0.801822
O O2 0.460968 0.698535 0.641454
O O3 0.079990 0.678190 0.878021
O O4 0.956950 0.821337 0.760652
O O5 0.149792 0.500000 0.080943
O O6 0.217942 0.375911 0.248785
O O7 0.500000 0.340346 0.000000
O O8 0.268043 0.000000 0.191590
O O9 0.500000 0.867427 0.000000
O O10 0.585467 0.500000 0.628313
O O11 0.000000 0.363125 0.500000
#
# Coordination Sequence:
#
# PCOD8067067 Si02
#       4
#     4   4   4   4
#     4  12  22  41  67  95 133 172 223 268 339 390
#     4  10  22  39  63 100 139 174 218 272 334 397
#     4  11  25  42  66  99 134 171 221 285 343 399
#     4  10  23  42  65  98 139 183 228 268 318 396
#
# _framework density 23.371186000000002
#
# number of rings (size 3 to 8) (size 9 to 14) (size 15 to 20)
#    0.000    1.250    2.500    3.000    3.500    3.000 
#    0.000    7.500    0.000    6.750    0.000    0.000 
#    0.000    0.000    0.000    0.000    0.000    0.000 
#
# Total GULP energy -198256.899883 kJ/mol
# GULP energy per Si atom -12391.056243 kJ/mol
# Density = 2.331799 g / cm^3
# Si number density = 23.371186 Si / 1000 Ang^3
#
#
#
# Elastic Constant Matrix: (Units=GPa)
#
#
# Indices 1 2 3 4 5 6 
#
# 1 88.4621 31.3946 33.3790 0.0000 -29.0793 0.0000
# 2 31.3946 169.6354 44.2419 0.0000 -38.5191 0.0000
# 3 33.3790 44.2419 149.0979 0.0000 -24.9546 0.0000
# 4 0.0000 0.0000 0.0000 41.0022 0.0000 2.9782
# 5 -29.0793 -38.5191 -24.9546 0.0000 33.5273 0.0000
# 6 0.0000 0.0000 0.0000 2.9782 0.0000 80.1985
#
#
#
# Elastic Compliance Matrix: (Units=1/GPa)
#
#
# Indices 1 2 3 4 5 6 
#
# 1 0.016105 0.000445 -0.001501 0.000000 0.013363 0.000000
# 2 0.000445 0.008108 -0.001007 0.000000 0.008951 0.000000
# 3 -0.001501 -0.001007 0.007917 0.000000 0.003433 0.000000
# 4 0.000000 0.000000 0.000000 0.024455 0.000000 -0.000908
# 5 0.013363 0.008951 0.003433 0.000000 0.054256 0.000000
# 6 0.000000 0.000000 0.000000 -0.000908 0.000000 0.012503
#
#
# Mechanical properties :
#
#
# Convention : Reuss Voigt Hill
#
# Bulk Modulus (GPa) = 35.70999 69.46959 52.58979
# Shear Modulus (GPa) = 36.54850 50.82427 43.68639
#
# Velocity S-wave (km/s) = 3.95882 4.66838 4.32816
# Velocity P-wave (km/s) = 6.01739 7.67120 6.89407
#
# Compressibility (1/GPa) = 0.02800337
#
# Stress axis : x y z
#
# Youngs Moduli (GPa) = 62.09114 123.33612 126.31747
#
# Poissons Ratio (x) = -0.05491 0.18961
# Poissons Ratio (y) = -0.02764 0.12724
# Poissons Ratio (z) = 0.09320 0.12424
#
# Static dielectric constant tensor:
#      x y z
#    x 4.251260 0.000000 -0.434090 
#    y 0.000000 4.652370 0.000000 
#    z -0.434090 0.000000 4.190870 
# 
# 
# High freq. dielectric constant tensor:
#      x y z
#    x 1.919480 0.000000 -0.032710 
#    y 0.000000 1.941190 0.000000 
#    z -0.032710 0.000000 1.908210 
# 
# From -- ./inp_files/9366.got.cif
#   From: 2010.06.25/outbox.cif.g09.slc.cpg/sg10_5_cif.got.tgz:9366.got - 2010.06.27 22:07:45.
