data_PCOD8067770
_publ_section_title
;
Structure prediction by ZEFSAII (Michael W. Deem and Ramdas Pophale) SiO2 
 PCOD8067770
Probable space group: P 2/M
;
_chemical_formula_sum "Si O2"
_cell_formula_units_Z 28
_cell_length_a 12.442291
_cell_length_b 8.591034
_cell_length_c 14.871553
_cell_angle_alpha 90.000000
_cell_angle_beta 74.636518
_cell_angle_gamma 90.000000
_cell_volume 1532.845125
_symmetry_space_group_name_H-M "P 2/M"
_symmetry_group_IT_number 10
_symmetry_cell_setting 'monoclinic'
loop_
_space_group_symop_operation_xyz
x,y,z
-x,y,-z
-x,-y,-z
x,-y,z
loop_
_atom_site_type_symbol
_atom_site_label
_atom_site_fract_x
_atom_site_fract_y
_atom_site_fract_z
Si Si1 0.915600 0.680829 0.390325
Si Si2 0.856688 0.320167 0.884415
Si Si3 0.837977 0.681017 0.600074
Si Si4 0.694601 0.179753 0.777546
Si Si5 0.246194 0.820774 0.920457
Si Si6 0.478219 0.318661 0.902503
Si Si7 0.088945 0.821426 0.793664
O O1 0.895219 0.500000 0.375694
O O2 0.847711 0.733008 0.494002
O O3 0.872045 0.780086 0.315852
O O4 0.046272 0.713666 0.374803
O O5 0.833984 0.500000 0.866620
O O6 0.788172 0.215848 0.830366
O O7 0.987118 0.286171 0.847063
O O8 0.817326 0.285604 0.993738
O O9 0.807858 0.500000 0.613612
O O10 0.741198 0.780623 0.668257
O O11 0.585616 0.282439 0.818848
O O12 0.661649 0.000000 0.790105
O O13 0.375580 0.777875 0.885755
O O14 0.193377 0.788491 0.834851
O O15 0.232240 0.000000 0.952124
O O16 0.449431 0.500000 0.904091
O O17 0.500000 0.265879 0.000000
O O18 0.050496 0.000000 0.807543
#
# Coordination Sequence:
#
# PCOD8067770 Si02
#       7
#     4   4   4   4   4   4   4
#     4   9  18  33  56  82 113 149 184 225 275 329
#     4  12  23  36  55  81 113 151 191 228 271 329
#     4   9  18  34  55  83 114 146 184 228 275 329
#     4  12  23  35  57  85 115 148 182 229 285 330
#     4  11  24  40  57  80 113 150 188 231 278 330
#     4  11  23  39  60  83 108 145 190 233 275 326
#     4  11  23  37  55  83 117 150 185 228 279 332
#
# _framework density 18.266687000000001
#
# number of rings (size 3 to 8) (size 9 to 14) (size 15 to 20)
#    0.000    1.286    2.857    5.143    0.000    5.143 
#    0.000    1.429    0.000    0.857    0.000    6.000 
#    0.000    0.000    0.000    0.000    0.000    0.000 
#
# Total GULP energy -347355.455148 kJ/mol
# GULP energy per Si atom -12405.551970 kJ/mol
# Density = 1.822511 g / cm^3
# Si number density = 18.266687 Si / 1000 Ang^3
#
#
#
# Elastic Constant Matrix: (Units=GPa)
#
#
# Indices 1 2 3 4 5 6 
#
# 1 90.1711 21.1894 43.4437 0.0000 2.1480 0.0000
# 2 21.1894 57.7254 26.7563 0.0000 0.7507 0.0000
# 3 43.4437 26.7563 116.9910 0.0000 -4.0911 0.0000
# 4 0.0000 0.0000 0.0000 28.3579 0.0000 -1.3425
# 5 2.1480 0.7507 -4.0911 0.0000 21.8027 0.0000
# 6 0.0000 0.0000 0.0000 -1.3425 0.0000 24.3449
#
#
#
# Elastic Compliance Matrix: (Units=1/GPa)
#
#
# Indices 1 2 3 4 5 6 
#
# 1 0.014069 -0.002998 -0.004614 0.000000 -0.002149 0.000000
# 2 -0.002998 0.020066 -0.003513 0.000000 -0.001055 0.000000
# 3 -0.004614 -0.003513 0.011158 0.000000 0.002669 0.000000
# 4 0.000000 0.000000 0.000000 0.035356 0.000000 0.001950
# 5 -0.002149 -0.001055 0.002669 0.000000 0.046615 0.000000
# 6 0.000000 0.000000 0.000000 0.001950 0.000000 0.041184
#
#
# Mechanical properties :
#
#
# Convention : Reuss Voigt Hill
#
# Bulk Modulus (GPa) = 43.39650 49.74069 46.56859
# Shear Modulus (GPa) = 25.20465 26.46763 25.83614
#
# Velocity S-wave (km/s) = 3.71862 3.81065 3.76491
# Velocity P-wave (km/s) = 6.49971 6.83014 6.66697
#
# Compressibility (1/GPa) = 0.02304333
#
# Stress axis : x y z
#
# Youngs Moduli (GPa) = 71.08059 49.83625 89.62422
#
# Poissons Ratio (x) = 0.14939 0.41351
# Poissons Ratio (y) = 0.21308 0.31483
# Poissons Ratio (z) = 0.32795 0.17507
#
# Static dielectric constant tensor:
#      x y z
#    x 3.169010 0.000000 -0.001550 
#    y 0.000000 3.378800 0.000000 
#    z -0.001550 0.000000 3.470830 
# 
# 
# High freq. dielectric constant tensor:
#      x y z
#    x 1.683860 0.000000 -0.003680 
#    y 0.000000 1.714940 0.000000 
#    z -0.003680 0.000000 1.712250 
# 
# From -- ./inp_files/49194.got.cif
#   From: 2010.06.25/outbox.cif.g09.slc.cpg/sg10_25_cif.got.tgz:49194.got - 2010.06.27 22:07:45.
