data_PCOD8067511
_publ_section_title
;
Structure prediction by ZEFSAII (Michael W. Deem and Ramdas Pophale) SiO2 
 PCOD8067511
Probable space group: P 2/M
;
_chemical_formula_sum "Si O2"
_cell_formula_units_Z 32
_cell_length_a 15.749108
_cell_length_b 9.058166
_cell_length_c 21.478772
_cell_angle_alpha 90.000000
_cell_angle_beta 145.503575
_cell_angle_gamma 90.000000
_cell_volume 1735.378773
_symmetry_space_group_name_H-M "P 2/M"
_symmetry_group_IT_number 10
_symmetry_cell_setting 'monoclinic'
loop_
_space_group_symop_operation_xyz
x,y,z
-x,y,-z
-x,-y,-z
x,-y,z
loop_
_atom_site_type_symbol
_atom_site_label
_atom_site_fract_x
_atom_site_fract_y
_atom_site_fract_z
Si Si1 0.014515 0.827212 0.809020
Si Si2 0.839088 0.829527 0.583287
Si Si3 0.772438 0.328451 0.748358
Si Si4 0.862490 0.174466 0.457488
Si Si5 0.745952 0.673535 0.973762
Si Si6 0.167575 0.159760 0.093782
Si Si7 0.438946 0.671539 0.729892
Si Si8 0.542374 0.329732 0.400210
O O1 0.974656 0.798268 0.712763
O O2 0.873774 0.768204 0.764088
O O3 0.034413 0.000000 0.835898
O O4 0.172531 0.742312 0.916006
O O5 0.887850 0.774118 0.544231
O O6 0.688163 0.750566 0.515374
O O7 0.798034 0.000000 0.556226
O O8 0.816621 0.500000 0.767366
O O9 0.787926 0.279361 0.828600
O O10 0.592764 0.303135 0.631993
O O11 0.708073 0.240605 0.337717
O O12 0.000000 0.237203 0.500000
O O13 0.852366 0.000000 0.444981
O O14 0.778601 0.500000 0.990947
O O15 0.828322 0.756922 0.968698
O O16 0.568241 0.705825 0.859318
O O17 0.257239 0.000000 0.149962
O O18 0.000000 0.110547 0.000000
O O19 0.399371 0.500000 0.705866
O O20 0.493213 0.722867 0.693179
O O21 0.583474 0.500000 0.421946
#
# Coordination Sequence:
#
# PCOD8067511 Si02
#       8
#     4   4   4   4   4   4   4   4
#     4  11  23  36  48  70 103 140 183 217 256 309
#     4   9  20  37  54  74 104 137 166 210 263 312
#     4  11  21  33  49  70  99 138 183 226 266 298
#     4   9  18  35  61  89 108 127 161 203 254 315
#     4  11  21  34  52  73 102 139 179 218 259 302
#     4  11  21  31  46  71 100 134 180 228 268 303
#     4   9  18  33  52  79 109 133 164 209 260 306
#     4   9  18  33  51  72  99 132 175 222 261 303
#
# _framework density 18.439779000000001
#
# number of rings (size 3 to 8) (size 9 to 14) (size 15 to 20)
#    0.000    2.000    2.500    1.500    0.000    4.250 
#    0.000    2.500    0.000    0.750    0.000    5.250 
#    0.000    0.000    0.000    0.000    0.000    0.000 
#
# Total GULP energy -396536.217510 kJ/mol
# GULP energy per Si atom -12391.756797 kJ/mol
# Density = 1.839781 g / cm^3
# Si number density = 18.439779 Si / 1000 Ang^3
#
#
#
# Elastic Constant Matrix: (Units=GPa)
#
#
# Indices 1 2 3 4 5 6 
#
# 1 67.8725 32.6839 46.5851 0.0000 15.7999 0.0000
# 2 32.6839 70.6871 44.4326 0.0000 6.8346 0.0000
# 3 46.5851 44.4326 116.4742 0.0000 8.2110 0.0000
# 4 0.0000 0.0000 0.0000 31.2366 0.0000 2.4260
# 5 15.7999 6.8346 8.2110 0.0000 21.9163 0.0000
# 6 0.0000 0.0000 0.0000 2.4260 0.0000 16.4766
#
#
#
# Elastic Compliance Matrix: (Units=1/GPa)
#
#
# Indices 1 2 3 4 5 6 
#
# 1 0.025746 -0.006178 -0.006951 0.000000 -0.014030 0.000000
# 2 -0.006178 0.020317 -0.005286 0.000000 0.000099 0.000000
# 3 -0.006951 -0.005286 0.013263 0.000000 0.001691 0.000000
# 4 0.000000 0.000000 0.000000 0.032384 0.000000 -0.004768
# 5 -0.014030 0.000099 0.001691 0.000000 0.055078 0.000000
# 6 0.000000 0.000000 0.000000 -0.004768 0.000000 0.061394
#
#
# Mechanical properties :
#
#
# Convention : Reuss Voigt Hill
#
# Bulk Modulus (GPa) = 44.45633 55.82635 50.14134
# Shear Modulus (GPa) = 19.80103 22.68138 21.24121
#
# Velocity S-wave (km/s) = 3.28048 3.51098 3.39768
# Velocity P-wave (km/s) = 6.20564 6.83934 6.53018
#
# Compressibility (1/GPa) = 0.02249398
#
# Stress axis : x y z
#
# Youngs Moduli (GPa) = 38.84147 49.22017 75.39581
#
# Poissons Ratio (x) = 0.30409 0.52411
# Poissons Ratio (y) = 0.23997 0.39857
# Poissons Ratio (z) = 0.27000 0.26020
#
# Static dielectric constant tensor:
#      x y z
#    x 2.817100 0.000000 -0.313370 
#    y 0.000000 3.418170 0.000000 
#    z -0.313370 0.000000 3.258090 
# 
# 
# High freq. dielectric constant tensor:
#      x y z
#    x 1.670370 0.000000 0.006080 
#    y 0.000000 1.725420 0.000000 
#    z 0.006080 0.000000 1.718400 
# 
# From -- ./inp_files/55228.got.cif
#   From: 2010.06.25/outbox.cif.g09.slc.cpg/sg10_28_cif.got.tgz:55228.got - 2010.06.27 22:07:45.
