data_PCOD8067708
_publ_section_title
;
Structure prediction by ZEFSAII (Michael W. Deem and Ramdas Pophale) SiO2 
 PCOD8067708
Probable space group: P 2/M
;
_chemical_formula_sum "Si O2"
_cell_formula_units_Z 32
_cell_length_a 14.131551
_cell_length_b 18.170301
_cell_length_c 12.063036
_cell_angle_alpha 90.000000
_cell_angle_beta 31.391584
_cell_angle_gamma 90.000000
_cell_volume 1613.428790
_symmetry_space_group_name_H-M "P 2/M"
_symmetry_group_IT_number 10
_symmetry_cell_setting 'monoclinic'
loop_
_space_group_symop_operation_xyz
x,y,z
-x,y,-z
-x,-y,-z
x,-y,z
loop_
_atom_site_type_symbol
_atom_site_label
_atom_site_fract_x
_atom_site_fract_y
_atom_site_fract_z
Si Si1 0.296791 0.813672 0.515722
Si Si2 0.715625 0.080593 0.284375
Si Si3 0.214292 0.081498 0.160465
Si Si4 0.703205 0.813671 0.109307
Si Si5 0.214290 0.918502 0.410952
Si Si6 0.000001 0.587026 0.322281
Si Si7 0.000002 0.698692 0.133183
Si Si8 0.293216 0.412811 0.206784
O O1 0.214080 0.875693 0.679126
O O2 0.499997 0.790367 0.346737
O O3 0.301265 0.850991 0.390708
O O4 0.177155 0.741267 0.647053
O O5 0.500000 0.074122 0.500000
O O6 0.785916 0.124307 0.107288
O O7 0.805593 0.000000 0.194405
O O8 0.282458 0.090797 0.217542
O O9 0.000001 0.088286 0.367810
O O10 0.275313 0.000000 0.055832
O O11 0.301267 0.149010 0.006760
O O12 0.822839 0.741267 0.001370
O O13 0.275309 0.000000 0.393545
O O14 0.000003 0.500000 0.305497
O O15 0.180414 0.612268 0.210308
O O16 0.000001 0.621821 0.199345
O O17 0.819587 0.612268 0.571134
O O18 0.000000 0.686008 0.000000
O O19 0.304780 0.500000 0.195218
O O20 0.500000 0.379713 0.000000
#
# Coordination Sequence:
#
# PCOD8067708 Si02
#       8
#     4   4   4   4   4   4   4   4
#     4  11  22  38  57  80 112 150 194 244 296 353
#     4   9  18  33  55  81 104 136 192 250 290 335
#     4   9  18  34  56  81 112 150 192 242 299 359
#     4  11  22  38  57  80 112 150 194 244 296 353
#     4   9  18  34  56  81 112 150 192 242 299 359
#     4   9  20  39  65  97 126 154 196 240 279 348
#     4  12  25  42  60  81 118 164 198 243 302 346
#     4   8  15  35  68 101 129 152 179 229 291 341
#
# _framework density 19.833537
#
# number of rings (size 3 to 8) (size 9 to 14) (size 15 to 20)
#    0.000    2.250    2.500    2.250    0.000    3.250 
#    4.500    1.875    0.000    0.000    0.000    5.250 
#    0.000    0.000    0.000    0.000    0.000    0.000 
#
# Total GULP energy -396629.632368 kJ/mol
# GULP energy per Si atom -12394.676012 kJ/mol
# Density = 1.978839 g / cm^3
# Si number density = 19.833537 Si / 1000 Ang^3
#
#
#
# Elastic Constant Matrix: (Units=GPa)
#
#
# Indices 1 2 3 4 5 6 
#
# 1 97.3249 46.7413 54.8222 0.0000 11.3065 0.0000
# 2 46.7413 79.0681 38.8547 0.0000 9.5882 0.0000
# 3 54.8222 38.8547 93.2408 0.0000 -6.3473 0.0000
# 4 0.0000 0.0000 0.0000 44.7357 0.0000 -13.0489
# 5 11.3065 9.5882 -6.3473 0.0000 38.0650 0.0000
# 6 0.0000 0.0000 0.0000 -13.0489 0.0000 34.0071
#
#
#
# Elastic Compliance Matrix: (Units=1/GPa)
#
#
# Indices 1 2 3 4 5 6 
#
# 1 0.018886 -0.006095 -0.008944 0.000000 -0.005566 0.000000
# 2 -0.006095 0.018945 -0.004564 0.000000 -0.003723 0.000000
# 3 -0.008944 -0.004564 0.018353 0.000000 0.006867 0.000000
# 4 0.000000 0.000000 0.000000 0.025171 0.000000 0.009658
# 5 -0.005566 -0.003723 0.006867 0.000000 0.030007 0.000000
# 6 0.000000 0.000000 0.000000 0.009658 0.000000 0.033112
#
#
# Mechanical properties :
#
#
# Convention : Reuss Voigt Hill
#
# Bulk Modulus (GPa) = 58.89852 61.16334 60.03093
# Shear Modulus (GPa) = 26.40774 31.97595 29.19185
#
# Velocity S-wave (km/s) = 3.65289 4.01960 3.84062
# Velocity P-wave (km/s) = 6.89582 7.24211 7.07109
#
# Compressibility (1/GPa) = 0.01697836
#
# Stress axis : x y z
#
# Youngs Moduli (GPa) = 52.94798 52.78523 54.48709
#
# Poissons Ratio (x) = 0.32172 0.48731
# Poissons Ratio (y) = 0.32271 0.24870
# Poissons Ratio (z) = 0.47355 0.24093
#
# Static dielectric constant tensor:
#      x y z
#    x 3.709580 0.000000 0.024180 
#    y 0.000000 3.286910 0.000000 
#    z 0.024180 0.000000 3.689660 
# 
# 
# High freq. dielectric constant tensor:
#      x y z
#    x 1.775260 0.000000 -0.002080 
#    y 0.000000 1.738460 0.000000 
#    z -0.002080 0.000000 1.776960 
# 
# From -- ./inp_files/51968.got.cif
#   From: 2010.06.25/outbox.cif.g09.slc.cpg/sg10_26_cif.got.tgz:51968.got - 2010.06.27 22:07:45.
