data_PCOD8067466
_publ_section_title
;
Structure prediction by ZEFSAII (Michael W. Deem and Ramdas Pophale) SiO2 
 PCOD8067466
Probable space group: P 2/M
;
_chemical_formula_sum "Si O2"
_cell_formula_units_Z 32
_cell_length_a 31.679028
_cell_length_b 8.326402
_cell_length_c 24.572594
_cell_angle_alpha 90.000000
_cell_angle_beta 165.121253
_cell_angle_gamma 90.000000
_cell_volume 1664.300730
_symmetry_space_group_name_H-M "P 2/M"
_symmetry_group_IT_number 10
_symmetry_cell_setting 'monoclinic'
loop_
_space_group_symop_operation_xyz
x,y,z
-x,y,-z
-x,-y,-z
x,-y,z
loop_
_atom_site_type_symbol
_atom_site_label
_atom_site_fract_x
_atom_site_fract_y
_atom_site_fract_z
Si Si1 0.915864 0.691408 0.267303
Si Si2 0.204020 0.686034 0.996111
Si Si3 0.857823 0.189552 0.861311
Si Si4 0.634192 0.308509 0.994389
Si Si5 0.150418 0.322891 0.645683
Si Si6 0.445912 0.186138 0.587683
Si Si7 0.033583 0.185683 0.887587
Si Si8 0.678960 0.313933 0.456997
O O1 0.924858 0.500000 0.283647
O O2 0.079786 0.762817 0.502506
O O3 0.906378 0.746078 0.192669
O O4 0.751749 0.756656 0.092590
O O5 0.248921 0.500000 0.044926
O O6 0.372548 0.784767 0.209049
O O7 0.098674 0.710980 0.918690
O O8 0.680148 0.238803 0.616988
O O9 0.882723 0.000000 0.894642
O O10 0.000000 0.264501 0.000000
O O11 0.878843 0.254619 0.948935
O O12 0.649462 0.500000 0.015151
O O13 0.447469 0.258370 0.748172
O O14 0.697429 0.237715 0.132037
O O15 0.211388 0.500000 0.705103
O O16 0.000000 0.334784 0.500000
O O17 0.410457 0.291086 0.596669
O O18 0.420189 0.000000 0.570259
O O19 0.838286 0.204060 0.650398
O O20 0.075884 0.000000 0.930227
O O21 0.727223 0.500000 0.510530
#
# Coordination Sequence:
#
# PCOD8067466 Si02
#       8
#     4   4   4   4   4   4   4   4
#     4   8  13  24  44  71 105 140 168 207 259 306
#     4  11  22  37  54  80 115 142 172 219 273 316
#     4   9  18  36  59  79 101 134 178 223 259 305
#     4   8  13  23  43  74 107 134 166 213 261 304
#     4   7  10  18  37  68 102 134 169 206 250 301
#     4  11  21  36  59  82 104 140 183 218 258 314
#     4  11  23  40  58  77 103 140 184 220 260 320
#     4  11  20  33  54  83 113 139 170 219 276 315
#
# _framework density 19.227294000000001
#
# number of rings (size 3 to 8) (size 9 to 14) (size 15 to 20)
#    0.000    2.500    2.500    3.000    0.000    0.500 
#    0.000    5.625    0.000    0.750    0.000    9.625 
#    0.000    0.000    0.000    0.000    0.000    0.000 
#
# Total GULP energy -396521.506238 kJ/mol
# GULP energy per Si atom -12391.297070 kJ/mol
# Density = 1.918353 g / cm^3
# Si number density = 19.227294 Si / 1000 Ang^3
#
#
#
# Elastic Constant Matrix: (Units=GPa)
#
#
# Indices 1 2 3 4 5 6 
#
# 1 108.3934 7.0147 64.7712 0.0000 -26.4153 0.0000
# 2 7.0147 25.3585 12.7411 0.0000 -6.7584 0.0000
# 3 64.7712 12.7411 143.5066 0.0000 -41.9794 0.0000
# 4 0.0000 0.0000 0.0000 5.2354 0.0000 23.1139
# 5 -26.4153 -6.7584 -41.9794 0.0000 38.2082 0.0000
# 6 0.0000 0.0000 0.0000 23.1139 0.0000 -5.6083
#
#
#
# Elastic Compliance Matrix: (Units=1/GPa)
#
#
# Indices 1 2 3 4 5 6 
#
# 1 0.012987 -0.000213 -0.004756 0.000000 0.003716 0.000000
# 2 -0.000213 0.041892 -0.002209 0.000000 0.004836 0.000000
# 3 -0.004756 -0.002209 0.012135 0.000000 0.009654 0.000000
# 4 0.000000 0.000000 0.000000 0.009951 0.000000 0.041010
# 5 0.003716 0.004836 0.009654 0.000000 0.040204 0.000000
# 6 0.000000 0.000000 0.000000 0.041010 0.000000 -0.009289
#
#
# Mechanical properties :
#
#
# Convention : Reuss Voigt Hill
#
# Bulk Modulus (GPa) = 18.98979 49.59027 34.29003
# Shear Modulus (GPa) = 35.76889 20.41584 28.09236
#
# Velocity S-wave (km/s) = 4.31782 3.26209 3.82654
# Velocity P-wave (km/s) = 5.89542 6.32739 6.11522
#
# Compressibility (1/GPa) = 0.05265987
#
# Stress axis : x y z
#
# Youngs Moduli (GPa) = 77.00174 23.87087 82.40645
#
# Poissons Ratio (x) = 0.00508 0.39190
# Poissons Ratio (y) = 0.01638 0.18200
# Poissons Ratio (z) = 0.36620 0.05272
#
# Static dielectric constant tensor:
#      x y z
#    x 3.435450 0.000000 -0.521730 
#    y 0.000000 3.003470 0.000000 
#    z -0.521730 0.000000 3.866390 
# 
# 
# High freq. dielectric constant tensor:
#      x y z
#    x 1.724610 0.000000 -0.033340 
#    y 0.000000 1.702530 0.000000 
#    z -0.033340 0.000000 1.759580 
# 
# From -- ./inp_files/87068.got.cif
#   From: 2010.06.25/outbox.cif.g09.slc.cpg/sg10_44_cif.got.tgz:87068.got - 2010.06.27 22:07:45.
