data_PCOD8067913
_publ_section_title
;
Structure prediction by ZEFSAII (Michael W. Deem and Ramdas Pophale) SiO2 
 PCOD8067913
Probable space group: P 2/M
;
_chemical_formula_sum "Si O2"
_cell_formula_units_Z 32
_cell_length_a 22.797229
_cell_length_b 14.461684
_cell_length_c 21.550160
_cell_angle_alpha 90.000000
_cell_angle_beta 160.962336
_cell_angle_gamma 90.000000
_cell_volume 2317.509802
_symmetry_space_group_name_H-M "P 2/M"
_symmetry_group_IT_number 10
_symmetry_cell_setting 'monoclinic'
loop_
_space_group_symop_operation_xyz
x,y,z
-x,y,-z
-x,-y,-z
x,-y,z
loop_
_atom_site_type_symbol
_atom_site_label
_atom_site_fract_x
_atom_site_fract_y
_atom_site_fract_z
Si Si1 0.500002 0.389849 0.904824
Si Si2 0.205660 0.393959 0.034083
Si Si3 0.794287 0.393960 0.622715
Si Si4 0.499991 0.102325 0.426651
Si Si5 0.794352 0.755800 0.865531
Si Si6 0.796033 0.390186 0.296035
Si Si7 0.500022 0.609161 0.766896
Si Si8 0.205668 0.755797 0.276842
O O1 0.500001 0.500000 0.903413
O O2 0.317761 0.356567 0.757544
O O3 0.500009 0.346389 0.835618
O O4 0.682227 0.356562 0.122017
O O5 0.251180 0.500000 0.096365
O O6 0.252237 0.334993 0.141550
O O7 0.323459 0.358506 0.094028
O O8 0.999972 0.381780 0.807995
O O9 0.748767 0.500000 0.593954
O O10 0.676475 0.358497 0.447054
O O11 0.747736 0.334999 0.637059
O O12 0.500000 0.091728 0.500000
O O13 0.323424 0.158037 0.228337
O O14 0.676554 0.158042 0.581469
O O15 0.500000 0.000000 0.396013
O O16 0.748998 0.730864 0.749002
O O17 0.000012 0.786202 0.079419
O O18 0.809860 0.500000 0.309861
O O19 0.000000 0.348348 0.500000
O O20 0.500004 0.500000 0.774592
#
# Coordination Sequence:
#
# PCOD8067913 Si02
#       8
#     4   4   4   4   4   4   4   4
#     4   8  14  22  31  45  62  82 110 141 177 216
#     4   9  17  27  38  53  72  95 123 152 183 219
#     4   9  17  27  38  53  72  95 123 152 183 219
#     4   9  17  28  41  56  72  89 111 142 183 230
#     4   9  17  28  41  56  73  93 118 150 187 224
#     4   8  13  21  32  45  61  80 105 141 180 213
#     4   9  16  25  35  47  67  92 117 148 181 214
#     4   9  17  28  41  56  73  93 118 150 187 224
#
# _framework density 13.807924
#
# number of rings (size 3 to 8) (size 9 to 14) (size 15 to 20)
#    0.000    3.250    0.000    1.500    0.000    2.000 
#    0.000   10.000    0.000    4.500    0.000    0.000 
#    0.000    0.000    0.000    0.000    0.000    0.000 
#
# Total GULP energy -396602.403883 kJ/mol
# GULP energy per Si atom -12393.825121 kJ/mol
# Density = 1.377650 g / cm^3
# Si number density = 13.807924 Si / 1000 Ang^3
#
#
#
# Elastic Constant Matrix: (Units=GPa)
#
#
# Indices 1 2 3 4 5 6 
#
# 1 96.0026 35.3696 58.4778 0.0000 -0.7407 0.0000
# 2 35.3696 55.7509 38.0411 0.0000 0.7725 0.0000
# 3 58.4778 38.0411 107.2991 0.0000 4.0104 0.0000
# 4 0.0000 0.0000 0.0000 14.2409 0.0000 3.4731
# 5 -0.7407 0.7725 4.0104 0.0000 18.8356 0.0000
# 6 0.0000 0.0000 0.0000 3.4731 0.0000 2.1925
#
#
#
# Elastic Compliance Matrix: (Units=1/GPa)
#
#
# Indices 1 2 3 4 5 6 
#
# 1 0.017044 -0.005865 -0.007302 0.000000 0.002465 0.000000
# 2 -0.005865 0.025692 -0.005911 0.000000 -0.000026 0.000000
# 3 -0.007302 -0.005911 0.015520 0.000000 -0.003349 0.000000
# 4 0.000000 0.000000 0.000000 0.114427 0.000000 -0.181263
# 5 0.002465 -0.000026 -0.003349 0.000000 0.053902 0.000000
# 6 0.000000 0.000000 0.000000 -0.181263 0.000000 0.743247
#
#
# Mechanical properties :
#
#
# Convention : Reuss Voigt Hill
#
# Bulk Modulus (GPa) = 49.75161 58.09217 53.92189
# Shear Modulus (GPa) = 4.92763 15.53141 10.22952
#
# Velocity S-wave (km/s) = 1.89115 3.35747 2.72480
# Velocity P-wave (km/s) = 6.39359 7.56261 7.00254
#
# Compressibility (1/GPa) = 0.02009985
#
# Stress axis : x y z
#
# Youngs Moduli (GPa) = 58.67225 38.92336 64.43279
#
# Poissons Ratio (x) = 0.22828 0.47047
# Poissons Ratio (y) = 0.34411 0.38087
# Poissons Ratio (z) = 0.42841 0.23008
#
# Static dielectric constant tensor:
#      x y z
#    x 2.804960 0.000000 0.043590 
#    y 0.000000 2.440510 0.000000 
#    z 0.043590 0.000000 2.955980 
# 
# 
# High freq. dielectric constant tensor:
#      x y z
#    x 1.511060 0.000000 0.009410 
#    y 0.000000 1.469410 0.000000 
#    z 0.009410 0.000000 1.543670 
# 
# From -- ./inp_files/86370.got.cif
#   From: 2010.06.25/outbox.cif.g09.slc.cpg/sg10_44_cif.got.tgz:86370.got - 2010.06.27 22:07:45.
