data_PCOD8067158
_publ_section_title
;
Structure prediction by ZEFSAII (Michael W. Deem and Ramdas Pophale) SiO2 
 PCOD8067158
Probable space group: P 2/M
;
_chemical_formula_sum "Si O2"
_cell_formula_units_Z 24
_cell_length_a 15.661729
_cell_length_b 10.487297
_cell_length_c 16.037806
_cell_angle_alpha 90.000000
_cell_angle_beta 24.077412
_cell_angle_gamma 90.000000
_cell_volume 1074.674762
_symmetry_space_group_name_H-M "P 2/M"
_symmetry_group_IT_number 10
_symmetry_cell_setting 'monoclinic'
loop_
_space_group_symop_operation_xyz
x,y,z
-x,y,-z
-x,-y,-z
x,-y,z
loop_
_atom_site_type_symbol
_atom_site_label
_atom_site_fract_x
_atom_site_fract_y
_atom_site_fract_z
Si Si1 0.777141 0.638810 0.585182
Si Si2 0.982333 0.355424 0.112733
Si Si3 0.080304 0.807167 0.244717
Si Si4 0.283483 0.141276 0.229874
Si Si5 0.394038 0.267944 0.832508
Si Si6 0.262162 0.861202 0.573165
O O1 0.795786 0.500000 0.611197
O O2 0.784659 0.751665 0.644997
O O3 0.569829 0.638228 0.712928
O O4 0.983378 0.663719 0.343882
O O5 0.899322 0.500000 0.202376
O O6 0.819922 0.251843 0.293898
O O7 0.212366 0.344419 0.947563
O O8 0.000000 0.326230 0.000000
O O9 0.120836 0.870661 0.298391
O O10 0.897759 0.883806 0.360662
O O11 0.292100 0.807820 0.001382
O O12 0.301746 0.000000 0.254634
O O13 0.500000 0.190291 0.000000
O O14 0.506753 0.171487 0.667843
O O15 0.277370 0.000000 0.605561
#
# Coordination Sequence:
#
# PCOD8067158 Si02
#       6
#     4   4   4   4   4   4
#     4  11  24  40  62  91 122 161 210 264 315 365
#     4  10  23  44  69  96 128 167 209 253 307 375
#     4  10  22  41  61  89 122 168 208 258 305 373
#     4  11  23  40  61  86 119 165 213 259 310 368
#     4  10  22  41  64  92 126 164 205 255 312 375
#     4  10  23  41  67  99 129 164 208 259 314 370
#
# _framework density 22.332336999999999
#
# number of rings (size 3 to 8) (size 9 to 14) (size 15 to 20)
#    0.000    1.667    1.667    1.500    0.000   17.333 
#    0.000    2.500    0.000    0.000    0.000    0.000 
#    0.000    0.000    0.000    0.000    0.000    0.000 
#
# Total GULP energy -297384.530339 kJ/mol
# GULP energy per Si atom -12391.022097 kJ/mol
# Density = 2.228151 g / cm^3
# Si number density = 22.332337 Si / 1000 Ang^3
#
#
#
# Elastic Constant Matrix: (Units=GPa)
#
#
# Indices 1 2 3 4 5 6 
#
# 1 88.0055 38.6077 16.5836 0.0000 18.1831 0.0000
# 2 38.6077 185.5171 73.4159 0.0000 32.5635 0.0000
# 3 16.5836 73.4159 147.1464 0.0000 7.8096 0.0000
# 4 0.0000 0.0000 0.0000 17.1705 0.0000 9.1780
# 5 18.1831 32.5635 7.8096 0.0000 22.2900 0.0000
# 6 0.0000 0.0000 0.0000 9.1780 0.0000 19.6999
#
#
#
# Elastic Compliance Matrix: (Units=1/GPa)
#
#
# Indices 1 2 3 4 5 6 
#
# 1 0.013904 -0.000957 -0.000573 0.000000 -0.009744 0.000000
# 2 -0.000957 0.009049 -0.003818 0.000000 -0.011102 0.000000
# 3 -0.000573 -0.003818 0.008604 0.000000 0.003030 0.000000
# 4 0.000000 0.000000 0.000000 0.077552 0.000000 -0.036131
# 5 -0.009744 -0.011102 0.003030 0.000000 0.067969 0.000000
# 6 0.000000 0.000000 0.000000 -0.036131 0.000000 0.067595
#
#
# Mechanical properties :
#
#
# Convention : Reuss Voigt Hill
#
# Bulk Modulus (GPa) = 47.93110 75.32038 61.62574
# Shear Modulus (GPa) = 19.06064 31.30287 25.18176
#
# Velocity S-wave (km/s) = 2.92464 3.74797 3.36161
# Velocity P-wave (km/s) = 5.73707 7.24775 6.53620
#
# Compressibility (1/GPa) = 0.02086328
#
# Stress axis : x y z
#
# Youngs Moduli (GPa) = 71.92342 110.51098 116.21854
#
# Poissons Ratio (x) = 0.10571 0.06654
# Poissons Ratio (y) = 0.06880 0.44369
# Poissons Ratio (z) = 0.04118 0.42190
#
# Static dielectric constant tensor:
#      x y z
#    x 3.967790 0.000000 -0.040800 
#    y 0.000000 3.814490 0.000000 
#    z -0.040800 0.000000 4.243720 
# 
# 
# High freq. dielectric constant tensor:
#      x y z
#    x 1.867320 0.000000 -0.004330 
#    y 0.000000 1.871780 0.000000 
#    z -0.004330 0.000000 1.893430 
# 
# From -- ./inp_files/78984.got.cif
#   From: 2010.06.25/outbox.cif.g09.slc.cpg/sg10_40_cif.got.tgz:78984.got - 2010.06.27 22:07:45.
