data_PCOD8067931
_publ_section_title
;
Structure prediction by ZEFSAII (Michael W. Deem and Ramdas Pophale) SiO2 
 PCOD8067931
Probable space group: P 2/M
;
_chemical_formula_sum "Si O2"
_cell_formula_units_Z 32
_cell_length_a 15.831708
_cell_length_b 15.314224
_cell_length_c 9.885261
_cell_angle_alpha 90.000000
_cell_angle_beta 108.191728
_cell_angle_gamma 90.000000
_cell_volume 2276.891549
_symmetry_space_group_name_H-M "P 2/M"
_symmetry_group_IT_number 10
_symmetry_cell_setting 'monoclinic'
loop_
_space_group_symop_operation_xyz
x,y,z
-x,y,-z
-x,-y,-z
x,-y,z
loop_
_atom_site_type_symbol
_atom_site_label
_atom_site_fract_x
_atom_site_fract_y
_atom_site_fract_z
Si Si1 0.396258 0.249737 0.105532
Si Si2 0.074246 0.396313 0.937502
Si Si3 0.925754 0.603687 0.363256
Si Si4 0.605539 0.096818 0.704195
Si Si5 0.605539 0.096818 0.401344
Si Si6 0.271024 0.403474 0.046163
Si Si7 0.603742 0.249737 0.209274
Si Si8 0.271024 0.403474 0.724861
O O1 0.358760 0.166990 0.170015
O O2 0.344494 0.334974 0.133813
O O3 0.500000 0.266530 0.184486
O O4 0.377241 0.231440 0.938621
O O5 0.065447 0.500000 0.926330
O O6 0.059290 0.357204 0.779645
O O7 0.172548 0.372280 0.042643
O O8 0.000000 0.355794 0.000000
O O9 0.934553 0.500000 0.360883
O O10 0.827452 0.627720 0.370096
O O11 0.000000 0.644206 0.500000
O O12 0.637436 0.122165 0.568718
O O13 0.500000 0.095510 0.656500
O O14 0.641447 0.000000 0.760370
O O15 0.641240 0.166990 0.311255
O O16 0.641447 0.000000 0.381077
O O17 0.293127 0.500000 0.116878
O O18 0.271901 0.409536 0.885950
O O19 0.655506 0.334974 0.289319
O O20 0.293127 0.500000 0.676250
#
# Coordination Sequence:
#
# PCOD8067931 Si02
#       8
#     4   4   4   4   4   4   4   4
#     4   9  16  24  36  55  75  96 125 156 178 201
#     4   8  13  22  36  51  67  89 117 149 183 215
#     4   8  13  22  36  51  67  89 117 149 183 215
#     4   8  14  25  39  52  68  93 121 148 184 225
#     4   8  14  25  39  52  68  93 121 148 184 225
#     4   8  14  24  36  51  74 102 126 148 178 213
#     4   9  16  24  36  55  75  96 125 156 178 201
#     4   8  14  24  36  51  74 102 126 148 178 213
#
# _framework density 14.054249
#
# number of rings (size 3 to 8) (size 9 to 14) (size 15 to 20)
#    0.000    3.750    0.000    2.250    0.000    1.000 
#    0.000    6.250    0.000    2.250    0.000    3.500 
#    0.000    1.000    0.000    2.250    0.000    4.000 
#
# Total GULP energy -396497.404106 kJ/mol
# GULP energy per Si atom -12390.543878 kJ/mol
# Density = 1.402226 g / cm^3
# Si number density = 14.054249 Si / 1000 Ang^3
#
#
#
# Elastic Constant Matrix: (Units=GPa)
#
#
# Indices 1 2 3 4 5 6 
#
# 1 63.0344 47.2275 33.5620 0.0000 -0.5252 0.0000
# 2 47.2275 94.7178 46.4318 0.0000 0.2664 0.0000
# 3 33.5620 46.4318 57.4850 0.0000 2.3831 0.0000
# 4 0.0000 0.0000 0.0000 13.6627 0.0000 -3.6467
# 5 -0.5252 0.2664 2.3831 0.0000 14.5470 0.0000
# 6 0.0000 0.0000 0.0000 -3.6467 0.0000 2.7699
#
#
#
# Elastic Compliance Matrix: (Units=1/GPa)
#
#
# Indices 1 2 3 4 5 6 
#
# 1 0.027593 -0.009629 -0.008438 0.000000 0.002555 0.000000
# 2 -0.009629 0.020897 -0.011303 0.000000 0.001121 0.000000
# 3 -0.008438 -0.011303 0.031672 0.000000 -0.005286 0.000000
# 4 0.000000 0.000000 0.000000 0.112846 0.000000 0.148566
# 5 0.002555 0.001121 -0.005286 0.000000 0.069680 0.000000
# 6 0.000000 0.000000 0.000000 0.148566 0.000000 0.556616
#
#
# Mechanical properties :
#
#
# Convention : Reuss Voigt Hill
#
# Bulk Modulus (GPa) = 46.68546 52.18665 49.43606
# Shear Modulus (GPa) = 5.64854 12.06365 8.85610
#
# Velocity S-wave (km/s) = 2.00694 2.93296 2.51298
# Velocity P-wave (km/s) = 6.21776 6.97729 6.60845
#
# Compressibility (1/GPa) = 0.02141994
#
# Stress axis : x y z
#
# Youngs Moduli (GPa) = 36.24151 47.85458 31.57404
#
# Poissons Ratio (x) = 0.46078 0.26643
# Poissons Ratio (y) = 0.34896 0.35690
# Poissons Ratio (z) = 0.30582 0.54092
#
# Static dielectric constant tensor:
#      x y z
#    x 2.734020 0.000000 -0.020160 
#    y 0.000000 2.911160 0.000000 
#    z -0.020160 0.000000 2.794250 
# 
# 
# High freq. dielectric constant tensor:
#      x y z
#    x 1.510710 0.000000 -0.002800 
#    y 0.000000 1.512060 0.000000 
#    z -0.002800 0.000000 1.519060 
# 
# From -- ./inp_files/32586.got.cif
#   From: 2010.06.25/outbox.cif.g09.slc.cpg/sg10_17_cif.got.tgz:32586.got - 2010.06.27 22:07:45.
