data_PCOD8067006
_publ_section_title
;
Structure prediction by ZEFSAII (Michael W. Deem and Ramdas Pophale) SiO2 
 PCOD8067006
Probable space group: P 2/M
;
_chemical_formula_sum "Si O2"
_cell_formula_units_Z 16
_cell_length_a 12.078178
_cell_length_b 7.914900
_cell_length_c 9.248665
_cell_angle_alpha 90.000000
_cell_angle_beta 52.002165
_cell_angle_gamma 90.000000
_cell_volume 696.740204
_symmetry_space_group_name_H-M "P 2/M"
_symmetry_group_IT_number 10
_symmetry_cell_setting 'monoclinic'
loop_
_space_group_symop_operation_xyz
x,y,z
-x,y,-z
-x,-y,-z
x,-y,z
loop_
_atom_site_type_symbol
_atom_site_label
_atom_site_fract_x
_atom_site_fract_y
_atom_site_fract_z
Si Si1 0.408934 0.807659 0.714028
Si Si2 0.863298 0.688628 0.202794
Si Si3 0.406219 0.500000 0.930992
Si Si4 0.136836 0.179968 0.488050
Si Si5 0.828905 0.500000 0.672948
O O1 0.500000 0.763380 0.500000
O O2 0.247936 0.798598 0.795325
O O3 0.440075 0.669400 0.813052
O O4 0.439987 0.000000 0.743908
O O5 0.803738 0.500000 0.282681
O O6 0.907665 0.782043 0.313413
O O7 0.000000 0.674314 0.000000
O O8 0.500000 0.500000 0.000000
O O9 0.237031 0.500000 0.111662
O O10 0.235123 0.331364 0.349877
O O11 0.000000 0.167968 0.500000
O O12 0.218208 0.000000 0.415699
O O13 0.000000 0.500000 0.500000
#
# Coordination Sequence:
#
# PCOD8067006 Si02
#       5
#     4   4   2   4   2
#     4  11  27  50  75 104 142 189 243 296 355 428
#     4  11  24  41  72 104 139 184 235 296 358 423
#     4  12  29  48  74 102 143 191 234 296 365 423
#     4  10  22  38  62  95 137 178 220 278 346 409
#     4  10  24  42  66  98 137 178 225 284 339 417
#
# _framework density 22.964082999999999
#
# number of rings (size 3 to 8) (size 9 to 14) (size 15 to 20)
#    0.000    1.250    2.500    1.125   10.500    3.500 
#    0.000    0.000    0.000    0.000    0.000    0.000 
#    0.000    0.000    0.000    0.000    0.000    0.000 
#
# Total GULP energy -198212.509371 kJ/mol
# GULP energy per Si atom -12388.281836 kJ/mol
# Density = 2.291182 g / cm^3
# Si number density = 22.964083 Si / 1000 Ang^3
#
#
#
# Elastic Constant Matrix: (Units=GPa)
#
#
# Indices 1 2 3 4 5 6 
#
# 1 101.0691 23.5035 36.8760 0.0000 18.9942 0.0000
# 2 23.5035 247.5393 89.6387 0.0000 22.6086 0.0000
# 3 36.8760 89.6387 117.1745 0.0000 12.4584 0.0000
# 4 0.0000 0.0000 0.0000 34.5595 0.0000 9.0575
# 5 18.9942 22.6086 12.4584 0.0000 43.8487 0.0000
# 6 0.0000 0.0000 0.0000 9.0575 0.0000 11.7105
#
#
#
# Elastic Compliance Matrix: (Units=1/GPa)
#
#
# Indices 1 2 3 4 5 6 
#
# 1 0.011959 0.000639 -0.003780 0.000000 -0.004435 0.000000
# 2 0.000639 0.005750 -0.004388 0.000000 -0.001995 0.000000
# 3 -0.003780 -0.004388 0.013061 0.000000 0.000189 0.000000
# 4 0.000000 0.000000 0.000000 0.036292 0.000000 -0.028070
# 5 -0.004435 -0.001995 0.000189 0.000000 0.025702 0.000000
# 6 0.000000 0.000000 0.000000 -0.028070 0.000000 0.107104
#
#
# Mechanical properties :
#
#
# Convention : Reuss Voigt Hill
#
# Bulk Modulus (GPa) = 63.65325 85.09104 74.37215
# Shear Modulus (GPa) = 22.71034 39.07471 30.89252
#
# Velocity S-wave (km/s) = 3.14817 4.12947 3.67175
# Velocity P-wave (km/s) = 6.40261 7.73764 7.10157
#
# Compressibility (1/GPa) = 0.01571012
#
# Stress axis : x y z
#
# Youngs Moduli (GPa) = 83.62187 173.90589 76.56610
#
# Poissons Ratio (x) = -0.11106 0.28945
# Poissons Ratio (y) = -0.05340 0.33596
# Poissons Ratio (z) = 0.31613 0.76307
#
# Static dielectric constant tensor:
#      x y z
#    x 3.881810 0.000000 0.046980 
#    y 0.000000 6.194700 0.000000 
#    z 0.046980 0.000000 4.281140 
# 
# 
# High freq. dielectric constant tensor:
#      x y z
#    x 1.888500 0.000000 0.012680 
#    y 0.000000 1.938940 0.000000 
#    z 0.012680 0.000000 1.901300 
# 
# From -- ./inp_files/22034.got.cif
#   From: 2010.06.25/outbox.cif.g09.slc.cpg/sg10_12_cif.got.tgz:22034.got - 2010.06.27 22:07:45.
