data_PCOD8067292
_publ_section_title
;
Structure prediction by ZEFSAII (Michael W. Deem and Ramdas Pophale) SiO2 
 PCOD8067292
Probable space group: P 2/M
;
_chemical_formula_sum "Si O2"
_cell_formula_units_Z 32
_cell_length_a 26.747856
_cell_length_b 8.810886
_cell_length_c 21.034543
_cell_angle_alpha 90.000000
_cell_angle_beta 18.310877
_cell_angle_gamma 90.000000
_cell_volume 1557.435495
_symmetry_space_group_name_H-M "P 2/M"
_symmetry_group_IT_number 10
_symmetry_cell_setting 'monoclinic'
loop_
_space_group_symop_operation_xyz
x,y,z
-x,y,-z
-x,-y,-z
x,-y,z
loop_
_atom_site_type_symbol
_atom_site_label
_atom_site_fract_x
_atom_site_fract_y
_atom_site_fract_z
Si Si1 0.331007 0.827795 0.332994
Si Si2 0.088469 0.322043 0.718785
Si Si3 0.200730 0.177006 0.996501
Si Si4 0.753324 0.328860 0.688212
Si Si5 0.467115 0.823194 0.469397
Si Si6 0.874880 0.328096 0.780451
Si Si7 0.688074 0.172257 0.897524
Si Si8 0.161713 0.678588 0.772718
O O1 0.218393 0.717584 0.508775
O O2 0.336496 0.780258 0.252496
O O3 0.268045 0.000000 0.415407
O O4 0.511093 0.812902 0.140101
O O5 0.050789 0.500000 0.760549
O O6 0.158793 0.274876 0.702163
O O7 0.924780 0.231713 0.905120
O O8 0.378377 0.210419 0.759074
O O9 0.173194 0.000000 0.043561
O O10 0.177289 0.273431 0.087787
O O11 0.691299 0.500000 0.753982
O O12 0.715079 0.280603 0.805546
O O13 0.937824 0.317867 0.450742
O O14 0.500000 0.756172 0.500000
O O15 0.314987 0.747550 0.621185
O O16 0.429256 0.000000 0.520110
O O17 0.814299 0.500000 0.843054
O O18 0.805950 0.218020 0.810815
O O19 0.724044 0.000000 0.833249
O O20 0.172705 0.500000 0.768353
O O21 0.000000 0.741178 0.000000
#
# Coordination Sequence:
#
# PCOD8067292 Si02
#       8
#     4   4   4   4   4   4   4   4
#     4  11  24  41  62  89 123 164 209 258 314 373
#     4  11  23  40  63  92 124 163 210 258 310 371
#     4  11  23  40  64  92 124 165 210 257 310 370
#     4  11  23  41  64  91 121 160 209 260 315 376
#     4  10  23  42  65  96 131 166 209 255 305 366
#     4  11  24  41  62  90 124 163 209 259 313 373
#     4  11  25  41  61  90 124 162 208 261 316 375
#     4  10  23  42  65  96 131 167 209 255 306 366
#
# _framework density 20.546597999999999
#
# number of rings (size 3 to 8) (size 9 to 14) (size 15 to 20)
#    0.000    1.250    1.250    3.750    1.750    9.000 
#    0.000    0.000    0.000    0.000    0.000    0.000 
#    0.000    0.000    0.000    0.000    0.000    0.000 
#
# Total GULP energy -396977.136845 kJ/mol
# GULP energy per Si atom -12405.535526 kJ/mol
# Density = 2.049983 g / cm^3
# Si number density = 20.546598 Si / 1000 Ang^3
#
#
#
# Elastic Constant Matrix: (Units=GPa)
#
#
# Indices 1 2 3 4 5 6 
#
# 1 117.7214 21.7647 46.9958 0.0000 -10.7396 0.0000
# 2 21.7647 69.6403 42.6675 0.0000 -8.8487 0.0000
# 3 46.9958 42.6675 113.8274 0.0000 -24.0603 0.0000
# 4 0.0000 0.0000 0.0000 353.5211 0.0000 35.5142
# 5 -10.7396 -8.8487 -24.0603 0.0000 54.8239 0.0000
# 6 0.0000 0.0000 0.0000 35.5142 0.0000 40.7349
#
#
#
# Elastic Compliance Matrix: (Units=1/GPa)
#
#
# Indices 1 2 3 4 5 6 
#
# 1 0.010206 -0.000790 -0.003882 0.000000 0.000168 0.000000
# 2 -0.000790 0.018702 -0.006700 0.000000 -0.000077 0.000000
# 3 -0.003882 -0.006700 0.013789 0.000000 0.004210 0.000000
# 4 0.000000 0.000000 0.000000 0.003100 0.000000 -0.002703
# 5 0.000168 -0.000077 0.004210 0.000000 0.020108 0.000000
# 6 0.000000 0.000000 0.000000 -0.002703 0.000000 0.026905
#
#
# Mechanical properties :
#
#
# Convention : Reuss Voigt Hill
#
# Bulk Modulus (GPa) = 50.11898 58.22724 54.17311
# Shear Modulus (GPa) = 40.91441 102.46671 71.69056
#
# Velocity S-wave (km/s) = 4.46724 7.06956 5.91333
# Velocity P-wave (km/s) = 7.14521 9.74879 8.54672
#
# Compressibility (1/GPa) = 0.01995252
#
# Stress axis : x y z
#
# Youngs Moduli (GPa) = 97.98397 53.47072 72.51908
#
# Poissons Ratio (x) = 0.04223 0.28152
# Poissons Ratio (y) = 0.07738 0.48591
# Poissons Ratio (z) = 0.38038 0.35828
#
# Static dielectric constant tensor:
#      x y z
#    x 3.823870 0.000000 -0.067660 
#    y 0.000000 3.807760 0.000000 
#    z -0.067660 0.000000 3.858930 
# 
# 
# High freq. dielectric constant tensor:
#      x y z
#    x 1.813430 0.000000 -0.001860 
#    y 0.000000 1.809710 0.000000 
#    z -0.001860 0.000000 1.815430 
# 
# From -- ./inp_files/86756.got.cif
#   From: 2010.06.25/outbox.cif.g09.slc.cpg/sg10_44_cif.got.tgz:86756.got - 2010.06.27 22:07:45.
