data_PCOD8067329
_publ_section_title
;
Structure prediction by ZEFSAII (Michael W. Deem and Ramdas Pophale) SiO2 
 PCOD8067329
Probable space group: P 2/M
;
_chemical_formula_sum "Si O2"
_cell_formula_units_Z 24
_cell_length_a 12.765096
_cell_length_b 12.546210
_cell_length_c 9.037130
_cell_angle_alpha 90.000000
_cell_angle_beta 68.614587
_cell_angle_gamma 90.000000
_cell_volume 1347.678188
_symmetry_space_group_name_H-M "P 2/M"
_symmetry_group_IT_number 10
_symmetry_cell_setting 'monoclinic'
loop_
_space_group_symop_operation_xyz
x,y,z
-x,y,-z
-x,-y,-z
x,-y,z
loop_
_atom_site_type_symbol
_atom_site_label
_atom_site_fract_x
_atom_site_fract_y
_atom_site_fract_z
Si Si1 0.117751 0.500000 0.017240
Si Si2 0.285159 0.317777 0.926273
Si Si3 0.716792 0.691693 0.722736
Si Si4 0.629067 0.879521 0.267316
Si Si5 0.494662 0.381443 0.341379
Si Si6 0.369805 0.120491 0.388310
Si Si7 0.121235 0.500000 0.364324
O O1 0.103706 0.500000 0.199495
O O2 0.178992 0.390586 0.936045
O O3 0.000000 0.500000 0.000000
O O4 0.282336 0.198475 0.860111
O O5 0.389123 0.380889 0.805242
O O6 0.292832 0.307395 0.097456
O O7 0.597154 0.664366 0.718884
O O8 0.726579 0.811794 0.650589
O O9 0.812091 0.607678 0.620570
O O10 0.657770 0.874998 0.424798
O O11 0.500707 0.840578 0.297847
O O12 0.645722 0.000000 0.200107
O O13 0.500000 0.321434 0.500000
O O14 0.456159 0.500000 0.396421
O O15 0.360088 0.000000 0.334545
O O16 0.000000 0.500000 0.500000
#
# Coordination Sequence:
#
# PCOD8067329 Si02
#       7
#     2   4   4   4   4   4   2
#     4  10  24  41  56  77 105 138 178 226 273 316
#     4  11  21  34  53  79 111 140 173 221 269 315
#     4  11  21  34  53  79 111 140 173 221 269 315
#     4   9  18  32  50  77 113 147 180 214 252 310
#     4  11  21  31  48  77 108 143 179 207 255 326
#     4   9  18  32  50  77 113 147 180 214 252 310
#     4  10  24  41  56  77 105 138 178 226 273 316
#
# _framework density 17.808405
#
# number of rings (size 3 to 8) (size 9 to 14) (size 15 to 20)
#    0.000    1.833    3.333    2.500    0.000    4.000 
#    0.000    1.667    0.000    1.000    0.000    0.000 
#    0.000    0.000    0.000    0.000    0.000    0.000 
#
# Total GULP energy -297359.582088 kJ/mol
# GULP energy per Si atom -12389.982587 kJ/mol
# Density = 1.776787 g / cm^3
# Si number density = 17.808405 Si / 1000 Ang^3
#
#
#
# Elastic Constant Matrix: (Units=GPa)
#
#
# Indices 1 2 3 4 5 6 
#
# 1 103.0187 59.6961 40.2694 0.0000 -0.5808 0.0000
# 2 59.6961 133.1762 49.5486 0.0000 -1.2320 0.0000
# 3 40.2694 49.5486 71.5840 0.0000 -8.5235 0.0000
# 4 0.0000 0.0000 0.0000 30.6942 0.0000 5.9059
# 5 -0.5808 -1.2320 -8.5235 0.0000 24.1503 0.0000
# 6 0.0000 0.0000 0.0000 5.9059 0.0000 20.8489
#
#
#
# Elastic Compliance Matrix: (Units=1/GPa)
#
#
# Indices 1 2 3 4 5 6 
#
# 1 0.014326 -0.004531 -0.005125 0.000000 -0.001695 0.000000
# 2 -0.004531 0.011643 -0.005692 0.000000 -0.001524 0.000000
# 3 -0.005125 -0.005692 0.021653 0.000000 0.007229 0.000000
# 4 0.000000 0.000000 0.000000 0.034458 0.000000 -0.009761
# 5 -0.001695 -0.001524 0.007229 0.000000 0.043840 0.000000
# 6 0.000000 0.000000 0.000000 -0.009761 0.000000 0.050729
#
#
# Mechanical properties :
#
#
# Convention : Reuss Voigt Hill
#
# Bulk Modulus (GPa) = 59.07562 67.42301 63.24931
# Shear Modulus (GPa) = 23.47562 25.68967 24.58264
#
# Velocity S-wave (km/s) = 3.63469 3.80222 3.71940
# Velocity P-wave (km/s) = 7.13158 7.56428 7.35111
#
# Compressibility (1/GPa) = 0.01692746
#
# Stress axis : x y z
#
# Youngs Moduli (GPa) = 69.80278 85.88631 46.18243
#
# Poissons Ratio (x) = 0.38911 0.23669
# Poissons Ratio (y) = 0.31625 0.26287
# Poissons Ratio (z) = 0.35774 0.48886
#
# Static dielectric constant tensor:
#      x y z
#    x 3.067410 0.000000 0.128230 
#    y 0.000000 3.935030 0.000000 
#    z 0.128230 0.000000 3.170450 
# 
# 
# High freq. dielectric constant tensor:
#      x y z
#    x 1.647030 0.000000 0.019830 
#    y 0.000000 1.717140 0.000000 
#    z 0.019830 0.000000 1.682860 
# 
# From -- ./inp_files/24592.got.cif
#   From: 2010.06.25/outbox.cif.g09.slc.cpg/sg10_13_cif.got.tgz:24592.got - 2010.06.27 22:07:45.
