data_PCOD8067561
_publ_section_title
;
Structure prediction by ZEFSAII (Michael W. Deem and Ramdas Pophale) SiO2 
 PCOD8067561
Probable space group: P 2/M
;
_chemical_formula_sum "Si O2"
_cell_formula_units_Z 24
_cell_length_a 15.180621
_cell_length_b 11.641837
_cell_length_c 21.721017
_cell_angle_alpha 90.000000
_cell_angle_beta 160.064957
_cell_angle_gamma 90.000000
_cell_volume 1308.843553
_symmetry_space_group_name_H-M "P 2/M"
_symmetry_group_IT_number 10
_symmetry_cell_setting 'monoclinic'
loop_
_space_group_symop_operation_xyz
x,y,z
-x,y,-z
-x,-y,-z
x,-y,z
loop_
_atom_site_type_symbol
_atom_site_label
_atom_site_fract_x
_atom_site_fract_y
_atom_site_fract_z
Si Si1 0.400312 0.364080 0.791570
Si Si2 0.314537 0.364079 0.484181
Si Si3 0.895413 0.000000 0.720528
Si Si4 0.116816 0.364363 0.484500
Si Si5 0.927686 0.758231 0.142425
Si Si6 0.636147 0.000000 0.682579
Si Si7 0.158260 0.758895 0.162577
O O1 0.453509 0.500000 0.827244
O O2 0.311542 0.320611 0.665660
O O3 0.177758 0.329341 0.694018
O O4 0.656717 0.299188 0.981199
O O5 0.290116 0.500000 0.464626
O O6 0.199360 0.314499 0.472691
O O7 0.611389 0.329131 0.672978
O O8 0.160718 0.310895 0.326393
O O9 0.744633 0.000000 0.685394
O O10 0.676453 0.000000 0.523584
O O11 0.074955 0.887894 0.833081
O O12 0.137228 0.500000 0.497827
O O13 0.968218 0.757956 0.095890
O O14 0.732909 0.886106 0.780970
O O15 0.000000 0.713941 0.000000
#
# Coordination Sequence:
#
# PCOD8067561 Si02
#       7
#     4   4   2   4   4   2   4
#     4   9  17  33  57  80 104 135 172 213 255 303
#     4  11  22  34  51  77 109 140 171 209 256 310
#     4   9  18  34  54  73 101 136 170 213 258 299
#     4   8  17  34  54  77 105 139 175 209 249 301
#     4  11  21  34  54  77 105 137 171 215 259 305
#     4   9  17  36  56  73  96 133 181 213 245 301
#     4  11  22  35  54  78 104 136 173 214 258 305
#
# _framework density 18.336798000000002
#
# number of rings (size 3 to 8) (size 9 to 14) (size 15 to 20)
#    0.000    2.167    1.667    3.250    0.000    3.000 
#    0.000    2.500    0.000    5.000    0.000    0.000 
#    0.000    0.000    0.000    0.000    0.000    0.000 
#
# Total GULP energy -297613.630229 kJ/mol
# GULP energy per Si atom -12400.567926 kJ/mol
# Density = 1.829506 g / cm^3
# Si number density = 18.336798 Si / 1000 Ang^3
#
#
#
# Elastic Constant Matrix: (Units=GPa)
#
#
# Indices 1 2 3 4 5 6 
#
# 1 42.2346 9.6214 8.5068 0.0000 1.4783 0.0000
# 2 9.6214 82.9622 34.9078 0.0000 5.3133 0.0000
# 3 8.5068 34.9078 118.9690 0.0000 3.2793 0.0000
# 4 0.0000 0.0000 0.0000 25.9543 0.0000 -4.2583
# 5 1.4783 5.3133 3.2793 0.0000 25.8439 0.0000
# 6 0.0000 0.0000 0.0000 -4.2583 0.0000 6.4099
#
#
#
# Elastic Compliance Matrix: (Units=1/GPa)
#
#
# Indices 1 2 3 4 5 6 
#
# 1 0.024449 -0.002349 -0.001037 0.000000 -0.000784 0.000000
# 2 -0.002349 0.014118 -0.003912 0.000000 -0.002272 0.000000
# 3 -0.001037 -0.003912 0.009637 0.000000 -0.000359 0.000000
# 4 0.000000 0.000000 0.000000 0.043243 0.000000 0.028728
# 5 -0.000784 -0.002272 -0.000359 0.000000 0.039251 0.000000
# 6 0.000000 0.000000 0.000000 0.028728 0.000000 0.175095
#
#
# Mechanical properties :
#
#
# Convention : Reuss Voigt Hill
#
# Bulk Modulus (GPa) = 29.75496 38.91533 34.33515
# Shear Modulus (GPa) = 15.07883 24.38359 19.73121
#
# Velocity S-wave (km/s) = 2.87073 3.65055 3.28387
# Velocity P-wave (km/s) = 5.22018 6.24798 5.75706
#
# Compressibility (1/GPa) = 0.03360784
#
# Stress axis : x y z
#
# Youngs Moduli (GPa) = 40.90198 70.83403 103.76211
#
# Poissons Ratio (x) = 0.16637 0.10764
# Poissons Ratio (y) = 0.09607 0.40590
# Poissons Ratio (z) = 0.04243 0.27709
#
# Static dielectric constant tensor:
#      x y z
#    x 3.495490 0.000000 -0.069850 
#    y 0.000000 3.297060 0.000000 
#    z -0.069850 0.000000 3.337160 
# 
# 
# High freq. dielectric constant tensor:
#      x y z
#    x 1.698070 0.000000 -0.006080 
#    y 0.000000 1.692960 0.000000 
#    z -0.006080 0.000000 1.717470 
# 
# From -- ./inp_files/24106.got.cif
#   From: 2010.06.25/outbox.cif.g09.slc.cpg/sg10_13_cif.got.tgz:24106.got - 2010.06.27 22:07:45.
