data_PCOD8067452
_publ_section_title
;
Structure prediction by ZEFSAII (Michael W. Deem and Ramdas Pophale) SiO2 
 PCOD8067452
Probable space group: P 2/M
;
_chemical_formula_sum "Si O2"
_cell_formula_units_Z 32
_cell_length_a 23.873109
_cell_length_b 8.513759
_cell_length_c 12.299021
_cell_angle_alpha 90.000000
_cell_angle_beta 133.230511
_cell_angle_gamma 90.000000
_cell_volume 1821.345857
_symmetry_space_group_name_H-M "P 2/M"
_symmetry_group_IT_number 10
_symmetry_cell_setting 'monoclinic'
loop_
_space_group_symop_operation_xyz
x,y,z
-x,y,-z
-x,-y,-z
x,-y,z
loop_
_atom_site_type_symbol
_atom_site_label
_atom_site_fract_x
_atom_site_fract_y
_atom_site_fract_z
Si Si1 0.176117 0.184493 0.865236
Si Si2 0.084636 0.316357 0.942096
Si Si3 0.180591 0.682914 0.279007
Si Si4 0.499826 0.813785 0.377574
Si Si5 0.334078 0.814231 0.409897
Si Si6 0.335817 0.814154 0.161391
Si Si7 0.074079 0.181587 0.313587
Si Si8 0.919575 0.316947 0.442861
O O1 0.120421 0.273691 0.873922
O O2 0.149379 0.223572 0.707880
O O3 0.171150 0.000000 0.882408
O O4 0.263357 0.249132 0.996242
O O5 0.066857 0.500000 0.922137
O O6 0.004574 0.226128 0.852429
O O7 0.141847 0.264428 0.114065
O O8 0.167454 0.500000 0.284377
O O9 0.270949 0.721472 0.395208
O O10 0.144860 0.782600 0.328858
O O11 0.500000 0.749538 0.500000
O O12 0.580962 0.762160 0.430431
O O13 0.417897 0.753206 0.218355
O O14 0.499685 0.000000 0.379279
O O15 0.327256 0.761237 0.275162
O O16 0.320612 0.000000 0.404406
O O17 0.336441 0.000000 0.158142
O O18 0.083508 0.283977 0.434030
O O19 0.073832 0.000000 0.345538
O O20 0.908100 0.500000 0.405676
O O21 0.000000 0.257123 0.500000
#
# Coordination Sequence:
#
# PCOD8067452 Si02
#       8
#     4   4   4   4   4   4   4   4
#     4  11  20  31  53  80 104 133 174 217 252 292
#     4  11  22  36  52  73 104 140 171 203 254 309
#     4  11  23  36  51  73 107 142 171 205 253 310
#     4   7  11  21  41  69 101 134 166 203 248 295
#     4   9  15  27  48  73 101 136 175 208 244 293
#     4   8  14  25  44  74 106 133 166 211 254 291
#     4  12  25  39  57  76  96 127 175 223 256 295
#     4  11  23  39  57  74 100 135 168 207 261 314
#
# _framework density 17.569426
#
# number of rings (size 3 to 8) (size 9 to 14) (size 15 to 20)
#    0.000    2.000    2.500    4.500    0.000    3.500 
#    0.000    0.000    0.000    4.875    0.000    0.875 
#    0.000    7.000    0.000    0.000    0.000    0.000 
#
# Total GULP energy -396628.413902 kJ/mol
# GULP energy per Si atom -12394.637934 kJ/mol
# Density = 1.752944 g / cm^3
# Si number density = 17.569426 Si / 1000 Ang^3
#
#
#
# Elastic Constant Matrix: (Units=GPa)
#
#
# Indices 1 2 3 4 5 6 
#
# 1 95.0219 15.4743 50.3067 0.0000 25.4764 0.0000
# 2 15.4743 37.6559 18.3996 0.0000 5.8345 0.0000
# 3 50.3067 18.3996 83.3554 0.0000 25.6329 0.0000
# 4 0.0000 0.0000 0.0000 16.9953 0.0000 -5.5374
# 5 25.4764 5.8345 25.6329 0.0000 36.0102 0.0000
# 6 0.0000 0.0000 0.0000 -5.5374 0.0000 13.4148
#
#
#
# Elastic Compliance Matrix: (Units=1/GPa)
#
#
# Indices 1 2 3 4 5 6 
#
# 1 0.016516 -0.002117 -0.007697 0.000000 -0.005862 0.000000
# 2 -0.002117 0.030039 -0.005527 0.000000 0.000565 0.000000
# 3 -0.007697 -0.005527 0.020372 0.000000 -0.008160 0.000000
# 4 0.000000 0.000000 0.000000 0.067983 0.000000 0.028062
# 5 -0.005862 0.000565 -0.008160 0.000000 0.037634 0.000000
# 6 0.000000 0.000000 0.000000 0.028062 0.000000 0.086128
#
#
# Mechanical properties :
#
#
# Convention : Reuss Voigt Hill
#
# Bulk Modulus (GPa) = 27.59117 42.71050 35.15084
# Shear Modulus (GPa) = 16.58731 22.07426 19.33079
#
# Velocity S-wave (km/s) = 3.07596 3.54842 3.32060
# Velocity P-wave (km/s) = 5.32480 6.41488 5.89509
#
# Compressibility (1/GPa) = 0.03624348
#
# Stress axis : x y z
#
# Youngs Moduli (GPa) = 60.54884 33.28975 49.08816
#
# Poissons Ratio (x) = 0.07049 0.37785
# Poissons Ratio (y) = 0.12821 0.27129
# Poissons Ratio (z) = 0.46607 0.18398
#
# Static dielectric constant tensor:
#      x y z
#    x 3.308850 0.000000 0.493710 
#    y 0.000000 3.026360 0.000000 
#    z 0.493710 0.000000 3.587650 
# 
# 
# High freq. dielectric constant tensor:
#      x y z
#    x 1.662910 0.000000 0.031250 
#    y 0.000000 1.664580 0.000000 
#    z 0.031250 0.000000 1.666440 
# 
# From -- ./inp_files/54923.got.cif
#   From: 2010.06.25/outbox.cif.g09.slc.cpg/sg10_28_cif.got.tgz:54923.got - 2010.06.27 22:07:45.
