data_PCOD8067428
_publ_section_title
;
Structure prediction by ZEFSAII (Michael W. Deem and Ramdas Pophale) SiO2 
 PCOD8067428
Probable space group: P 2/M
;
_chemical_formula_sum "Si O2"
_cell_formula_units_Z 20
_cell_length_a 14.241231
_cell_length_b 9.699103
_cell_length_c 23.028757
_cell_angle_alpha 90.000000
_cell_angle_beta 158.066369
_cell_angle_gamma 90.000000
_cell_volume 1188.167855
_symmetry_space_group_name_H-M "P 2/M"
_symmetry_group_IT_number 10
_symmetry_cell_setting 'monoclinic'
loop_
_space_group_symop_operation_xyz
x,y,z
-x,y,-z
-x,-y,-z
x,-y,z
loop_
_atom_site_type_symbol
_atom_site_label
_atom_site_fract_x
_atom_site_fract_y
_atom_site_fract_z
Si Si1 0.653495 0.500000 0.675457
Si Si2 0.504902 0.000000 0.666857
Si Si3 0.872875 0.500000 0.675457
Si Si4 0.827089 0.792637 0.790352
Si Si5 0.043964 0.792637 0.790352
Si Si6 0.004332 0.000000 0.333142
Si Si7 0.553091 0.000000 0.939124
Si Si8 0.235721 0.000000 0.060877
O O1 0.723399 0.500000 0.648933
O O2 0.344681 0.500000 0.500000
O O3 0.782460 0.632205 0.780305
O O4 0.580702 0.132285 0.672393
O O5 0.622774 0.000000 0.797731
O O6 0.203229 0.000000 0.499998
O O7 0.058454 0.632205 0.780305
O O8 0.858844 0.814375 0.739230
O O9 0.066789 0.861162 0.960257
O O10 0.936472 0.867715 0.672392
O O11 0.313979 0.861161 0.960256
O O12 0.729577 0.000000 0.202264
O O13 0.560158 0.000000 0.873439
#
# Coordination Sequence:
#
# PCOD8067428 Si02
#       8
#     2   2   2   4   4   2   2   2
#     4   9  16  26  43  72 104 124 141 173 224 282
#     4  11  20  30  47  69  93 121 155 195 232 266
#     4   9  16  26  43  72 104 124 141 173 224 282
#     4   9  17  30  49  71  96 122 146 180 227 280
#     4   9  17  30  49  71  96 122 146 180 227 280
#     4  11  20  30  47  69  93 121 155 195 232 266
#     4   9  19  35  49  63  88 123 163 196 224 265
#     4   9  19  35  49  63  88 123 163 196 224 265
#
# _framework density 16.832639
#
# number of rings (size 3 to 8) (size 9 to 14) (size 15 to 20)
#    0.000    2.600    0.000    5.400    0.000    3.600 
#    0.000    4.000    0.000    0.000    0.000    0.000 
#    0.000   12.800    0.000    0.000    0.000    0.000 
#
# Total GULP energy -247769.459563 kJ/mol
# GULP energy per Si atom -12388.472978 kJ/mol
# Density = 1.679433 g / cm^3
# Si number density = 16.832639 Si / 1000 Ang^3
#
#
#
# Elastic Constant Matrix: (Units=GPa)
#
#
# Indices 1 2 3 4 5 6 
#
# 1 68.6341 44.6566 54.9502 0.0000 -0.0536 0.0000
# 2 44.6566 166.7696 65.4160 0.0000 -0.0646 0.0000
# 3 54.9502 65.4160 122.6503 0.0000 -0.1158 0.0000
# 4 0.0000 0.0000 0.0000 4.4627 0.0000 -0.0087
# 5 -0.0536 -0.0646 -0.1158 0.0000 15.2134 0.0000
# 6 0.0000 0.0000 0.0000 -0.0087 0.0000 1.7001
#
#
#
# Elastic Compliance Matrix: (Units=1/GPa)
#
#
# Indices 1 2 3 4 5 6 
#
# 1 0.023681 -0.002756 -0.009139 0.000000 0.000002 0.000000
# 2 -0.002756 0.007903 -0.002981 0.000000 0.000001 0.000000
# 3 -0.009139 -0.002981 0.013838 0.000000 0.000060 0.000000
# 4 0.000000 0.000000 0.000000 0.224082 0.000000 0.001144
# 5 0.000002 0.000001 0.000060 0.000000 0.065732 0.000000
# 6 0.000000 0.000000 0.000000 0.001144 0.000000 0.588220
#
#
# Mechanical properties :
#
#
# Convention : Reuss Voigt Hill
#
# Bulk Modulus (GPa) = 63.81816 76.45550 70.13683
# Shear Modulus (GPa) = 5.21686 17.14399 11.18042
#
# Velocity S-wave (km/s) = 1.76238 3.19485 2.58003
# Velocity P-wave (km/s) = 6.49130 7.68954 7.11569
#
# Compressibility (1/GPa) = 0.01566952
#
# Stress axis : x y z
#
# Youngs Moduli (GPa) = 42.22880 126.52739 72.26631
#
# Poissons Ratio (x) = 0.34871 0.66048
# Poissons Ratio (y) = 0.11638 0.21539
# Poissons Ratio (z) = 0.38595 0.37712
#
# Static dielectric constant tensor:
#      x y z
#    x 2.990600 0.000000 0.000240 
#    y 0.000000 3.573130 0.000000 
#    z 0.000240 0.000000 2.912400 
# 
# 
# High freq. dielectric constant tensor:
#      x y z
#    x 1.625080 0.000000 -0.000020 
#    y 0.000000 1.652660 0.000000 
#    z -0.000020 0.000000 1.629870 
# 
# From -- ./inp_files/44735.got.cif
#   From: 2010.06.25/outbox.cif.g09.slc.cpg/sg10_23_cif.got.tgz:44735.got - 2010.06.27 22:07:45.
