data_PCOD8067844
_publ_section_title
;
Structure prediction by ZEFSAII (Michael W. Deem and Ramdas Pophale) SiO2 
 PCOD8067844
Probable space group: P 2/M
;
_chemical_formula_sum "Si O2"
_cell_formula_units_Z 28
_cell_length_a 13.800218
_cell_length_b 17.455420
_cell_length_c 8.557717
_cell_angle_alpha 90.000000
_cell_angle_beta 42.641564
_cell_angle_gamma 90.000000
_cell_volume 1396.450774
_symmetry_space_group_name_H-M "P 2/M"
_symmetry_group_IT_number 10
_symmetry_cell_setting 'monoclinic'
loop_
_space_group_symop_operation_xyz
x,y,z
-x,y,-z
-x,-y,-z
x,-y,z
loop_
_atom_site_type_symbol
_atom_site_label
_atom_site_fract_x
_atom_site_fract_y
_atom_site_fract_z
Si Si1 0.557830 0.912269 0.106857
Si Si2 0.349657 0.730191 0.235233
Si Si3 0.925797 0.586088 0.839436
Si Si4 0.882109 0.747104 0.014224
Si Si5 0.214508 0.583628 0.327486
Si Si6 0.850642 0.828932 0.734201
Si Si7 0.391503 0.789882 0.504981
O O1 0.456645 0.866587 0.348975
O O2 0.545714 0.000000 0.172165
O O3 0.500000 0.900508 0.000000
O O4 0.725508 0.889121 0.924755
O O5 0.344190 0.642357 0.190778
O O6 0.215171 0.775227 0.323444
O O7 0.349262 0.729774 0.422172
O O8 0.500000 0.767063 0.000000
O O9 0.915684 0.500000 0.928126
O O10 0.834224 0.585605 0.792198
O O11 0.088576 0.605562 0.598131
O O12 0.868190 0.653475 0.023523
O O13 0.749958 0.799485 0.225981
O O14 0.906481 0.776095 0.809560
O O15 0.000000 0.770209 0.000000
O O16 0.273718 0.500000 0.299291
O O17 0.000000 0.868979 0.500000
O O18 0.500000 0.752603 0.500000
#
# Coordination Sequence:
#
# PCOD8067844 Si02
#       7
#     4   4   4   4   4   4   4
#     4  11  24  46  74  99 122 164 211 251 311 383
#     4  12  21  38  64  89 123 168 220 263 311 371
#     4   9  18  35  57  86 123 165 215 268 320 369
#     4  12  24  36  61  98 128 168 214 264 317 369
#     4   9  18  33  58  88 119 163 220 274 315 360
#     4  12  22  41  67  93 129 165 214 263 305 369
#     4  12  23  42  62  93 129 164 203 256 315 381
#
# _framework density 20.050832
#
# number of rings (size 3 to 8) (size 9 to 14) (size 15 to 20)
#    0.000    1.000    5.714    3.429    0.000    1.143 
#    0.000    0.714    0.000    1.714    0.000    0.000 
#    0.000    0.000    0.000    0.000    0.000    0.000 
#
# Total GULP energy -346882.990874 kJ/mol
# GULP energy per Si atom -12388.678246 kJ/mol
# Density = 2.000520 g / cm^3
# Si number density = 20.050832 Si / 1000 Ang^3
#
#
#
# Elastic Constant Matrix: (Units=GPa)
#
#
# Indices 1 2 3 4 5 6 
#
# 1 124.9796 25.6741 29.3367 0.0000 -0.7885 0.0000
# 2 25.6741 93.6340 34.5569 0.0000 -13.2403 0.0000
# 3 29.3367 34.5569 96.7707 0.0000 -16.0552 0.0000
# 4 0.0000 0.0000 0.0000 33.7293 0.0000 10.3763
# 5 -0.7885 -13.2403 -16.0552 0.0000 35.2597 0.0000
# 6 0.0000 0.0000 0.0000 10.3763 0.0000 38.8335
#
#
#
# Elastic Compliance Matrix: (Units=1/GPa)
#
#
# Indices 1 2 3 4 5 6 
#
# 1 0.008905 -0.001806 -0.002308 0.000000 -0.001530 0.000000
# 2 -0.001806 0.012935 -0.003540 0.000000 0.003205 0.000000
# 3 -0.002308 -0.003540 0.013055 0.000000 0.004564 0.000000
# 4 0.000000 0.000000 0.000000 0.032303 0.000000 -0.008631
# 5 -0.001530 0.003205 0.004564 0.000000 0.031608 0.000000
# 6 0.000000 0.000000 0.000000 -0.008631 0.000000 0.028057
#
#
# Mechanical properties :
#
#
# Convention : Reuss Voigt Hill
#
# Bulk Modulus (GPa) = 51.05809 54.94664 53.00237
# Shear Modulus (GPa) = 33.62489 36.61892 35.12191
#
# Velocity S-wave (km/s) = 4.09954 4.27816 4.18980
# Velocity P-wave (km/s) = 6.92300 7.20186 7.06380
#
# Compressibility (1/GPa) = 0.01958553
#
# Stress axis : x y z
#
# Youngs Moduli (GPa) = 112.30264 77.31172 76.60069
#
# Poissons Ratio (x) = 0.13963 0.17683
# Poissons Ratio (y) = 0.20282 0.27115
# Poissons Ratio (z) = 0.25924 0.27366
#
# Static dielectric constant tensor:
#      x y z
#    x 3.689590 0.000000 0.034900 
#    y 0.000000 3.676140 0.000000 
#    z 0.034900 0.000000 3.620100 
# 
# 
# High freq. dielectric constant tensor:
#      x y z
#    x 1.793350 0.000000 0.002510 
#    y 0.000000 1.767570 0.000000 
#    z 0.002510 0.000000 1.770750 
# 
# From -- ./inp_files/30098.got.cif
#   From: 2010.06.25/outbox.cif.g09.slc.cpg/sg10_16_cif.got.tgz:30098.got - 2010.06.27 22:07:45.
