data_PCOD8067192
_publ_section_title
;
Structure prediction by ZEFSAII (Michael W. Deem and Ramdas Pophale) SiO2 
 PCOD8067192
Probable space group: P 2/M
;
_chemical_formula_sum "Si O2"
_cell_formula_units_Z 28
_cell_length_a 9.497329
_cell_length_b 13.370734
_cell_length_c 12.210025
_cell_angle_alpha 90.000000
_cell_angle_beta 66.614431
_cell_angle_gamma 90.000000
_cell_volume 1423.138559
_symmetry_space_group_name_H-M "P 2/M"
_symmetry_group_IT_number 10
_symmetry_cell_setting 'monoclinic'
loop_
_space_group_symop_operation_xyz
x,y,z
-x,y,-z
-x,-y,-z
x,-y,z
loop_
_atom_site_type_symbol
_atom_site_label
_atom_site_fract_x
_atom_site_fract_y
_atom_site_fract_z
Si Si1 0.848421 0.616515 0.377901
Si Si2 0.161009 0.701836 0.239237
Si Si3 0.346401 0.613918 0.358606
Si Si4 0.147347 0.114308 0.380125
Si Si5 0.832183 0.383311 0.001001
Si Si6 0.522076 0.114588 0.620809
Si Si7 0.342077 0.702757 0.747528
O O1 0.814046 0.500000 0.364892
O O2 0.761484 0.656414 0.511801
O O3 0.799444 0.684179 0.289834
O O4 0.028985 0.633838 0.335504
O O5 0.316202 0.670981 0.254100
O O6 0.134460 0.819211 0.273655
O O7 0.175559 0.680467 0.107163
O O8 0.308252 0.500000 0.351828
O O9 0.522182 0.630802 0.337421
O O10 0.302672 0.138977 0.399855
O O11 0.000000 0.137825 0.500000
O O12 0.146680 0.000000 0.340815
O O13 0.789604 0.500000 0.994488
O O14 0.707840 0.329692 0.115954
O O15 0.000000 0.375084 0.000000
O O16 0.500000 0.139081 0.500000
O O17 0.402669 0.182850 0.726403
O O18 0.479775 0.000000 0.659805
#
# Coordination Sequence:
#
# PCOD8067192 Si02
#       7
#     4   4   4   4   4   4   4
#     4  11  22  37  60  88 125 165 201 250 316 384
#     4  12  23  39  62  89 125 166 208 256 311 368
#     4  11  22  35  56  92 125 153 199 258 320 380
#     4  10  22  41  66  97 130 164 206 259 320 379
#     4  11  24  43  64  85 120 174 223 257 298 367
#     4  10  22  41  66  97 130 164 206 259 320 379
#     4  12  23  39  62  89 125 166 208 256 311 368
#
# _framework density 19.674824000000001
#
# number of rings (size 3 to 8) (size 9 to 14) (size 15 to 20)
#    0.000    1.000    2.857    5.143    2.000    2.857 
#    0.000    2.143    0.000    2.571    0.000    0.000 
#    0.000    0.000    0.000    0.000    0.000    0.000 
#
# Total GULP energy -347251.530516 kJ/mol
# GULP energy per Si atom -12401.840376 kJ/mol
# Density = 1.963004 g / cm^3
# Si number density = 19.674824 Si / 1000 Ang^3
#
#
#
# Elastic Constant Matrix: (Units=GPa)
#
#
# Indices 1 2 3 4 5 6 
#
# 1 69.8328 38.7811 27.4036 0.0000 4.0356 0.0000
# 2 38.7811 133.9160 65.6388 0.0000 8.5708 0.0000
# 3 27.4036 65.6388 119.4661 0.0000 8.4068 0.0000
# 4 0.0000 0.0000 0.0000 32.5707 0.0000 0.5912
# 5 4.0356 8.5708 8.4068 0.0000 34.0349 0.0000
# 6 0.0000 0.0000 0.0000 0.5912 0.0000 33.2957
#
#
#
# Elastic Compliance Matrix: (Units=1/GPa)
#
#
# Indices 1 2 3 4 5 6 
#
# 1 0.017314 -0.004174 -0.001636 0.000000 -0.000598 0.000000
# 2 -0.004174 0.011275 -0.005162 0.000000 -0.001069 0.000000
# 3 -0.001636 -0.005162 0.011680 0.000000 -0.001391 0.000000
# 4 0.000000 0.000000 0.000000 0.030712 0.000000 -0.000545
# 5 -0.000598 -0.001069 -0.001391 0.000000 0.030065 0.000000
# 6 0.000000 0.000000 0.000000 -0.000545 0.000000 0.030044
#
#
# Mechanical properties :
#
#
# Convention : Reuss Voigt Hill
#
# Bulk Modulus (GPa) = 54.57102 65.20687 59.88895
# Shear Modulus (GPa) = 31.41825 32.73969 32.07897
#
# Velocity S-wave (km/s) = 4.00043 4.08369 4.04227
# Velocity P-wave (km/s) = 7.00961 7.44645 7.23133
#
# Compressibility (1/GPa) = 0.01832474
#
# Stress axis : x y z
#
# Youngs Moduli (GPa) = 57.75511 88.69421 85.61623
#
# Poissons Ratio (x) = 0.37019 0.14010
# Poissons Ratio (y) = 0.24106 0.44196
# Poissons Ratio (z) = 0.09451 0.45784
#
# Static dielectric constant tensor:
#      x y z
#    x 3.639160 0.000000 -0.047080 
#    y 0.000000 3.648260 0.000000 
#    z -0.047080 0.000000 3.438260 
# 
# 
# High freq. dielectric constant tensor:
#      x y z
#    x 1.780390 0.000000 -0.002810 
#    y 0.000000 1.770250 0.000000 
#    z -0.002810 0.000000 1.745010 
# 
# From -- ./inp_files/24872.got.cif
#   From: 2010.06.25/outbox.cif.g09.slc.cpg/sg10_13_cif.got.tgz:24872.got - 2010.06.27 22:07:45.
