data_PCOD8067754
_publ_section_title
;
Structure prediction by ZEFSAII (Michael W. Deem and Ramdas Pophale) SiO2 
 PCOD8067754
Probable space group: P 2/M
;
_chemical_formula_sum "Si O2"
_cell_formula_units_Z 28
_cell_length_a 22.085474
_cell_length_b 12.068716
_cell_length_c 19.319735
_cell_angle_alpha 90.000000
_cell_angle_beta 19.632825
_cell_angle_gamma 90.000000
_cell_volume 1730.202322
_symmetry_space_group_name_H-M "P 2/M"
_symmetry_group_IT_number 10
_symmetry_cell_setting 'monoclinic'
loop_
_space_group_symop_operation_xyz
x,y,z
-x,y,-z
-x,-y,-z
x,-y,z
loop_
_atom_site_type_symbol
_atom_site_label
_atom_site_fract_x
_atom_site_fract_y
_atom_site_fract_z
Si Si1 0.338755 0.631950 0.983724
Si Si2 0.581517 0.368668 0.255419
Si Si3 0.249520 0.240449 0.668015
Si Si4 0.167091 0.759553 0.915366
Si Si5 0.984678 0.631833 0.438649
Si Si6 0.591990 0.368167 0.831337
Si Si7 0.765697 0.000000 0.317621
Si Si8 0.151023 0.000000 0.932291
O O1 0.338742 0.500000 0.983766
O O2 0.378519 0.677245 0.864432
O O3 0.490704 0.677737 0.872628
O O4 0.145957 0.677739 0.217375
O O5 0.580426 0.500000 0.258698
O O6 0.383826 0.328755 0.490563
O O7 0.741733 0.328757 0.132672
O O8 0.239931 0.262774 0.760064
O O9 0.335584 0.117071 0.560386
O O10 0.050226 0.252317 0.849286
O O11 0.231602 0.882928 0.872418
O O12 0.993188 0.500000 0.432763
O O13 0.000000 0.679174 0.500000
O O14 0.798014 0.672794 0.605952
O O15 0.580859 0.500000 0.845093
O O16 0.500000 0.320825 0.000000
O O17 0.831739 0.000000 0.168263
O O18 0.940592 0.000000 0.178268
#
# Coordination Sequence:
#
# PCOD8067754 Si02
#       8
#     4   4   4   4   4   4   2   2
#     4   9  18  29  37  53  82 116 151 185 217 256
#     4  11  23  33  41  60  96 135 167 188 212 263
#     4   9  18  33  52  70  88 115 153 199 245 280
#     4   9  18  33  52  70  88 115 153 199 245 280
#     4   9  14  22  39  58  74  96 135 185 227 259
#     4   9  14  22  39  58  74  96 135 185 227 259
#     4   7  12  27  51  75  90 101 135 195 255 296
#     4   7  12  27  51  75  90 101 135 195 255 296
#
# _framework density 16.183077999999998
#
# number of rings (size 3 to 8) (size 9 to 14) (size 15 to 20)
#    0.000    3.000    1.429    2.143    0.000    3.429 
#    0.000    6.429    0.000    0.000    0.000    0.000 
#    0.000    0.000    0.000    5.143    0.000    2.857 
#
# Total GULP energy -346875.978362 kJ/mol
# GULP energy per Si atom -12388.427799 kJ/mol
# Density = 1.614624 g / cm^3
# Si number density = 16.183078 Si / 1000 Ang^3
#
#
#
# Elastic Constant Matrix: (Units=GPa)
#
#
# Indices 1 2 3 4 5 6 
#
# 1 106.6269 32.5994 74.6820 0.0000 -0.2969 0.0000
# 2 32.5994 54.1536 30.5299 0.0000 2.2811 0.0000
# 3 74.6820 30.5299 113.7076 0.0000 -7.3670 0.0000
# 4 0.0000 0.0000 0.0000 6.5611 0.0000 -4.1986
# 5 -0.2969 2.2811 -7.3670 0.0000 23.8713 0.0000
# 6 0.0000 0.0000 0.0000 -4.1986 0.0000 2.7235
#
#
#
# Elastic Compliance Matrix: (Units=1/GPa)
#
#
# Indices 1 2 3 4 5 6 
#
# 1 0.018638 -0.004835 -0.011120 0.000000 -0.002738 0.000000
# 2 -0.004835 0.023387 -0.003319 0.000000 -0.003319 0.000000
# 3 -0.011120 -0.003319 0.017348 0.000000 0.005533 0.000000
# 4 0.000000 0.000000 0.000000 11.316550 0.000000 17.445992
# 5 -0.002738 -0.003319 0.005533 0.000000 0.043882 0.000000
# 6 0.000000 0.000000 0.000000 17.445992 0.000000 27.262531
#
#
# Mechanical properties :
#
#
# Convention : Reuss Voigt Hill
#
# Bulk Modulus (GPa) = 48.02018 61.12340 54.57179
# Shear Modulus (GPa) = 0.12911 15.74297 7.93604
#
# Velocity S-wave (km/s) = 0.28276 3.12237 2.21688
# Velocity P-wave (km/s) = 5.46298 7.13098 6.35197
#
# Compressibility (1/GPa) = 0.02082458
#
# Stress axis : x y z
#
# Youngs Moduli (GPa) = 53.65415 42.75799 57.64417
#
# Poissons Ratio (x) = 0.20674 0.64103
# Poissons Ratio (y) = 0.25942 0.19131
# Poissons Ratio (z) = 0.59666 0.14191
#
# Static dielectric constant tensor:
#      x y z
#    x 3.060360 0.000000 -0.067110 
#    y 0.000000 2.772030 0.000000 
#    z -0.067110 0.000000 3.121680 
# 
# 
# High freq. dielectric constant tensor:
#      x y z
#    x 1.611740 0.000000 -0.014050 
#    y 0.000000 1.569140 0.000000 
#    z -0.014050 0.000000 1.624580 
# 
# From -- ./inp_files/79533.got.cif
#   From: 2010.06.25/outbox.cif.g09.slc.cpg/sg10_40_cif.got.tgz:79533.got - 2010.06.27 22:07:45.
