data_PCOD8067694
_publ_section_title
;
Structure prediction by ZEFSAII (Michael W. Deem and Ramdas Pophale) SiO2 
 PCOD8067694
Probable space group: P 2/M
;
_chemical_formula_sum "Si O2"
_cell_formula_units_Z 32
_cell_length_a 13.076552
_cell_length_b 19.001876
_cell_length_c 8.662472
_cell_angle_alpha 90.000000
_cell_angle_beta 48.618032
_cell_angle_gamma 90.000000
_cell_volume 1615.018884
_symmetry_space_group_name_H-M "P 2/M"
_symmetry_group_IT_number 10
_symmetry_cell_setting 'monoclinic'
loop_
_space_group_symop_operation_xyz
x,y,z
-x,y,-z
-x,-y,-z
x,-y,z
loop_
_atom_site_type_symbol
_atom_site_label
_atom_site_fract_x
_atom_site_fract_y
_atom_site_fract_z
Si Si1 0.654604 0.800057 0.028228
Si Si2 0.023708 0.580877 0.796795
Si Si3 0.525393 0.581495 0.302016
Si Si4 0.277660 0.351870 0.400517
Si Si5 0.348548 0.801487 0.334495
Si Si6 0.153147 0.078434 0.530374
Si Si7 0.228743 0.649131 0.090665
Si Si8 0.152025 0.078603 0.164158
O O1 0.643399 0.807203 0.856860
O O2 0.730405 0.728086 0.998635
O O3 0.741989 0.864839 0.011165
O O4 0.501811 0.802295 0.251332
O O5 0.999487 0.500000 0.771802
O O6 0.178134 0.602685 0.606437
O O7 0.927007 0.633022 0.796832
O O8 0.000000 0.591690 0.000000
O O9 0.500000 0.610030 0.500000
O O10 0.489227 0.500000 0.328835
O O11 0.431588 0.622841 0.274516
O O12 0.680614 0.594447 0.097246
O O13 0.269681 0.270068 0.456690
O O14 0.244032 0.363958 0.256174
O O15 0.261419 0.866113 0.491910
O O16 0.153542 0.082703 0.346338
O O17 0.000791 0.096081 0.742715
O O18 0.195773 0.000000 0.541689
O O19 0.194691 0.000000 0.067680
#
# Coordination Sequence:
#
# PCOD8067694 Si02
#       8
#     4   4   4   4   4   4   4   4
#     4   9  17  29  45  71 107 141 176 222 272 319
#     4  11  25  43  59  79 110 145 184 232 285 341
#     4  11  23  39  59  81 110 149 186 226 279 333
#     4  11  22  37  58  85 113 144 185 233 281 332
#     4   9  17  29  45  71 107 141 176 222 272 319
#     4   8  14  24  40  65 100 143 183 216 261 322
#     4  11  22  37  58  85 113 144 185 233 281 332
#     4   8  14  24  40  65 100 143 183 216 261 322
#
# _framework density 19.814008000000001
#
# number of rings (size 3 to 8) (size 9 to 14) (size 15 to 20)
#    0.000    2.250    1.250    3.000    1.750    5.500 
#    0.000    2.500    0.000    0.000    0.000    0.000 
#    0.000    6.000    0.000    0.000    0.000    0.000 
#
# Total GULP energy -396805.501458 kJ/mol
# GULP energy per Si atom -12400.171921 kJ/mol
# Density = 1.976891 g / cm^3
# Si number density = 19.814008 Si / 1000 Ang^3
#
#
#
# Elastic Constant Matrix: (Units=GPa)
#
#
# Indices 1 2 3 4 5 6 
#
# 1 57.0910 45.8823 18.6302 0.0000 -16.2284 0.0000
# 2 45.8823 130.2815 37.5944 0.0000 -12.2152 0.0000
# 3 18.6302 37.5944 68.9924 0.0000 -11.4520 0.0000
# 4 0.0000 0.0000 0.0000 23.4694 0.0000 -20.4574
# 5 -16.2284 -12.2152 -11.4520 0.0000 24.1377 0.0000
# 6 0.0000 0.0000 0.0000 -20.4574 0.0000 18.3210
#
#
#
# Elastic Compliance Matrix: (Units=1/GPa)
#
#
# Indices 1 2 3 4 5 6 
#
# 1 0.028805 -0.008573 -0.000665 0.000000 0.014712 0.000000
# 2 -0.008573 0.011795 -0.004427 0.000000 -0.001895 0.000000
# 3 -0.000665 -0.004427 0.018062 0.000000 0.005883 0.000000
# 4 0.000000 0.000000 0.000000 1.596298 0.000000 1.782441
# 5 0.014712 -0.001895 0.005883 0.000000 0.053152 0.000000
# 6 0.000000 0.000000 0.000000 1.782441 0.000000 2.044873
#
#
# Mechanical properties :
#
#
# Convention : Reuss Voigt Hill
#
# Bulk Modulus (GPa) = 31.91505 51.17540 41.54523
# Shear Modulus (GPa) = 1.31900 23.46948 12.39424
#
# Velocity S-wave (km/s) = 0.81678 3.44537 2.50377
# Velocity P-wave (km/s) = 4.12696 6.45844 5.41956
#
# Compressibility (1/GPa) = 0.03133318
#
# Stress axis : x y z
#
# Youngs Moduli (GPa) = 34.71634 84.78432 55.36394
#
# Poissons Ratio (x) = 0.72688 0.03679
# Poissons Ratio (y) = 0.29763 0.24507
# Poissons Ratio (z) = 0.02307 0.37530
#
# Static dielectric constant tensor:
#      x y z
#    x 3.464440 0.000000 -0.374120 
#    y 0.000000 3.803180 0.000000 
#    z -0.374120 0.000000 3.432850 
# 
# 
# High freq. dielectric constant tensor:
#      x y z
#    x 1.753120 0.000000 -0.030190 
#    y 0.000000 1.781610 0.000000 
#    z -0.030190 0.000000 1.749710 
# 
# From -- ./inp_files/26053.got.cif
#   From: 2010.06.25/outbox.cif.g09.slc.cpg/sg10_14_cif.got.tgz:26053.got - 2010.06.27 22:07:45.
