data_PCOD8067610
_publ_section_title
;
Structure prediction by ZEFSAII (Michael W. Deem and Ramdas Pophale) SiO2 
 PCOD8067610
Probable space group: P 2/M
;
_chemical_formula_sum "Si O2"
_cell_formula_units_Z 32
_cell_length_a 11.729608
_cell_length_b 16.004745
_cell_length_c 17.522840
_cell_angle_alpha 90.000000
_cell_angle_beta 149.997095
_cell_angle_gamma 90.000000
_cell_volume 1644.920427
_symmetry_space_group_name_H-M "P 2/M"
_symmetry_group_IT_number 10
_symmetry_cell_setting 'monoclinic'
loop_
_space_group_symop_operation_xyz
x,y,z
-x,y,-z
-x,-y,-z
x,-y,z
loop_
_atom_site_type_symbol
_atom_site_label
_atom_site_fract_x
_atom_site_fract_y
_atom_site_fract_z
Si Si1 0.175936 0.591246 0.992357
Si Si2 0.677619 0.595202 0.751586
Si Si3 0.164291 0.093201 0.657869
Si Si4 0.884314 0.095317 0.793287
Si Si5 0.048440 0.174334 0.326297
Si Si6 0.465780 0.777267 0.331882
Si Si7 0.310311 0.278556 0.950966
Si Si8 0.368845 0.151436 0.113771
O O1 0.251621 0.500000 0.012435
O O2 0.295223 0.645220 0.998624
O O3 0.904017 0.600361 0.832374
O O4 0.266207 0.611306 0.128266
O O5 0.569075 0.500000 0.677321
O O6 0.534161 0.678044 0.644408
O O7 0.419709 0.088508 0.771454
O O8 0.000000 0.136897 0.500000
O O9 0.140554 0.140163 0.724428
O O10 0.076505 0.000000 0.621729
O O11 0.912845 0.108162 0.719299
O O12 0.708631 0.165799 0.720529
O O13 0.796643 0.000000 0.757039
O O14 0.125163 0.105140 0.977526
O O15 0.281923 0.191023 0.505485
O O16 0.936929 0.259756 0.229644
O O17 0.400237 0.788807 0.205269
O O18 0.500000 0.301679 0.000000
O O19 0.386039 0.200293 0.044668
#
# Coordination Sequence:
#
# PCOD8067610 Si02
#       8
#     4   4   4   4   4   4   4   4
#     4   9  18  33  58  89 116 148 195 243 293 352
#     4   9  18  35  61  91 118 150 195 249 297 350
#     4  11  22  38  60  85 113 154 208 255 293 341
#     4  11  26  41  58  87 125 163 199 246 307 361
#     4  11  24  40  58  87 120 160 199 242 304 358
#     4  12  23  39  64  88 124 159 198 249 302 366
#     4  11  21  37  60  84 118 153 195 242 297 351
#     4  11  22  39  61  87 115 154 209 251 290 344
#
# _framework density 19.453828000000001
#
# number of rings (size 3 to 8) (size 9 to 14) (size 15 to 20)
#    0.000    1.375    3.750    3.750    1.750    3.250 
#    0.000    2.500    0.000    3.000    0.000    2.625 
#    0.000    0.000    0.000    0.000    0.000    0.000 
#
# Total GULP energy -396536.711049 kJ/mol
# GULP energy per Si atom -12391.772220 kJ/mol
# Density = 1.940955 g / cm^3
# Si number density = 19.453828 Si / 1000 Ang^3
#
#
#
# Elastic Constant Matrix: (Units=GPa)
#
#
# Indices 1 2 3 4 5 6 
#
# 1 92.4640 33.8833 12.4655 0.0000 12.4597 0.0000
# 2 33.8833 112.7486 24.0770 0.0000 7.6069 0.0000
# 3 12.4655 24.0770 76.2854 0.0000 10.1582 0.0000
# 4 0.0000 0.0000 0.0000 17.0596 0.0000 -1.3884
# 5 12.4597 7.6069 10.1582 0.0000 20.2975 0.0000
# 6 0.0000 0.0000 0.0000 -1.3884 0.0000 26.4329
#
#
#
# Elastic Compliance Matrix: (Units=1/GPa)
#
#
# Indices 1 2 3 4 5 6 
#
# 1 0.012980 -0.003421 -0.000162 0.000000 -0.006605 0.000000
# 2 -0.003421 0.010505 -0.002691 0.000000 -0.000490 0.000000
# 3 -0.000162 -0.002691 0.014825 0.000000 -0.006311 0.000000
# 4 0.000000 0.000000 0.000000 0.058870 0.000000 0.003092
# 5 -0.006605 -0.000490 -0.006311 0.000000 0.056664 0.000000
# 6 0.000000 0.000000 0.000000 0.003092 0.000000 0.037994
#
#
# Mechanical properties :
#
#
# Convention : Reuss Voigt Hill
#
# Bulk Modulus (GPa) = 38.81600 46.92775 42.87187
# Shear Modulus (GPa) = 23.47711 26.82950 25.15330
#
# Velocity S-wave (km/s) = 3.47769 3.71770 3.59970
# Velocity P-wave (km/s) = 6.01015 6.52713 6.27397
#
# Compressibility (1/GPa) = 0.02576257
#
# Stress axis : x y z
#
# Youngs Moduli (GPa) = 77.03934 95.19211 67.45368
#
# Poissons Ratio (x) = 0.32562 0.01092
# Poissons Ratio (y) = 0.26353 0.18154
# Poissons Ratio (z) = 0.01247 0.25619
#
# Static dielectric constant tensor:
#      x y z
#    x 3.538590 0.000000 -0.111410 
#    y 0.000000 3.755190 0.000000 
#    z -0.111410 0.000000 3.479100 
# 
# 
# High freq. dielectric constant tensor:
#      x y z
#    x 1.763840 0.000000 -0.005720 
#    y 0.000000 1.752910 0.000000 
#    z -0.005720 0.000000 1.745560 
# 
# From -- ./inp_files/54080.got.cif
#   From: 2010.06.25/outbox.cif.g09.slc.cpg/sg10_28_cif.got.tgz:54080.got - 2010.06.27 22:07:45.
