data_PCOD8067284
_publ_section_title
;
Structure prediction by ZEFSAII (Michael W. Deem and Ramdas Pophale) SiO2 
 PCOD8067284
Probable space group: P 2/M
;
_chemical_formula_sum "Si O2"
_cell_formula_units_Z 28
_cell_length_a 14.452846
_cell_length_b 8.900689
_cell_length_c 12.380287
_cell_angle_alpha 90.000000
_cell_angle_beta 119.305000
_cell_angle_gamma 90.000000
_cell_volume 1388.792711
_symmetry_space_group_name_H-M "P 2/M"
_symmetry_group_IT_number 10
_symmetry_cell_setting 'monoclinic'
loop_
_space_group_symop_operation_xyz
x,y,z
-x,y,-z
-x,-y,-z
x,-y,z
loop_
_atom_site_type_symbol
_atom_site_label
_atom_site_fract_x
_atom_site_fract_y
_atom_site_fract_z
Si Si1 0.206997 0.674765 0.200695
Si Si2 0.380900 0.825973 0.449353
Si Si3 0.200791 0.325976 0.950409
Si Si4 0.299019 0.826766 0.639636
Si Si5 0.616066 0.326291 0.110540
Si Si6 0.907610 0.329295 0.532217
Si Si7 0.977582 0.176964 0.786433
O O1 0.192802 0.500000 0.216141
O O2 0.300976 0.734809 0.328893
O O3 0.094252 0.753353 0.159841
O O4 0.236353 0.707001 0.093253
O O5 0.500000 0.767074 0.500000
O O6 0.356541 0.796608 0.559920
O O7 0.369795 0.000000 0.411197
O O8 0.171747 0.500000 0.917621
O O9 0.297450 0.276582 0.929133
O O10 0.097684 0.232044 0.860132
O O11 0.376042 0.776751 0.779493
O O12 0.195980 0.723146 0.590437
O O13 0.267096 0.000000 0.634850
O O14 0.631704 0.500000 0.150951
O O15 0.500000 0.295299 0.000000
O O16 0.895526 0.500000 0.566848
O O17 0.925316 0.220750 0.643058
O O18 0.000000 0.314105 0.500000
O O19 0.974802 0.000000 0.797558
#
# Coordination Sequence:
#
# PCOD8067284 Si02
#       7
#     4   4   4   4   4   4   4
#     4  11  23  40  65  94 124 162 209 258 308 368
#     4  10  23  42  63  91 128 166 203 253 315 372
#     4  10  23  42  62  90 125 163 208 257 308 364
#     4  11  23  40  63  93 126 161 204 255 308 366
#     4  10  23  43  66  90 123 165 209 258 309 363
#     4  11  23  39  62  90 123 164 205 252 308 363
#     4  12  24  39  61  92 126 163 205 251 310 373
#
# _framework density 20.161396
#
# number of rings (size 3 to 8) (size 9 to 14) (size 15 to 20)
#    0.000    1.286    1.429    3.857    2.000    9.143 
#    0.000    0.000    0.000    0.000    0.000    0.000 
#    0.000    0.000    0.000    0.000    0.000    0.000 
#
# Total GULP energy -347379.125419 kJ/mol
# GULP energy per Si atom -12406.397336 kJ/mol
# Density = 2.011551 g / cm^3
# Si number density = 20.161396 Si / 1000 Ang^3
#
#
#
# Elastic Constant Matrix: (Units=GPa)
#
#
# Indices 1 2 3 4 5 6 
#
# 1 123.1896 59.4438 54.2229 0.0000 22.3289 0.0000
# 2 59.4438 91.8504 44.5768 0.0000 -1.0055 0.0000
# 3 54.2229 44.5768 108.8974 0.0000 -4.4236 0.0000
# 4 0.0000 0.0000 0.0000 49.9170 0.0000 -6.6416
# 5 22.3289 -1.0055 -4.4236 0.0000 27.4122 0.0000
# 6 0.0000 0.0000 0.0000 -6.6416 0.0000 22.0960
#
#
#
# Elastic Compliance Matrix: (Units=1/GPa)
#
#
# Indices 1 2 3 4 5 6 
#
# 1 0.017869 -0.008870 -0.005910 0.000000 -0.015834 0.000000
# 2 -0.008870 0.017993 -0.002646 0.000000 0.007458 0.000000
# 3 -0.005910 -0.002646 0.013489 0.000000 0.006894 0.000000
# 4 0.000000 0.000000 0.000000 0.020868 0.000000 0.006272
# 5 -0.015834 0.007458 0.006894 0.000000 0.050764 0.000000
# 6 0.000000 0.000000 0.000000 0.006272 0.000000 0.047142
#
#
# Mechanical properties :
#
#
# Convention : Reuss Voigt Hill
#
# Bulk Modulus (GPa) = 68.96616 71.15828 70.06222
# Shear Modulus (GPa) = 24.06047 30.93130 27.49589
#
# Velocity S-wave (km/s) = 3.45830 3.92112 3.69696
# Velocity P-wave (km/s) = 7.08715 7.47470 7.28351
#
# Compressibility (1/GPa) = 0.01449986
#
# Stress axis : x y z
#
# Youngs Moduli (GPa) = 55.96349 55.57614 74.13516
#
# Poissons Ratio (x) = 0.49293 0.43813
# Poissons Ratio (y) = 0.49637 0.19618
# Poissons Ratio (z) = 0.33074 0.14707
#
# Static dielectric constant tensor:
#      x y z
#    x 3.729000 0.000000 0.100130 
#    y 0.000000 3.690790 0.000000 
#    z 0.100130 0.000000 3.491970 
# 
# 
# High freq. dielectric constant tensor:
#      x y z
#    x 1.798990 0.000000 -0.002380 
#    y 0.000000 1.788730 0.000000 
#    z -0.002380 0.000000 1.797760 
# 
# From -- ./inp_files/49646.got.cif
#   From: 2010.06.25/outbox.cif.g09.slc.cpg/sg10_25_cif.got.tgz:49646.got - 2010.06.27 22:07:45.
