data_PCOD8067632
_publ_section_title
;
Structure prediction by ZEFSAII (Michael W. Deem and Ramdas Pophale) SiO2 
 PCOD8067632
Probable space group: P 2/M
;
_chemical_formula_sum "Si O2"
_cell_formula_units_Z 20
_cell_length_a 4.952793
_cell_length_b 14.277091
_cell_length_c 12.556895
_cell_angle_alpha 90.000000
_cell_angle_beta 80.133968
_cell_angle_gamma 90.000000
_cell_volume 874.785258
_symmetry_space_group_name_H-M "P 2/M"
_symmetry_group_IT_number 10
_symmetry_cell_setting 'monoclinic'
loop_
_space_group_symop_operation_xyz
x,y,z
-x,y,-z
-x,-y,-z
x,-y,z
loop_
_atom_site_type_symbol
_atom_site_label
_atom_site_fract_x
_atom_site_fract_y
_atom_site_fract_z
Si Si1 0.037962 0.217961 0.620812
Si Si2 0.500752 0.894825 0.309165
Si Si3 0.971505 0.603867 0.759548
Si Si4 0.406208 0.355918 0.895053
Si Si5 0.288237 0.140174 0.931710
O O1 0.776312 0.164670 0.688102
O O2 0.098308 0.317251 0.673996
O O3 0.000000 0.238647 0.500000
O O4 0.305755 0.153670 0.616340
O O5 0.668550 0.902000 0.187782
O O6 0.428002 0.000000 0.352454
O O7 0.979095 0.500000 0.706364
O O8 0.658878 0.634460 0.797727
O O9 0.140786 0.597354 0.858865
O O10 0.320469 0.250759 0.923429
O O11 0.500000 0.404582 0.000000
O O12 0.500000 0.095471 0.000000
O O13 0.000000 0.111269 0.000000
#
# Coordination Sequence:
#
# PCOD8067632 Si02
#       5
#     4   4   4   4   4
#     4  12  26  48  70  95 133 173 223 286 339 382
#     4  12  26  45  71 102 133 172 223 272 334 401
#     4  12  24  42  67  98 134 174 223 270 329 396
#     4  11  22  39  65  97 137 179 215 264 324 393
#     4  11  21  38  67  95 134 176 213 257 321 393
#
# _framework density 22.862752
#
# number of rings (size 3 to 8) (size 9 to 14) (size 15 to 20)
#    0.000    0.400    4.000    6.000    0.000    6.000 
#    0.000    0.000    0.000    4.800    0.000    0.000 
#    0.000    0.000    0.000    0.000    0.000    0.000 
#
# Total GULP energy -248016.913498 kJ/mol
# GULP energy per Si atom -12400.845675 kJ/mol
# Density = 2.281072 g / cm^3
# Si number density = 22.862752 Si / 1000 Ang^3
#
#
#
# Elastic Constant Matrix: (Units=GPa)
#
#
# Indices 1 2 3 4 5 6 
#
# 1 129.3391 32.9253 10.1640 0.0000 10.8572 0.0000
# 2 32.9253 137.5294 32.6334 0.0000 2.1730 0.0000
# 3 10.1640 32.6334 92.7018 0.0000 13.6117 0.0000
# 4 0.0000 0.0000 0.0000 27.2871 0.0000 35.1063
# 5 10.8572 2.1730 13.6117 0.0000 37.8404 0.0000
# 6 0.0000 0.0000 0.0000 35.1063 0.0000 79.9188
#
#
#
# Elastic Compliance Matrix: (Units=1/GPa)
#
#
# Indices 1 2 3 4 5 6 
#
# 1 0.008431 -0.002012 0.000129 0.000000 -0.002350 0.000000
# 2 -0.002012 0.008426 -0.002913 0.000000 0.001141 0.000000
# 3 0.000129 -0.002913 0.012436 0.000000 -0.004343 0.000000
# 4 0.000000 0.000000 0.000000 0.084276 0.000000 -0.037020
# 5 -0.002350 0.001141 -0.004343 0.000000 0.028598 0.000000
# 6 0.000000 0.000000 0.000000 -0.037020 0.000000 0.028775
#
#
# Mechanical properties :
#
#
# Convention : Reuss Voigt Hill
#
# Bulk Modulus (GPa) = 50.75879 56.77951 53.76915
# Shear Modulus (GPa) = 26.72349 47.93243 37.32796
#
# Velocity S-wave (km/s) = 3.42258 4.58375 4.04505
# Velocity P-wave (km/s) = 6.15373 7.27346 6.73690
#
# Compressibility (1/GPa) = 0.01970102
#
# Stress axis : x y z
#
# Youngs Moduli (GPa) = 118.61145 118.67982 80.40921
#
# Poissons Ratio (x) = 0.23877 -0.01036
# Poissons Ratio (y) = 0.23863 0.23425
# Poissons Ratio (z) = -0.01529 0.34573
#
# Static dielectric constant tensor:
#      x y z
#    x 4.279030 0.000000 0.271080 
#    y 0.000000 4.098960 0.000000 
#    z 0.271080 0.000000 4.032600 
# 
# 
# High freq. dielectric constant tensor:
#      x y z
#    x 1.916600 0.000000 0.011790 
#    y 0.000000 1.908190 0.000000 
#    z 0.011790 0.000000 1.885060 
# 
# From -- ./inp_files/39063.got.cif
#   From: 2010.06.25/outbox.cif.g09.slc.cpg/sg10_20_cif.got.tgz:39063.got - 2010.06.27 22:07:45.
