data_PCOD8067345
_publ_section_title
;
Structure prediction by ZEFSAII (Michael W. Deem and Ramdas Pophale) SiO2 
 PCOD8067345
Probable space group: P 2/M
;
_chemical_formula_sum "Si O2"
_cell_formula_units_Z 32
_cell_length_a 31.487952
_cell_length_b 8.586400
_cell_length_c 12.086306
_cell_angle_alpha 90.000000
_cell_angle_beta 151.411412
_cell_angle_gamma 90.000000
_cell_volume 1563.674899
_symmetry_space_group_name_H-M "P 2/M"
_symmetry_group_IT_number 10
_symmetry_cell_setting 'monoclinic'
loop_
_space_group_symop_operation_xyz
x,y,z
-x,y,-z
-x,-y,-z
x,-y,z
loop_
_atom_site_type_symbol
_atom_site_label
_atom_site_fract_x
_atom_site_fract_y
_atom_site_fract_z
Si Si1 0.360889 0.180173 0.489654
Si Si2 0.405619 0.819211 0.233361
Si Si3 0.550589 0.679853 0.891772
Si Si4 0.066840 0.317170 0.561972
Si Si5 0.737304 0.683098 0.936899
Si Si6 0.858326 0.819330 0.702300
Si Si7 0.977680 0.180032 0.771006
Si Si8 0.315828 0.320925 0.612441
O O1 0.447658 0.283736 0.671381
O O2 0.289215 0.224878 0.233881
O O3 0.318211 0.210927 0.511283
O O4 0.386814 0.000000 0.536849
O O5 0.500000 0.769714 0.500000
O O6 0.405517 0.784414 0.102991
O O7 0.329859 0.717806 0.117188
O O8 0.385879 0.000000 0.209633
O O9 0.561722 0.500000 0.884200
O O10 0.599568 0.718132 0.118275
O O11 0.069111 0.500000 0.582488
O O12 0.032257 0.280693 0.360963
O O13 0.000000 0.243253 0.500000
O O14 0.166012 0.252362 0.807519
O O15 0.737584 0.500000 0.912651
O O16 0.901861 0.772840 0.685099
O O17 0.772782 0.712273 0.521240
O O18 0.831069 0.000000 0.639953
O O19 0.926516 0.785079 0.957524
O O20 0.968454 0.000000 0.718571
O O21 0.317403 0.500000 0.578117
#
# Coordination Sequence:
#
# PCOD8067345 Si02
#       8
#     4   4   4   4   4   4   4   4
#     4  12  25  42  64  91 124 163 209 255 308 370
#     4  11  23  40  64  95 127 165 213 259 310 372
#     4  11  24  42  64  91 126 165 207 254 308 368
#     4  10  24  43  63  92 128 164 207 258 312 371
#     4  11  24  42  65  92 127 168 210 259 315 373
#     4   9  20  40  63  91 123 158 202 254 311 366
#     4   9  20  40  64  90 123 160 201 252 310 368
#     4  11  25  41  62  92 124 161 208 255 308 368
#
# _framework density 20.464611999999999
#
# number of rings (size 3 to 8) (size 9 to 14) (size 15 to 20)
#    0.000    1.500    1.250    3.750    3.500    6.250 
#    0.000    1.250    0.000    0.000    0.000    0.000 
#    0.000    0.000    0.000    0.000    0.000    0.000 
#
# Total GULP energy -397003.071192 kJ/mol
# GULP energy per Si atom -12406.345975 kJ/mol
# Density = 2.041803 g / cm^3
# Si number density = 20.464612 Si / 1000 Ang^3
#
#
#
# Elastic Constant Matrix: (Units=GPa)
#
#
# Indices 1 2 3 4 5 6 
#
# 1 112.7755 20.6001 46.3268 0.0000 -4.3669 0.0000
# 2 20.6001 45.7755 27.3088 0.0000 -1.0422 0.0000
# 3 46.3268 27.3088 100.6550 0.0000 1.9701 0.0000
# 4 0.0000 0.0000 0.0000 27.2722 0.0000 -0.9197
# 5 -4.3669 -1.0422 1.9701 0.0000 33.5086 0.0000
# 6 0.0000 0.0000 0.0000 -0.9197 0.0000 31.1445
#
#
#
# Elastic Compliance Matrix: (Units=1/GPa)
#
#
# Indices 1 2 3 4 5 6 
#
# 1 0.011231 -0.002283 -0.004582 0.000000 0.001662 0.000000
# 2 -0.002283 0.026579 -0.006178 0.000000 0.000892 0.000000
# 3 -0.004582 -0.006178 0.013751 0.000000 -0.001598 0.000000
# 4 0.000000 0.000000 0.000000 0.036704 0.000000 0.001084
# 5 0.001662 0.000892 -0.001598 0.000000 0.030181 0.000000
# 6 0.000000 0.000000 0.000000 0.001084 0.000000 0.032140
#
#
# Mechanical properties :
#
#
# Convention : Reuss Voigt Hill
#
# Bulk Modulus (GPa) = 39.25362 49.74191 44.49776
# Shear Modulus (GPa) = 27.00300 29.38307 28.19303
#
# Velocity S-wave (km/s) = 3.63643 3.79330 3.71569
# Velocity P-wave (km/s) = 6.07078 6.59883 6.34031
#
# Compressibility (1/GPa) = 0.02547536
#
# Stress axis : x y z
#
# Youngs Moduli (GPa) = 89.04065 37.62367 72.72003
#
# Poissons Ratio (x) = 0.08588 0.33322
# Poissons Ratio (y) = 0.20325 0.44927
# Poissons Ratio (z) = 0.40801 0.23244
#
# Static dielectric constant tensor:
#      x y z
#    x 3.741310 0.000000 0.031740 
#    y 0.000000 3.553190 0.000000 
#    z 0.031740 0.000000 3.804430 
# 
# 
# High freq. dielectric constant tensor:
#      x y z
#    x 1.810030 0.000000 -0.000890 
#    y 0.000000 1.795850 0.000000 
#    z -0.000890 0.000000 1.806560 
# 
# From -- ./inp_files/58010.got.cif
#   From: 2010.06.25/outbox.cif.g09.slc.cpg/sg10_30_cif.got.tgz:58010.got - 2010.06.27 22:07:45.
