data_PCOD8067211
_publ_section_title
;
Structure prediction by ZEFSAII (Michael W. Deem and Ramdas Pophale) SiO2 
 PCOD8067211
Probable space group: P 2/M
;
_chemical_formula_sum "Si O2"
_cell_formula_units_Z 28
_cell_length_a 17.313486
_cell_length_b 7.804505
_cell_length_c 11.300649
_cell_angle_alpha 90.000000
_cell_angle_beta 109.309329
_cell_angle_gamma 90.000000
_cell_volume 1441.082719
_symmetry_space_group_name_H-M "P 2/M"
_symmetry_group_IT_number 10
_symmetry_cell_setting 'monoclinic'
loop_
_space_group_symop_operation_xyz
x,y,z
-x,y,-z
-x,-y,-z
x,-y,z
loop_
_atom_site_type_symbol
_atom_site_label
_atom_site_fract_x
_atom_site_fract_y
_atom_site_fract_z
Si Si1 0.148201 0.192841 0.823436
Si Si2 0.843569 0.192658 0.701358
Si Si3 0.438359 0.500000 0.857399
Si Si4 0.686427 0.195672 0.209387
Si Si5 0.314532 0.804582 0.520807
Si Si6 0.011047 0.693987 0.375563
Si Si7 0.909153 0.692809 0.969763
Si Si8 0.561156 0.500000 0.419161
O O1 0.236943 0.261189 0.829225
O O2 0.075593 0.306703 0.734620
O O3 0.137832 0.000000 0.771456
O O4 0.142647 0.198142 0.962683
O O5 0.762163 0.258315 0.595423
O O6 0.921458 0.192903 0.654884
O O7 0.860059 0.311103 0.822328
O O8 0.830942 0.000000 0.739839
O O9 0.387322 0.326222 0.850250
O O10 0.473643 0.500000 0.736959
O O11 0.500000 0.500000 0.000000
O O12 0.715054 0.203338 0.359286
O O13 0.659958 0.000000 0.161934
O O14 0.388007 0.673718 0.536180
O O15 0.341802 0.000000 0.502498
O O16 0.043872 0.500000 0.398037
O O17 0.000000 0.772128 0.500000
O O18 0.918181 0.500000 0.022156
O O19 0.000000 0.773633 0.000000
O O20 0.500000 0.500000 0.500000
#
# Coordination Sequence:
#
# PCOD8067211 Si02
#       8
#     4   4   2   4   4   4   4   2
#     4  11  22  37  57  80 111 151 199 244 289 341
#     4  11  22  37  57  80 111 151 199 244 289 341
#     4  10  22  42  68  95 124 155 191 234 297 368
#     4   9  20  39  63  90 120 154 193 242 295 348
#     4   9  20  39  63  90 120 154 193 242 295 348
#     4  11  23  34  51  80 113 149 193 243 288 337
#     4  11  23  37  53  75 112 160 202 242 292 344
#     4  10  22  42  68  95 124 155 191 234 297 368
#
# _framework density 19.429836000000002
#
# number of rings (size 3 to 8) (size 9 to 14) (size 15 to 20)
#    0.000    1.714    1.429    2.571    4.000    3.429 
#    2.571    0.000    0.000    0.000    0.000    0.000 
#    0.000    0.000    0.000    0.000    0.000    0.000 
#
# Total GULP energy -347128.176381 kJ/mol
# GULP energy per Si atom -12397.434871 kJ/mol
# Density = 1.938561 g / cm^3
# Si number density = 19.429836 Si / 1000 Ang^3
#
#
#
# Elastic Constant Matrix: (Units=GPa)
#
#
# Indices 1 2 3 4 5 6 
#
# 1 120.7737 39.5689 63.8638 0.0000 -14.6997 0.0000
# 2 39.5689 78.0817 29.7664 0.0000 3.8076 0.0000
# 3 63.8638 29.7664 141.3848 0.0000 2.6535 0.0000
# 4 0.0000 0.0000 0.0000 23.3675 0.0000 -1.2147
# 5 -14.6997 3.8076 2.6535 0.0000 34.2039 0.0000
# 6 0.0000 0.0000 0.0000 -1.2147 0.0000 24.0389
#
#
#
# Elastic Compliance Matrix: (Units=1/GPa)
#
#
# Indices 1 2 3 4 5 6 
#
# 1 0.013542 -0.005234 -0.005143 0.000000 0.006801 0.000000
# 2 -0.005234 0.016008 -0.000932 0.000000 -0.003959 0.000000
# 3 -0.005143 -0.000932 0.009646 0.000000 -0.002855 0.000000
# 4 0.000000 0.000000 0.000000 0.042907 0.000000 0.002168
# 5 0.006801 -0.003959 -0.002855 0.000000 0.032822 0.000000
# 6 0.000000 0.000000 0.000000 0.002168 0.000000 0.041709
#
#
# Mechanical properties :
#
#
# Convention : Reuss Voigt Hill
#
# Bulk Modulus (GPa) = 60.31801 67.40426 63.86113
# Shear Modulus (GPa) = 27.05991 30.12480 28.59236
#
# Velocity S-wave (km/s) = 3.73594 3.94183 3.84027
# Velocity P-wave (km/s) = 7.05131 7.44875 7.25275
#
# Compressibility (1/GPa) = 0.01657880
#
# Stress axis : x y z
#
# Youngs Moduli (GPa) = 73.84512 62.47030 103.67430
#
# Poissons Ratio (x) = 0.32695 0.53316
# Poissons Ratio (y) = 0.38648 0.09660
# Poissons Ratio (z) = 0.37976 0.05821
#
# Static dielectric constant tensor:
#      x y z
#    x 3.344670 0.000000 -0.163690 
#    y 0.000000 3.599170 0.000000 
#    z -0.163690 0.000000 3.570180 
# 
# 
# High freq. dielectric constant tensor:
#      x y z
#    x 1.731210 0.000000 -0.013960 
#    y 0.000000 1.768750 0.000000 
#    z -0.013960 0.000000 1.756900 
# 
# From -- ./inp_files/49425.got.cif
#   From: 2010.06.25/outbox.cif.g09.slc.cpg/sg10_25_cif.got.tgz:49425.got - 2010.06.27 22:07:45.
