data_PCOD8067819
_publ_section_title
;
Structure prediction by ZEFSAII (Michael W. Deem and Ramdas Pophale) SiO2 
 PCOD8067819
Probable space group: P 2/M
;
_chemical_formula_sum "Si O2"
_cell_formula_units_Z 26
_cell_length_a 7.920431
_cell_length_b 9.747269
_cell_length_c 19.969521
_cell_angle_alpha 90.000000
_cell_angle_beta 126.403174
_cell_angle_gamma 90.000000
_cell_volume 1240.852776
_symmetry_space_group_name_H-M "P 2/M"
_symmetry_group_IT_number 10
_symmetry_cell_setting 'monoclinic'
loop_
_space_group_symop_operation_xyz
x,y,z
-x,y,-z
-x,-y,-z
x,-y,z
loop_
_atom_site_type_symbol
_atom_site_label
_atom_site_fract_x
_atom_site_fract_y
_atom_site_fract_z
Si Si1 0.278540 0.160108 0.692622
Si Si2 0.277652 0.652603 0.979969
Si Si3 0.054826 0.653601 0.438037
Si Si4 0.500000 0.262794 0.500000
Si Si5 0.607366 0.156813 0.665007
Si Si6 0.037389 0.154023 0.162070
Si Si7 0.630168 0.848201 0.877536
O O1 0.414929 0.220680 0.662170
O O2 0.403422 0.185743 0.791425
O O3 0.062148 0.245746 0.641793
O O4 0.221701 0.000000 0.670750
O O5 0.181020 0.500000 0.970227
O O6 0.144811 0.738497 0.895163
O O7 0.500000 0.633350 0.000000
O O8 0.297856 0.733349 0.053979
O O9 0.968309 0.500000 0.408243
O O10 0.304437 0.649201 0.481292
O O11 0.000000 0.705772 0.500000
O O12 0.580740 0.169583 0.579695
O O13 0.834525 0.212480 0.743040
O O14 0.608233 0.000000 0.687911
O O15 0.196278 0.149180 0.138224
O O16 0.945010 0.000000 0.152766
O O17 0.621321 0.000000 0.909515
#
# Coordination Sequence:
#
# PCOD8067819 Si02
#       7
#     4   4   4   2   4   4   4
#     4   9  19  39  63  89 119 154 195 245 300 356
#     4  11  24  38  53  81 120 156 194 239 290 349
#     4  11  24  41  59  84 120 161 203 248 299 356
#     4  12  22  38  62  90 119 162 205 250 299 360
#     4   9  19  36  60  91 121 150 193 249 304 358
#     4   9  19  38  61  85 115 150 193 242 292 349
#     4   9  19  37  63  89 114 148 193 240 292 351
#
# _framework density 20.953330999999999
#
# number of rings (size 3 to 8) (size 9 to 14) (size 15 to 20)
#    0.000    2.154    1.538    3.231    0.000    7.077 
#    0.000    8.462    0.000    0.000    0.000    0.000 
#    0.000    0.000    0.000    0.000    0.000    0.000 
#
# Total GULP energy -322267.192987 kJ/mol
# GULP energy per Si atom -12394.892038 kJ/mol
# Density = 2.090564 g / cm^3
# Si number density = 20.953331 Si / 1000 Ang^3
#
#
#
# Elastic Constant Matrix: (Units=GPa)
#
#
# Indices 1 2 3 4 5 6 
#
# 1 54.8708 20.7605 34.3804 0.0000 12.3611 0.0000
# 2 20.7605 114.0852 67.9094 0.0000 15.2645 0.0000
# 3 34.3804 67.9094 146.7646 0.0000 8.5516 0.0000
# 4 0.0000 0.0000 0.0000 -0.4182 0.0000 13.9630
# 5 12.3611 15.2645 8.5516 0.0000 36.3597 0.0000
# 6 0.0000 0.0000 0.0000 13.9630 0.0000 18.8050
#
#
#
# Elastic Compliance Matrix: (Units=1/GPa)
#
#
# Indices 1 2 3 4 5 6 
#
# 1 0.022834 -0.000458 -0.004761 0.000000 -0.006451 0.000000
# 2 -0.000458 0.012652 -0.005522 0.000000 -0.003857 0.000000
# 3 -0.004761 -0.005522 0.010397 0.000000 0.001492 0.000000
# 4 0.000000 0.000000 0.000000 -0.092714 0.000000 0.068841
# 5 -0.006451 -0.003857 0.001492 0.000000 0.030964 0.000000
# 6 0.000000 0.000000 0.000000 0.068841 0.000000 0.002062
#
#
# Mechanical properties :
#
#
# Convention : Reuss Voigt Hill
#
# Bulk Modulus (GPa) = 40.98244 62.42456 51.70350
# Shear Modulus (GPa) = 316.21376 23.79400 170.00388
#
# Velocity S-wave (km/s) = 12.29801 3.37348 9.01724
# Velocity P-wave (km/s) = 14.87468 6.71049 11.53878
#
# Compressibility (1/GPa) = 0.02440070
#
# Stress axis : x y z
#
# Youngs Moduli (GPa) = 43.79357 79.04007 96.17975
#
# Poissons Ratio (x) = 0.03620 0.45794
# Poissons Ratio (y) = 0.02006 0.53111
# Poissons Ratio (z) = 0.20851 0.43647
#
# Static dielectric constant tensor:
#      x y z
#    x 3.653060 0.000000 0.129400 
#    y 0.000000 4.067700 0.000000 
#    z 0.129400 0.000000 4.163270 
# 
# 
# High freq. dielectric constant tensor:
#      x y z
#    x 1.813070 0.000000 0.007900 
#    y 0.000000 1.800270 0.000000 
#    z 0.007900 0.000000 1.829440 
# 
# From -- ./inp_files/82234.got.cif
#   From: 2010.06.25/outbox.cif.g09.slc.cpg/sg10_42_cif.got.tgz:82234.got - 2010.06.27 22:07:45.
