data_PCOD8067993
_publ_section_title
;
Structure prediction by ZEFSAII (Michael W. Deem and Ramdas Pophale) SiO2 
 PCOD8067993
Probable space group: P 2/M
;
_chemical_formula_sum "Si O2"
_cell_formula_units_Z 24
_cell_length_a 19.003168
_cell_length_b 9.240789
_cell_length_c 12.908238
_cell_angle_alpha 90.000000
_cell_angle_beta 132.782882
_cell_angle_gamma 90.000000
_cell_volume 1663.636109
_symmetry_space_group_name_H-M "P 2/M"
_symmetry_group_IT_number 10
_symmetry_cell_setting 'monoclinic'
loop_
_space_group_symop_operation_xyz
x,y,z
-x,y,-z
-x,-y,-z
x,-y,z
loop_
_atom_site_type_symbol
_atom_site_label
_atom_site_fract_x
_atom_site_fract_y
_atom_site_fract_z
Si Si1 0.889600 0.329611 0.889589
Si Si2 0.610222 0.829917 0.908807
Si Si3 0.743035 0.163195 0.629855
Si Si4 0.389742 0.170086 0.688361
Si Si5 0.386022 0.663705 0.886040
Si Si6 0.743009 0.836806 0.856143
O O1 0.875700 0.500000 0.875683
O O2 0.838681 0.262776 0.735410
O O3 0.838652 0.262787 0.941895
O O4 0.000000 0.283815 0.000000
O O5 0.499981 0.788699 0.777182
O O6 0.670778 0.776374 0.870327
O O7 0.621105 0.000000 0.940020
O O8 0.651787 0.746166 0.049957
O O9 0.670829 0.223641 0.471224
O O10 0.690444 0.165032 0.690418
O O11 0.774843 0.000000 0.633091
O O12 0.348195 0.253833 0.746415
O O13 0.378860 0.000000 0.697802
O O14 0.346697 0.500000 0.846721
O O15 0.500000 0.667650 0.000000
O O16 0.774822 0.000000 0.916525
#
# Coordination Sequence:
#
# PCOD8067993 Si02
#       6
#     4   4   4   4   4   4
#     4   9  17  29  44  61  82 108 137 169 206 251
#     4   9  16  27  43  61  84 114 145 174 201 236
#     4   8  16  28  42  63  86 108 138 170 205 246
#     4   9  16  27  43  61  84 114 145 174 201 236
#     4   9  17  27  39  57  82 113 148 179 205 234
#     4   8  16  28  42  63  86 108 138 170 205 246
#
# _framework density 14.42623
#
# number of rings (size 3 to 8) (size 9 to 14) (size 15 to 20)
#    1.000    2.333    0.000    0.500    0.000    5.333 
#    0.000    3.333    0.000    1.000    0.000    1.167 
#    0.000    9.333    0.000    0.000    0.000    0.000 
#
# Total GULP energy -297337.568245 kJ/mol
# GULP energy per Si atom -12389.065344 kJ/mol
# Density = 1.439340 g / cm^3
# Si number density = 14.426230 Si / 1000 Ang^3
#
#
#
# Elastic Constant Matrix: (Units=GPa)
#
#
# Indices 1 2 3 4 5 6 
#
# 1 77.3548 44.4857 71.8620 0.0000 -3.7338 0.0000
# 2 44.4857 60.8746 45.7942 0.0000 -1.9633 0.0000
# 3 71.8620 45.7942 87.9808 0.0000 -12.4303 0.0000
# 4 0.0000 0.0000 0.0000 16.9832 0.0000 1.4859
# 5 -3.7338 -1.9633 -12.4303 0.0000 17.3580 0.0000
# 6 0.0000 0.0000 0.0000 1.4859 0.0000 17.9469
#
#
#
# Elastic Compliance Matrix: (Units=1/GPa)
#
#
# Indices 1 2 3 4 5 6 
#
# 1 0.065562 -0.009589 -0.051979 0.000000 -0.024204 0.000000
# 2 -0.009589 0.029385 -0.008104 0.000000 -0.004543 0.000000
# 3 -0.051979 -0.008104 0.062672 0.000000 0.032783 0.000000
# 4 0.000000 0.000000 0.000000 0.059312 0.000000 -0.004911
# 5 -0.024204 -0.004543 0.032783 0.000000 0.075366 0.000000
# 6 0.000000 0.000000 0.000000 -0.004911 0.000000 0.056127
#
#
# Mechanical properties :
#
#
# Convention : Reuss Voigt Hill
#
# Bulk Modulus (GPa) = 54.72291 61.16601 57.94446
# Shear Modulus (GPa) = 10.12436 14.72882 12.42659
#
# Velocity S-wave (km/s) = 2.65203 3.19874 2.93813
# Velocity P-wave (km/s) = 6.88425 7.49225 7.19468
#
# Compressibility (1/GPa) = 0.01827388
#
# Stress axis : x y z
#
# Youngs Moduli (GPa) = 15.25281 34.03097 15.95614
#
# Poissons Ratio (x) = 0.32634 0.82938
# Poissons Ratio (y) = 0.14627 0.12931
# Poissons Ratio (z) = 0.79282 0.27579
#
# Static dielectric constant tensor:
#      x y z
#    x 2.629070 0.000000 -0.144020 
#    y 0.000000 2.810780 0.000000 
#    z -0.144020 0.000000 2.722810 
# 
# 
# High freq. dielectric constant tensor:
#      x y z
#    x 1.521760 0.000000 -0.016490 
#    y 0.000000 1.554970 0.000000 
#    z -0.016490 0.000000 1.532490 
# 
# From -- ./inp_files/52466.got.cif
#   From: 2010.06.25/outbox.cif.g09.slc.cpg/sg10_27_cif.got.tgz:52466.got - 2010.06.27 22:07:45.
