data_PCOD8067432
_publ_section_title
;
Structure prediction by ZEFSAII (Michael W. Deem and Ramdas Pophale) SiO2 
 PCOD8067432
Probable space group: P 2/M
;
_chemical_formula_sum "Si O2"
_cell_formula_units_Z 32
_cell_length_a 28.590232
_cell_length_b 13.485754
_cell_length_c 10.146492
_cell_angle_alpha 90.000000
_cell_angle_beta 150.699954
_cell_angle_gamma 90.000000
_cell_volume 1914.510902
_symmetry_space_group_name_H-M "P 2/M"
_symmetry_group_IT_number 10
_symmetry_cell_setting 'monoclinic'
loop_
_space_group_symop_operation_xyz
x,y,z
-x,y,-z
-x,-y,-z
x,-y,z
loop_
_atom_site_type_symbol
_atom_site_label
_atom_site_fract_x
_atom_site_fract_y
_atom_site_fract_z
Si Si1 0.308766 0.616033 0.776898
Si Si2 0.199946 0.305628 0.265584
Si Si3 0.492018 0.382941 0.626261
Si Si4 0.106825 0.111251 0.103970
Si Si5 0.002639 0.385978 0.859494
Si Si6 0.185386 0.695771 0.708443
Si Si7 0.715675 0.381973 0.795096
Si Si8 0.885941 0.111321 0.569204
O O1 0.300871 0.500000 0.722510
O O2 0.267342 0.680550 0.557112
O O3 0.251612 0.635290 0.770873
O O4 0.418228 0.651142 0.064950
O O5 0.256527 0.341604 0.278239
O O6 0.171303 0.189856 0.182709
O O7 0.105915 0.372471 0.049489
O O8 0.500000 0.335048 0.500000
O O9 0.495751 0.500000 0.620483
O O10 0.393975 0.349584 0.453450
O O11 0.995937 0.134771 0.803346
O O12 0.132359 0.000000 0.119052
O O13 0.128957 0.123022 0.312055
O O14 0.976045 0.500000 0.805986
O O15 0.924347 0.336146 0.574942
O O16 0.000000 0.337467 0.000000
O O17 0.186281 0.814044 0.682914
O O18 0.218376 0.672628 0.936573
O O19 0.729608 0.500000 0.839564
O O20 0.859633 0.000000 0.459623
#
# Coordination Sequence:
#
# PCOD8067432 Si02
#       8
#     4   4   4   4   4   4   4   4
#     4  11  20  32  56  81 104 140 186 223 262 322
#     4  12  22  35  51  80 113 144 179 221 270 316
#     4   9  18  35  56  77 102 139 183 228 268 313
#     4   9  17  33  55  78 105 139 180 229 270 307
#     4  11  20  30  48  74 108 144 181 213 249 314
#     4  12  20  33  54  79 106 145 184 216 264 322
#     4  11  24  38  52  77 115 147 179 223 270 320
#     4   9  17  32  55  81 103 133 185 237 263 300
#
# _framework density 16.714452000000001
#
# number of rings (size 3 to 8) (size 9 to 14) (size 15 to 20)
#    0.000    1.500    5.000    3.000    0.000    1.000 
#    0.000    3.750    0.000    1.500    0.000    5.250 
#    0.000    0.000    0.000    0.000    0.000    0.000 
#
# Total GULP energy -396814.005746 kJ/mol
# GULP energy per Si atom -12400.437680 kJ/mol
# Density = 1.667641 g / cm^3
# Si number density = 16.714452 Si / 1000 Ang^3
#
#
#
# Elastic Constant Matrix: (Units=GPa)
#
#
# Indices 1 2 3 4 5 6 
#
# 1 83.1220 11.3153 23.7721 0.0000 12.4093 0.0000
# 2 11.3153 80.9882 19.6513 0.0000 8.0027 0.0000
# 3 23.7721 19.6513 81.6229 0.0000 17.1228 0.0000
# 4 0.0000 0.0000 0.0000 14.2755 0.0000 -5.1959
# 5 12.4093 8.0027 17.1228 0.0000 18.7799 0.0000
# 6 0.0000 0.0000 0.0000 -5.1959 0.0000 19.9212
#
#
#
# Elastic Compliance Matrix: (Units=1/GPa)
#
#
# Indices 1 2 3 4 5 6 
#
# 1 0.013814 -0.000678 -0.002480 0.000000 -0.006578 0.000000
# 2 -0.000678 0.013320 -0.002365 0.000000 -0.003071 0.000000
# 3 -0.002480 -0.002365 0.016060 0.000000 -0.011996 0.000000
# 4 0.000000 0.000000 0.000000 0.077398 0.000000 0.020187
# 5 -0.006578 -0.003071 -0.011996 0.000000 0.069841 0.000000
# 6 0.000000 0.000000 0.000000 0.020187 0.000000 0.055463
#
#
# Mechanical properties :
#
#
# Convention : Reuss Voigt Hill
#
# Bulk Modulus (GPa) = 31.10733 39.46783 35.28758
# Shear Modulus (GPa) = 18.68058 23.32826 21.00442
#
# Velocity S-wave (km/s) = 3.34672 3.73995 3.54879
# Velocity P-wave (km/s) = 5.79530 6.50491 6.16033
#
# Compressibility (1/GPa) = 0.03214676
#
# Stress axis : x y z
#
# Youngs Moduli (GPa) = 72.38969 75.07750 62.26771
#
# Poissons Ratio (x) = 0.05093 0.15443
# Poissons Ratio (y) = 0.04910 0.14726
# Poissons Ratio (z) = 0.17953 0.17755
#
# Static dielectric constant tensor:
#      x y z
#    x 3.021070 0.000000 0.119140 
#    y 0.000000 3.178160 0.000000 
#    z 0.119140 0.000000 3.234230 
# 
# 
# High freq. dielectric constant tensor:
#      x y z
#    x 1.624410 0.000000 0.003610 
#    y 0.000000 1.632830 0.000000 
#    z 0.003610 0.000000 1.640200 
# 
# From -- ./inp_files/36416.got.cif
#   From: 2010.06.25/outbox.cif.g09.slc.cpg/sg10_19_cif.got.tgz:36416.got - 2010.06.27 22:07:45.
