data_PCOD8067701
_publ_section_title
;
Structure prediction by ZEFSAII (Michael W. Deem and Ramdas Pophale) SiO2 
 PCOD8067701
Probable space group: P 2/M
;
_chemical_formula_sum "Si O2"
_cell_formula_units_Z 28
_cell_length_a 29.378935
_cell_length_b 8.373954
_cell_length_c 9.673744
_cell_angle_alpha 90.000000
_cell_angle_beta 145.618158
_cell_angle_gamma 90.000000
_cell_volume 1343.950316
_symmetry_space_group_name_H-M "P 2/M"
_symmetry_group_IT_number 10
_symmetry_cell_setting 'monoclinic'
loop_
_space_group_symop_operation_xyz
x,y,z
-x,y,-z
-x,-y,-z
x,-y,z
loop_
_atom_site_type_symbol
_atom_site_label
_atom_site_fract_x
_atom_site_fract_y
_atom_site_fract_z
Si Si1 0.105332 0.684108 0.004485
Si Si2 0.498856 0.809446 0.154317
Si Si3 0.178341 0.185247 0.446407
Si Si4 0.646734 0.190008 0.023801
Si Si5 0.644046 0.810250 0.706356
Si Si6 0.821759 0.184688 0.080596
Si Si7 0.922373 0.314989 0.573902
O O1 0.111934 0.500000 0.062903
O O2 0.164302 0.787862 0.248715
O O3 0.132931 0.707875 0.917166
O O4 0.013902 0.744905 0.791343
O O5 0.576482 0.743928 0.432299
O O6 0.499534 0.000000 0.153736
O O7 0.500000 0.742999 0.000000
O O8 0.420053 0.744131 0.036716
O O9 0.266247 0.251541 0.707964
O O10 0.109169 0.286333 0.350202
O O11 0.170765 0.000000 0.465675
O O12 0.644590 0.000000 0.019376
O O13 0.628980 0.254860 0.824410
O O14 0.641579 0.000000 0.705672
O O15 0.730511 0.752557 0.867688
O O16 0.866819 0.206061 0.338146
O O17 0.823933 0.000000 0.042012
O O18 0.915461 0.500000 0.514587
#
# Coordination Sequence:
#
# PCOD8067701 Si02
#       7
#     4   4   4   4   4   4   4
#     4  11  25  41  57  82 117 158 198 239 295 355
#     4   9  17  27  47  79 116 153 184 223 283 345
#     4  11  22  37  60  89 118 150 195 248 295 340
#     4   9  17  31  50  78 115 150 186 232 285 339
#     4   9  17  31  50  78 115 150 186 232 285 339
#     4  11  22  37  60  89 118 150 195 248 295 340
#     4  11  23  41  61  82 115 156 198 241 289 355
#
# _framework density 20.834105999999998
#
# number of rings (size 3 to 8) (size 9 to 14) (size 15 to 20)
#    0.000    1.857    1.429    3.000    2.000    7.429 
#    0.000    0.000    0.000    0.000    0.000    6.000 
#    0.000    0.000    0.000    0.000    0.000    0.000 
#
# Total GULP energy -347297.418524 kJ/mol
# GULP energy per Si atom -12403.479233 kJ/mol
# Density = 2.078669 g / cm^3
# Si number density = 20.834106 Si / 1000 Ang^3
#
#
#
# Elastic Constant Matrix: (Units=GPa)
#
#
# Indices 1 2 3 4 5 6 
#
# 1 128.2268 24.0205 52.0405 0.0000 14.5923 0.0000
# 2 24.0205 25.6735 27.1039 0.0000 4.5014 0.0000
# 3 52.0405 27.1039 133.9819 0.0000 11.0174 0.0000
# 4 0.0000 0.0000 0.0000 8.9718 0.0000 -11.5626
# 5 14.5923 4.5014 11.0174 0.0000 35.3353 0.0000
# 6 0.0000 0.0000 0.0000 -11.5626 0.0000 11.6215
#
#
#
# Elastic Compliance Matrix: (Units=1/GPa)
#
#
# Indices 1 2 3 4 5 6 
#
# 1 0.010338 -0.006609 -0.002460 0.000000 -0.002660 0.000000
# 2 -0.006609 0.054124 -0.008251 0.000000 -0.001593 0.000000
# 3 -0.002460 -0.008251 0.010179 0.000000 -0.001107 0.000000
# 4 0.000000 0.000000 0.000000 -0.394925 0.000000 -0.392922
# 5 -0.002660 -0.001593 -0.001107 0.000000 0.029947 0.000000
# 6 0.000000 0.000000 0.000000 -0.392922 0.000000 -0.304881
#
#
# Mechanical properties :
#
#
# Convention : Reuss Voigt Hill
#
# Bulk Modulus (GPa) = 24.99884 54.91245 39.95564
# Shear Modulus (GPa) = -9.13669 23.50019 7.18175
#
# Velocity S-wave (km/s) = -2.09642 3.36217 1.85865
# Velocity P-wave (km/s) = 2.48296 6.44100 4.88116
#
# Compressibility (1/GPa) = 0.04000185
#
# Stress axis : x y z
#
# Youngs Moduli (GPa) = 96.73317 18.47596 98.23947
#
# Poissons Ratio (x) = 0.12211 0.24163
# Poissons Ratio (y) = 0.63932 0.81058
# Poissons Ratio (z) = 0.23792 0.15245
#
# Static dielectric constant tensor:
#      x y z
#    x 3.862530 0.000000 0.071920 
#    y 0.000000 3.149270 0.000000 
#    z 0.071920 0.000000 3.908630 
# 
# 
# High freq. dielectric constant tensor:
#      x y z
#    x 1.827980 0.000000 -0.000140 
#    y 0.000000 1.768270 0.000000 
#    z -0.000140 0.000000 1.827230 
# 
# From -- ./inp_files/31513.got.cif
#   From: 2010.06.25/outbox.cif.g09.slc.cpg/sg10_16_cif.got.tgz:31513.got - 2010.06.27 22:07:45.
