data_PCOD8067033
_publ_section_title
;
Structure prediction by ZEFSAII (Michael W. Deem and Ramdas Pophale) SiO2 
 PCOD8067033
Probable space group: P 2/M
;
_chemical_formula_sum "Si O2"
_cell_formula_units_Z 24
_cell_length_a 7.830565
_cell_length_b 8.968466
_cell_length_c 22.937976
_cell_angle_alpha 90.000000
_cell_angle_beta 133.746433
_cell_angle_gamma 90.000000
_cell_volume 1163.719499
_symmetry_space_group_name_H-M "P 2/M"
_symmetry_group_IT_number 10
_symmetry_cell_setting 'monoclinic'
loop_
_space_group_symop_operation_xyz
x,y,z
-x,y,-z
-x,-y,-z
x,-y,z
loop_
_atom_site_type_symbol
_atom_site_label
_atom_site_fract_x
_atom_site_fract_y
_atom_site_fract_z
Si Si1 0.192349 0.176130 0.688360
Si Si2 0.992591 0.332287 0.843770
Si Si3 0.800483 0.828010 0.999723
Si Si4 0.496073 0.325717 0.327311
Si Si5 0.623208 0.330426 0.158957
Si Si6 0.335713 0.172181 0.406010
O O1 0.274320 0.246755 0.646332
O O2 0.367033 0.232529 0.780482
O O3 0.926258 0.229052 0.639254
O O4 0.211789 0.000000 0.687765
O O5 0.016179 0.500000 0.874783
O O6 0.126187 0.320156 0.813906
O O7 0.722469 0.290951 0.767233
O O8 0.100478 0.215143 0.913984
O O9 0.573617 0.729851 0.931567
O O10 0.725241 0.000000 0.983009
O O11 0.000000 0.793981 0.000000
O O12 0.545787 0.500000 0.344353
O O13 0.446012 0.264799 0.379549
O O14 0.561809 0.500000 0.161888
O O15 0.500000 0.198153 0.500000
O O16 0.326655 0.000000 0.384932
#
# Coordination Sequence:
#
# PCOD8067033 Si02
#       6
#     4   4   4   4   4   4
#     4  11  23  40  65  95 127 165 210 258 312 372
#     4  10  22  39  59  85 118 160 205 254 310 367
#     4  11  24  38  54  83 120 159 207 258 307 364
#     4  11  23  41  66  95 129 167 209 257 312 374
#     4  11  22  39  61  86 120 160 208 258 310 369
#     4  10  23  44  68  94 127 166 207 256 313 375
#
# _framework density 20.623528
#
# number of rings (size 3 to 8) (size 9 to 14) (size 15 to 20)
#    0.000    1.333    1.667    3.500    0.000   10.333 
#    0.000    3.333    0.000    0.000    0.000    0.000 
#    0.000    0.000    0.000    0.000    0.000    0.000 
#
# Total GULP energy -297755.286191 kJ/mol
# GULP energy per Si atom -12406.470258 kJ/mol
# Density = 2.057659 g / cm^3
# Si number density = 20.623528 Si / 1000 Ang^3
#
#
#
# Elastic Constant Matrix: (Units=GPa)
#
#
# Indices 1 2 3 4 5 6 
#
# 1 114.6364 56.0583 39.7571 0.0000 -20.2674 0.0000
# 2 56.0583 97.7281 42.2905 0.0000 -10.6267 0.0000
# 3 39.7571 42.2905 79.7054 0.0000 -6.3521 0.0000
# 4 0.0000 0.0000 0.0000 28.4430 0.0000 -5.7826
# 5 -20.2674 -10.6267 -6.3521 0.0000 23.7235 0.0000
# 6 0.0000 0.0000 0.0000 -5.7826 0.0000 31.4672
#
#
#
# Elastic Compliance Matrix: (Units=1/GPa)
#
#
# Indices 1 2 3 4 5 6 
#
# 1 0.014245 -0.005778 -0.003348 0.000000 0.008685 0.000000
# 2 -0.005778 0.016038 -0.005567 0.000000 0.000757 0.000000
# 3 -0.003348 -0.005567 0.017108 0.000000 -0.000773 0.000000
# 4 0.000000 0.000000 0.000000 0.036522 0.000000 0.006712
# 5 0.008685 0.000757 -0.000773 0.000000 0.049705 0.000000
# 6 0.000000 0.000000 0.000000 0.006712 0.000000 0.033012
#
#
# Mechanical properties :
#
#
# Convention : Reuss Voigt Hill
#
# Bulk Modulus (GPa) = 55.53718 63.14240 59.33979
# Shear Modulus (GPa) = 24.75005 26.99101 25.87053
#
# Velocity S-wave (km/s) = 3.46799 3.62159 3.54562
# Velocity P-wave (km/s) = 6.55922 6.94053 6.75257
#
# Compressibility (1/GPa) = 0.01800596
#
# Stress axis : x y z
#
# Youngs Moduli (GPa) = 70.19793 62.35007 58.45140
#
# Poissons Ratio (x) = 0.36028 0.19567
# Poissons Ratio (y) = 0.40563 0.32541
# Poissons Ratio (z) = 0.23499 0.34711
#
# Static dielectric constant tensor:
#      x y z
#    x 3.888450 0.000000 0.052600 
#    y 0.000000 3.744610 0.000000 
#    z 0.052600 0.000000 3.547420 
# 
# 
# High freq. dielectric constant tensor:
#      x y z
#    x 1.822190 0.000000 -0.002180 
#    y 0.000000 1.811130 0.000000 
#    z -0.002180 0.000000 1.800130 
# 
# From -- ./inp_files/82038.got.cif
#   From: 2010.06.25/outbox.cif.g09.slc.cpg/sg10_42_cif.got.tgz:82038.got - 2010.06.27 22:07:45.
