data_PCOD8067359
_publ_section_title
;
Structure prediction by ZEFSAII (Michael W. Deem and Ramdas Pophale) SiO2 
 PCOD8067359
Probable space group: P 2/M
;
_chemical_formula_sum "Si O2"
_cell_formula_units_Z 28
_cell_length_a 21.521618
_cell_length_b 8.680197
_cell_length_c 9.689534
_cell_angle_alpha 90.000000
_cell_angle_beta 132.697157
_cell_angle_gamma 90.000000
_cell_volume 1330.344591
_symmetry_space_group_name_H-M "P 2/M"
_symmetry_group_IT_number 10
_symmetry_cell_setting 'monoclinic'
loop_
_space_group_symop_operation_xyz
x,y,z
-x,y,-z
-x,-y,-z
x,-y,z
loop_
_atom_site_type_symbol
_atom_site_label
_atom_site_fract_x
_atom_site_fract_y
_atom_site_fract_z
Si Si1 0.319422 0.176937 0.213069
Si Si2 0.695729 0.675694 0.256659
Si Si3 0.613573 0.324095 0.419545
Si Si4 0.852712 0.680187 0.127717
Si Si5 0.011359 0.180689 0.859247
Si Si6 0.132555 0.178758 0.569288
Si Si7 0.564982 0.175728 0.866693
O O1 0.332483 0.282626 0.365256
O O2 0.398670 0.200025 0.231473
O O3 0.310224 0.000000 0.245079
O O4 0.235690 0.230177 0.008205
O O5 0.721843 0.500000 0.264478
O O6 0.676943 0.701291 0.388586
O O7 0.771468 0.786445 0.327416
O O8 0.611422 0.714641 0.044978
O O9 0.582142 0.500000 0.380379
O O10 0.533509 0.213947 0.284486
O O11 0.835543 0.500000 0.096617
O O12 0.909803 0.727877 0.084446
O O13 0.896389 0.727079 0.338489
O O14 0.927314 0.225482 0.648198
O O15 0.031083 0.000000 0.879969
O O16 0.000000 0.233880 0.000000
O O17 0.123689 0.000000 0.592023
O O18 0.576742 0.000000 0.932767
#
# Coordination Sequence:
#
# PCOD8067359 Si02
#       7
#     4   4   4   4   4   4   4
#     4  11  24  42  65  93 127 168 219 268 315 380
#     4  11  24  41  63  93 130 169 213 266 323 380
#     4  11  25  41  61  93 132 171 212 267 330 381
#     4  12  25  42  67  97 130 170 213 261 320 379
#     4  10  24  45  69  99 132 168 209 260 317 377
#     4  11  23  42  68  96 127 169 217 262 312 378
#     4  11  23  41  65  93 124 168 222 269 317 379
#
# _framework density 21.047180000000001
#
# number of rings (size 3 to 8) (size 9 to 14) (size 15 to 20)
#    0.000    1.000    1.429    4.714    2.000   10.571 
#    0.000    0.000    0.000    0.000    0.000    0.000 
#    0.000    0.000    0.000    0.000    0.000    0.000 
#
# Total GULP energy -347447.709670 kJ/mol
# GULP energy per Si atom -12408.846774 kJ/mol
# Density = 2.099928 g / cm^3
# Si number density = 21.047180 Si / 1000 Ang^3
#
#
#
# Elastic Constant Matrix: (Units=GPa)
#
#
# Indices 1 2 3 4 5 6 
#
# 1 94.3380 41.2570 21.7608 0.0000 -10.0093 0.0000
# 2 41.2570 62.0804 6.8572 0.0000 -11.2470 0.0000
# 3 21.7608 6.8572 80.0705 0.0000 -11.4286 0.0000
# 4 0.0000 0.0000 0.0000 31.7022 0.0000 -3.0836
# 5 -10.0093 -11.2470 -11.4286 0.0000 37.4057 0.0000
# 6 0.0000 0.0000 0.0000 -3.0836 0.0000 26.6015
#
#
#
# Elastic Compliance Matrix: (Units=1/GPa)
#
#
# Indices 1 2 3 4 5 6 
#
# 1 0.015827 -0.010113 -0.003413 0.000000 0.000151 0.000000
# 2 -0.010113 0.023543 0.001418 0.000000 0.004806 0.000000
# 3 -0.003413 0.001418 0.013829 0.000000 0.003738 0.000000
# 4 0.000000 0.000000 0.000000 0.031903 0.000000 0.003698
# 5 0.000151 0.004806 0.003738 0.000000 0.029362 0.000000
# 6 0.000000 0.000000 0.000000 0.003698 0.000000 0.038021
#
#
# Mechanical properties :
#
#
# Convention : Reuss Voigt Hill
#
# Bulk Modulus (GPa) = 34.50507 41.80433 38.15470
# Shear Modulus (GPa) = 26.82952 30.24947 28.53950
#
# Velocity S-wave (km/s) = 3.57421 3.79518 3.68635
# Velocity P-wave (km/s) = 5.78473 6.25379 6.02383
#
# Compressibility (1/GPa) = 0.02898125
#
# Stress axis : x y z
#
# Youngs Moduli (GPa) = 63.18500 42.47488 72.31295
#
# Poissons Ratio (x) = 0.42957 0.24684
# Poissons Ratio (y) = 0.63902 -0.10256
# Poissons Ratio (z) = 0.21568 -0.06024
#
# Static dielectric constant tensor:
#      x y z
#    x 3.788580 0.000000 -0.115920 
#    y 0.000000 3.803980 0.000000 
#    z -0.115920 0.000000 3.846360 
# 
# 
# High freq. dielectric constant tensor:
#      x y z
#    x 1.832520 0.000000 -0.005890 
#    y 0.000000 1.829890 0.000000 
#    z -0.005890 0.000000 1.832210 
# 
# From -- ./inp_files/34302.got.cif
#   From: 2010.06.25/outbox.cif.g09.slc.cpg/sg10_18_cif.got.tgz:34302.got - 2010.06.27 22:07:45.
