data_PCOD8067922
_publ_section_title
;
Structure prediction by ZEFSAII (Michael W. Deem and Ramdas Pophale) SiO2 
 PCOD8067922
Probable space group: P 2/M
;
_chemical_formula_sum "Si O2"
_cell_formula_units_Z 32
_cell_length_a 11.520848
_cell_length_b 9.148970
_cell_length_c 23.310083
_cell_angle_alpha 90.000000
_cell_angle_beta 53.899897
_cell_angle_gamma 90.000000
_cell_volume 1985.207121
_symmetry_space_group_name_H-M "P 2/M"
_symmetry_group_IT_number 10
_symmetry_cell_setting 'monoclinic'
loop_
_space_group_symop_operation_xyz
x,y,z
-x,y,-z
-x,-y,-z
x,-y,z
loop_
_atom_site_type_symbol
_atom_site_label
_atom_site_fract_x
_atom_site_fract_y
_atom_site_fract_z
Si Si1 0.718570 0.829888 0.786740
Si Si2 0.879683 0.165321 0.486278
Si Si3 0.652217 0.825816 0.933466
Si Si4 0.483613 0.829506 0.759871
Si Si5 0.874126 0.173818 0.961493
Si Si6 0.077951 0.665023 0.350750
Si Si7 0.682037 0.664974 0.621839
Si Si8 0.186823 0.173544 0.894647
O O1 0.680460 0.770416 0.860895
O O2 0.581437 0.800192 0.786869
O O3 0.857775 0.742962 0.724052
O O4 0.759453 0.000000 0.775397
O O5 0.737365 0.247621 0.550062
O O6 0.000000 0.165883 0.500000
O O7 0.937591 0.247870 0.412969
O O8 0.838582 0.000000 0.481519
O O9 0.777775 0.762733 0.937981
O O10 0.649822 0.000000 0.935458
O O11 0.500000 0.764128 0.000000
O O12 0.540481 0.742643 0.688035
O O13 0.325174 0.766974 0.820261
O O14 0.482601 0.000000 0.744280
O O15 0.040336 0.223455 0.905293
O O16 0.865947 0.000000 0.963999
O O17 0.813842 0.233219 0.039811
O O18 0.033059 0.500000 0.348285
O O19 0.195399 0.666540 0.366225
O O20 0.643833 0.500000 0.614737
O O21 0.196919 0.000000 0.894336
#
# Coordination Sequence:
#
# PCOD8067922 Si02
#       8
#     4   4   4   4   4   4   4   4
#     4   9  16  24  35  53  76 101 130 163 196 231
#     4   9  15  23  36  53  74 101 131 161 192 226
#     4   9  15  22  34  53  77 103 130 162 199 235
#     4   9  15  23  35  52  75 102 131 161 194 230
#     4   8  13  21  33  52  76 100 128 162 200 237
#     4   9  16  25  36  50  72 103 134 161 190 227
#     4   9  16  24  34  51  75 102 131 160 191 229
#     4   8  13  21  34  52  75 100 126 161 201 236
#
# _framework density 16.119225
#
# number of rings (size 3 to 8) (size 9 to 14) (size 15 to 20)
#    0.000    3.250    0.000    2.625    0.000    7.500 
#    0.000    0.000    0.000    0.375    0.000    3.500 
#    0.000    1.000    0.000   11.750    0.000    5.750 
#
# Total GULP energy -396649.329966 kJ/mol
# GULP energy per Si atom -12395.291561 kJ/mol
# Density = 1.608254 g / cm^3
# Si number density = 16.119225 Si / 1000 Ang^3
#
#
#
# Elastic Constant Matrix: (Units=GPa)
#
#
# Indices 1 2 3 4 5 6 
#
# 1 60.2611 21.2629 50.0098 0.0000 -9.7795 0.0000
# 2 21.2629 72.2056 60.5794 0.0000 -8.0660 0.0000
# 3 50.0098 60.5794 173.6505 0.0000 -21.1729 0.0000
# 4 0.0000 0.0000 0.0000 6.4722 0.0000 0.4392
# 5 -9.7795 -8.0660 -21.1729 0.0000 19.8955 0.0000
# 6 0.0000 0.0000 0.0000 0.4392 0.0000 4.1438
#
#
#
# Elastic Compliance Matrix: (Units=1/GPa)
#
#
# Indices 1 2 3 4 5 6 
#
# 1 0.022316 -0.001605 -0.005296 0.000000 0.004683 0.000000
# 2 -0.001605 0.019706 -0.006360 0.000000 0.000432 0.000000
# 3 -0.005296 -0.006360 0.010193 0.000000 0.005666 0.000000
# 4 0.000000 0.000000 0.000000 0.155626 0.000000 -0.016494
# 5 0.004683 0.000432 0.005666 0.000000 0.058770 0.000000
# 6 0.000000 0.000000 0.000000 -0.016494 0.000000 0.243071
#
#
# Mechanical properties :
#
#
# Convention : Reuss Voigt Hill
#
# Bulk Modulus (GPa) = 38.92018 63.31350 51.11684
# Shear Modulus (GPa) = 9.17822 17.71998 13.44910
#
# Velocity S-wave (km/s) = 2.38879 3.31918 2.89165
# Velocity P-wave (km/s) = 5.63968 7.35206 6.55205
#
# Compressibility (1/GPa) = 0.02569361
#
# Stress axis : x y z
#
# Youngs Moduli (GPa) = 44.81161 50.74614 98.10358
#
# Poissons Ratio (x) = 0.08146 0.51953
# Poissons Ratio (y) = 0.07194 0.62390
# Poissons Ratio (z) = 0.23731 0.32272
#
# Static dielectric constant tensor:
#      x y z
#    x 2.772370 0.000000 -0.143960 
#    y 0.000000 2.804850 0.000000 
#    z -0.143960 0.000000 3.286890 
# 
# 
# High freq. dielectric constant tensor:
#      x y z
#    x 1.563260 0.000000 -0.014450 
#    y 0.000000 1.587750 0.000000 
#    z -0.014450 0.000000 1.633070 
# 
# From -- ./inp_files/54832.got.cif
#   From: 2010.06.25/outbox.cif.g09.slc.cpg/sg10_28_cif.got.tgz:54832.got - 2010.06.27 22:07:45.
