data_PCOD8067563
_publ_section_title
;
Structure prediction by ZEFSAII (Michael W. Deem and Ramdas Pophale) SiO2 
 PCOD8067563
Probable space group: P 2/M
;
_chemical_formula_sum "Si O2"
_cell_formula_units_Z 20
_cell_length_a 14.648620
_cell_length_b 10.083753
_cell_length_c 8.590258
_cell_angle_alpha 90.000000
_cell_angle_beta 51.381557
_cell_angle_gamma 90.000000
_cell_volume 991.411255
_symmetry_space_group_name_H-M "P 2/M"
_symmetry_group_IT_number 10
_symmetry_cell_setting 'monoclinic'
loop_
_space_group_symop_operation_xyz
x,y,z
-x,y,-z
-x,-y,-z
x,-y,z
loop_
_atom_site_type_symbol
_atom_site_label
_atom_site_fract_x
_atom_site_fract_y
_atom_site_fract_z
Si Si1 0.735148 0.724844 0.445005
Si Si2 0.642020 0.000000 0.670446
Si Si3 0.114336 0.500000 0.585086
Si Si4 0.365132 0.000000 0.954845
Si Si5 0.506104 0.644326 0.825125
Si Si6 0.155438 0.500000 0.183477
Si Si7 0.705140 0.738895 0.112972
O O1 0.849364 0.639837 0.370991
O O2 0.634335 0.631803 0.620526
O O3 0.735649 0.737116 0.260212
O O4 0.715494 0.872115 0.534764
O O5 0.643706 0.000000 0.852296
O O6 0.505143 0.000000 0.756491
O O7 0.164957 0.500000 0.358209
O O8 0.975573 0.500000 0.738440
O O9 0.284523 0.116876 0.972225
O O10 0.452135 0.500000 0.915652
O O11 0.431702 0.710742 0.768998
O O12 0.500000 0.722541 0.000000
O O13 0.215764 0.633501 0.060054
#
# Coordination Sequence:
#
# PCOD8067563 Si02
#       7
#     4   2   2   2   4   2   4
#     4  12  24  38  62  94 129 162 203 260 315 367
#     4  11  23  39  62  91 131 174 206 246 306 381
#     4  11  25  46  69  90 119 165 217 261 306 369
#     4  11  23  39  62  91 131 174 206 246 306 381
#     4  11  21  34  57  88 126 165 205 249 304 376
#     4  11  25  46  69  90 119 165 217 261 306 369
#     4  12  24  38  62  94 129 162 203 260 315 367
#
# _framework density 20.173265000000001
#
# number of rings (size 3 to 8) (size 9 to 14) (size 15 to 20)
#    0.000    0.600    4.000    5.400    0.000    3.200 
#    0.000    1.000    0.000    6.000    0.000    0.000 
#    0.000    0.000    0.000    0.000    0.000    0.000 
#
# Total GULP energy -247799.757509 kJ/mol
# GULP energy per Si atom -12389.987875 kJ/mol
# Density = 2.012735 g / cm^3
# Si number density = 20.173265 Si / 1000 Ang^3
#
#
#
# Elastic Constant Matrix: (Units=GPa)
#
#
# Indices 1 2 3 4 5 6 
#
# 1 120.6957 63.9350 46.5181 0.0000 20.6435 0.0000
# 2 63.9350 173.7267 40.6559 0.0000 3.9182 0.0000
# 3 46.5181 40.6559 62.8854 0.0000 12.0958 0.0000
# 4 0.0000 0.0000 0.0000 24.3379 0.0000 7.2883
# 5 20.6435 3.9182 12.0958 0.0000 31.2084 0.0000
# 6 0.0000 0.0000 0.0000 7.2883 0.0000 4.2563
#
#
#
# Elastic Compliance Matrix: (Units=1/GPa)
#
#
# Indices 1 2 3 4 5 6 
#
# 1 0.013699 -0.003305 -0.006844 0.000000 -0.005994 0.000000
# 2 -0.003305 0.007604 -0.002926 0.000000 0.002365 0.000000
# 3 -0.006844 -0.002926 0.023681 0.000000 -0.004284 0.000000
# 4 0.000000 0.000000 0.000000 0.084332 0.000000 -0.144405
# 5 -0.005994 0.002365 -0.004284 0.000000 0.037371 0.000000
# 6 0.000000 0.000000 0.000000 -0.144405 0.000000 0.482215
#
#
# Mechanical properties :
#
#
# Convention : Reuss Voigt Hill
#
# Bulk Modulus (GPa) = 53.09812 73.28067 63.18940
# Shear Modulus (GPa) = 7.33861 25.70712 16.52287
#
# Velocity S-wave (km/s) = 1.90937 3.57363 2.86501
# Velocity P-wave (km/s) = 5.58919 7.30974 6.50659
#
# Compressibility (1/GPa) = 0.01883306
#
# Stress axis : x y z
#
# Youngs Moduli (GPa) = 72.99905 131.51281 42.22876
#
# Poissons Ratio (x) = 0.43460 0.28902
# Poissons Ratio (y) = 0.24123 0.12358
# Poissons Ratio (z) = 0.49961 0.38486
#
# Static dielectric constant tensor:
#      x y z
#    x 3.702560 0.000000 0.151770 
#    y 0.000000 3.795010 0.000000 
#    z 0.151770 0.000000 3.519960 
# 
# 
# High freq. dielectric constant tensor:
#      x y z
#    x 1.782390 0.000000 0.023290 
#    y 0.000000 1.809980 0.000000 
#    z 0.023290 0.000000 1.776700 
# 
# From -- ./inp_files/27732.got.cif
#   From: 2010.06.25/outbox.cif.g09.slc.cpg/sg10_14_cif.got.tgz:27732.got - 2010.06.27 22:07:45.
