data_PCOD8067095
_publ_section_title
;
Structure prediction by ZEFSAII (Michael W. Deem and Ramdas Pophale) SiO2 
 PCOD8067095
Probable space group: P 2/M
;
_chemical_formula_sum "Si O2"
_cell_formula_units_Z 28
_cell_length_a 15.046019
_cell_length_b 13.453697
_cell_length_c 8.608666
_cell_angle_alpha 90.000000
_cell_angle_beta 56.293932
_cell_angle_gamma 90.000000
_cell_volume 1449.665510
_symmetry_space_group_name_H-M "P 2/M"
_symmetry_group_IT_number 10
_symmetry_cell_setting 'monoclinic'
loop_
_space_group_symop_operation_xyz
x,y,z
-x,y,-z
-x,-y,-z
x,-y,z
loop_
_atom_site_type_symbol
_atom_site_label
_atom_site_fract_x
_atom_site_fract_y
_atom_site_fract_z
Si Si1 0.270676 0.791573 0.548856
Si Si2 0.141720 0.391529 0.539259
Si Si3 0.134367 0.820217 0.188310
Si Si4 0.468598 0.884968 0.204331
Si Si5 0.320466 0.888240 0.811100
Si Si6 0.109129 0.391607 0.213443
Si Si7 0.093704 0.888617 0.563014
O O1 0.217260 0.685879 0.557844
O O2 0.373499 0.811186 0.342774
O O3 0.301529 0.804277 0.699132
O O4 0.183154 0.877661 0.606573
O O5 0.172554 0.500000 0.577042
O O6 0.155893 0.393592 0.341215
O O7 0.016554 0.371108 0.684806
O O8 0.159598 0.709224 0.094043
O O9 0.128847 0.819219 0.382931
O O10 0.018065 0.858673 0.248638
O O11 0.227635 0.889074 0.031599
O O12 0.567735 0.861855 0.218920
O O13 0.432435 0.000000 0.252607
O O14 0.500000 0.857608 0.000000
O O15 0.325800 0.000000 0.735321
O O16 0.137957 0.500000 0.108371
O O17 0.087309 0.000000 0.505042
#
# Coordination Sequence:
#
# PCOD8067095 Si02
#       7
#     4   4   4   4   4   4   4
#     4  12  21  36  57  82 114 147 187 230 285 340
#     4   9  17  33  58  86 112 145 189 236 282 328
#     4  11  19  35  53  81 115 148 188 235 272 330
#     4  10  22  40  61  82 105 144 196 238 272 327
#     4  11  24  38  54  80 118 157 187 225 279 340
#     4   9  16  32  57  84 112 146 194 238 273 323
#     4  11  20  31  52  80 111 149 186 228 276 332
#
# _framework density 19.314799000000001
#
# number of rings (size 3 to 8) (size 9 to 14) (size 15 to 20)
#    0.000    1.571    2.857    6.000    0.000    2.857 
#    0.000    2.143    0.000    4.714    0.000    0.000 
#    0.000    0.000    0.000    0.000    0.000    0.000 
#
# Total GULP energy -346871.992308 kJ/mol
# GULP energy per Si atom -12388.285440 kJ/mol
# Density = 1.927084 g / cm^3
# Si number density = 19.314799 Si / 1000 Ang^3
#
#
#
# Elastic Constant Matrix: (Units=GPa)
#
#
# Indices 1 2 3 4 5 6 
#
# 1 99.3823 50.5394 3.0724 0.0000 4.3299 0.0000
# 2 50.5394 133.7643 19.8920 0.0000 -1.3875 0.0000
# 3 3.0724 19.8920 18.1234 0.0000 -1.2764 0.0000
# 4 0.0000 0.0000 0.0000 14.2072 0.0000 1.1792
# 5 4.3299 -1.3875 -1.2764 0.0000 23.1707 0.0000
# 6 0.0000 0.0000 0.0000 1.1792 0.0000 33.5203
#
#
#
# Elastic Compliance Matrix: (Units=1/GPa)
#
#
# Indices 1 2 3 4 5 6 
#
# 1 0.012805 -0.005396 0.003574 0.000000 -0.002519 0.000000
# 2 -0.005396 0.011208 -0.011312 0.000000 0.001056 0.000000
# 3 0.003574 -0.011312 0.067154 0.000000 0.002354 0.000000
# 4 0.000000 0.000000 0.000000 0.070593 0.000000 -0.002483
# 5 -0.002519 0.001056 0.002354 0.000000 0.043822 0.000000
# 6 0.000000 0.000000 0.000000 -0.002483 0.000000 0.029920
#
#
# Mechanical properties :
#
#
# Convention : Reuss Voigt Hill
#
# Bulk Modulus (GPa) = 15.40868 44.25309 29.83088
# Shear Modulus (GPa) = 17.64275 26.03070 21.83673
#
# Velocity S-wave (km/s) = 3.02558 3.67510 3.36604
# Velocity P-wave (km/s) = 4.49450 6.40076 5.53038
#
# Compressibility (1/GPa) = 0.06489850
#
# Stress axis : x y z
#
# Youngs Moduli (GPa) = 78.09214 89.22417 14.89125
#
# Poissons Ratio (x) = 0.48144 -0.05322
# Poissons Ratio (y) = 0.42137 0.16845
# Poissons Ratio (z) = -0.27911 1.00933
#
# Static dielectric constant tensor:
#      x y z
#    x 3.510150 0.000000 -0.047080 
#    y 0.000000 3.584390 0.000000 
#    z -0.047080 0.000000 3.113160 
# 
# 
# High freq. dielectric constant tensor:
#      x y z
#    x 1.750230 0.000000 0.000680 
#    y 0.000000 1.754160 0.000000 
#    z 0.000680 0.000000 1.714110 
# 
# From -- ./inp_files/28977.got.cif
#   From: 2010.06.25/outbox.cif.g09.slc.cpg/sg10_15_cif.got.tgz:28977.got - 2010.06.27 22:07:45.
