data_PCOD8067311
_publ_section_title
;
Structure prediction by ZEFSAII (Michael W. Deem and Ramdas Pophale) SiO2 
 PCOD8067311
Probable space group: P 2/M
;
_chemical_formula_sum "Si O2"
_cell_formula_units_Z 28
_cell_length_a 23.238397
_cell_length_b 8.819915
_cell_length_c 20.300694
_cell_angle_alpha 90.000000
_cell_angle_beta 160.569135
_cell_angle_gamma 90.000000
_cell_volume 1384.184677
_symmetry_space_group_name_H-M "P 2/M"
_symmetry_group_IT_number 10
_symmetry_cell_setting 'monoclinic'
loop_
_space_group_symop_operation_xyz
x,y,z
-x,y,-z
-x,-y,-z
x,-y,z
loop_
_atom_site_type_symbol
_atom_site_label
_atom_site_fract_x
_atom_site_fract_y
_atom_site_fract_z
Si Si1 0.161993 0.681278 0.876231
Si Si2 0.087735 0.667793 0.656539
Si Si3 0.761803 0.320822 0.614228
Si Si4 0.479134 0.824199 0.400667
Si Si5 0.455950 0.319675 0.743082
Si Si6 0.102967 0.820935 0.947524
Si Si7 0.514125 0.668023 0.944736
O O1 0.149160 0.500000 0.869331
O O2 0.060813 0.738256 0.700534
O O3 0.070826 0.760185 0.839278
O O4 0.360929 0.737428 0.088271
O O5 0.003434 0.500000 0.566774
O O6 0.000000 0.758749 0.500000
O O7 0.289582 0.656146 0.864222
O O8 0.780106 0.500000 0.638095
O O9 0.628708 0.268921 0.526221
O O10 0.692371 0.267733 0.467346
O O11 0.950100 0.246254 0.828385
O O12 0.500000 0.794967 0.500000
O O13 0.500986 0.000000 0.405795
O O14 0.289246 0.764389 0.174760
O O15 0.465295 0.500000 0.759707
O O16 0.420334 0.254864 0.779468
O O17 0.090280 0.000000 0.936421
O O18 0.433873 0.500000 0.869260
O O19 0.500000 0.757418 0.000000
#
# Coordination Sequence:
#
# PCOD8067311 Si02
#       7
#     4   4   4   4   4   4   4
#     4   9  16  31  53  76 108 146 190 239 286 336
#     4   8  14  23  39  67 101 138 178 228 284 331
#     4  11  22  37  61  90 120 151 190 238 287 343
#     4  10  23  44  66  86 115 155 193 235 286 341
#     4   8  15  28  47  73 105 143 182 227 281 329
#     4  11  23  38  59  87 117 150 193 236 283 346
#     4   8  13  21  35  59  97 138 174 216 269 328
#
# _framework density 20.228514000000001
#
# number of rings (size 3 to 8) (size 9 to 14) (size 15 to 20)
#    0.000    2.714    1.429    2.571    0.000    2.571 
#    0.000    7.143    0.000    0.429    0.000    0.000 
#    0.000    5.714    0.000    0.000    0.000    0.000 
#
# Total GULP energy -346880.425370 kJ/mol
# GULP energy per Si atom -12388.586620 kJ/mol
# Density = 2.018247 g / cm^3
# Si number density = 20.228514 Si / 1000 Ang^3
#
#
#
# Elastic Constant Matrix: (Units=GPa)
#
#
# Indices 1 2 3 4 5 6 
#
# 1 114.7353 33.6491 53.9831 0.0000 -3.8477 0.0000
# 2 33.6491 41.2494 28.4599 0.0000 2.5715 0.0000
# 3 53.9831 28.4599 96.3603 0.0000 1.5654 0.0000
# 4 0.0000 0.0000 0.0000 17.5610 0.0000 9.4758
# 5 -3.8477 2.5715 1.5654 0.0000 33.2243 0.0000
# 6 0.0000 0.0000 0.0000 9.4758 0.0000 10.9020
#
#
#
# Elastic Compliance Matrix: (Units=1/GPa)
#
#
# Indices 1 2 3 4 5 6 
#
# 1 0.013530 -0.007448 -0.005419 0.000000 0.002399 0.000000
# 2 -0.007448 0.034672 -0.006015 0.000000 -0.003263 0.000000
# 3 -0.005419 -0.006015 0.015204 0.000000 -0.000878 0.000000
# 4 0.000000 0.000000 0.000000 0.107241 0.000000 -0.093211
# 5 0.002399 -0.003263 -0.000878 0.000000 0.030670 0.000000
# 6 0.000000 0.000000 0.000000 -0.093211 0.000000 0.172744
#
#
# Mechanical properties :
#
#
# Convention : Reuss Voigt Hill
#
# Bulk Modulus (GPa) = 38.99756 53.83657 46.41706
# Shear Modulus (GPa) = 11.89425 21.42099 16.65762
#
# Velocity S-wave (km/s) = 2.42749 3.25768 2.87273
# Velocity P-wave (km/s) = 5.21319 6.38921 5.83092
#
# Compressibility (1/GPa) = 0.02564263
#
# Stress axis : x y z
#
# Youngs Moduli (GPa) = 73.90920 28.84208 65.77063
#
# Poissons Ratio (x) = 0.21481 0.35642
# Poissons Ratio (y) = 0.55046 0.39560
# Poissons Ratio (z) = 0.40052 0.17348
#
# Static dielectric constant tensor:
#      x y z
#    x 3.950300 0.000000 -0.295400 
#    y 0.000000 3.088490 0.000000 
#    z -0.295400 0.000000 3.808520 
# 
# 
# High freq. dielectric constant tensor:
#      x y z
#    x 1.804580 0.000000 -0.010950 
#    y 0.000000 1.721740 0.000000 
#    z -0.010950 0.000000 1.791470 
# 
# From -- ./inp_files/86554.got.cif
#   From: 2010.06.25/outbox.cif.g09.slc.cpg/sg10_44_cif.got.tgz:86554.got - 2010.06.27 22:07:45.
