data_PCOD8067739
_publ_section_title
;
Structure prediction by ZEFSAII (Michael W. Deem and Ramdas Pophale) SiO2 
 PCOD8067739
Probable space group: P 2/M
;
_chemical_formula_sum "Si O2"
_cell_formula_units_Z 20
_cell_length_a 10.671580
_cell_length_b 10.185312
_cell_length_c 9.074546
_cell_angle_alpha 90.000000
_cell_angle_beta 103.859384
_cell_angle_gamma 90.000000
_cell_volume 957.627136
_symmetry_space_group_name_H-M "P 2/M"
_symmetry_group_IT_number 10
_symmetry_cell_setting 'monoclinic'
loop_
_space_group_symop_operation_xyz
x,y,z
-x,y,-z
-x,-y,-z
x,-y,z
loop_
_atom_site_type_symbol
_atom_site_label
_atom_site_fract_x
_atom_site_fract_y
_atom_site_fract_z
Si Si1 0.545645 0.500000 0.177044
Si Si2 0.577359 0.000000 0.289397
Si Si3 0.368819 0.500000 0.374996
Si Si4 0.278071 0.747574 0.738743
Si Si5 0.948667 0.654698 0.145590
Si Si6 0.811843 0.739490 0.607565
Si Si7 0.312632 0.000000 0.352521
O O1 0.406450 0.500000 0.215136
O O2 0.628238 0.624522 0.249536
O O3 0.500000 0.500000 0.000000
O O4 0.631054 0.125634 0.216135
O O5 0.421085 0.000000 0.253671
O O6 0.623320 0.000000 0.469652
O O7 0.500000 0.500000 0.500000
O O8 0.292430 0.630595 0.386077
O O9 0.184024 0.730735 0.853383
O O10 0.188437 0.762398 0.568251
O O11 0.920026 0.500000 0.139620
O O12 0.049674 0.689927 0.301251
O O13 0.000000 0.699517 0.000000
O O14 0.776293 0.871340 0.687130
#
# Coordination Sequence:
#
# PCOD8067739 Si02
#       7
#     2   2   2   4   4   4   2
#     4  12  26  37  62  91 129 164 203 258 310 370
#     4   9  20  39  64  94 127 161 199 259 303 373
#     4  12  22  37  62  97 121 156 213 252 308 364
#     4  11  22  42  64  93 123 162 210 256 307 363
#     4  11  25  42  63  90 127 165 208 260 313 364
#     4  11  22  39  67  93 123 162 207 261 301 368
#     4   9  20  37  63  95 130 158 200 247 321 363
#
# _framework density 20.884955999999999
#
# number of rings (size 3 to 8) (size 9 to 14) (size 15 to 20)
#    0.000    1.200    4.000    1.800    5.600    1.600 
#    0.000    5.500    0.000    0.000    0.000    0.000 
#    0.000    0.000    0.000    0.000    0.000    0.000 
#
# Total GULP energy -248016.080603 kJ/mol
# GULP energy per Si atom -12400.804030 kJ/mol
# Density = 2.083742 g / cm^3
# Si number density = 20.884956 Si / 1000 Ang^3
#
#
#
# Elastic Constant Matrix: (Units=GPa)
#
#
# Indices 1 2 3 4 5 6 
#
# 1 89.1313 41.7554 19.2420 0.0000 -34.6021 0.0000
# 2 41.7554 148.3576 18.9534 0.0000 -21.5567 0.0000
# 3 19.2420 18.9534 70.9197 0.0000 -20.4699 0.0000
# 4 0.0000 0.0000 0.0000 17.9344 0.0000 -19.6551
# 5 -34.6021 -21.5567 -20.4699 0.0000 45.4532 0.0000
# 6 0.0000 0.0000 0.0000 -19.6551 0.0000 19.9142
#
#
#
# Elastic Compliance Matrix: (Units=1/GPa)
#
#
# Indices 1 2 3 4 5 6 
#
# 1 0.017219 -0.003122 -0.000553 0.000000 0.011378 0.000000
# 2 -0.003122 0.007879 -0.000995 0.000000 0.000911 0.000000
# 3 -0.000553 -0.000995 0.016389 0.000000 0.006488 0.000000
# 4 0.000000 0.000000 0.000000 -0.682626 0.000000 -0.673744
# 5 0.011378 0.000911 0.006488 0.000000 0.034016 0.000000
# 6 0.000000 0.000000 0.000000 -0.673744 0.000000 -0.614761
#
#
# Mechanical properties :
#
#
# Convention : Reuss Voigt Hill
#
# Bulk Modulus (GPa) = 31.10922 52.03446 41.57184
# Shear Modulus (GPa) = -4.16033 31.89087 13.86527
#
# Velocity S-wave (km/s) = -1.41292 3.91190 2.57940
# Velocity P-wave (km/s) = 3.50229 6.73593 5.36837
#
# Compressibility (1/GPa) = 0.03214482
#
# Stress axis : x y z
#
# Youngs Moduli (GPa) = 58.07644 126.92217 61.01602
#
# Poissons Ratio (x) = 0.39629 0.03376
# Poissons Ratio (y) = 0.18133 0.06074
# Poissons Ratio (z) = 0.03213 0.12634
#
# Static dielectric constant tensor:
#      x y z
#    x 4.956110 0.000000 -0.484140 
#    y 0.000000 3.829140 0.000000 
#    z -0.484140 0.000000 3.820680 
# 
# 
# High freq. dielectric constant tensor:
#      x y z
#    x 1.824780 0.000000 -0.014960 
#    y 0.000000 1.821800 0.000000 
#    z -0.014960 0.000000 1.802030 
# 
# From -- ./inp_files/22327.got.cif
#   From: 2010.06.25/outbox.cif.g09.slc.cpg/sg10_12_cif.got.tgz:22327.got - 2010.06.27 22:07:45.
