data_PCOD8067273
_publ_section_title
;
Structure prediction by ZEFSAII (Michael W. Deem and Ramdas Pophale) SiO2 
 PCOD8067273
Probable space group: P 2/M
;
_chemical_formula_sum "Si O2"
_cell_formula_units_Z 26
_cell_length_a 8.153933
_cell_length_b 14.752915
_cell_length_c 12.588029
_cell_angle_alpha 90.000000
_cell_angle_beta 61.043219
_cell_angle_gamma 90.000000
_cell_volume 1324.961928
_symmetry_space_group_name_H-M "P 2/M"
_symmetry_group_IT_number 10
_symmetry_cell_setting 'monoclinic'
loop_
_space_group_symop_operation_xyz
x,y,z
-x,y,-z
-x,-y,-z
x,-y,z
loop_
_atom_site_type_symbol
_atom_site_label
_atom_site_fract_x
_atom_site_fract_y
_atom_site_fract_z
Si Si1 0.696807 0.600263 0.624423
Si Si2 0.000000 0.850011 0.000000
Si Si3 0.151503 0.898073 0.542508
Si Si4 0.941213 0.599420 0.347901
Si Si5 0.469107 0.789264 0.323255
Si Si6 0.121821 0.779433 0.743168
Si Si7 0.579658 0.898898 0.089397
O O1 0.606309 0.500000 0.672635
O O2 0.766289 0.605882 0.481938
O O3 0.552400 0.681364 0.688744
O O4 0.868507 0.616048 0.648971
O O5 0.971581 0.790673 0.113464
O O6 0.807142 0.903766 0.033785
O O7 0.313995 0.833629 0.446907
O O8 0.048946 0.848707 0.674860
O O9 0.000000 0.908147 0.500000
O O10 0.222591 0.000000 0.551265
O O11 0.943218 0.500000 0.292990
O O12 0.920173 0.674964 0.265812
O O13 0.660502 0.804086 0.324915
O O14 0.477378 0.834430 0.205175
O O15 0.504867 0.000000 0.133229
O O16 0.500000 0.865930 0.000000
#
# Coordination Sequence:
#
# PCOD8067273 Si02
#       7
#     4   2   4   4   4   4   4
#     4   9  18  33  58  90 119 149 190 238 292 357
#     4  10  25  42  61  86 120 166 207 246 299 352
#     4  11  24  38  58  87 117 154 194 244 303 356
#     4   9  18  34  58  86 117 154 193 236 291 352
#     4  11  22  37  58  90 123 150 192 245 304 354
#     4  11  23  39  59  87 120 157 194 246 298 356
#     4  10  23  41  63  87 117 162 209 251 293 354
#
# _framework density 19.623206
#
# number of rings (size 3 to 8) (size 9 to 14) (size 15 to 20)
#    0.000    1.846    1.538    3.000    4.308    4.923 
#    0.000    1.923    0.000    1.385    0.000    0.000 
#    0.000    0.000    0.000    0.000    0.000    0.000 
#
# Total GULP energy -322229.170973 kJ/mol
# GULP energy per Si atom -12393.429653 kJ/mol
# Density = 1.957854 g / cm^3
# Si number density = 19.623206 Si / 1000 Ang^3
#
#
#
# Elastic Constant Matrix: (Units=GPa)
#
#
# Indices 1 2 3 4 5 6 
#
# 1 39.8897 15.3483 26.1592 0.0000 12.8572 0.0000
# 2 15.3483 146.9845 62.6059 0.0000 17.4963 0.0000
# 3 26.1592 62.6059 109.7950 0.0000 17.1475 0.0000
# 4 0.0000 0.0000 0.0000 -0.7488 0.0000 -15.0304
# 5 12.8572 17.4963 17.1475 0.0000 29.5522 0.0000
# 6 0.0000 0.0000 0.0000 -15.0304 0.0000 16.2409
#
#
#
# Elastic Compliance Matrix: (Units=1/GPa)
#
#
# Indices 1 2 3 4 5 6 
#
# 1 0.032516 0.000622 -0.006416 0.000000 -0.010792 0.000000
# 2 0.000622 0.009180 -0.004939 0.000000 -0.002840 0.000000
# 3 -0.006416 -0.004939 0.013812 0.000000 -0.002298 0.000000
# 4 0.000000 0.000000 0.000000 -0.068218 0.000000 -0.063133
# 5 -0.010792 -0.002840 -0.002298 0.000000 0.041549 0.000000
# 6 0.000000 0.000000 0.000000 -0.063133 0.000000 0.003145
#
#
# Mechanical properties :
#
#
# Convention : Reuss Voigt Hill
#
# Bulk Modulus (GPa) = 29.37623 56.09954 42.73788
# Shear Modulus (GPa) = 77.16218 21.84593 49.50406
#
# Velocity S-wave (km/s) = 6.27752 3.34019 5.02813
# Velocity P-wave (km/s) = 8.21862 6.59744 7.45225
#
# Compressibility (1/GPa) = 0.03404113
#
# Stress axis : x y z
#
# Youngs Moduli (GPa) = 30.75415 108.92777 72.40025
#
# Poissons Ratio (x) = -0.06778 0.46455
# Poissons Ratio (y) = -0.01914 0.35762
# Poissons Ratio (z) = 0.19733 0.53804
#
# Static dielectric constant tensor:
#      x y z
#    x 3.663190 0.000000 0.112710 
#    y 0.000000 3.732320 0.000000 
#    z 0.112710 0.000000 3.397930 
# 
# 
# High freq. dielectric constant tensor:
#      x y z
#    x 1.769250 0.000000 0.012860 
#    y 0.000000 1.775080 0.000000 
#    z 0.012860 0.000000 1.740730 
# 
# From -- ./inp_files/24811.got.cif
#   From: 2010.06.25/outbox.cif.g09.slc.cpg/sg10_13_cif.got.tgz:24811.got - 2010.06.27 22:07:45.
