data_PCOD8067622
_publ_section_title
;
Structure prediction by ZEFSAII (Michael W. Deem and Ramdas Pophale) SiO2 
 PCOD8067622
Probable space group: P 2/M
;
_chemical_formula_sum "Si O2"
_cell_formula_units_Z 28
_cell_length_a 5.079970
_cell_length_b 31.807048
_cell_length_c 9.734031
_cell_angle_alpha 90.000000
_cell_angle_beta 59.663358
_cell_angle_gamma 90.000000
_cell_volume 1357.452447
_symmetry_space_group_name_H-M "P 2/M"
_symmetry_group_IT_number 10
_symmetry_cell_setting 'monoclinic'
loop_
_space_group_symop_operation_xyz
x,y,z
-x,y,-z
-x,-y,-z
x,-y,z
loop_
_atom_site_type_symbol
_atom_site_label
_atom_site_fract_x
_atom_site_fract_y
_atom_site_fract_z
Si Si1 0.827512 0.952683 0.689970
Si Si2 0.332270 0.191216 0.688963
Si Si3 0.669897 0.096144 0.310878
Si Si4 0.121406 0.326510 0.315604
Si Si5 0.253675 0.630723 0.815930
Si Si6 0.717692 0.236651 0.813828
Si Si7 0.355547 0.454488 0.892284
O O1 0.493516 0.933312 0.757525
O O2 0.000000 0.952874 0.500000
O O3 0.994461 0.922968 0.756569
O O4 0.802380 0.000000 0.754444
O O5 0.500000 0.194664 0.500000
O O6 0.330681 0.143627 0.745745
O O7 0.509382 0.222345 0.742685
O O8 0.976767 0.202442 0.773512
O O9 0.500000 0.094993 0.500000
O O10 0.477514 0.337718 0.215607
O O11 0.098175 0.279259 0.266732
O O12 0.000000 0.329907 0.500000
O O13 0.905017 0.357424 0.285143
O O14 0.403684 0.583586 0.770795
O O15 0.000000 0.633099 0.000000
O O16 0.500000 0.243312 0.000000
O O17 0.496340 0.500000 0.807205
O O18 0.500000 0.440847 0.000000
O O19 0.000000 0.461226 0.000000
#
# Coordination Sequence:
#
# PCOD8067622 Si02
#       7
#     4   4   4   4   4   4   4
#     4   9  15  24  40  67 106 146 179 216 269 329
#     4  11  22  39  61  85 116 152 191 236 292 351
#     4   9  17  28  45  71 104 143 181 221 274 334
#     4  12  25  41  60  85 119 156 193 236 295 356
#     4  11  21  38  62  89 118 153 198 245 288 336
#     4  12  25  42  61  85 114 148 194 243 291 343
#     4   9  17  31  55  88 120 151 193 243 288 333
#
# _framework density 20.626871000000001
#
# number of rings (size 3 to 8) (size 9 to 14) (size 15 to 20)
#    0.000    1.571    0.000    7.286    0.000    4.000 
#    0.000    0.000    0.000    2.571    0.000    0.000 
#    0.000   40.000    0.000    0.000    0.000    0.000 
#
# Total GULP energy -347147.011135 kJ/mol
# GULP energy per Si atom -12398.107541 kJ/mol
# Density = 2.057992 g / cm^3
# Si number density = 20.626871 Si / 1000 Ang^3
#
#
#
# Elastic Constant Matrix: (Units=GPa)
#
#
# Indices 1 2 3 4 5 6 
#
# 1 136.5853 41.1180 28.9464 0.0000 14.2727 0.0000
# 2 41.1180 137.3957 51.2452 0.0000 12.1318 0.0000
# 3 28.9464 51.2452 48.6612 0.0000 19.6178 0.0000
# 4 0.0000 0.0000 0.0000 14.5731 0.0000 0.0817
# 5 14.2727 12.1318 19.6178 0.0000 20.8784 0.0000
# 6 0.0000 0.0000 0.0000 0.0817 0.0000 31.1353
#
#
#
# Elastic Compliance Matrix: (Units=1/GPa)
#
#
# Indices 1 2 3 4 5 6 
#
# 1 0.008555 -0.001357 -0.002608 0.000000 -0.002609 0.000000
# 2 -0.001357 0.013065 -0.016525 0.000000 0.008863 0.000000
# 3 -0.002608 -0.016525 0.056205 0.000000 -0.041427 0.000000
# 4 0.000000 0.000000 0.000000 0.068620 0.000000 -0.000180
# 5 -0.002609 0.008863 -0.041427 0.000000 0.083456 0.000000
# 6 0.000000 0.000000 0.000000 -0.000180 0.000000 0.032118
#
#
# Mechanical properties :
#
#
# Convention : Reuss Voigt Hill
#
# Bulk Modulus (GPa) = 27.14017 62.80684 44.97350
# Shear Modulus (GPa) = 15.85884 26.73953 21.29919
#
# Velocity S-wave (km/s) = 2.77581 3.60438 3.21689
# Velocity P-wave (km/s) = 4.84353 6.91645 5.97064
#
# Compressibility (1/GPa) = 0.03684575
#
# Stress axis : x y z
#
# Youngs Moduli (GPa) = 116.88538 76.53950 17.79204
#
# Poissons Ratio (x) = 0.10388 0.04640
# Poissons Ratio (y) = 0.15864 0.29401
# Poissons Ratio (z) = 0.30482 1.26479
#
# Static dielectric constant tensor:
#      x y z
#    x 3.891580 0.000000 0.049560 
#    y 0.000000 4.281790 0.000000 
#    z 0.049560 0.000000 3.287900 
# 
# 
# High freq. dielectric constant tensor:
#      x y z
#    x 1.828870 0.000000 0.006290 
#    y 0.000000 1.828390 0.000000 
#    z 0.006290 0.000000 1.754250 
# 
# From -- ./inp_files/15875.got.cif
#   From: 2010.06.25/outbox.cif.g09.slc.cpg/sg10_8_cif.got.tgz:15875.got - 2010.06.27 22:07:45.
