data_PCOD8067571
_publ_section_title
;
Structure prediction by ZEFSAII (Michael W. Deem and Ramdas Pophale) SiO2 
 PCOD8067571
Probable space group: P 2/M
;
_chemical_formula_sum "Si O2"
_cell_formula_units_Z 20
_cell_length_a 11.349363
_cell_length_b 8.647484
_cell_length_c 18.333084
_cell_angle_alpha 90.000000
_cell_angle_beta 36.183767
_cell_angle_gamma 90.000000
_cell_volume 1062.248739
_symmetry_space_group_name_H-M "P 2/M"
_symmetry_group_IT_number 10
_symmetry_cell_setting 'monoclinic'
loop_
_space_group_symop_operation_xyz
x,y,z
-x,y,-z
-x,-y,-z
x,-y,z
loop_
_atom_site_type_symbol
_atom_site_label
_atom_site_fract_x
_atom_site_fract_y
_atom_site_fract_z
Si Si1 0.283356 0.180133 0.889242
Si Si2 0.900762 0.678850 0.436455
Si Si3 0.082422 0.319226 0.853669
Si Si4 0.694210 0.321786 0.690201
Si Si5 0.729175 0.820534 0.380781
O O1 0.243997 0.269081 0.833226
O O2 0.505359 0.217662 0.805970
O O3 0.258782 0.000000 0.886671
O O4 0.126518 0.231836 0.029146
O O5 0.867404 0.500000 0.431859
O O6 0.769905 0.722805 0.572029
O O7 0.835903 0.790044 0.404009
O O8 0.132902 0.710444 0.337436
O O9 0.042792 0.500000 0.880209
O O10 0.162983 0.280802 0.733902
O O11 0.630107 0.500000 0.724367
O O12 0.500000 0.767969 0.500000
O O13 0.747038 0.000000 0.351268
#
# Coordination Sequence:
#
# PCOD8067571 Si02
#       5
#     4   4   4   4   4
#     4  11  21  35  56  82 111 140 175 221 271 318
#     4   9  19  35  56  81 109 143 182 222 260 311
#     4  11  22  37  57  79 106 142 183 222 262 315
#     4   9  18  35  57  81 109 142 182 221 261 312
#     4  11  23  37  54  80 113 143 173 218 273 321
#
# _framework density 18.827981999999999
#
# number of rings (size 3 to 8) (size 9 to 14) (size 15 to 20)
#    0.000    1.800    0.000    7.800    0.000    6.400 
#    0.000    3.000    0.000    6.000    0.000    0.000 
#    0.000    0.000    0.000    0.000    0.000    0.000 
#
# Total GULP energy -248096.494917 kJ/mol
# GULP energy per Si atom -12404.824746 kJ/mol
# Density = 1.878513 g / cm^3
# Si number density = 18.827982 Si / 1000 Ang^3
#
#
#
# Elastic Constant Matrix: (Units=GPa)
#
#
# Indices 1 2 3 4 5 6 
#
# 1 91.8377 25.8062 50.9631 0.0000 -4.8903 0.0000
# 2 25.8062 67.1892 29.5883 0.0000 -5.5695 0.0000
# 3 50.9631 29.5883 95.4499 0.0000 -13.6040 0.0000
# 4 0.0000 0.0000 0.0000 28.4477 0.0000 -1.2359
# 5 -4.8903 -5.5695 -13.6040 0.0000 33.7323 0.0000
# 6 0.0000 0.0000 0.0000 -1.2359 0.0000 27.0613
#
#
#
# Elastic Compliance Matrix: (Units=1/GPa)
#
#
# Indices 1 2 3 4 5 6 
#
# 1 0.015952 -0.002782 -0.007841 0.000000 -0.001309 0.000000
# 2 -0.002782 0.017739 -0.003876 0.000000 0.000962 0.000000
# 3 -0.007841 -0.003876 0.016564 0.000000 0.004903 0.000000
# 4 0.000000 0.000000 0.000000 0.035222 0.000000 0.001609
# 5 -0.001309 0.000962 0.004903 0.000000 0.031592 0.000000
# 6 0.000000 0.000000 0.000000 0.001609 0.000000 0.037027
#
#
# Mechanical properties :
#
#
# Convention : Reuss Voigt Hill
#
# Bulk Modulus (GPa) = 47.04752 51.91022 49.47887
# Shear Modulus (GPa) = 26.29088 27.72286 27.00687
#
# Velocity S-wave (km/s) = 3.74086 3.84139 3.79146
# Velocity P-wave (km/s) = 6.61068 6.87791 6.74562
#
# Compressibility (1/GPa) = 0.02125511
#
# Stress axis : x y z
#
# Youngs Moduli (GPa) = 62.68683 56.37397 60.37266
#
# Poissons Ratio (x) = 0.15685 0.47341
# Poissons Ratio (y) = 0.17442 0.23401
# Poissons Ratio (z) = 0.49155 0.21851
#
# Static dielectric constant tensor:
#      x y z
#    x 3.316710 0.000000 -0.125690 
#    y 0.000000 3.399200 0.000000 
#    z -0.125690 0.000000 3.430340 
# 
# 
# High freq. dielectric constant tensor:
#      x y z
#    x 1.722780 0.000000 -0.011290 
#    y 0.000000 1.736410 0.000000 
#    z -0.011290 0.000000 1.733010 
# 
# From -- ./inp_files/40874.got.cif
#   From: 2010.06.25/outbox.cif.g09.slc.cpg/sg10_21_cif.got.tgz:40874.got - 2010.06.27 22:07:45.
