data_PCOD8067886
_publ_section_title
;
Structure prediction by ZEFSAII (Michael W. Deem and Ramdas Pophale) SiO2 
 PCOD8067886
Probable space group: P 2/M
;
_chemical_formula_sum "Si O2"
_cell_formula_units_Z 24
_cell_length_a 12.447246
_cell_length_b 9.334075
_cell_length_c 14.159716
_cell_angle_alpha 90.000000
_cell_angle_beta 69.685606
_cell_angle_gamma 90.000000
_cell_volume 1542.801808
_symmetry_space_group_name_H-M "P 2/M"
_symmetry_group_IT_number 10
_symmetry_cell_setting 'monoclinic'
loop_
_space_group_symop_operation_xyz
x,y,z
-x,y,-z
-x,-y,-z
x,-y,z
loop_
_atom_site_type_symbol
_atom_site_label
_atom_site_fract_x
_atom_site_fract_y
_atom_site_fract_z
Si Si1 0.071537 0.669928 0.342951
Si Si2 0.739230 0.334711 0.851526
Si Si3 0.584464 0.670662 0.553777
Si Si4 0.525620 0.334902 0.780808
Si Si5 0.837261 0.670339 0.486712
Si Si6 0.391939 0.838132 0.964446
O O1 0.081911 0.500000 0.343711
O O2 0.140517 0.722461 0.229252
O O3 0.130693 0.731540 0.419699
O O4 0.937300 0.717302 0.381936
O O5 0.745769 0.500000 0.881092
O O6 0.643822 0.313984 0.800285
O O7 0.713454 0.241332 0.952119
O O8 0.500000 0.734437 0.500000
O O9 0.584762 0.500000 0.550539
O O10 0.542592 0.721897 0.669329
O O11 0.712931 0.730018 0.493865
O O12 0.487183 0.500000 0.794612
O O13 0.423581 0.242898 0.858193
O O14 0.832117 0.500000 0.493767
O O15 0.355270 0.000000 0.951988
O O16 0.500000 0.833340 0.000000
#
# Coordination Sequence:
#
# PCOD8067886 Si02
#       6
#     4   4   4   4   4   4
#     4   8  12  18  32  52  76 100 123 154 188 223
#     4   9  14  22  37  57  77 100 128 156 188 228
#     4   9  15  22  34  54  80 106 129 154 187 225
#     4   9  15  24  37  54  77 103 129 157 187 224
#     4   8  12  19  30  50  77 102 126 153 186 223
#     4   9  17  26  36  53  77 103 127 155 195 237
#
# _framework density 15.556113
#
# number of rings (size 3 to 8) (size 9 to 14) (size 15 to 20)
#    0.000    3.333    1.667    1.500    0.000    2.000 
#    0.000    0.000    0.000    0.500    0.000    4.667 
#    0.000    9.333    0.000    0.000    0.000    0.000 
#
# Total GULP energy -297377.404516 kJ/mol
# GULP energy per Si atom -12390.725188 kJ/mol
# Density = 1.552071 g / cm^3
# Si number density = 15.556113 Si / 1000 Ang^3
#
#
#
# Elastic Constant Matrix: (Units=GPa)
#
#
# Indices 1 2 3 4 5 6 
#
# 1 85.9596 18.9724 60.6952 0.0000 -20.3707 0.0000
# 2 18.9724 44.8119 42.4079 0.0000 -11.7177 0.0000
# 3 60.6952 42.4079 133.2333 0.0000 -35.6794 0.0000
# 4 0.0000 0.0000 0.0000 3.1900 0.0000 1.0676
# 5 -20.3707 -11.7177 -35.6794 0.0000 28.2282 0.0000
# 6 0.0000 0.0000 0.0000 1.0676 0.0000 3.6990
#
#
#
# Elastic Compliance Matrix: (Units=1/GPa)
#
#
# Indices 1 2 3 4 5 6 
#
# 1 0.017423 0.000237 -0.006983 0.000000 0.003846 0.000000
# 2 0.000237 0.031945 -0.010097 0.000000 0.000670 0.000000
# 3 -0.006983 -0.010097 0.017276 0.000000 0.012606 0.000000
# 4 0.000000 0.000000 0.000000 0.347000 0.000000 -0.100149
# 5 0.003846 0.000670 0.012606 0.000000 0.054413 0.000000
# 6 0.000000 0.000000 0.000000 -0.100149 0.000000 0.299247
#
#
# Mechanical properties :
#
#
# Convention : Reuss Voigt Hill
#
# Bulk Modulus (GPa) = 30.33983 56.46177 43.40080
# Shear Modulus (GPa) = 6.15782 16.48539 11.32160
#
# Velocity S-wave (km/s) = 1.99175 3.25889 2.70069
# Velocity P-wave (km/s) = 4.98349 7.10879 6.13881
#
# Compressibility (1/GPa) = 0.03295997
#
# Stress axis : x y z
#
# Youngs Moduli (GPa) = 57.39623 31.30335 57.88239
#
# Poissons Ratio (x) = -0.00743 0.40418
# Poissons Ratio (y) = -0.01362 0.58443
# Poissons Ratio (z) = 0.40078 0.31607
#
# Static dielectric constant tensor:
#      x y z
#    x 2.936350 0.000000 -0.324320 
#    y 0.000000 2.568490 0.000000 
#    z -0.324320 0.000000 3.165590 
# 
# 
# High freq. dielectric constant tensor:
#      x y z
#    x 1.557110 0.000000 -0.031650 
#    y 0.000000 1.545550 0.000000 
#    z -0.031650 0.000000 1.600680 
# 
# From -- ./inp_files/48651.got.cif
#   From: 2010.06.25/outbox.cif.g09.slc.cpg/sg10_25_cif.got.tgz:48651.got - 2010.06.27 22:07:45.
