data_PCOD8067357
_publ_section_title
;
Structure prediction by ZEFSAII (Michael W. Deem and Ramdas Pophale) SiO2 
 PCOD8067357
Probable space group: P 2/M
;
_chemical_formula_sum "Si O2"
_cell_formula_units_Z 20
_cell_length_a 9.507986
_cell_length_b 8.670256
_cell_length_c 12.037330
_cell_angle_alpha 90.000000
_cell_angle_beta 77.081021
_cell_angle_gamma 90.000000
_cell_volume 967.199090
_symmetry_space_group_name_H-M "P 2/M"
_symmetry_group_IT_number 10
_symmetry_cell_setting 'monoclinic'
loop_
_space_group_symop_operation_xyz
x,y,z
-x,y,-z
-x,-y,-z
x,-y,z
loop_
_atom_site_type_symbol
_atom_site_label
_atom_site_fract_x
_atom_site_fract_y
_atom_site_fract_z
Si Si1 0.097900 0.320523 0.682962
Si Si2 0.200718 0.177357 0.288924
Si Si3 0.340012 0.178383 0.492908
Si Si4 0.337383 0.321788 0.049852
Si Si5 0.851962 0.173314 0.090811
O O1 0.098648 0.500000 0.711635
O O2 0.223719 0.283752 0.574460
O O3 0.124421 0.223549 0.788234
O O4 0.942635 0.275572 0.659421
O O5 0.318558 0.204465 0.364920
O O6 0.271307 0.221423 0.159928
O O7 0.152865 0.000000 0.291330
O O8 0.500000 0.232336 0.500000
O O9 0.315518 0.000000 0.529919
O O10 0.322763 0.500000 0.085281
O O11 0.500000 0.271394 0.000000
O O12 0.257611 0.289594 0.948450
O O13 0.788789 0.000000 0.100688
O O14 0.000000 0.181268 0.000000
#
# Coordination Sequence:
#
# PCOD8067357 Si02
#       5
#     4   4   4   4   4
#     4  12  25  41  66  96 129 168 209 263 324 376
#     4  11  23  42  67  94 125 169 219 262 309 375
#     4  10  24  45  67  94 126 165 213 265 316 375
#     4  11  25  42  63  96 135 169 206 259 321 378
#     4  11  23  41  67  96 126 167 216 259 308 376
#
# _framework density 20.678267000000002
#
# number of rings (size 3 to 8) (size 9 to 14) (size 15 to 20)
#    0.000    1.000    2.000    4.200    2.800    6.800 
#    0.000    0.000    0.000    0.000    0.000    0.000 
#    0.000    0.000    0.000    0.000    0.000    0.000 
#
# Total GULP energy -248131.323734 kJ/mol
# GULP energy per Si atom -12406.566187 kJ/mol
# Density = 2.063120 g / cm^3
# Si number density = 20.678267 Si / 1000 Ang^3
#
#
#
# Elastic Constant Matrix: (Units=GPa)
#
#
# Indices 1 2 3 4 5 6 
#
# 1 137.9280 33.0215 38.7031 0.0000 4.9195 0.0000
# 2 33.0215 56.2343 18.4903 0.0000 -11.8439 0.0000
# 3 38.7031 18.4903 77.3639 0.0000 7.2789 0.0000
# 4 0.0000 0.0000 0.0000 29.2569 0.0000 -2.0888
# 5 4.9195 -11.8439 7.2789 0.0000 36.4189 0.0000
# 6 0.0000 0.0000 0.0000 -2.0888 0.0000 32.5844
#
#
#
# Elastic Compliance Matrix: (Units=1/GPa)
#
#
# Indices 1 2 3 4 5 6 
#
# 1 0.009442 -0.004910 -0.003343 0.000000 -0.002204 0.000000
# 2 -0.004910 0.023988 -0.004152 0.000000 0.009294 0.000000
# 3 -0.003343 -0.004152 0.015976 0.000000 -0.004092 0.000000
# 4 0.000000 0.000000 0.000000 0.034337 0.000000 0.002201
# 5 -0.002204 0.009294 -0.004092 0.000000 0.031596 0.000000
# 6 0.000000 0.000000 0.000000 0.002201 0.000000 0.030831
#
#
# Mechanical properties :
#
#
# Convention : Reuss Voigt Hill
#
# Bulk Modulus (GPa) = 40.65410 50.21732 45.43571
# Shear Modulus (GPa) = 27.90525 31.73946 29.82236
#
# Velocity S-wave (km/s) = 3.67754 3.92205 3.80176
# Velocity P-wave (km/s) = 6.14291 6.69685 6.42585
#
# Compressibility (1/GPa) = 0.02459777
#
# Stress axis : x y z
#
# Youngs Moduli (GPa) = 105.90737 41.68691 62.59585
#
# Poissons Ratio (x) = 0.20467 0.20925
# Poissons Ratio (y) = 0.51996 0.25988
# Poissons Ratio (z) = 0.35404 0.17307
#
# Static dielectric constant tensor:
#      x y z
#    x 3.907270 0.000000 0.039230 
#    y 0.000000 3.760630 0.000000 
#    z 0.039230 0.000000 3.488280 
# 
# 
# High freq. dielectric constant tensor:
#      x y z
#    x 1.817460 0.000000 0.007460 
#    y 0.000000 1.814060 0.000000 
#    z 0.007460 0.000000 1.816610 
# 
# From -- ./inp_files/22100.got.cif
#   From: 2010.06.25/outbox.cif.g09.slc.cpg/sg10_12_cif.got.tgz:22100.got - 2010.06.27 22:07:45.
