data_PCOD8067463
_publ_section_title
;
Structure prediction by ZEFSAII (Michael W. Deem and Ramdas Pophale) SiO2 
 PCOD8067463
Probable space group: P 2/M
;
_chemical_formula_sum "Si O2"
_cell_formula_units_Z 28
_cell_length_a 29.336952
_cell_length_b 8.754746
_cell_length_c 20.847934
_cell_angle_alpha 90.000000
_cell_angle_beta 161.002250
_cell_angle_gamma 90.000000
_cell_volume 1743.066468
_symmetry_space_group_name_H-M "P 2/M"
_symmetry_group_IT_number 10
_symmetry_cell_setting 'monoclinic'
loop_
_space_group_symop_operation_xyz
x,y,z
-x,y,-z
-x,-y,-z
x,-y,z
loop_
_atom_site_type_symbol
_atom_site_label
_atom_site_fract_x
_atom_site_fract_y
_atom_site_fract_z
Si Si1 0.418610 0.672415 0.205112
Si Si2 0.581253 0.180067 0.928324
Si Si3 0.591078 0.819720 0.681065
Si Si4 0.586597 0.179214 0.174596
Si Si5 0.140979 0.677772 0.650586
Si Si6 0.884283 0.178248 0.520160
Si Si7 0.155255 0.672646 0.928949
O O1 0.475719 0.500000 0.283186
O O2 0.463552 0.746901 0.198425
O O3 0.484532 0.765773 0.353191
O O4 0.248172 0.674539 0.986765
O O5 0.473266 0.244579 0.838143
O O6 0.572149 0.000000 0.908421
O O7 0.737583 0.223631 0.155968
O O8 0.500000 0.762049 0.500000
O O9 0.609132 0.000000 0.704793
O O10 0.745730 0.741889 0.882856
O O11 0.750122 0.217714 0.385503
O O12 0.557934 0.000000 0.136427
O O13 0.500000 0.252435 0.000000
O O14 0.178975 0.500000 0.706965
O O15 0.121644 0.720523 0.551006
O O16 0.000000 0.718960 0.500000
O O17 0.019955 0.221760 0.741709
O O18 0.887089 0.000000 0.505277
O O19 0.110070 0.500000 0.886194
#
# Coordination Sequence:
#
# PCOD8067463 Si02
#       7
#     4   4   4   4   4   4   4
#     4   9  19  32  48  72 106 133 157 195 244 294
#     4  11  20  33  52  69  92 127 172 213 248 293
#     4   9  17  31  53  80 105 130 163 195 231 291
#     4   9  18  34  50  68  91 124 171 222 260 285
#     4  11  23  34  45  64  96 129 162 205 257 300
#     4  11  20  33  52  69  92 127 172 213 248 293
#     4   9  19  32  48  72 106 133 157 195 244 294
#
# _framework density 16.063644
#
# number of rings (size 3 to 8) (size 9 to 14) (size 15 to 20)
#    0.857    1.286    1.429    3.000    0.000    5.714 
#    0.000    3.571    0.000    0.000    0.000    1.000 
#    0.000    8.000    0.000    0.000    0.000    0.000 
#
# Total GULP energy -347060.774626 kJ/mol
# GULP energy per Si atom -12395.027665 kJ/mol
# Density = 1.602708 g / cm^3
# Si number density = 16.063644 Si / 1000 Ang^3
#
#
#
# Elastic Constant Matrix: (Units=GPa)
#
#
# Indices 1 2 3 4 5 6 
#
# 1 107.7687 28.8922 54.8719 0.0000 -2.8314 0.0000
# 2 28.8922 52.3296 15.9353 0.0000 2.2062 0.0000
# 3 54.8719 15.9353 61.2388 0.0000 -15.0320 0.0000
# 4 0.0000 0.0000 0.0000 16.7203 0.0000 -3.6903
# 5 -2.8314 2.2062 -15.0320 0.0000 25.0990 0.0000
# 6 0.0000 0.0000 0.0000 -3.6903 0.0000 16.5474
#
#
#
# Elastic Compliance Matrix: (Units=1/GPa)
#
#
# Indices 1 2 3 4 5 6 
#
# 1 0.019829 -0.004942 -0.018553 0.000000 -0.008440 0.000000
# 2 -0.004942 0.022767 -0.002490 0.000000 -0.004050 0.000000
# 3 -0.018553 -0.002490 0.038854 0.000000 0.021396 0.000000
# 4 0.000000 0.000000 0.000000 0.062904 0.000000 0.014028
# 5 -0.008440 -0.004050 0.021396 0.000000 0.052060 0.000000
# 6 0.000000 0.000000 0.000000 0.014028 0.000000 0.063561
#
#
# Mechanical properties :
#
#
# Convention : Reuss Voigt Hill
#
# Bulk Modulus (GPa) = 33.92264 46.74843 40.33554
# Shear Modulus (GPa) = 15.53891 19.78250 17.66070
#
# Velocity S-wave (km/s) = 3.11357 3.51309 3.31935
# Velocity P-wave (km/s) = 5.83860 6.75433 6.31309
#
# Compressibility (1/GPa) = 0.02947884
#
# Stress axis : x y z
#
# Youngs Moduli (GPa) = 50.43122 43.92236 25.73763
#
# Poissons Ratio (x) = 0.21708 0.47751
# Poissons Ratio (y) = 0.24925 0.06409
# Poissons Ratio (z) = 0.93566 0.10937
#
# Static dielectric constant tensor:
#      x y z
#    x 3.057450 0.000000 0.025250 
#    y 0.000000 3.003120 0.000000 
#    z 0.025250 0.000000 2.890650 
# 
# 
# High freq. dielectric constant tensor:
#      x y z
#    x 1.602220 0.000000 -0.001430 
#    y 0.000000 1.624430 0.000000 
#    z -0.001430 0.000000 1.594870 
# 
# From -- ./inp_files/87149.got.cif
#   From: 2010.06.25/outbox.cif.g09.slc.cpg/sg10_44_cif.got.tgz:87149.got - 2010.06.27 22:07:45.
