data_PCOD8067559
_publ_section_title
;
Structure prediction by ZEFSAII (Michael W. Deem and Ramdas Pophale) SiO2 
 PCOD8067559
Probable space group: P 2/M
;
_chemical_formula_sum "Si O2"
_cell_formula_units_Z 24
_cell_length_a 11.322085
_cell_length_b 8.521689
_cell_length_c 14.081418
_cell_angle_alpha 90.000000
_cell_angle_beta 77.666531
_cell_angle_gamma 90.000000
_cell_volume 1327.265827
_symmetry_space_group_name_H-M "P 2/M"
_symmetry_group_IT_number 10
_symmetry_cell_setting 'monoclinic'
loop_
_space_group_symop_operation_xyz
x,y,z
-x,y,-z
-x,-y,-z
x,-y,z
loop_
_atom_site_type_symbol
_atom_site_label
_atom_site_fract_x
_atom_site_fract_y
_atom_site_fract_z
Si Si1 0.401572 0.817585 0.636786
Si Si2 0.132577 0.671376 0.019265
Si Si3 0.107352 0.182722 0.412695
Si Si4 0.774977 0.686354 0.187845
Si Si5 0.348681 0.681863 0.449135
Si Si6 0.032425 0.686892 0.226825
O O1 0.340739 0.768161 0.746025
O O2 0.337549 0.724225 0.562102
O O3 0.543589 0.779613 0.618001
O O4 0.382914 0.000000 0.620856
O O5 0.189442 0.500000 0.026970
O O6 0.118653 0.751657 0.125429
O O7 0.212526 0.755277 0.922965
O O8 0.000000 0.649479 0.000000
O O9 0.225109 0.281963 0.417173
O O10 0.070382 0.217401 0.311926
O O11 0.000000 0.238165 0.500000
O O12 0.135576 0.000000 0.421517
O O13 0.757199 0.500000 0.187165
O O14 0.893447 0.728600 0.228685
O O15 0.379768 0.500000 0.433477
O O16 0.048288 0.500000 0.237905
#
# Coordination Sequence:
#
# PCOD8067559 Si02
#       6
#     4   4   4   4   4   4
#     4  11  21  34  52  75 104 131 159 201 252 297
#     4   7  12  25  46  72 100 129 164 207 246 280
#     4  11  23  36  50  72 104 136 163 197 247 300
#     4   9  16  29  51  77 103 132 169 206 241 287
#     4  11  22  37  55  73  95 128 171 208 242 288
#     4   9  17  30  50  75 102 134 170 206 244 287
#
# _framework density 18.082287000000001
#
# number of rings (size 3 to 8) (size 9 to 14) (size 15 to 20)
#    0.000    2.333    0.000    7.500    0.000    4.667 
#    0.000    0.833    0.000    4.000    0.000    7.000 
#    0.000    0.000    0.000    0.000    0.000    0.000 
#
# Total GULP energy -297446.798697 kJ/mol
# GULP energy per Si atom -12393.616612 kJ/mol
# Density = 1.804113 g / cm^3
# Si number density = 18.082287 Si / 1000 Ang^3
#
#
#
# Elastic Constant Matrix: (Units=GPa)
#
#
# Indices 1 2 3 4 5 6 
#
# 1 68.2273 14.8889 50.8404 0.0000 -10.6771 0.0000
# 2 14.8889 48.8558 19.2370 0.0000 -3.1180 0.0000
# 3 50.8404 19.2370 140.7747 0.0000 -22.9258 0.0000
# 4 0.0000 0.0000 0.0000 7.2618 0.0000 -3.1867
# 5 -10.6771 -3.1180 -22.9258 0.0000 31.2170 0.0000
# 6 0.0000 0.0000 0.0000 -3.1867 0.0000 20.1746
#
#
#
# Elastic Compliance Matrix: (Units=1/GPa)
#
#
# Indices 1 2 3 4 5 6 
#
# 1 0.020707 -0.003558 -0.006698 0.000000 0.001808 0.000000
# 2 -0.003558 0.022244 -0.001807 0.000000 -0.000322 0.000000
# 3 -0.006698 -0.001807 0.010639 0.000000 0.005342 0.000000
# 4 0.000000 0.000000 0.000000 0.147964 0.000000 0.023372
# 5 0.001808 -0.000322 0.005342 0.000000 0.036544 0.000000
# 6 0.000000 0.000000 0.000000 0.023372 0.000000 0.053259
#
#
# Mechanical properties :
#
#
# Convention : Reuss Voigt Hill
#
# Bulk Modulus (GPa) = 33.93894 47.53224 40.73559
# Shear Modulus (GPa) = 15.37026 23.25678 19.31352
#
# Velocity S-wave (km/s) = 2.91867 3.59020 3.27171
# Velocity P-wave (km/s) = 5.49255 6.59771 6.07033
#
# Compressibility (1/GPa) = 0.02946468
#
# Stress axis : x y z
#
# Youngs Moduli (GPa) = 48.29253 44.95653 93.99070
#
# Poissons Ratio (x) = 0.15995 0.62952
# Poissons Ratio (y) = 0.17182 0.16986
# Poissons Ratio (z) = 0.32345 0.08125
#
# Static dielectric constant tensor:
#      x y z
#    x 3.141750 0.000000 -0.282370 
#    y 0.000000 3.142460 0.000000 
#    z -0.282370 0.000000 3.665590 
# 
# 
# High freq. dielectric constant tensor:
#      x y z
#    x 1.672850 0.000000 -0.020660 
#    y 0.000000 1.685070 0.000000 
#    z -0.020660 0.000000 1.709910 
# 
# From -- ./inp_files/45167.got.cif
#   From: 2010.06.25/outbox.cif.g09.slc.cpg/sg10_23_cif.got.tgz:45167.got - 2010.06.27 22:07:45.
