data_PCOD8067712
_publ_section_title
;
Structure prediction by ZEFSAII (Michael W. Deem and Ramdas Pophale) SiO2 
 PCOD8067712
Probable space group: P 2/M
;
_chemical_formula_sum "Si O2"
_cell_formula_units_Z 24
_cell_length_a 13.707393
_cell_length_b 13.738355
_cell_length_c 11.272350
_cell_angle_alpha 90.000000
_cell_angle_beta 145.322485
_cell_angle_gamma 90.000000
_cell_volume 1207.767632
_symmetry_space_group_name_H-M "P 2/M"
_symmetry_group_IT_number 10
_symmetry_cell_setting 'monoclinic'
loop_
_space_group_symop_operation_xyz
x,y,z
-x,y,-z
-x,-y,-z
x,-y,z
loop_
_atom_site_type_symbol
_atom_site_label
_atom_site_fract_x
_atom_site_fract_y
_atom_site_fract_z
Si Si1 0.298089 0.610597 0.298004
Si Si2 0.694628 0.294059 0.937927
Si Si3 0.694996 0.294063 0.451856
Si Si4 0.798178 0.889320 0.433412
Si Si5 0.999832 0.395353 0.362858
Si Si6 0.797950 0.110682 0.162882
O O1 0.500000 0.601398 0.500000
O O2 0.220200 0.500000 0.220062
O O3 0.238172 0.673669 0.124721
O O4 0.237979 0.673628 0.351243
O O5 0.499803 0.331397 0.762663
O O6 0.701849 0.178066 0.969711
O O7 0.824441 0.339878 0.160847
O O8 0.702215 0.178059 0.434585
O O9 0.824925 0.339810 0.488718
O O10 0.740050 0.864822 0.240155
O O11 0.000124 0.872749 0.646789
O O12 0.748622 0.000000 0.414608
O O13 0.999815 0.500000 0.296560
O O14 0.000000 0.413116 0.500000
O O15 0.748322 0.000000 0.082548
#
# Coordination Sequence:
#
# PCOD8067712 Si02
#       6
#     4   4   4   4   4   4
#     4   9  20  39  60  83 113 154 204 247 285 341
#     4  11  22  38  61  86 116 154 196 244 293 342
#     4  11  22  38  61  86 116 154 196 244 293 342
#     4   9  18  35  59  86 119 156 192 235 289 351
#     4  11  24  39  56  84 119 151 191 242 296 358
#     4   9  18  35  59  86 119 156 192 235 289 351
#
# _framework density 19.871372999999998
#
# number of rings (size 3 to 8) (size 9 to 14) (size 15 to 20)
#    0.000    2.000    1.667    3.000    0.000    6.000 
#    0.000    5.833    0.000    5.000    0.000    0.000 
#    0.000    0.000    0.000    0.000    0.000    0.000 
#
# Total GULP energy -297454.058107 kJ/mol
# GULP energy per Si atom -12393.919088 kJ/mol
# Density = 1.982614 g / cm^3
# Si number density = 19.871373 Si / 1000 Ang^3
#
#
#
# Elastic Constant Matrix: (Units=GPa)
#
#
# Indices 1 2 3 4 5 6 
#
# 1 93.3381 61.5106 31.3743 0.0000 -8.2921 0.0000
# 2 61.5106 146.0975 44.5322 0.0000 -20.4199 0.0000
# 3 31.3743 44.5322 85.4678 0.0000 -2.0035 0.0000
# 4 0.0000 0.0000 0.0000 26.2765 0.0000 -5.5565
# 5 -8.2921 -20.4199 -2.0035 0.0000 35.0882 0.0000
# 6 0.0000 0.0000 0.0000 -5.5565 0.0000 30.9801
#
#
#
# Elastic Compliance Matrix: (Units=1/GPa)
#
#
# Indices 1 2 3 4 5 6 
#
# 1 0.015333 -0.005602 -0.002705 0.000000 0.000209 0.000000
# 2 -0.005602 0.010961 -0.003541 0.000000 0.004853 0.000000
# 3 -0.002705 -0.003541 0.014494 0.000000 -0.001872 0.000000
# 4 0.000000 0.000000 0.000000 0.039557 0.000000 0.007095
# 5 0.000209 0.004853 -0.001872 0.000000 0.031266 0.000000
# 6 0.000000 0.000000 0.000000 0.007095 0.000000 0.033551
#
#
# Mechanical properties :
#
#
# Convention : Reuss Voigt Hill
#
# Bulk Modulus (GPa) = 58.50377 66.63750 62.57063
# Shear Modulus (GPa) = 28.64404 30.96804 29.80604
#
# Velocity S-wave (km/s) = 3.80079 3.95197 3.87712
# Velocity P-wave (km/s) = 6.98330 7.37776 7.18324
#
# Compressibility (1/GPa) = 0.01709291
#
# Stress axis : x y z
#
# Youngs Moduli (GPa) = 65.21764 91.23357 68.99256
#
# Poissons Ratio (x) = 0.51109 0.18662
# Poissons Ratio (y) = 0.36535 0.24429
# Poissons Ratio (z) = 0.17641 0.32305
#
# Static dielectric constant tensor:
#      x y z
#    x 3.556300 0.000000 -0.056760 
#    y 0.000000 3.961340 0.000000 
#    z -0.056760 0.000000 3.509130 
# 
# 
# High freq. dielectric constant tensor:
#      x y z
#    x 1.759740 0.000000 0.006290 
#    y 0.000000 1.785400 0.000000 
#    z 0.006290 0.000000 1.765070 
# 
# From -- ./inp_files/51499.got.cif
#   From: 2010.06.25/outbox.cif.g09.slc.cpg/sg10_26_cif.got.tgz:51499.got - 2010.06.27 22:07:45.
