data_PCOD8067395
_publ_section_title
;
Structure prediction by ZEFSAII (Michael W. Deem and Ramdas Pophale) SiO2 
 PCOD8067395
Probable space group: P 2/M
;
_chemical_formula_sum "Si O2"
_cell_formula_units_Z 24
_cell_length_a 15.438514
_cell_length_b 11.871627
_cell_length_c 15.291009
_cell_angle_alpha 90.000000
_cell_angle_beta 27.697243
_cell_angle_gamma 90.000000
_cell_volume 1302.619214
_symmetry_space_group_name_H-M "P 2/M"
_symmetry_group_IT_number 10
_symmetry_cell_setting 'monoclinic'
loop_
_space_group_symop_operation_xyz
x,y,z
-x,y,-z
-x,-y,-z
x,-y,z
loop_
_atom_site_type_symbol
_atom_site_label
_atom_site_fract_x
_atom_site_fract_y
_atom_site_fract_z
Si Si1 0.151898 0.000000 0.744108
Si Si2 0.030446 0.239346 0.372999
Si Si3 0.420441 0.000000 0.212809
Si Si4 0.755382 0.000000 0.142469
Si Si5 0.366503 0.241928 0.343576
Si Si6 0.546583 0.178986 0.556826
Si Si7 0.394191 0.633098 0.008271
Si Si8 0.797325 0.000000 0.768504
O O1 0.261073 0.890755 0.613341
O O2 0.153723 0.000000 0.845280
O O3 0.929557 0.000000 0.916756
O O4 0.191314 0.313419 0.186439
O O5 0.076914 0.107708 0.324153
O O6 0.000000 0.276623 0.500000
O O7 0.848447 0.269037 0.480483
O O8 0.404916 0.889217 0.286263
O O9 0.260744 0.000000 0.281584
O O10 0.620278 0.000000 0.988964
O O11 0.627390 0.109645 0.249135
O O12 0.415995 0.271148 0.401243
O O13 0.491544 0.326485 0.176951
O O14 0.500000 0.224740 0.500000
O O15 0.376109 0.500000 0.023729
O O16 0.500000 0.677689 0.000000
#
# Coordination Sequence:
#
# PCOD8067395 Si02
#       8
#     2   4   2   2   4   4   4   2
#     4   8  14  28  48  74 106 147 189 228 269 326
#     4  12  22  37  58  85 118 151 186 230 279 335
#     4  11  19  32  55  79 117 157 184 215 271 338
#     4   8  14  28  51  71 106 152 185 225 278 318
#     4  12  23  37  58  86 114 153 190 229 283 338
#     4   9  19  34  50  76 111 145 190 235 272 329
#     4  11  24  42  61  83 112 148 190 236 284 336
#     4  11  20  33  52  80 125 154 178 221 267 338
#
# _framework density 18.424419
#
# number of rings (size 3 to 8) (size 9 to 14) (size 15 to 20)
#    0.000    1.500    5.000    2.750    0.000    2.333 
#    3.000    0.000    0.000    0.500    0.000    1.167 
#    0.000    0.000    0.000    0.000    0.000    0.000 
#
# Total GULP energy -297465.071169 kJ/mol
# GULP energy per Si atom -12394.377965 kJ/mol
# Density = 1.838248 g / cm^3
# Si number density = 18.424419 Si / 1000 Ang^3
#
#
#
# Elastic Constant Matrix: (Units=GPa)
#
#
# Indices 1 2 3 4 5 6 
#
# 1 134.8481 24.7058 56.0601 0.0000 6.5704 0.0000
# 2 24.7058 47.8739 30.6694 0.0000 -1.7206 0.0000
# 3 56.0601 30.6694 139.2847 0.0000 -16.9257 0.0000
# 4 0.0000 0.0000 0.0000 -87.8498 0.0000 16.9209
# 5 6.5704 -1.7206 -16.9257 0.0000 25.6189 0.0000
# 6 0.0000 0.0000 0.0000 16.9209 0.0000 9.9119
#
#
#
# Elastic Compliance Matrix: (Units=1/GPa)
#
#
# Indices 1 2 3 4 5 6 
#
# 1 0.009842 -0.002697 -0.004019 0.000000 -0.005360 0.000000
# 2 -0.002697 0.025159 -0.004528 0.000000 -0.000610 0.000000
# 3 -0.004019 -0.004528 0.010745 0.000000 0.007826 0.000000
# 4 0.000000 0.000000 0.000000 -0.008566 0.000000 0.014624
# 5 -0.005360 -0.000610 0.007826 0.000000 0.045538 0.000000
# 6 0.000000 0.000000 0.000000 0.014624 0.000000 0.075924
#
#
# Mechanical properties :
#
#
# Convention : Reuss Voigt Hill
#
# Bulk Modulus (GPa) = 42.99685 60.54192 51.76939
# Shear Modulus (GPa) = 26.47156 3.57431 15.02294
#
# Velocity S-wave (km/s) = 3.79458 1.39435 2.85859
# Velocity P-wave (km/s) = 6.52579 5.96014 6.24937
#
# Compressibility (1/GPa) = 0.02325752
#
# Stress axis : x y z
#
# Youngs Moduli (GPa) = 101.60819 39.74691 93.06601
#
# Poissons Ratio (x) = 0.10720 0.37400
# Poissons Ratio (y) = 0.27405 0.42145
# Poissons Ratio (z) = 0.40833 0.17999
#
# Static dielectric constant tensor:
#      x y z
#    x 5.266850 0.000000 -3.695960 
#    y 0.000000 2.993670 0.000000 
#    z -3.695960 0.000000 10.901940 
# 
# 
# High freq. dielectric constant tensor:
#      x y z
#    x 1.711510 0.000000 -0.007020 
#    y 0.000000 1.661800 0.000000 
#    z -0.007020 0.000000 1.740420 
# 
# From -- ./inp_files/67085.got.cif
#   From: 2010.06.25/outbox.cif.g09.slc.cpg/sg10_34_cif.got.tgz:67085.got - 2010.06.27 22:07:45.
