data_PCOD8067056
_publ_section_title
;
Structure prediction by ZEFSAII (Michael W. Deem and Ramdas Pophale) SiO2 
 PCOD8067056
Probable space group: P 2/M
;
_chemical_formula_sum "Si O2"
_cell_formula_units_Z 24
_cell_length_a 9.089203
_cell_length_b 14.144742
_cell_length_c 14.313342
_cell_angle_alpha 90.000000
_cell_angle_beta 140.305379
_cell_angle_gamma 90.000000
_cell_volume 1175.319101
_symmetry_space_group_name_H-M "P 2/M"
_symmetry_group_IT_number 10
_symmetry_cell_setting 'monoclinic'
loop_
_space_group_symop_operation_xyz
x,y,z
-x,y,-z
-x,-y,-z
x,-y,z
loop_
_atom_site_type_symbol
_atom_site_label
_atom_site_fract_x
_atom_site_fract_y
_atom_site_fract_z
Si Si1 0.915672 0.392032 0.608989
Si Si2 0.362931 0.608240 0.708165
Si Si3 0.231861 0.751651 0.062934
Si Si4 0.377809 0.108469 0.283888
Si Si5 0.039972 0.778453 0.246846
Si Si6 0.918356 0.892695 0.558474
O O1 0.870624 0.500000 0.617389
O O2 0.737350 0.360282 0.441303
O O3 0.880193 0.326545 0.682633
O O4 0.173279 0.379986 0.695896
O O5 0.443298 0.500000 0.742209
O O6 0.581339 0.670238 0.840179
O O7 0.320757 0.848052 0.154650
O O8 0.000000 0.714884 0.000000
O O9 0.178134 0.773659 0.928650
O O10 0.252300 0.167899 0.302744
O O11 0.645977 0.114667 0.436093
O O12 0.292250 0.000000 0.243791
O O13 0.958962 0.834299 0.299658
O O14 0.000000 0.848278 0.500000
O O15 0.006409 0.000000 0.608287
#
# Coordination Sequence:
#
# PCOD8067056 Si02
#       6
#     4   4   4   4   4   4
#     4   9  20  38  63  92 118 157 206 256 301 352
#     4   9  19  39  63  86 122 163 202 247 304 361
#     4  10  23  38  57  90 124 165 203 242 303 363
#     4  10  22  42  63  84 121 166 207 249 300 359
#     4  11  22  35  61  92 119 160 199 248 299 366
#     4  10  22  39  61  90 119 156 205 257 303 352
#
# _framework density 20.419986999999999
#
# number of rings (size 3 to 8) (size 9 to 14) (size 15 to 20)
#    0.000    2.167    0.000    3.000    4.667    8.000 
#    0.000    4.167    0.000   13.000    0.000    0.000 
#    0.000    0.000    0.000    0.000    0.000    0.000 
#
# Total GULP energy -297654.232281 kJ/mol
# GULP energy per Si atom -12402.259678 kJ/mol
# Density = 2.037351 g / cm^3
# Si number density = 20.419987 Si / 1000 Ang^3
#
#
#
# Elastic Constant Matrix: (Units=GPa)
#
#
# Indices 1 2 3 4 5 6 
#
# 1 73.7696 56.6407 51.9450 0.0000 -21.2119 0.0000
# 2 56.6407 129.6697 65.0516 0.0000 -15.1521 0.0000
# 3 51.9450 65.0516 128.0595 0.0000 -20.2017 0.0000
# 4 0.0000 0.0000 0.0000 23.9604 0.0000 5.4036
# 5 -21.2119 -15.1521 -20.2017 0.0000 42.7095 0.0000
# 6 0.0000 0.0000 0.0000 5.4036 0.0000 19.6814
#
#
#
# Elastic Compliance Matrix: (Units=1/GPa)
#
#
# Indices 1 2 3 4 5 6 
#
# 1 0.025083 -0.007482 -0.005216 0.000000 0.007336 0.000000
# 2 -0.007482 0.012647 -0.003531 0.000000 -0.000900 0.000000
# 3 -0.005216 -0.003531 0.012008 0.000000 0.001836 0.000000
# 4 0.000000 0.000000 0.000000 0.044490 0.000000 -0.012215
# 5 0.007336 -0.000900 0.001836 0.000000 0.027607 0.000000
# 6 0.000000 0.000000 0.000000 -0.012215 0.000000 0.054163
#
#
# Mechanical properties :
#
#
# Convention : Reuss Voigt Hill
#
# Bulk Modulus (GPa) = 57.87599 75.41926 66.64763
# Shear Modulus (GPa) = 23.34078 27.79436 25.56757
#
# Velocity S-wave (km/s) = 3.38455 3.69336 3.54232
# Velocity P-wave (km/s) = 6.60893 7.42981 7.03136
#
# Compressibility (1/GPa) = 0.01727832
#
# Stress axis : x y z
#
# Youngs Moduli (GPa) = 39.86717 79.07296 83.27647
#
# Poissons Ratio (x) = 0.59166 0.43441
# Poissons Ratio (y) = 0.29830 0.29405
# Poissons Ratio (z) = 0.20796 0.27921
#
# Static dielectric constant tensor:
#      x y z
#    x 3.603130 0.000000 -0.150390 
#    y 0.000000 3.851690 0.000000 
#    z -0.150390 0.000000 3.709880 
# 
# 
# High freq. dielectric constant tensor:
#      x y z
#    x 1.788640 0.000000 -0.008180 
#    y 0.000000 1.809850 0.000000 
#    z -0.008180 0.000000 1.794170 
# 
# From -- ./inp_files/29246.got.cif
#   From: 2010.06.25/outbox.cif.g09.slc.cpg/sg10_15_cif.got.tgz:29246.got - 2010.06.27 22:07:45.
