data_PCOD8067484
_publ_section_title
;
Structure prediction by ZEFSAII (Michael W. Deem and Ramdas Pophale) SiO2 
 PCOD8067484
Probable space group: P 2/M
;
_chemical_formula_sum "Si O2"
_cell_formula_units_Z 20
_cell_length_a 11.119856
_cell_length_b 10.247493
_cell_length_c 27.033863
_cell_angle_alpha 90.000000
_cell_angle_beta 159.201168
_cell_angle_gamma 90.000000
_cell_volume 1093.857584
_symmetry_space_group_name_H-M "P 2/M"
_symmetry_group_IT_number 10
_symmetry_cell_setting 'monoclinic'
loop_
_space_group_symop_operation_xyz
x,y,z
-x,y,-z
-x,-y,-z
x,-y,z
loop_
_atom_site_type_symbol
_atom_site_label
_atom_site_fract_x
_atom_site_fract_y
_atom_site_fract_z
Si Si1 0.780735 0.752364 0.282168
Si Si2 0.621953 0.000000 0.834745
Si Si3 0.840398 0.147043 0.661835
Si Si4 0.608539 0.500000 0.838942
Si Si5 0.606796 0.000000 0.360167
Si Si6 0.400874 0.500000 0.646633
Si Si7 0.468200 0.254691 0.606152
O O1 0.552243 0.625041 0.196628
O O2 0.875408 0.781468 0.261671
O O3 0.108423 0.727344 0.441590
O O4 0.575504 0.873587 0.223709
O O5 0.630678 0.000000 0.779006
O O6 0.000000 0.000000 0.000000
O O7 0.500000 0.132307 0.500000
O O8 0.769434 0.239483 0.681845
O O9 0.958932 0.000000 0.722467
O O10 0.567089 0.500000 0.764144
O O11 0.000000 0.500000 0.000000
O O12 0.518353 0.874598 0.357184
O O13 0.000000 0.000000 0.500000
O O14 0.532471 0.375662 0.666846
O O15 0.000000 0.500000 0.500000
#
# Coordination Sequence:
#
# PCOD8067484 Si02
#       7
#     4   2   4   2   2   2   4
#     4  11  20  38  60  84 121 154 194 243 290 343
#     4  12  24  35  55  85 117 158 198 237 289 348
#     4   9  18  33  58  91 120 147 190 245 292 340
#     4  12  26  41  59  85 121 162 194 235 297 356
#     4  12  20  33  59  83 117 152 196 240 295 342
#     4  12  22  39  59  85 125 148 192 252 289 340
#     4  11  20  35  61  91 116 150 191 248 297 339
#
# _framework density 18.283916000000001
#
# number of rings (size 3 to 8) (size 9 to 14) (size 15 to 20)
#    0.000    1.000    6.000    2.400    0.000    0.800 
#    0.000    3.000    0.000    7.200    0.000    0.000 
#    0.000    0.000    0.000    0.000    0.000    0.000 
#
# Total GULP energy -248020.739417 kJ/mol
# GULP energy per Si atom -12401.036971 kJ/mol
# Density = 1.824230 g / cm^3
# Si number density = 18.283916 Si / 1000 Ang^3
#
#
#
# Elastic Constant Matrix: (Units=GPa)
#
#
# Indices 1 2 3 4 5 6 
#
# 1 143.0813 67.0957 37.4471 0.0000 10.4907 0.0000
# 2 67.0957 157.9663 23.1567 0.0000 15.0664 0.0000
# 3 37.4471 23.1567 75.2269 0.0002 -2.3608 0.0001
# 4 0.0000 0.0000 0.0002 -239.0371 0.0000 -89.8913
# 5 10.4907 15.0664 -2.3608 0.0000 20.3688 0.0000
# 6 0.0000 0.0000 0.0001 -89.8913 0.0000 8.9623
#
#
#
# Elastic Compliance Matrix: (Units=1/GPa)
#
#
# Indices 1 2 3 4 5 6 
#
# 1 0.009791 -0.003285 -0.003959 0.000000 -0.003071 0.000000
# 2 -0.003285 0.008320 -0.001070 0.000000 -0.004586 0.000000
# 3 -0.003959 -0.001070 0.015739 0.000000 0.004654 0.000000
# 4 0.000000 0.000000 0.000000 -0.000877 0.000000 -0.008793
# 5 -0.003071 -0.004586 0.004654 0.000000 0.054608 0.000000
# 6 0.000000 0.000000 0.000000 -0.008793 0.000000 0.023383
#
#
# Mechanical properties :
#
#
# Convention : Reuss Voigt Hill
#
# Bulk Modulus (GPa) = 58.06392 70.18594 64.12493
# Shear Modulus (GPa) = 37.50002 -25.36952 6.06525
#
# Velocity S-wave (km/s) = 4.53369 -3.72900 1.82331
# Velocity P-wave (km/s) = 7.69621 4.46424 6.29131
#
# Compressibility (1/GPa) = 0.01722240
#
# Stress axis : x y z
#
# Youngs Moduli (GPa) = 102.13481 120.19033 63.53588
#
# Poissons Ratio (x) = 0.39487 0.25153
# Poissons Ratio (y) = 0.33555 0.06796
# Poissons Ratio (z) = 0.40434 0.12856
#
# Static dielectric constant tensor:
#      x y z
#    x 3.897380 0.000000 0.039880 
#    y 0.000000 3.491990 0.000000 
#    z 0.039880 0.000000 3.169810 
# 
# 
# High freq. dielectric constant tensor:
#      x y z
#    x 1.727100 0.000000 0.005700 
#    y 0.000000 1.724790 0.000000 
#    z 0.005700 0.000000 1.668410 
# 
# From -- ./inp_files/22246.got.cif
#   From: 2010.06.25/outbox.cif.g09.slc.cpg/sg10_12_cif.got.tgz:22246.got - 2010.06.27 22:07:45.
