data_PCOD8067234
_publ_section_title
;
Structure prediction by ZEFSAII (Michael W. Deem and Ramdas Pophale) SiO2 
 PCOD8067234
Probable space group: P 2/M
;
_chemical_formula_sum "Si O2"
_cell_formula_units_Z 20
_cell_length_a 6.456483
_cell_length_b 13.292901
_cell_length_c 12.038784
_cell_angle_alpha 90.000000
_cell_angle_beta 72.758896
_cell_angle_gamma 90.000000
_cell_volume 986.805992
_symmetry_space_group_name_H-M "P 2/M"
_symmetry_group_IT_number 10
_symmetry_cell_setting 'monoclinic'
loop_
_space_group_symop_operation_xyz
x,y,z
-x,y,-z
-x,-y,-z
x,-y,z
loop_
_atom_site_type_symbol
_atom_site_label
_atom_site_fract_x
_atom_site_fract_y
_atom_site_fract_z
Si Si1 0.811330 0.891129 0.617198
Si Si2 0.100825 0.385004 0.105325
Si Si3 0.111342 0.761595 0.705377
Si Si4 0.500000 0.750083 0.000000
Si Si5 0.500000 0.800295 0.500000
Si Si6 0.784722 0.117211 0.102812
O O1 0.589285 0.865728 0.588405
O O2 0.000000 0.905779 0.500000
O O3 0.885633 0.802554 0.688677
O O4 0.775976 0.000000 0.683584
O O5 0.150891 0.500000 0.127788
O O6 0.930655 0.341620 0.221925
O O7 0.318822 0.321549 0.080832
O O8 0.000000 0.374562 0.000000
O O9 0.297556 0.736969 0.583560
O O10 0.188740 0.850409 0.774483
O O11 0.583967 0.821267 0.084931
O O12 0.731233 0.000000 0.104420
O O13 0.000000 0.145749 0.000000
#
# Coordination Sequence:
#
# PCOD8067234 Si02
#       6
#     4   4   4   2   2   4
#     4   9  19  35  56  83 119 161 207 248 293 354
#     4  11  24  43  67  93 121 156 207 267 319 368
#     4  11  21  41  58  88 125 164 206 254 299 362
#     4  12  20  42  62  96 120 160 202 254 312 376
#     4  10  23  36  61  86 122 168 209 246 303 360
#     4  11  23  38  59  92 132 167 200 245 311 378
#
# _framework density 20.267408
#
# number of rings (size 3 to 8) (size 9 to 14) (size 15 to 20)
#    0.000    1.400    4.000    1.500    2.800    2.400 
#    0.000    0.500    0.000    5.400    0.000    0.000 
#    0.000    0.000    0.000    0.000    0.000    0.000 
#
# Total GULP energy -247956.238923 kJ/mol
# GULP energy per Si atom -12397.811946 kJ/mol
# Density = 2.022128 g / cm^3
# Si number density = 20.267408 Si / 1000 Ang^3
#
#
#
# Elastic Constant Matrix: (Units=GPa)
#
#
# Indices 1 2 3 4 5 6 
#
# 1 119.6704 54.2209 37.7341 0.0000 11.2131 0.0000
# 2 54.2209 137.7370 43.7171 0.0000 4.2591 0.0000
# 3 37.7341 43.7171 87.8157 0.0000 -1.1008 0.0000
# 4 0.0000 0.0000 0.0000 521.7427 0.0000 -265.3868
# 5 11.2131 4.2591 -1.1008 0.0000 44.8685 0.0000
# 6 0.0000 0.0000 0.0000 -265.3868 0.0000 172.3775
#
#
#
# Elastic Compliance Matrix: (Units=1/GPa)
#
#
# Indices 1 2 3 4 5 6 
#
# 1 0.011075 -0.003279 -0.003158 0.000000 -0.002534 0.000000
# 2 -0.003279 0.009632 -0.003388 0.000000 -0.000178 0.000000
# 3 -0.003158 -0.003388 0.014450 0.000000 0.001465 0.000000
# 4 0.000000 0.000000 0.000000 0.008837 0.000000 0.013605
# 5 -0.002534 -0.000178 0.001465 0.000000 0.022973 0.000000
# 6 0.000000 0.000000 0.000000 0.013605 0.000000 0.026747
#
#
# Mechanical properties :
#
#
# Convention : Reuss Voigt Hill
#
# Bulk Modulus (GPa) = 64.49278 68.50747 66.50012
# Shear Modulus (GPa) = 42.18183 161.76782 101.97482
#
# Velocity S-wave (km/s) = 4.56704 8.94371 7.10098
# Velocity P-wave (km/s) = 7.72661 11.85447 10.00572
#
# Compressibility (1/GPa) = 0.01550561
#
# Stress axis : x y z
#
# Youngs Moduli (GPa) = 90.29095 103.82101 69.20511
#
# Poissons Ratio (x) = 0.34043 0.21858
# Poissons Ratio (y) = 0.29607 0.23449
# Poissons Ratio (z) = 0.28517 0.35178
#
# Static dielectric constant tensor:
#      x y z
#    x 3.952270 0.000000 0.028770 
#    y 0.000000 3.599280 0.000000 
#    z 0.028770 0.000000 3.665140 
# 
# 
# High freq. dielectric constant tensor:
#      x y z
#    x 1.805190 0.000000 0.000070 
#    y 0.000000 1.768130 0.000000 
#    z 0.000070 0.000000 1.789200 
# 
# From -- ./inp_files/39034.got.cif
#   From: 2010.06.25/outbox.cif.g09.slc.cpg/sg10_20_cif.got.tgz:39034.got - 2010.06.27 22:07:45.
