data_PCOD8067199
_publ_section_title
;
Structure prediction by ZEFSAII (Michael W. Deem and Ramdas Pophale) SiO2 
 PCOD8067199
Probable space group: P 2/M
;
_chemical_formula_sum "Si O2"
_cell_formula_units_Z 24
_cell_length_a 22.873269
_cell_length_b 8.934725
_cell_length_c 12.154033
_cell_angle_alpha 90.000000
_cell_angle_beta 152.257911
_cell_angle_gamma 90.000000
_cell_volume 1156.225016
_symmetry_space_group_name_H-M "P 2/M"
_symmetry_group_IT_number 10
_symmetry_cell_setting 'monoclinic'
loop_
_space_group_symop_operation_xyz
x,y,z
-x,y,-z
-x,-y,-z
x,-y,z
loop_
_atom_site_type_symbol
_atom_site_label
_atom_site_fract_x
_atom_site_fract_y
_atom_site_fract_z
Si Si1 0.643170 0.175879 0.753585
Si Si2 0.514155 0.326908 0.143463
Si Si3 0.287808 0.322161 0.909915
Si Si4 0.798137 0.672447 0.626055
Si Si5 0.150463 0.829227 0.074571
Si Si6 0.117273 0.172729 0.454332
O O1 0.500000 0.232334 0.500000
O O2 0.722192 0.217178 0.776186
O O3 0.647319 0.000000 0.784845
O O4 0.711869 0.260267 0.966773
O O5 0.478301 0.500000 0.070979
O O6 0.653638 0.303559 0.420829
O O7 0.500000 0.249878 0.000000
O O8 0.413633 0.257712 0.060453
O O9 0.281972 0.500000 0.904410
O O10 0.167282 0.262568 0.642930
O O11 0.830257 0.500000 0.655975
O O12 0.875689 0.729414 0.860695
O O13 0.824145 0.765396 0.560434
O O14 0.159195 0.000000 0.129591
O O15 0.032965 0.806666 0.797353
O O16 0.155680 0.000000 0.529403
#
# Coordination Sequence:
#
# PCOD8067199 Si02
#       6
#     4   4   4   4   4   4
#     4  10  22  42  65  87 115 151 195 242 288 346
#     4   9  17  33  55  82 117 149 179 227 292 344
#     4  11  22  38  62  89 119 152 193 243 291 341
#     4  11  21  36  61  89 118 152 194 244 291 340
#     4  10  23  41  59  82 117 159 195 235 290 349
#     4  11  23  39  58  83 119 159 196 234 288 351
#
# _framework density 20.757207000000001
#
# number of rings (size 3 to 8) (size 9 to 14) (size 15 to 20)
#    0.000    1.667    1.667    3.000    0.000    5.000 
#    0.000    6.667    0.000    0.000    0.000    0.000 
#    0.000    0.000    0.000    0.000    0.000    0.000 
#
# Total GULP energy -297663.379833 kJ/mol
# GULP energy per Si atom -12402.640826 kJ/mol
# Density = 2.070996 g / cm^3
# Si number density = 20.757207 Si / 1000 Ang^3
#
#
#
# Elastic Constant Matrix: (Units=GPa)
#
#
# Indices 1 2 3 4 5 6 
#
# 1 69.4819 36.0425 31.0502 0.0000 -9.0204 0.0000
# 2 36.0425 70.3783 36.2185 0.0000 -8.7467 0.0000
# 3 31.0502 36.2185 98.4574 0.0000 -16.2733 0.0000
# 4 0.0000 0.0000 0.0000 28.6885 0.0000 -2.8168
# 5 -9.0204 -8.7467 -16.2733 0.0000 39.7935 0.0000
# 6 0.0000 0.0000 0.0000 -2.8168 0.0000 26.8510
#
#
#
# Elastic Compliance Matrix: (Units=1/GPa)
#
#
# Indices 1 2 3 4 5 6 
#
# 1 0.020463 -0.008758 -0.002985 0.000000 0.001493 0.000000
# 2 -0.008758 0.021339 -0.004977 0.000000 0.000670 0.000000
# 3 -0.002985 -0.004977 0.013552 0.000000 0.003772 0.000000
# 4 0.000000 0.000000 0.000000 0.035220 0.000000 0.003695
# 5 0.001493 0.000670 0.003772 0.000000 0.027158 0.000000
# 6 0.000000 0.000000 0.000000 0.003695 0.000000 0.037630
#
#
# Mechanical properties :
#
#
# Convention : Reuss Voigt Hill
#
# Bulk Modulus (GPa) = 45.63257 49.43776 47.53516
# Shear Modulus (GPa) = 25.49642 28.06701 26.78172
#
# Velocity S-wave (km/s) = 3.50854 3.68116 3.59588
# Velocity P-wave (km/s) = 6.20039 6.47586 6.33962
#
# Compressibility (1/GPa) = 0.02191417
#
# Stress axis : x y z
#
# Youngs Moduli (GPa) = 48.86871 46.86342 73.78875
#
# Poissons Ratio (x) = 0.41043 0.22025
# Poissons Ratio (y) = 0.42799 0.36724
# Poissons Ratio (z) = 0.14587 0.23324
#
# Static dielectric constant tensor:
#      x y z
#    x 3.715980 0.000000 0.134130 
#    y 0.000000 3.586160 0.000000 
#    z 0.134130 0.000000 3.830050 
# 
# 
# High freq. dielectric constant tensor:
#      x y z
#    x 1.811010 0.000000 0.002690 
#    y 0.000000 1.796480 0.000000 
#    z 0.002690 0.000000 1.823410 
# 
# From -- ./inp_files/56697.got.cif
#   From: 2010.06.25/outbox.cif.g09.slc.cpg/sg10_29_cif.got.tgz:56697.got - 2010.06.27 22:07:45.
