data_PCOD8067454
_publ_section_title
;
Structure prediction by ZEFSAII (Michael W. Deem and Ramdas Pophale) SiO2 
 PCOD8067454
Probable space group: P 2/M
;
_chemical_formula_sum "Si O2"
_cell_formula_units_Z 28
_cell_length_a 11.583010
_cell_length_b 11.790629
_cell_length_c 11.065099
_cell_angle_alpha 90.000000
_cell_angle_beta 94.309462
_cell_angle_gamma 90.000000
_cell_volume 1506.898866
_symmetry_space_group_name_H-M "P 2/M"
_symmetry_group_IT_number 10
_symmetry_cell_setting 'monoclinic'
loop_
_space_group_symop_operation_xyz
x,y,z
-x,y,-z
-x,-y,-z
x,-y,z
loop_
_atom_site_type_symbol
_atom_site_label
_atom_site_fract_x
_atom_site_fract_y
_atom_site_fract_z
Si Si1 0.112530 0.128214 0.340626
Si Si2 0.636838 0.632529 0.007855
Si Si3 0.673659 0.500000 0.609869
Si Si4 0.407783 0.500000 0.646427
Si Si5 0.899534 0.771052 0.418828
Si Si6 0.499962 0.866962 0.358546
Si Si7 0.315985 0.281217 0.743145
Si Si8 0.290629 0.280473 0.244368
O O1 0.163785 0.154752 0.480497
O O2 0.173511 0.207137 0.245139
O O3 0.973104 0.148442 0.332461
O O4 0.140913 0.000000 0.307762
O O5 0.666660 0.500000 0.030345
O O6 0.697307 0.714421 0.112977
O O7 0.500000 0.653312 0.000000
O O8 0.692152 0.672845 0.887670
O O9 0.537484 0.500000 0.614098
O O10 0.689667 0.500000 0.466380
O O11 0.728686 0.386883 0.668302
O O12 0.396536 0.389258 0.726211
O O13 0.807695 0.702118 0.332617
O O14 0.000000 0.696465 0.500000
O O15 0.500000 0.835943 0.500000
O O16 0.620508 0.830374 0.303837
O O17 0.396982 0.798588 0.289344
O O18 0.481908 0.000000 0.335580
#
# Coordination Sequence:
#
# PCOD8067454 Si02
#       8
#     4   4   2   2   4   4   4   4
#     4   9  19  38  65  90 120 157 199 247 302 359
#     4  11  22  40  61  85 119 169 205 240 292 361
#     4  11  20  31  54  87 124 149 187 248 308 371
#     4  11  20  31  57  88 117 151 191 249 309 368
#     4   8  20  38  63  89 118 157 199 249 303 356
#     4  11  23  35  56  90 126 155 189 248 317 368
#     4  12  21  39  60  88 120 155 207 245 299 361
#     4  12  21  37  58  89 123 159 202 242 299 360
#
# _framework density 18.581208
#
# number of rings (size 3 to 8) (size 9 to 14) (size 15 to 20)
#    0.857    0.429    4.286    3.857    0.000    2.286 
#    0.000    3.929    0.000    1.714    0.000    0.000 
#    0.000    0.000    0.000    0.000    0.000    0.000 
#
# Total GULP energy -346934.476192 kJ/mol
# GULP energy per Si atom -12390.517007 kJ/mol
# Density = 1.853892 g / cm^3
# Si number density = 18.581208 Si / 1000 Ang^3
#
#
#
# Elastic Constant Matrix: (Units=GPa)
#
#
# Indices 1 2 3 4 5 6 
#
# 1 56.9979 21.6298 16.5157 0.0000 -0.9059 0.0000
# 2 21.6298 87.1606 21.9900 0.0000 -2.5248 0.0000
# 3 16.5157 21.9900 75.5338 0.0000 -3.7479 0.0000
# 4 0.0000 0.0000 0.0000 27.0144 0.0000 -6.4930
# 5 -0.9059 -2.5248 -3.7479 0.0000 30.1883 0.0000
# 6 0.0000 0.0000 0.0000 -6.4930 0.0000 19.6543
#
#
#
# Elastic Compliance Matrix: (Units=1/GPa)
#
#
# Indices 1 2 3 4 5 6 
#
# 1 0.020048 -0.004178 -0.003174 0.000000 -0.000142 0.000000
# 2 -0.004178 0.013264 -0.002917 0.000000 0.000622 0.000000
# 3 -0.003174 -0.002917 0.014857 0.000000 0.001505 0.000000
# 4 0.000000 0.000000 0.000000 0.040210 0.000000 0.013284
# 5 -0.000142 0.000622 0.001505 0.000000 0.033360 0.000000
# 6 0.000000 0.000000 0.000000 0.013284 0.000000 0.055268
#
#
# Mechanical properties :
#
#
# Convention : Reuss Voigt Hill
#
# Bulk Modulus (GPa) = 36.19298 37.77369 36.98334
# Shear Modulus (GPa) = 24.18316 26.00852 25.09584
#
# Velocity S-wave (km/s) = 3.61152 3.74534 3.67904
# Velocity P-wave (km/s) = 6.07547 6.25113 6.16392
#
# Compressibility (1/GPa) = 0.02762967
#
# Stress axis : x y z
#
# Youngs Moduli (GPa) = 49.88135 75.39242 67.30811
#
# Poissons Ratio (x) = 0.31501 0.21364
# Poissons Ratio (y) = 0.20842 0.19634
# Poissons Ratio (z) = 0.15833 0.21992
#
# Static dielectric constant tensor:
#      x y z
#    x 3.262680 0.000000 -0.093860 
#    y 0.000000 3.320600 0.000000 
#    z -0.093860 0.000000 3.541650 
# 
# 
# High freq. dielectric constant tensor:
#      x y z
#    x 1.703240 0.000000 -0.011180 
#    y 0.000000 1.711050 0.000000 
#    z -0.011180 0.000000 1.712510 
# 
# From -- ./inp_files/46111.got.cif
#   From: 2010.06.25/outbox.cif.g09.slc.cpg/sg10_24_cif.got.tgz:46111.got - 2010.06.27 22:07:45.
