data_PCOD8067202
_publ_section_title
;
Structure prediction by ZEFSAII (Michael W. Deem and Ramdas Pophale) SiO2 
 PCOD8067202
Probable space group: P 2/M
;
_chemical_formula_sum "Si O2"
_cell_formula_units_Z 22
_cell_length_a 10.799869
_cell_length_b 15.117566
_cell_length_c 10.785952
_cell_angle_alpha 90.000000
_cell_angle_beta 41.145534
_cell_angle_gamma 90.000000
_cell_volume 1158.690688
_symmetry_space_group_name_H-M "P 2/M"
_symmetry_group_IT_number 10
_symmetry_cell_setting 'monoclinic'
loop_
_space_group_symop_operation_xyz
x,y,z
-x,y,-z
-x,-y,-z
x,-y,z
loop_
_atom_site_type_symbol
_atom_site_label
_atom_site_fract_x
_atom_site_fract_y
_atom_site_fract_z
Si Si1 0.668280 0.317526 0.966991
Si Si2 0.257650 0.500000 0.422777
Si Si3 0.500000 0.195188 0.500000
Si Si4 0.372984 0.690388 0.380342
Si Si5 0.983626 0.202329 0.377185
Si Si6 0.127884 0.895728 0.790720
Si Si7 0.173638 0.500000 0.200095
O O1 0.762599 0.412707 0.921785
O O2 0.819405 0.247482 0.805884
O O3 0.500000 0.333105 0.000000
O O4 0.564566 0.279842 0.166602
O O5 0.367856 0.584584 0.392314
O O6 0.261928 0.500000 0.270816
O O7 0.049196 0.500000 0.631650
O O8 0.613114 0.261694 0.500781
O O9 0.661724 0.130942 0.325734
O O10 0.175100 0.723526 0.471856
O O11 0.927633 0.139452 0.304894
O O12 0.000000 0.152202 0.500000
O O13 0.110117 0.000000 0.794435
O O14 0.000000 0.858835 0.000000
#
# Coordination Sequence:
#
# PCOD8067202 Si02
#       7
#     4   2   2   4   4   4   2
#     4  12  20  32  55  83 112 152 192 227 276 328
#     4  11  19  33  52  76 117 152 189 234 277 324
#     4  10  23  41  62  84 108 148 194 229 275 344
#     4  11  22  36  56  80 115 155 190 235 279 325
#     4  11  21  36  57  89 120 144 184 240 289 333
#     4  10  22  42  66  86 112 148 186 230 284 352
#     4  11  20  31  51  81 113 151 195 229 274 331
#
# _framework density 18.986948999999999
#
# number of rings (size 3 to 8) (size 9 to 14) (size 15 to 20)
#    0.000    1.091    5.455    2.182    0.000    0.727 
#    0.000    0.000    0.000    1.636    0.000    0.000 
#    0.000    0.000    0.000    0.000    0.000    0.000 
#
# Total GULP energy -272618.987597 kJ/mol
# GULP energy per Si atom -12391.772163 kJ/mol
# Density = 1.894373 g / cm^3
# Si number density = 18.986949 Si / 1000 Ang^3
#
#
#
# Elastic Constant Matrix: (Units=GPa)
#
#
# Indices 1 2 3 4 5 6 
#
# 1 68.6548 25.1761 35.4640 0.0000 -2.9240 0.0000
# 2 25.1761 65.3256 42.4850 0.0000 1.2565 0.0000
# 3 35.4640 42.4850 132.4832 0.0000 -17.9330 0.0000
# 4 0.0000 0.0000 0.0000 17.7034 0.0000 7.6246
# 5 -2.9240 1.2565 -17.9330 0.0000 29.8469 0.0000
# 6 0.0000 0.0000 0.0000 7.6246 0.0000 12.6272
#
#
#
# Elastic Compliance Matrix: (Units=1/GPa)
#
#
# Indices 1 2 3 4 5 6 
#
# 1 0.018026 -0.004812 -0.003283 0.000000 -0.000004 0.000000
# 2 -0.004812 0.021320 -0.006242 0.000000 -0.005119 0.000000
# 3 -0.003283 -0.006242 0.011343 0.000000 0.006756 0.000000
# 4 0.000000 0.000000 0.000000 0.076338 0.000000 -0.046094
# 5 -0.000004 -0.005119 0.006756 0.000000 0.037779 0.000000
# 6 0.000000 0.000000 0.000000 -0.046094 0.000000 0.107027
#
#
# Mechanical properties :
#
#
# Convention : Reuss Voigt Hill
#
# Bulk Modulus (GPa) = 45.42145 52.52377 48.97261
# Shear Modulus (GPa) = 16.24195 22.92475 19.58335
#
# Velocity S-wave (km/s) = 2.92794 3.47853 3.21504
# Velocity P-wave (km/s) = 5.95020 6.62244 6.29530
#
# Compressibility (1/GPa) = 0.02201603
#
# Stress axis : x y z
#
# Youngs Moduli (GPa) = 55.47624 46.90345 88.15969
#
# Poissons Ratio (x) = 0.22570 0.28939
# Poissons Ratio (y) = 0.26696 0.55028
# Poissons Ratio (z) = 0.18211 0.29277
#
# Static dielectric constant tensor:
#      x y z
#    x 3.466350 0.000000 -0.280970 
#    y 0.000000 3.305390 0.000000 
#    z -0.280970 0.000000 4.627900 
# 
# 
# High freq. dielectric constant tensor:
#      x y z
#    x 1.723590 0.000000 -0.016150 
#    y 0.000000 1.723110 0.000000 
#    z -0.016150 0.000000 1.761630 
# 
# From -- ./inp_files/47308.got.cif
#   From: 2010.06.25/outbox.cif.g09.slc.cpg/sg10_24_cif.got.tgz:47308.got - 2010.06.27 22:07:45.
