data_PCOD8067603
_publ_section_title
;
Structure prediction by ZEFSAII (Michael W. Deem and Ramdas Pophale) SiO2 
 PCOD8067603
Probable space group: P 2/M
;
_chemical_formula_sum "Si O2"
_cell_formula_units_Z 24
_cell_length_a 21.128442
_cell_length_b 8.433445
_cell_length_c 10.180314
_cell_angle_alpha 90.000000
_cell_angle_beta 41.149700
_cell_angle_gamma 90.000000
_cell_volume 1193.654045
_symmetry_space_group_name_H-M "P 2/M"
_symmetry_group_IT_number 10
_symmetry_cell_setting 'monoclinic'
loop_
_space_group_symop_operation_xyz
x,y,z
-x,y,-z
-x,-y,-z
x,-y,z
loop_
_atom_site_type_symbol
_atom_site_label
_atom_site_fract_x
_atom_site_fract_y
_atom_site_fract_z
Si Si1 0.298915 0.183381 0.822224
Si Si2 0.588600 0.816052 0.096797
Si Si3 0.908142 0.813909 0.480326
Si Si4 0.384260 0.682210 0.432502
Si Si5 0.108621 0.315573 0.208386
Si Si6 0.279516 0.684172 0.330750
O O1 0.364270 0.242496 0.840852
O O2 0.356940 0.209308 0.598112
O O3 0.273103 0.000000 0.879571
O O4 0.199786 0.282104 0.973361
O O5 0.493243 0.715197 0.218850
O O6 0.560898 0.000000 0.147537
O O7 0.662266 0.789001 0.863759
O O8 0.878650 0.781424 0.676871
O O9 0.832415 0.730409 0.501951
O O10 0.012514 0.741302 0.284335
O O11 0.909153 0.000000 0.452364
O O12 0.372796 0.500000 0.491140
O O13 0.314692 0.726020 0.421255
O O14 0.100657 0.500000 0.255081
O O15 0.295216 0.500000 0.272960
#
# Coordination Sequence:
#
# PCOD8067603 Si02
#       6
#     4   4   4   4   4   4
#     4  11  23  40  61  89 122 157 200 248 296 353
#     4  11  23  39  62  89 118 156 203 251 297 351
#     4  11  21  36  60  90 121 153 195 246 295 350
#     4  11  25  41  59  86 122 161 201 247 299 355
#     4  11  21  36  61  90 120 155 195 243 295 350
#     4  11  23  40  61  88 121 158 201 248 297 353
#
# _framework density 20.106328999999999
#
# number of rings (size 3 to 8) (size 9 to 14) (size 15 to 20)
#    0.000    1.000    1.667    7.000    0.000    8.667 
#    0.000    0.833    0.000    5.000    0.000    0.000 
#    0.000    0.000    0.000    0.000    0.000    0.000 
#
# Total GULP energy -297802.572834 kJ/mol
# GULP energy per Si atom -12408.440535 kJ/mol
# Density = 2.006057 g / cm^3
# Si number density = 20.106329 Si / 1000 Ang^3
#
#
#
# Elastic Constant Matrix: (Units=GPa)
#
#
# Indices 1 2 3 4 5 6 
#
# 1 139.0986 45.0307 33.1082 0.0000 -14.6733 0.0000
# 2 45.0307 65.5550 26.0373 0.0000 3.0780 0.0000
# 3 33.1082 26.0373 41.9614 0.0000 -4.4597 0.0000
# 4 0.0000 0.0000 0.0000 30.3987 0.0000 -8.3166
# 5 -14.6733 3.0780 -4.4597 0.0000 33.3168 0.0000
# 6 0.0000 0.0000 0.0000 -8.3166 0.0000 26.7926
#
#
#
# Elastic Compliance Matrix: (Units=1/GPa)
#
#
# Indices 1 2 3 4 5 6 
#
# 1 0.010560 -0.005781 -0.004255 0.000000 0.004615 0.000000
# 2 -0.005781 0.023843 -0.010894 0.000000 -0.006207 0.000000
# 3 -0.004255 -0.010894 0.034344 0.000000 0.003730 0.000000
# 4 0.000000 0.000000 0.000000 0.035949 0.000000 0.011159
# 5 0.004615 -0.006207 0.003730 0.000000 0.033120 0.000000
# 6 0.000000 0.000000 0.000000 0.011159 0.000000 0.040787
#
#
# Mechanical properties :
#
#
# Convention : Reuss Voigt Hill
#
# Bulk Modulus (GPa) = 37.18852 50.55194 43.87023
# Shear Modulus (GPa) = 21.79356 27.59755 24.69556
#
# Velocity S-wave (km/s) = 3.29586 3.70885 3.50844
# Velocity P-wave (km/s) = 5.74627 6.59831 6.18698
#
# Compressibility (1/GPa) = 0.02689002
#
# Stress axis : x y z
#
# Youngs Moduli (GPa) = 94.69609 41.94026 29.11696
#
# Poissons Ratio (x) = 0.24245 0.12388
# Poissons Ratio (y) = 0.54741 0.31719
# Poissons Ratio (z) = 0.40289 0.45688
#
# Static dielectric constant tensor:
#      x y z
#    x 3.848130 0.000000 -0.182880 
#    y 0.000000 3.626510 0.000000 
#    z -0.182880 0.000000 3.385600 
# 
# 
# High freq. dielectric constant tensor:
#      x y z
#    x 1.792550 0.000000 -0.018250 
#    y 0.000000 1.797630 0.000000 
#    z -0.018250 0.000000 1.769280 
# 
# From -- ./inp_files/33785.got.cif
#   From: 2010.06.25/outbox.cif.g09.slc.cpg/sg10_17_cif.got.tgz:33785.got - 2010.06.27 22:07:45.
