data_PCOD8067588
_publ_section_title
;
Structure prediction by ZEFSAII (Michael W. Deem and Ramdas Pophale) SiO2 
 PCOD8067588
Probable space group: P 2/M
;
_chemical_formula_sum "Si O2"
_cell_formula_units_Z 28
_cell_length_a 21.184280
_cell_length_b 8.716789
_cell_length_c 27.484413
_cell_angle_alpha 90.000000
_cell_angle_beta 162.628549
_cell_angle_gamma 90.000000
_cell_volume 1515.290892
_symmetry_space_group_name_H-M "P 2/M"
_symmetry_group_IT_number 10
_symmetry_cell_setting 'monoclinic'
loop_
_space_group_symop_operation_xyz
x,y,z
-x,y,-z
-x,-y,-z
x,-y,z
loop_
_atom_site_type_symbol
_atom_site_label
_atom_site_fract_x
_atom_site_fract_y
_atom_site_fract_z
Si Si1 0.753678 0.330882 0.829070
Si Si2 0.822029 0.681869 0.261709
Si Si3 0.316320 0.682410 0.328477
Si Si4 0.605702 0.679392 0.007130
Si Si5 0.151473 0.822316 0.566694
Si Si6 0.599987 0.321171 0.895939
Si Si7 0.137825 0.178173 0.995651
O O1 0.661907 0.500000 0.773712
O O2 0.641870 0.265432 0.697292
O O3 0.727229 0.224464 0.856912
O O4 0.000000 0.344329 0.000000
O O5 0.860747 0.500000 0.296907
O O6 0.625610 0.746178 0.149572
O O7 0.027327 0.779165 0.426428
O O8 0.780765 0.727519 0.175180
O O9 0.500000 0.745372 0.500000
O O10 0.309658 0.500000 0.325458
O O11 0.087360 0.740026 0.176917
O O12 0.569389 0.500000 0.984061
O O13 0.686409 0.726209 0.012997
O O14 0.352708 0.713114 0.715103
O O15 0.000000 0.779500 0.500000
O O16 0.219285 0.000000 0.616696
O O17 0.638382 0.500000 0.912422
O O18 0.719721 0.216670 0.945648
O O19 0.091899 0.000000 0.964831
#
# Coordination Sequence:
#
# PCOD8067588 Si02
#       7
#     4   4   4   4   4   4   4
#     4   8  15  31  55  80 106 139 179 214 249 302
#     4   9  16  32  54  76  98 126 173 222 266 316
#     4   9  18  35  60  87 111 139 179 221 255 303
#     4   8  16  30  53  78  98 126 172 225 265 310
#     4  11  22  34  49  76 109 137 171 219 270 320
#     4  11  21  36  57  77 101 140 184 224 269 317
#     4  11  22  35  52  79 114 146 176 216 268 320
#
# _framework density 18.478299
#
# number of rings (size 3 to 8) (size 9 to 14) (size 15 to 20)
#    0.000    2.429    1.429    3.857    0.000    3.429 
#    0.000    4.286    0.000    3.429    0.000    0.000 
#    0.000    0.000    0.000    0.000    0.000    0.000 
#
# Total GULP energy -347016.907563 kJ/mol
# GULP energy per Si atom -12393.460984 kJ/mol
# Density = 1.843624 g / cm^3
# Si number density = 18.478299 Si / 1000 Ang^3
#
#
#
# Elastic Constant Matrix: (Units=GPa)
#
#
# Indices 1 2 3 4 5 6 
#
# 1 112.8765 22.0653 45.0101 0.0000 -18.0894 0.0000
# 2 22.0653 31.6514 13.4990 0.0000 -6.1233 0.0000
# 3 45.0101 13.4990 87.6816 0.0000 -25.1072 0.0000
# 4 0.0000 0.0000 0.0000 7.2047 0.0000 4.3187
# 5 -18.0894 -6.1233 -25.1072 0.0000 29.9917 0.0000
# 6 0.0000 0.0000 0.0000 4.3187 0.0000 18.5690
#
#
#
# Elastic Compliance Matrix: (Units=1/GPa)
#
#
# Indices 1 2 3 4 5 6 
#
# 1 0.012300 -0.006127 -0.004741 0.000000 0.002199 0.000000
# 2 -0.006127 0.037124 -0.001918 0.000000 0.002279 0.000000
# 3 -0.004741 -0.001918 0.017366 0.000000 0.011286 0.000000
# 4 0.000000 0.000000 0.000000 0.161282 0.000000 -0.037510
# 5 0.002199 0.002279 0.011286 0.000000 0.044582 0.000000
# 6 0.000000 0.000000 0.000000 -0.037510 0.000000 0.062577
#
#
# Mechanical properties :
#
#
# Convention : Reuss Voigt Hill
#
# Bulk Modulus (GPa) = 24.26125 43.70647 33.98386
# Shear Modulus (GPa) = 13.34962 21.26209 17.30586
#
# Velocity S-wave (km/s) = 2.69076 3.39581 3.06363
# Velocity P-wave (km/s) = 4.77615 6.25136 5.56288
#
# Compressibility (1/GPa) = 0.04121799
#
# Stress axis : x y z
#
# Youngs Moduli (GPa) = 81.30142 26.93643 57.58475
#
# Poissons Ratio (x) = 0.16505 0.27301
# Poissons Ratio (y) = 0.49816 0.11043
# Poissons Ratio (z) = 0.38546 0.05166
#
# Static dielectric constant tensor:
#      x y z
#    x 98.624360 0.000000 -35.615310 
#    y 0.000000 3.166280 0.000000 
#    z -35.615310 0.000000 16.447470 
# 
# 
# High freq. dielectric constant tensor:
#      x y z
#    x 1.713930 0.000000 -0.027300 
#    y 0.000000 1.698270 0.000000 
#    z -0.027300 0.000000 1.702010 
# 
# From -- ./inp_files/93553.got.cif
#   From: 2010.06.25/outbox.cif.g09.slc.cpg/sg10_47_cif.got.tgz:93553.got - 2010.06.27 22:07:45.
