data_PCOD8067679
_publ_section_title
;
Structure prediction by ZEFSAII (Michael W. Deem and Ramdas Pophale) SiO2 
 PCOD8067679
Probable space group: P 2/M
;
_chemical_formula_sum "Si O2"
_cell_formula_units_Z 32
_cell_length_a 11.359625
_cell_length_b 9.019261
_cell_length_c 27.373394
_cell_angle_alpha 90.000000
_cell_angle_beta 36.442955
_cell_angle_gamma 90.000000
_cell_volume 1665.966408
_symmetry_space_group_name_H-M "P 2/M"
_symmetry_group_IT_number 10
_symmetry_cell_setting 'monoclinic'
loop_
_space_group_symop_operation_xyz
x,y,z
-x,y,-z
-x,-y,-z
x,-y,z
loop_
_atom_site_type_symbol
_atom_site_label
_atom_site_fract_x
_atom_site_fract_y
_atom_site_fract_z
Si Si1 0.055768 0.676301 0.757420
Si Si2 0.309898 0.826943 0.376021
Si Si3 0.818978 0.175547 0.095337
Si Si4 0.287323 0.324216 0.773626
Si Si5 0.377471 0.673799 0.084758
Si Si6 0.547651 0.672412 0.831688
Si Si7 0.909541 0.828158 0.455485
Si Si8 0.002514 0.325657 0.668623
O O1 0.044569 0.500000 0.761282
O O2 0.212233 0.731884 0.745501
O O3 0.103354 0.728927 0.686013
O O4 0.841637 0.743592 0.842693
O O5 0.486771 0.727228 0.296752
O O6 0.263830 0.789065 0.448133
O O7 0.120381 0.782266 0.407506
O O8 0.362176 0.000000 0.352627
O O9 0.846633 0.250894 0.139214
O O10 0.608121 0.227392 0.144835
O O11 0.816381 0.000000 0.102494
O O12 0.000000 0.226397 0.000000
O O13 0.272757 0.500000 0.783951
O O14 0.356624 0.500000 0.082239
O O15 0.487225 0.702458 0.099298
O O16 0.500000 0.749703 0.000000
O O17 0.512000 0.500000 0.830560
O O18 0.771156 0.721511 0.743306
O O19 0.872695 0.743013 0.417328
O O20 0.907916 0.000000 0.444044
O O21 0.018195 0.500000 0.659260
#
# Coordination Sequence:
#
# PCOD8067679 Si02
#       8
#     4   4   4   4   4   4   4   4
#     4   8  17  32  48  74 107 137 169 211 265 317
#     4   9  19  36  55  78 110 143 173 213 264 312
#     4  11  25  40  52  71 105 145 176 210 263 315
#     4  11  22  36  57  80 105 137 177 217 259 315
#     4   8  14  26  49  77 101 127 164 214 266 304
#     4   9  18  32  53  80 103 128 172 218 259 309
#     4   9  18  33  55  80 105 139 181 216 254 310
#     4   9  17  32  53  79 109 136 167 217 270 309
#
# _framework density 19.208071
#
# number of rings (size 3 to 8) (size 9 to 14) (size 15 to 20)
#    0.000    2.750    0.000    3.750    1.750    4.500 
#    0.000    3.125    0.000    5.625    0.000    0.000 
#    0.000    0.000    0.000    0.000    0.000    0.000 
#
# Total GULP energy -396664.986248 kJ/mol
# GULP energy per Si atom -12395.780820 kJ/mol
# Density = 1.916435 g / cm^3
# Si number density = 19.208071 Si / 1000 Ang^3
#
#
#
# Elastic Constant Matrix: (Units=GPa)
#
#
# Indices 1 2 3 4 5 6 
#
# 1 88.5132 29.5960 33.3563 0.0000 17.9172 0.0000
# 2 29.5960 45.9682 29.3483 0.0000 6.4907 0.0000
# 3 33.3563 29.3483 82.0566 0.0000 23.8496 0.0000
# 4 0.0000 0.0000 0.0000 24.6970 0.0000 12.1546
# 5 17.9172 6.4907 23.8496 0.0000 34.6144 0.0000
# 6 0.0000 0.0000 0.0000 12.1546 0.0000 9.1042
#
#
#
# Elastic Compliance Matrix: (Units=1/GPa)
#
#
# Indices 1 2 3 4 5 6 
#
# 1 0.015858 -0.008203 -0.001968 0.000000 -0.005314 0.000000
# 2 -0.008203 0.032555 -0.009714 0.000000 0.004835 0.000000
# 3 -0.001968 -0.009714 0.019551 0.000000 -0.010630 0.000000
# 4 0.000000 0.000000 0.000000 0.118064 0.000000 -0.157621
# 5 -0.005314 0.004835 -0.010630 0.000000 0.038059 0.000000
# 6 0.000000 0.000000 0.000000 -0.157621 0.000000 0.320271
#
#
# Mechanical properties :
#
#
# Convention : Reuss Voigt Hill
#
# Bulk Modulus (GPa) = 35.46929 44.57103 40.02016
# Shear Modulus (GPa) = 8.42424 21.96560 15.19492
#
# Velocity S-wave (km/s) = 2.09650 3.38533 2.81565
# Velocity P-wave (km/s) = 4.93623 6.20768 5.60810
#
# Compressibility (1/GPa) = 0.02819340
#
# Stress axis : x y z
#
# Youngs Moduli (GPa) = 63.05976 30.71723 51.14909
#
# Poissons Ratio (x) = 0.25198 0.10065
# Poissons Ratio (y) = 0.51730 0.49687
# Poissons Ratio (z) = 0.12408 0.29839
#
# Static dielectric constant tensor:
#      x y z
#    x 3.724870 0.000000 0.279510 
#    y 0.000000 3.115750 0.000000 
#    z 0.279510 0.000000 3.690600 
# 
# 
# High freq. dielectric constant tensor:
#      x y z
#    x 1.750650 0.000000 0.019970 
#    y 0.000000 1.713090 0.000000 
#    z 0.019970 0.000000 1.744880 
# 
# From -- ./inp_files/94927.got.cif
#   From: 2010.06.25/outbox.cif.g09.slc.cpg/sg10_48_cif.got.tgz:94927.got - 2010.06.27 22:07:45.
