data_PCOD8067356
_publ_section_title
;
Structure prediction by ZEFSAII (Michael W. Deem and Ramdas Pophale) SiO2 
 PCOD8067356
Probable space group: P 2/M
;
_chemical_formula_sum "Si O2"
_cell_formula_units_Z 20
_cell_length_a 11.889573
_cell_length_b 8.652108
_cell_length_c 9.522726
_cell_angle_alpha 90.000000
_cell_angle_beta 76.486533
_cell_angle_gamma 90.000000
_cell_volume 952.481336
_symmetry_space_group_name_H-M "P 2/M"
_symmetry_group_IT_number 10
_symmetry_cell_setting 'monoclinic'
loop_
_space_group_symop_operation_xyz
x,y,z
-x,y,-z
-x,-y,-z
x,-y,z
loop_
_atom_site_type_symbol
_atom_site_label
_atom_site_fract_x
_atom_site_fract_y
_atom_site_fract_z
Si Si1 0.905220 0.676262 0.145243
Si Si2 0.955607 0.178546 0.664786
Si Si3 0.678465 0.179428 0.090284
Si Si4 0.288482 0.319500 0.210090
Si Si5 0.534035 0.819883 0.645026
O O1 0.902501 0.500000 0.198049
O O2 0.781498 0.719622 0.121199
O O3 0.936826 0.787320 0.264829
O O4 0.000000 0.703204 0.000000
O O5 0.846943 0.282417 0.739594
O O6 0.000000 0.225983 0.500000
O O7 0.918997 0.000000 0.684097
O O8 0.567366 0.215715 0.216226
O O9 0.711978 0.000000 0.085942
O O10 0.653938 0.228422 0.937100
O O11 0.303831 0.500000 0.179023
O O12 0.352010 0.269269 0.335147
O O13 0.500000 0.758670 0.500000
O O14 0.564784 0.000000 0.628361
#
# Coordination Sequence:
#
# PCOD8067356 Si02
#       5
#     4   4   4   4   4
#     4  11  23  40  64  97 132 165 205 257 318 377
#     4  11  25  43  66  94 127 169 214 258 310 375
#     4  11  23  41  68  95 124 169 217 261 310 371
#     4  12  25  42  65  95 129 167 210 260 320 377
#     4  10  24  45  67  93 125 164 213 265 315 374
#
# _framework density 20.997786999999999
#
# number of rings (size 3 to 8) (size 9 to 14) (size 15 to 20)
#    0.000    1.000    2.000    4.200    2.800    6.800 
#    0.000    0.000    0.000    0.000    0.000    0.000 
#    0.000    0.000    0.000    0.000    0.000    0.000 
#
# Total GULP energy -248156.569231 kJ/mol
# GULP energy per Si atom -12407.828462 kJ/mol
# Density = 2.094999 g / cm^3
# Si number density = 20.997787 Si / 1000 Ang^3
#
#
#
# Elastic Constant Matrix: (Units=GPa)
#
#
# Indices 1 2 3 4 5 6 
#
# 1 70.0050 9.3347 26.7745 0.0000 19.5715 0.0000
# 2 9.3347 56.3872 37.5905 0.0000 -5.2244 0.0000
# 3 26.7745 37.5905 121.7454 0.0000 15.0925 0.0000
# 4 0.0000 0.0000 0.0000 21.3856 0.0000 25.2013
# 5 19.5715 -5.2244 15.0925 0.0000 35.2264 0.0000
# 6 0.0000 0.0000 0.0000 25.2013 0.0000 50.2199
#
#
#
# Elastic Compliance Matrix: (Units=1/GPa)
#
#
# Indices 1 2 3 4 5 6 
#
# 1 0.018060 -0.002539 -0.002004 0.000000 -0.009552 0.000000
# 2 -0.002539 0.024251 -0.007974 0.000000 0.008424 0.000000
# 3 -0.002004 -0.007974 0.011749 0.000000 -0.005103 0.000000
# 4 0.000000 0.000000 0.000000 0.114428 0.000000 -0.057422
# 5 -0.009552 0.008424 -0.005103 0.000000 0.037131 0.000000
# 6 0.000000 0.000000 0.000000 -0.057422 0.000000 0.048728
#
#
# Mechanical properties :
#
#
# Convention : Reuss Voigt Hill
#
# Bulk Modulus (GPa) = 34.45021 43.94854 39.19937
# Shear Modulus (GPa) = 17.29777 32.99559 25.14668
#
# Velocity S-wave (km/s) = 2.87329 3.96837 3.46437
# Velocity P-wave (km/s) = 5.23927 6.47864 5.89163
#
# Compressibility (1/GPa) = 0.02902740
#
# Stress axis : x y z
#
# Youngs Moduli (GPa) = 55.37058 41.23559 85.11286
#
# Poissons Ratio (x) = 0.10470 0.17054
# Poissons Ratio (y) = 0.14059 0.67866
# Poissons Ratio (z) = 0.11095 0.32880
#
# Static dielectric constant tensor:
#      x y z
#    x 13.840350 0.000000 0.971020 
#    y 0.000000 3.715390 0.000000 
#    z 0.971020 0.000000 4.032830 
# 
# 
# High freq. dielectric constant tensor:
#      x y z
#    x 1.830210 0.000000 0.008910 
#    y 0.000000 1.824440 0.000000 
#    z 0.008910 0.000000 1.831920 
# 
# From -- ./inp_files/22099.got.cif
#   From: 2010.06.25/outbox.cif.g09.slc.cpg/sg10_12_cif.got.tgz:22099.got - 2010.06.27 22:07:45.
