data_PCOD8067001
_publ_section_title
;
Structure prediction by ZEFSAII (Michael W. Deem and Ramdas Pophale) SiO2 
 PCOD8067001
Probable space group: P 2/M
;
_chemical_formula_sum "Si O2"
_cell_formula_units_Z 28
_cell_length_a 9.498906
_cell_length_b 14.016357
_cell_length_c 11.668691
_cell_angle_alpha 90.000000
_cell_angle_beta 124.647043
_cell_angle_gamma 90.000000
_cell_volume 1278.075372
_symmetry_space_group_name_H-M "P 2/M"
_symmetry_group_IT_number 10
_symmetry_cell_setting 'monoclinic'
loop_
_space_group_symop_operation_xyz
x,y,z
-x,y,-z
-x,-y,-z
x,-y,z
loop_
_atom_site_type_symbol
_atom_site_label
_atom_site_fract_x
_atom_site_fract_y
_atom_site_fract_z
Si Si1 0.348500 0.608731 0.007329
Si Si2 0.316124 0.214810 0.402797
Si Si3 0.999960 0.113085 0.369370
Si Si4 0.755359 0.612632 0.486869
Si Si5 0.798945 0.241524 0.907275
Si Si6 0.869105 0.608389 0.305119
Si Si7 0.695106 0.112785 0.064652
O O1 0.389876 0.500000 0.060883
O O2 0.185119 0.621209 0.850370
O O3 0.500000 0.651909 0.000000
O O4 0.308281 0.665622 0.103163
O O5 0.500000 0.162124 0.500000
O O6 0.351818 0.318419 0.480084
O O7 0.267064 0.221137 0.248404
O O8 0.172875 0.150769 0.394385
O O9 0.826899 0.150916 0.224353
O O10 0.000000 0.148707 0.500000
O O11 0.002281 0.000000 0.362139
O O12 0.723936 0.500000 0.502654
O O13 0.727090 0.636498 0.337253
O O14 0.946429 0.656070 0.598372
O O15 0.755882 0.154170 0.971405
O O16 0.000000 0.263305 0.000000
O O17 0.908661 0.500000 0.353945
O O18 0.705805 0.000000 0.059090
O O19 0.500000 0.145576 0.000000
#
# Coordination Sequence:
#
# PCOD8067001 Si02
#       7
#     4   4   4   4   4   4   4
#     4  10  22  38  61  90 124 167 220 272 318 375
#     4  12  28  41  60 100 136 176 214 260 331 387
#     4  10  24  47  73  99 128 167 215 266 321 387
#     4   9  19  37  60  86 122 166 216 264 311 371
#     4  12  25  43  63  93 135 175 215 261 328 396
#     4   8  16  33  59  86 108 154 216 265 312 358
#     4  10  23  45  74 101 125 164 217 270 323 386
#
# _framework density 21.907941000000001
#
# number of rings (size 3 to 8) (size 9 to 14) (size 15 to 20)
#    0.000    1.857    1.429    2.143    6.000    2.286 
#    0.000    0.000    0.000    0.000    0.000    0.000 
#    0.000    0.000    0.000    0.000    0.000    0.000 
#
# Total GULP energy -346962.606164 kJ/mol
# GULP energy per Si atom -12391.521649 kJ/mol
# Density = 2.185808 g / cm^3
# Si number density = 21.907941 Si / 1000 Ang^3
#
#
#
# Elastic Constant Matrix: (Units=GPa)
#
#
# Indices 1 2 3 4 5 6 
#
# 1 151.7456 28.1810 58.4179 0.0000 1.8249 0.0000
# 2 28.1810 29.6667 10.6511 0.0000 -4.1369 0.0000
# 3 58.4179 10.6511 113.5350 0.0000 -15.6688 0.0000
# 4 0.0000 0.0000 0.0000 8.5028 0.0000 -76.3544
# 5 1.8249 -4.1369 -15.6688 0.0000 45.4079 0.0000
# 6 0.0000 0.0000 0.0000 -76.3544 0.0000-1048.9787
#
#
#
# Elastic Compliance Matrix: (Units=1/GPa)
#
#
# Indices 1 2 3 4 5 6 
#
# 1 0.009964 -0.008149 -0.004746 0.000000 -0.002781 0.000000
# 2 -0.008149 0.041748 0.000889 0.000000 0.004438 0.000000
# 3 -0.004746 0.000889 0.011764 0.000000 0.004331 0.000000
# 4 0.000000 0.000000 0.000000 0.071121 0.000000 -0.005177
# 5 -0.002781 0.004438 0.004331 0.000000 0.024033 0.000000
# 6 0.000000 0.000000 0.000000 -0.005177 0.000000 -0.000576
#
#
# Mechanical properties :
#
#
# Convention : Reuss Voigt Hill
#
# Bulk Modulus (GPa) = 25.33943 54.38303 39.86123
# Shear Modulus (GPa) = 25.61212 -185.83377 -80.11082
#
# Velocity S-wave (km/s) = 3.42289 -9.22003 -6.05363
# Velocity P-wave (km/s) = 5.21661 9.40574 5.53421
#
# Compressibility (1/GPa) = 0.03946419
#
# Stress axis : x y z
#
# Youngs Moduli (GPa) = 100.36330 23.95319 85.00340
#
# Poissons Ratio (x) = 0.19518 0.40343
# Poissons Ratio (y) = 0.81782 -0.07554
# Poissons Ratio (z) = 0.47633 -0.02129
#
# Static dielectric constant tensor:
#      x y z
#    x 3.926910 0.000000 0.038800 
#    y 0.000000 3.868080 0.000000 
#    z 0.038800 0.000000 4.256400 
# 
# 
# High freq. dielectric constant tensor:
#      x y z
#    x 1.864350 0.000000 0.001250 
#    y 0.000000 1.856020 0.000000 
#    z 0.001250 0.000000 1.871180 
# 
# From -- ./inp_files/42814.got.cif
#   From: 2010.06.25/outbox.cif.g09.slc.cpg/sg10_22_cif.got.tgz:42814.got - 2010.06.27 22:07:45.
