data_PCOD8067387
_publ_section_title
;
Structure prediction by ZEFSAII (Michael W. Deem and Ramdas Pophale) SiO2 
 PCOD8067387
Probable space group: P 2/M
;
_chemical_formula_sum "Si O2"
_cell_formula_units_Z 24
_cell_length_a 12.302477
_cell_length_b 8.804883
_cell_length_c 26.202205
_cell_angle_alpha 90.000000
_cell_angle_beta 150.741574
_cell_angle_gamma 90.000000
_cell_volume 1387.204085
_symmetry_space_group_name_H-M "P 2/M"
_symmetry_group_IT_number 10
_symmetry_cell_setting 'monoclinic'
loop_
_space_group_symop_operation_xyz
x,y,z
-x,y,-z
-x,-y,-z
x,-y,z
loop_
_atom_site_type_symbol
_atom_site_label
_atom_site_fract_x
_atom_site_fract_y
_atom_site_fract_z
Si Si1 0.892125 0.828467 0.684206
Si Si2 0.129118 0.319540 0.127634
Si Si3 0.651598 0.679804 0.679396
Si Si4 0.210420 0.828301 0.468086
Si Si5 0.197931 0.680477 0.736305
Si Si6 0.325638 0.680504 0.103397
O O1 0.788526 0.729484 0.686301
O O2 0.728687 0.828764 0.567686
O O3 0.125944 0.752228 0.761619
O O4 0.933902 0.000000 0.720693
O O5 0.132788 0.500000 0.130055
O O6 0.224140 0.255512 0.219630
O O7 0.280798 0.261006 0.142679
O O8 0.874843 0.263271 0.015446
O O9 0.633049 0.500000 0.672179
O O10 0.404407 0.747279 0.578773
O O11 0.976788 0.737305 0.378938
O O12 0.182413 0.000000 0.476858
O O13 0.192575 0.500000 0.737727
O O14 0.440940 0.744984 0.821569
O O15 0.334467 0.500000 0.107236
#
# Coordination Sequence:
#
# PCOD8067387 Si02
#       6
#     4   4   4   4   4   4
#     4   9  19  32  47  67  97 135 159 185 237 287
#     4   8  16  29  48  75  99 123 151 193 247 283
#     4  11  19  28  48  76 100 120 158 202 230 275
#     4   9  19  32  47  67  97 135 159 185 237 287
#     4   9  16  28  51  76  91 120 164 199 228 272
#     4   8  14  30  52  71  97 124 153 194 242 288
#
# _framework density 17.300986000000002
#
# number of rings (size 3 to 8) (size 9 to 14) (size 15 to 20)
#    1.000    2.000    0.000    3.000    0.000    2.000 
#    0.000    1.667    0.000   18.000    0.000    9.333 
#    0.000    0.000    0.000    0.000    0.000    0.000 
#
# Total GULP energy -297338.396236 kJ/mol
# GULP energy per Si atom -12389.099843 kJ/mol
# Density = 1.726161 g / cm^3
# Si number density = 17.300986 Si / 1000 Ang^3
#
#
#
# Elastic Constant Matrix: (Units=GPa)
#
#
# Indices 1 2 3 4 5 6 
#
# 1 32.9181 10.7824 55.6712 0.0000 5.1637 0.0000
# 2 10.7824 60.5508 27.3101 0.0000 0.5500 0.0000
# 3 55.6712 27.3101 131.2773 0.0000 8.4554 0.0000
# 4 0.0000 0.0000 0.0000 5.0763 0.0000 -1.9259
# 5 5.1637 0.5500 8.4554 0.0000 32.2591 0.0000
# 6 0.0000 0.0000 0.0000 -1.9259 0.0000 5.7537
#
#
#
# Elastic Compliance Matrix: (Units=1/GPa)
#
#
# Indices 1 2 3 4 5 6 
#
# 1 0.108448 0.001462 -0.045950 0.000000 -0.005340 0.000000
# 2 0.001462 0.018260 -0.004459 0.000000 0.000623 0.000000
# 3 -0.045950 -0.004459 0.028026 0.000000 0.000085 0.000000
# 4 0.000000 0.000000 0.000000 0.225648 0.000000 0.075529
# 5 -0.005340 0.000623 0.000085 0.000000 0.031821 0.000000
# 6 0.000000 0.000000 0.000000 0.075529 0.000000 0.199083
#
#
# Mechanical properties :
#
#
# Convention : Reuss Voigt Hill
#
# Bulk Modulus (GPa) = 17.59332 45.80818 31.70075
# Shear Modulus (GPa) = 6.86694 17.34999 12.10846
#
# Velocity S-wave (km/s) = 1.99442 3.17019 2.64838
# Velocity P-wave (km/s) = 3.93633 6.31940 5.26448
#
# Compressibility (1/GPa) = 0.05683976
#
# Stress axis : x y z
#
# Youngs Moduli (GPa) = 9.22099 54.76410 35.68149
#
# Poissons Ratio (x) = -0.08005 1.63957
# Poissons Ratio (y) = -0.01348 0.15909
# Poissons Ratio (z) = 0.42371 0.24418
#
# Static dielectric constant tensor:
#      x y z
#    x 3.162310 0.000000 0.050360 
#    y 0.000000 2.956610 0.000000 
#    z 0.050360 0.000000 3.356120 
# 
# 
# High freq. dielectric constant tensor:
#      x y z
#    x 1.649130 0.000000 0.010300 
#    y 0.000000 1.650730 0.000000 
#    z 0.010300 0.000000 1.660620 
# 
# From -- ./inp_files/92564.got.cif
#   From: 2010.06.25/outbox.cif.g09.slc.cpg/sg10_47_cif.got.tgz:92564.got - 2010.06.27 22:07:45.
