data_PCOD8067384
_publ_section_title
;
Structure prediction by ZEFSAII (Michael W. Deem and Ramdas Pophale) SiO2 
 PCOD8067384
Probable space group: P 2/M
;
_chemical_formula_sum "Si O2"
_cell_formula_units_Z 32
_cell_length_a 24.250493
_cell_length_b 9.066323
_cell_length_c 20.907742
_cell_angle_alpha 90.000000
_cell_angle_beta 156.230125
_cell_angle_gamma 90.000000
_cell_volume 1852.819395
_symmetry_space_group_name_H-M "P 2/M"
_symmetry_group_IT_number 10
_symmetry_cell_setting 'monoclinic'
loop_
_space_group_symop_operation_xyz
x,y,z
-x,y,-z
-x,-y,-z
x,-y,z
loop_
_atom_site_type_symbol
_atom_site_label
_atom_site_fract_x
_atom_site_fract_y
_atom_site_fract_z
Si Si1 0.900862 0.172060 0.621987
Si Si2 0.656279 0.836879 0.144006
Si Si3 0.469034 0.173414 0.115222
Si Si4 0.736992 0.673989 0.347608
Si Si5 0.275855 0.826826 0.443875
Si Si6 0.028088 0.823556 0.100228
Si Si7 0.852268 0.824710 0.030133
Si Si8 0.429089 0.175406 0.216389
O O1 0.870811 0.265122 0.526236
O O2 0.783506 0.207782 0.549262
O O3 0.046317 0.223797 0.805114
O O4 0.902169 0.000000 0.605827
O O5 0.743081 0.724522 0.279671
O O6 0.720110 0.000000 0.220147
O O7 0.500000 0.837417 0.000000
O O8 0.652641 0.791101 0.064985
O O9 0.604369 0.263081 0.242055
O O10 0.416158 0.222344 0.128589
O O11 0.507470 0.000000 0.153756
O O12 0.735023 0.500000 0.347925
O O13 0.175020 0.763044 0.281792
O O14 0.429824 0.760456 0.603228
O O15 0.283353 0.000000 0.441784
O O16 0.908812 0.767489 0.021742
O O17 0.029612 0.000000 0.100678
O O18 0.000000 0.758267 0.000000
O O19 0.848517 0.000000 0.024477
O O20 0.700961 0.759358 0.883015
O O21 0.429679 0.000000 0.221841
#
# Coordination Sequence:
#
# PCOD8067384 Si02
#       8
#     4   4   4   4   4   4   4   4
#     4   9  15  27  43  59  81 112 146 178 219 260
#     4   8  15  26  39  57  81 111 144 175 218 265
#     4   9  16  27  43  60  83 115 143 177 222 262
#     4  11  19  25  39  63  87 109 141 183 221 255
#     4   8  13  21  38  58  78 109 144 177 212 247
#     4   8  13  22  34  53  87 125 149 166 203 259
#     4   8  15  24  39  62  83 108 145 183 213 250
#     4   9  14  23  40  62  82 102 142 190 219 244
#
# _framework density 17.270976000000001
#
# number of rings (size 3 to 8) (size 9 to 14) (size 15 to 20)
#    0.000    3.250    1.250    3.375    0.000    2.250 
#    0.000    0.625    0.000    5.250    0.000    5.250 
#    0.000    8.000    0.000    4.500    0.000    5.000 
#
# Total GULP energy -396475.930555 kJ/mol
# GULP energy per Si atom -12389.872830 kJ/mol
# Density = 1.723167 g / cm^3
# Si number density = 17.270976 Si / 1000 Ang^3
#
#
#
# Elastic Constant Matrix: (Units=GPa)
#
#
# Indices 1 2 3 4 5 6 
#
# 1 104.8547 17.0601 78.4632 0.0000 -17.0537 0.0000
# 2 17.0601 39.3154 23.2319 0.0000 -9.7127 0.0000
# 3 78.4632 23.2319 128.1510 0.0000 -6.2897 0.0000
# 4 0.0000 0.0000 0.0000 4.0094 0.0000 0.2243
# 5 -17.0537 -9.7127 -6.2897 0.0000 34.2111 0.0000
# 6 0.0000 0.0000 0.0000 0.2243 0.0000 2.5398
#
#
#
# Elastic Compliance Matrix: (Units=1/GPa)
#
#
# Indices 1 2 3 4 5 6 
#
# 1 0.019356 0.000295 -0.011531 0.000000 0.007612 0.000000
# 2 0.000295 0.030366 -0.005303 0.000000 0.007793 0.000000
# 3 -0.011531 -0.005303 0.015610 0.000000 -0.004384 0.000000
# 4 0.000000 0.000000 0.000000 0.250655 0.000000 -0.022140
# 5 0.007612 0.007793 -0.004384 0.000000 0.034432 0.000000
# 6 0.000000 0.000000 0.000000 -0.022140 0.000000 0.395691
#
#
# Mechanical properties :
#
#
# Convention : Reuss Voigt Hill
#
# Bulk Modulus (GPa) = 31.00399 56.64793 43.82596
# Shear Modulus (GPa) = 6.32961 18.38977 12.35969
#
# Velocity S-wave (km/s) = 1.91647 3.26663 2.67804
# Velocity P-wave (km/s) = 4.78410 6.86284 5.91549
#
# Compressibility (1/GPa) = 0.03225391
#
# Stress axis : x y z
#
# Youngs Moduli (GPa) = 51.66478 32.93123 64.06350
#
# Poissons Ratio (x) = -0.00973 0.73870
# Poissons Ratio (y) = -0.01526 0.33975
# Poissons Ratio (z) = 0.59573 0.17464
#
# Static dielectric constant tensor:
#      x y z
#    x 3.386520 0.000000 -0.209470 
#    y 0.000000 2.627070 0.000000 
#    z -0.209470 0.000000 3.558040 
# 
# 
# High freq. dielectric constant tensor:
#      x y z
#    x 1.649220 0.000000 -0.022280 
#    y 0.000000 1.602530 0.000000 
#    z -0.022280 0.000000 1.663890 
# 
# From -- ./inp_files/91223.got.cif
#   From: 2010.06.25/outbox.cif.g09.slc.cpg/sg10_46_cif.got.tgz:91223.got - 2010.06.27 22:07:45.
