data_PCOD8067590
_publ_section_title
;
Structure prediction by ZEFSAII (Michael W. Deem and Ramdas Pophale) SiO2 
 PCOD8067590
Probable space group: P 2/M
;
_chemical_formula_sum "Si O2"
_cell_formula_units_Z 28
_cell_length_a 5.143438
_cell_length_b 32.200051
_cell_length_c 9.666110
_cell_angle_alpha 90.000000
_cell_angle_beta 117.747952
_cell_angle_gamma 90.000000
_cell_volume 1416.795513
_symmetry_space_group_name_H-M "P 2/M"
_symmetry_group_IT_number 10
_symmetry_cell_setting 'monoclinic'
loop_
_space_group_symop_operation_xyz
x,y,z
-x,y,-z
-x,-y,-z
x,-y,z
loop_
_atom_site_type_symbol
_atom_site_label
_atom_site_fract_x
_atom_site_fract_y
_atom_site_fract_z
Si Si1 0.273197 0.129030 0.318188
Si Si2 0.154392 0.311237 0.186608
Si Si3 0.349017 0.736426 0.814056
Si Si4 0.340835 0.546812 0.813524
Si Si5 0.841760 0.044960 0.604046
Si Si6 0.654474 0.169921 0.184925
Si Si7 0.841597 0.595098 0.813610
O O1 0.500000 0.133757 0.500000
O O2 0.127511 0.082579 0.278214
O O3 0.464527 0.138465 0.230488
O O4 0.998710 0.159596 0.262389
O O5 0.474744 0.291044 0.252715
O O6 0.190347 0.358098 0.250860
O O7 0.973272 0.283638 0.251525
O O8 0.000000 0.311322 0.000000
O O9 0.346700 0.783358 0.755886
O O10 0.500000 0.735539 0.000000
O O11 0.301172 0.500000 0.748276
O O12 0.525665 0.573436 0.749180
O O13 0.025332 0.568471 0.748962
O O14 0.500000 0.546206 0.000000
O O15 0.500000 0.038409 0.500000
O O16 0.000000 0.058161 0.500000
O O17 0.972110 0.000000 0.687693
O O18 0.500000 0.167892 0.000000
O O19 0.000000 0.595643 0.000000
#
# Coordination Sequence:
#
# PCOD8067590 Si02
#       7
#     4   4   4   4   4   4   4
#     4  11  21  36  57  82 108 137 177 221 260 303
#     4   9  15  24  37  53  73  98 137 186 233 281
#     4   9  17  28  42  60  83 114 149 187 236 294
#     4   9  15  21  27  37  56  83 117 160 218 283
#     4   9  17  31  53  80 106 134 173 218 258 300
#     4  11  22  36  54  77 108 143 175 211 266 325
#     4   9  15  21  30  43  59  84 120 168 224 273
#
# _framework density 19.762909000000001
#
# number of rings (size 3 to 8) (size 9 to 14) (size 15 to 20)
#    0.000    2.429    0.000    4.714    0.000    7.429 
#    0.000    0.000    0.000    2.571    0.000    0.000 
#    0.000    0.000    0.000    0.000    0.000    0.000 
#
# Total GULP energy -347016.519907 kJ/mol
# GULP energy per Si atom -12393.447140 kJ/mol
# Density = 1.971793 g / cm^3
# Si number density = 19.762909 Si / 1000 Ang^3
#
#
#
# Elastic Constant Matrix: (Units=GPa)
#
#
# Indices 1 2 3 4 5 6 
#
# 1 157.1652 51.5489 20.8022 0.0000 -7.4910 0.0000
# 2 51.5489 147.8022 29.0644 0.0000 -6.0673 0.0000
# 3 20.8022 29.0644 24.2889 0.0000 -0.1496 0.0000
# 4 0.0000 0.0000 0.0000 1.7454 0.0000 3.3069
# 5 -7.4910 -6.0673 -0.1496 0.0000 17.5449 0.0000
# 6 0.0000 0.0000 0.0000 3.3069 0.0000 41.8979
#
#
#
# Elastic Compliance Matrix: (Units=1/GPa)
#
#
# Indices 1 2 3 4 5 6 
#
# 1 0.007634 -0.001663 -0.004532 0.000000 0.002646 0.000000
# 2 -0.001663 0.009367 -0.009770 0.000000 0.002446 0.000000
# 3 -0.004532 -0.009770 0.056714 0.000000 -0.004830 0.000000
# 4 0.000000 0.000000 0.000000 0.673695 0.000000 -0.053172
# 5 0.002646 0.002446 -0.004830 0.000000 0.058931 0.000000
# 6 0.000000 0.000000 0.000000 -0.053172 0.000000 0.028064
#
#
# Mechanical properties :
#
#
# Convention : Reuss Voigt Hill
#
# Bulk Modulus (GPa) = 23.93189 59.12082 41.52636
# Shear Modulus (GPa) = 5.68012 27.42702 16.55357
#
# Velocity S-wave (km/s) = 1.69717 3.72936 2.89729
# Velocity P-wave (km/s) = 3.99703 6.96593 5.67893
#
# Compressibility (1/GPa) = 0.04178525
#
# Stress axis : x y z
#
# Youngs Moduli (GPa) = 130.99157 106.75431 17.63241
#
# Poissons Ratio (x) = 0.17750 0.07992
# Poissons Ratio (y) = 0.21780 0.17227
# Poissons Ratio (z) = 0.59370 1.04298
#
# Static dielectric constant tensor:
#      x y z
#    x 3.805730 0.000000 -0.026540 
#    y 0.000000 4.150580 0.000000 
#    z -0.026540 0.000000 2.831760 
# 
# 
# High freq. dielectric constant tensor:
#      x y z
#    x 1.794890 0.000000 -0.004020 
#    y 0.000000 1.793930 0.000000 
#    z -0.004020 0.000000 1.681830 
# 
# From -- ./inp_files/15913.got.cif
#   From: 2010.06.25/outbox.cif.g09.slc.cpg/sg10_8_cif.got.tgz:15913.got - 2010.06.27 22:07:45.
