data_PCOD8067136
_publ_section_title
;
Structure prediction by ZEFSAII (Michael W. Deem and Ramdas Pophale) SiO2 
 PCOD8067136
Probable space group: P 2/M
;
_chemical_formula_sum "Si O2"
_cell_formula_units_Z 28
_cell_length_a 19.192588
_cell_length_b 8.748298
_cell_length_c 14.268190
_cell_angle_alpha 90.000000
_cell_angle_beta 33.113403
_cell_angle_gamma 90.000000
_cell_volume 1308.746497
_symmetry_space_group_name_H-M "P 2/M"
_symmetry_group_IT_number 10
_symmetry_cell_setting 'monoclinic'
loop_
_space_group_symop_operation_xyz
x,y,z
-x,y,-z
-x,-y,-z
x,-y,z
loop_
_atom_site_type_symbol
_atom_site_label
_atom_site_fract_x
_atom_site_fract_y
_atom_site_fract_z
Si Si1 0.954065 0.676996 0.778920
Si Si2 0.108138 0.176114 0.955490
Si Si3 0.264030 0.320922 0.629418
Si Si4 0.535758 0.321827 0.853987
Si Si5 0.205067 0.179642 0.508830
Si Si6 0.513573 0.821658 0.377882
Si Si7 0.677955 0.677940 0.051193
O O1 0.990814 0.500000 0.734351
O O2 0.075364 0.770489 0.600025
O O3 0.921413 0.722565 0.921794
O O4 0.826979 0.709895 0.859185
O O5 0.235444 0.237106 0.760320
O O6 0.127172 0.000000 0.963622
O O7 0.000000 0.198591 0.000000
O O8 0.242118 0.500000 0.663840
O O9 0.180427 0.255677 0.638267
O O10 0.409011 0.277368 0.438311
O O11 0.562830 0.500000 0.807813
O O12 0.666296 0.234142 0.685377
O O13 0.415091 0.266654 0.927596
O O14 0.500000 0.282943 0.000000
O O15 0.210003 0.000000 0.515074
O O16 0.500000 0.770923 0.500000
O O17 0.647643 0.773937 0.180339
O O18 0.487214 0.000000 0.394005
O O19 0.658033 0.500000 0.095455
#
# Coordination Sequence:
#
# PCOD8067136 Si02
#       7
#     4   4   4   4   4   4   4
#     4  11  23  39  61  90 126 169 213 258 313 372
#     4  11  22  35  53  81 121 167 214 262 308 364
#     4  12  23  36  57  83 117 162 214 263 307 361
#     4  10  22  44  73 100 125 159 205 261 323 386
#     4  12  24  40  63  92 124 161 205 256 315 375
#     4  11  23  37  56  85 124 168 210 255 312 370
#     4  10  22  40  63  93 126 163 209 261 315 374
#
# _framework density 21.394517
#
# number of rings (size 3 to 8) (size 9 to 14) (size 15 to 20)
#    0.000    1.000    2.857    4.714    0.000    5.429 
#    0.000    0.714    0.000    4.286    0.000    0.000 
#    0.000    0.000    0.000    0.000    0.000    0.000 
#
# Total GULP energy -347206.045034 kJ/mol
# GULP energy per Si atom -12400.215894 kJ/mol
# Density = 2.134582 g / cm^3
# Si number density = 21.394517 Si / 1000 Ang^3
#
#
#
# Elastic Constant Matrix: (Units=GPa)
#
#
# Indices 1 2 3 4 5 6 
#
# 1 80.2549 31.2119 47.1647 0.0000 -16.1156 0.0000
# 2 31.2119 73.4787 31.6671 0.0000 -8.7626 0.0000
# 3 47.1647 31.6671 93.8455 0.0000 -26.7496 0.0000
# 4 0.0000 0.0000 0.0000 26.6629 0.0000 -4.3398
# 5 -16.1156 -8.7626 -26.7496 0.0000 34.8408 0.0000
# 6 0.0000 0.0000 0.0000 -4.3398 0.0000 18.9110
#
#
#
# Elastic Compliance Matrix: (Units=1/GPa)
#
#
# Indices 1 2 3 4 5 6 
#
# 1 0.019030 -0.004644 -0.007452 0.000000 0.001913 0.000000
# 2 -0.004644 0.017059 -0.003600 0.000000 -0.000621 0.000000
# 3 -0.007452 -0.003600 0.018402 0.000000 0.009777 0.000000
# 4 0.000000 0.000000 0.000000 0.038960 0.000000 0.008941
# 5 0.001913 -0.000621 0.009777 0.000000 0.036937 0.000000
# 6 0.000000 0.000000 0.000000 0.008941 0.000000 0.054931
#
#
# Mechanical properties :
#
#
# Convention : Reuss Voigt Hill
#
# Bulk Modulus (GPa) = 43.28810 51.96293 47.62552
# Shear Modulus (GPa) = 22.28069 25.25199 23.76634
#
# Velocity S-wave (km/s) = 3.23061 3.43928 3.33657
# Velocity P-wave (km/s) = 5.84747 6.33342 6.09529
#
# Compressibility (1/GPa) = 0.02310104
#
# Stress axis : x y z
#
# Youngs Moduli (GPa) = 52.54959 58.61943 54.34144
#
# Poissons Ratio (x) = 0.27221 0.40493
# Poissons Ratio (y) = 0.24403 0.19561
# Poissons Ratio (z) = 0.39158 0.21101
#
# Static dielectric constant tensor:
#      x y z
#    x 3.964130 0.000000 -0.409860 
#    y 0.000000 3.715050 0.000000 
#    z -0.409860 0.000000 3.951240 
# 
# 
# High freq. dielectric constant tensor:
#      x y z
#    x 1.827870 0.000000 -0.032950 
#    y 0.000000 1.837260 0.000000 
#    z -0.032950 0.000000 1.840970 
# 
# From -- ./inp_files/70189.got.cif
#   From: 2010.06.25/outbox.cif.g09.slc.cpg/sg10_36_cif.got.tgz:70189.got - 2010.06.27 22:07:45.
