data_PCOD8067663
_publ_section_title
;
Structure prediction by ZEFSAII (Michael W. Deem and Ramdas Pophale) SiO2 
 PCOD8067663
Probable space group: P 2/M
;
_chemical_formula_sum "Si O2"
_cell_formula_units_Z 28
_cell_length_a 26.561254
_cell_length_b 8.751661
_cell_length_c 9.361537
_cell_angle_alpha 90.000000
_cell_angle_beta 137.023949
_cell_angle_gamma 90.000000
_cell_volume 1483.456450
_symmetry_space_group_name_H-M "P 2/M"
_symmetry_group_IT_number 10
_symmetry_cell_setting 'monoclinic'
loop_
_space_group_symop_operation_xyz
x,y,z
-x,y,-z
-x,-y,-z
x,-y,z
loop_
_atom_site_type_symbol
_atom_site_label
_atom_site_fract_x
_atom_site_fract_y
_atom_site_fract_z
Si Si1 0.073882 0.180880 0.973285
Si Si2 0.200166 0.319052 0.060696
Si Si3 0.666856 0.319109 0.474181
Si Si4 0.909316 0.180799 0.673013
Si Si5 0.491054 0.319170 0.824244
Si Si6 0.778648 0.180567 0.203509
Si Si7 0.650083 0.319509 0.110592
O O1 0.120593 0.264161 0.948873
O O2 0.988655 0.230795 0.774612
O O3 0.083416 0.000000 0.976767
O O4 0.100541 0.238932 0.184786
O O5 0.202467 0.500000 0.061995
O O6 0.214805 0.257430 0.934951
O O7 0.263203 0.249793 0.296898
O O8 0.671287 0.500000 0.489720
O O9 0.590551 0.263983 0.397227
O O10 0.667329 0.268368 0.309345
O O11 0.844128 0.247361 0.439586
O O12 0.906147 0.000000 0.670431
O O13 0.489958 0.500000 0.833171
O O14 0.500000 0.249386 0.000000
O O15 0.565016 0.273577 0.889950
O O16 0.700677 0.224129 0.109696
O O17 0.785069 0.000000 0.200051
O O18 0.663752 0.500000 0.118718
#
# Coordination Sequence:
#
# PCOD8067663 Si02
#       7
#     4   4   4   4   4   4   4
#     4   9  17  35  59  78  95 120 160 205 246 288
#     4  11  22  34  48  72 104 134 164 198 240 287
#     4   8  15  29  51  76 100 126 159 200 244 292
#     4   8  17  34  57  78  95 123 163 201 238 291
#     4   7  11  23  47  76  98 119 154 199 244 289
#     4  11  22  35  49  69 100 136 168 196 236 290
#     4   9  16  30  54  79  98 120 158 208 252 286
#
# _framework density 18.874836999999999
#
# number of rings (size 3 to 8) (size 9 to 14) (size 15 to 20)
#    0.000    3.000    0.000    4.286    0.000    0.571 
#    0.000    7.857    0.000    9.857    0.000    0.000 
#    0.000    0.000    0.000    0.000    0.000    0.000 
#
# Total GULP energy -346906.317434 kJ/mol
# GULP energy per Si atom -12389.511337 kJ/mol
# Density = 1.883188 g / cm^3
# Si number density = 18.874837 Si / 1000 Ang^3
#
#
#
# Elastic Constant Matrix: (Units=GPa)
#
#
# Indices 1 2 3 4 5 6 
#
# 1 143.4070 27.1052 59.8590 0.0000 15.8353 0.0000
# 2 27.1052 35.5847 16.1798 0.0000 2.1951 0.0000
# 3 59.8590 16.1798 47.1751 0.0000 8.6268 0.0000
# 4 0.0000 0.0000 0.0000 22.6875 0.0000 5.4817
# 5 15.8353 2.1951 8.6268 0.0000 27.6839 0.0000
# 6 0.0000 0.0000 0.0000 5.4817 0.0000 38.8240
#
#
#
# Elastic Compliance Matrix: (Units=1/GPa)
#
#
# Indices 1 2 3 4 5 6 
#
# 1 0.015376 -0.003442 -0.017785 0.000000 -0.002980 0.000000
# 2 -0.003442 0.034089 -0.007625 0.000000 0.001642 0.000000
# 3 -0.017785 -0.007625 0.047092 0.000000 -0.003897 0.000000
# 4 0.000000 0.000000 0.000000 0.045634 0.000000 -0.006443
# 5 -0.002980 0.001642 -0.003897 0.000000 0.038911 0.000000
# 6 0.000000 0.000000 0.000000 -0.006443 0.000000 0.026667
#
#
# Mechanical properties :
#
#
# Convention : Reuss Voigt Hill
#
# Bulk Modulus (GPa) = 25.73695 48.05052 36.89373
# Shear Modulus (GPa) = 17.95817 26.04061 21.99939
#
# Velocity S-wave (km/s) = 3.08788 3.71839 3.41771
# Velocity P-wave (km/s) = 5.13600 6.62932 5.92986
#
# Compressibility (1/GPa) = 0.03885464
#
# Stress axis : x y z
#
# Youngs Moduli (GPa) = 65.03445 29.33488 21.23483
#
# Poissons Ratio (x) = 0.10097 0.37767
# Poissons Ratio (y) = 0.22384 0.16191
# Poissons Ratio (z) = 1.15665 0.22367
#
# Static dielectric constant tensor:
#      x y z
#    x 3.534850 0.000000 0.353950 
#    y 0.000000 2.982000 0.000000 
#    z 0.353950 0.000000 3.942850 
# 
# 
# High freq. dielectric constant tensor:
#      x y z
#    x 1.739050 0.000000 0.024240 
#    y 0.000000 1.688370 0.000000 
#    z 0.024240 0.000000 1.729620 
# 
# From -- ./inp_files/37292.got.cif
#   From: 2010.06.25/outbox.cif.g09.slc.cpg/sg10_19_cif.got.tgz:37292.got - 2010.06.27 22:07:45.
