data_PCOD8067347
_publ_section_title
;
Structure prediction by ZEFSAII (Michael W. Deem and Ramdas Pophale) SiO2 
 PCOD8067347
Probable space group: P 2/M
;
_chemical_formula_sum "Si O2"
_cell_formula_units_Z 28
_cell_length_a 21.998004
_cell_length_b 14.949762
_cell_length_c 9.724170
_cell_angle_alpha 90.000000
_cell_angle_beta 154.002876
_cell_angle_gamma 90.000000
_cell_volume 1401.739659
_symmetry_space_group_name_H-M "P 2/M"
_symmetry_group_IT_number 10
_symmetry_cell_setting 'monoclinic'
loop_
_space_group_symop_operation_xyz
x,y,z
-x,y,-z
-x,-y,-z
x,-y,z
loop_
_atom_site_type_symbol
_atom_site_label
_atom_site_fract_x
_atom_site_fract_y
_atom_site_fract_z
Si Si1 0.855929 0.000000 0.792964
Si Si2 0.835397 0.815050 0.177590
Si Si3 0.138422 0.000000 0.870422
Si Si4 0.253505 0.723736 0.739024
Si Si5 0.739121 0.300765 0.741489
Si Si6 0.660832 0.831328 0.350834
Si Si7 0.997897 0.600321 0.833787
Si Si8 0.488180 0.401880 0.314129
O O1 0.762171 0.915635 0.563807
O O2 0.000000 0.000000 0.000000
O O3 0.893420 0.000000 0.031254
O O4 0.791633 0.801276 0.246554
O O5 0.000000 0.810870 0.500000
O O6 0.778313 0.910614 0.004793
O O7 0.767514 0.736623 0.951062
O O8 0.000000 0.000000 0.500000
O O9 0.279492 0.768492 0.646326
O O10 0.141392 0.645335 0.503604
O O11 0.392982 0.677775 0.070966
O O12 0.670371 0.222780 0.511577
O O13 0.637359 0.384805 0.548727
O O14 0.879064 0.335634 0.960272
O O15 0.500000 0.859757 0.000000
O O16 0.008867 0.500000 0.792853
O O17 0.000000 0.593773 0.000000
O O18 0.500000 0.399458 0.500000
O O19 0.437115 0.500000 0.160784
#
# Coordination Sequence:
#
# PCOD8067347 Si02
#       8
#     2   4   2   4   4   4   4   4
#     4  12  29  45  75 106 132 174 222 276 331 395
#     4  11  23  40  68  95 135 169 215 281 333 392
#     4  10  24  43  65 104 137 161 213 274 329 390
#     4  12  24  42  68  98 131 176 225 269 333 398
#     4  12  22  43  67  96 130 180 218 270 337 394
#     4  12  27  46  69  97 141 176 215 272 334 398
#     4  11  24  40  62  96 134 170 219 281 331 384
#     4  11  24  42  65  97 135 176 225 277 330 397
#
# _framework density 19.975180000000002
#
# number of rings (size 3 to 8) (size 9 to 14) (size 15 to 20)
#    0.000    0.571    7.143    1.071    6.000    0.000 
#    0.000    1.429    0.000    1.714    0.000    0.000 
#    0.000    0.000    0.000    0.000    0.000    0.000 
#
# Total GULP energy -347231.786501 kJ/mol
# GULP energy per Si atom -12401.135232 kJ/mol
# Density = 1.992972 g / cm^3
# Si number density = 19.975180 Si / 1000 Ang^3
#
#
#
# Elastic Constant Matrix: (Units=GPa)
#
#
# Indices 1 2 3 4 5 6 
#
# 1 61.9690 24.9507 26.0199 0.0000 1.0519 0.0000
# 2 24.9507 116.3297 35.1604 0.0000 0.9505 0.0000
# 3 26.0199 35.1604 89.1808 0.0000 5.0616 0.0000
# 4 0.0000 0.0000 0.0000 25.7479 0.0000 2.9258
# 5 1.0519 0.9505 5.0616 0.0000 32.6468 0.0000
# 6 0.0000 0.0000 0.0000 2.9258 0.0000 39.5476
#
#
#
# Elastic Compliance Matrix: (Units=1/GPa)
#
#
# Indices 1 2 3 4 5 6 
#
# 1 0.019132 -0.002742 -0.004510 0.000000 0.000163 0.000000
# 2 -0.002742 0.010155 -0.003220 0.000000 0.000292 0.000000
# 3 -0.004510 -0.003220 0.013908 0.000000 -0.001917 0.000000
# 4 0.000000 0.000000 0.000000 0.039167 0.000000 -0.002898
# 5 0.000163 0.000292 -0.001917 0.000000 0.030914 0.000000
# 6 0.000000 0.000000 0.000000 -0.002898 0.000000 0.025500
#
#
# Mechanical properties :
#
#
# Convention : Reuss Voigt Hill
#
# Bulk Modulus (GPa) = 44.94372 48.86018 46.90195
# Shear Modulus (GPa) = 29.91525 31.67834 30.79679
#
# Velocity S-wave (km/s) = 3.87411 3.98664 3.93078
# Velocity P-wave (km/s) = 6.52382 6.76052 6.64322
#
# Compressibility (1/GPa) = 0.02225005
#
# Stress axis : x y z
#
# Youngs Moduli (GPa) = 52.26835 98.47099 71.90265
#
# Poissons Ratio (x) = 0.26996 0.32431
# Poissons Ratio (y) = 0.14330 0.23156
# Poissons Ratio (z) = 0.23575 0.31713
#
# Static dielectric constant tensor:
#      x y z
#    x 3.550490 0.000000 -0.022960 
#    y 0.000000 4.238750 0.000000 
#    z -0.022960 0.000000 3.676870 
# 
# 
# High freq. dielectric constant tensor:
#      x y z
#    x 1.782970 0.000000 -0.005290 
#    y 0.000000 1.792800 0.000000 
#    z -0.005290 0.000000 1.785470 
# 
# From -- ./inp_files/35322.got.cif
#   From: 2010.06.25/outbox.cif.g09.slc.cpg/sg10_18_cif.got.tgz:35322.got - 2010.06.27 22:07:45.
