data_PCOD8067381
_publ_section_title
;
Structure prediction by ZEFSAII (Michael W. Deem and Ramdas Pophale) SiO2 
 PCOD8067381
Probable space group: P 2/M
;
_chemical_formula_sum "Si O2"
_cell_formula_units_Z 24
_cell_length_a 9.731708
_cell_length_b 13.653567
_cell_length_c 16.314681
_cell_angle_alpha 90.000000
_cell_angle_beta 145.261901
_cell_angle_gamma 90.000000
_cell_volume 1235.253541
_symmetry_space_group_name_H-M "P 2/M"
_symmetry_group_IT_number 10
_symmetry_cell_setting 'monoclinic'
loop_
_space_group_symop_operation_xyz
x,y,z
-x,y,-z
-x,-y,-z
x,-y,z
loop_
_atom_site_type_symbol
_atom_site_label
_atom_site_fract_x
_atom_site_fract_y
_atom_site_fract_z
Si Si1 0.596413 0.107198 0.424412
Si Si2 0.904479 0.105870 0.728064
Si Si3 0.166693 0.612780 0.334675
Si Si4 0.739147 0.278300 0.068474
Si Si5 0.478277 0.318191 0.626789
Si Si6 0.260134 0.611087 0.093679
O O1 0.826458 0.125604 0.595987
O O2 0.343621 0.102565 0.345449
O O3 0.577027 0.208589 0.363767
O O4 0.630751 0.000000 0.395465
O O5 0.094522 0.182790 0.855958
O O6 0.032151 0.000000 0.797826
O O7 0.221000 0.500000 0.340808
O O8 0.307223 0.679871 0.336548
O O9 0.245749 0.637367 0.466367
O O10 0.884026 0.635869 0.187199
O O11 0.500000 0.251330 0.000000
O O12 0.667667 0.315494 0.943312
O O13 0.545462 0.382907 0.738005
O O14 0.253238 0.500000 0.057197
O O15 0.000000 0.643069 0.000000
#
# Coordination Sequence:
#
# PCOD8067381 Si02
#       6
#     4   4   4   4   4   4
#     4   9  15  28  58  90 111 134 180 245 293 321
#     4   9  16  32  56  84 111 143 188 233 280 334
#     4  11  20  33  56  83 107 143 195 239 273 328
#     4  12  24  38  55  81 118 159 187 227 283 339
#     4  11  18  34  59  87 112 139 186 242 283 328
#     4  11  22  37  57  83 116 150 187 234 285 332
#
# _framework density 19.429210999999999
#
# number of rings (size 3 to 8) (size 9 to 14) (size 15 to 20)
#    0.000    1.500    5.000    4.500    0.000    1.667 
#    0.000    1.667    0.000    5.000    0.000    2.333 
#    0.000    0.000    0.000    0.000    0.000    0.000 
#
# Total GULP energy -297322.835681 kJ/mol
# GULP energy per Si atom -12388.451487 kJ/mol
# Density = 1.938499 g / cm^3
# Si number density = 19.429211 Si / 1000 Ang^3
#
#
#
# Elastic Constant Matrix: (Units=GPa)
#
#
# Indices 1 2 3 4 5 6 
#
# 1 41.4882 15.0897 30.1152 0.0000 -8.5430 0.0000
# 2 15.0897 124.8426 27.7757 0.0000 -7.4988 0.0000
# 3 30.1152 27.7757 108.4346 0.0000 -14.3262 0.0000
# 4 0.0000 0.0000 0.0000 25.7871 0.0000 -6.6881
# 5 -8.5430 -7.4988 -14.3262 0.0000 17.7268 0.0000
# 6 0.0000 0.0000 0.0000 -6.6881 0.0000 8.9310
#
#
#
# Elastic Compliance Matrix: (Units=1/GPa)
#
#
# Indices 1 2 3 4 5 6 
#
# 1 0.031774 -0.001706 -0.007232 0.000000 0.008747 0.000000
# 2 -0.001706 0.008653 -0.001531 0.000000 0.001601 0.000000
# 3 -0.007232 -0.001531 0.012401 0.000000 0.005889 0.000000
# 4 0.000000 0.000000 0.000000 0.048126 0.000000 0.036040
# 5 0.008747 0.001601 0.005889 0.000000 0.066064 0.000000
# 6 0.000000 0.000000 0.000000 0.036040 0.000000 0.138959
#
#
# Mechanical properties :
#
#
# Convention : Reuss Voigt Hill
#
# Bulk Modulus (GPa) = 31.35803 46.74741 39.05272
# Shear Modulus (GPa) = 14.81280 23.94130 19.37705
#
# Velocity S-wave (km/s) = 2.76415 3.51412 3.16146
# Velocity P-wave (km/s) = 5.13440 6.37009 5.78533
#
# Compressibility (1/GPa) = 0.03188976
#
# Stress axis : x y z
#
# Youngs Moduli (GPa) = 31.47189 115.56521 80.63917
#
# Poissons Ratio (x) = 0.19718 0.58318
# Poissons Ratio (y) = 0.05370 0.12347
# Poissons Ratio (z) = 0.22760 0.17695
#
# Static dielectric constant tensor:
#      x y z
#    x 2.882300 0.000000 0.019030 
#    y 0.000000 4.123120 0.000000 
#    z 0.019030 0.000000 3.669650 
# 
# 
# High freq. dielectric constant tensor:
#      x y z
#    x 1.677330 0.000000 0.002630 
#    y 0.000000 1.781340 0.000000 
#    z 0.002630 0.000000 1.755690 
# 
# From -- ./inp_files/61940.got.cif
#   From: 2010.06.25/outbox.cif.g09.slc.cpg/sg10_31_cif.got.tgz:61940.got - 2010.06.27 22:07:45.
