data_PCOD8067080
_publ_section_title
;
Structure prediction by ZEFSAII (Michael W. Deem and Ramdas Pophale) SiO2 
 PCOD8067080
Probable space group: P 2/M
;
_chemical_formula_sum "Si O2"
_cell_formula_units_Z 32
_cell_length_a 12.385652
_cell_length_b 9.231118
_cell_length_c 33.351991
_cell_angle_alpha 90.000000
_cell_angle_beta 27.713288
_cell_angle_gamma 90.000000
_cell_volume 1773.340515
_symmetry_space_group_name_H-M "P 2/M"
_symmetry_group_IT_number 10
_symmetry_cell_setting 'monoclinic'
loop_
_space_group_symop_operation_xyz
x,y,z
-x,y,-z
-x,-y,-z
x,-y,z
loop_
_atom_site_type_symbol
_atom_site_label
_atom_site_fract_x
_atom_site_fract_y
_atom_site_fract_z
Si Si1 0.690276 0.166105 0.565720
Si Si2 0.237272 0.663811 0.151667
Si Si3 0.977691 0.832087 0.936494
Si Si4 0.417778 0.332635 0.893755
Si Si5 0.451823 0.331552 0.791102
Si Si6 0.795204 0.832586 0.622723
Si Si7 0.080672 0.832657 0.134020
Si Si8 0.745083 0.336098 0.292011
O O1 0.712244 0.204275 0.605323
O O2 0.486333 0.263981 0.613681
O O3 0.930058 0.199135 0.464105
O O4 0.620767 0.000000 0.582801
O O5 0.312931 0.500000 0.116401
O O6 0.381951 0.722914 0.141834
O O7 0.278120 0.761683 0.098156
O O8 0.959605 0.669108 0.253516
O O9 0.224565 0.755880 0.853648
O O10 0.853379 0.811702 0.934136
O O11 0.012950 0.000000 0.935498
O O12 0.815685 0.759498 0.023196
O O13 0.355472 0.500000 0.921923
O O14 0.508854 0.307600 0.819122
O O15 0.413608 0.500000 0.793761
O O16 0.670266 0.271809 0.695010
O O17 0.741847 0.000000 0.650431
O O18 0.832225 0.753611 0.224068
O O19 0.054252 0.000000 0.153947
O O20 0.688654 0.500000 0.297630
#
# Coordination Sequence:
#
# PCOD8067080 Si02
#       8
#     4   4   4   4   4   4   4   4
#     4   9  17  31  52  78 108 139 168 204 255 311
#     4   8  18  35  53  75 102 137 175 215 262 307
#     4  11  23  36  53  78 106 136 173 219 267 313
#     4  10  22  40  56  72 101 139 180 222 260 304
#     4  11  23  37  55  77 103 139 179 216 258 308
#     4   9  19  34  52  76 107 140 170 206 257 310
#     4   9  18  32  50  75 106 136 167 210 261 312
#     4   9  17  29  49  76 104 135 169 206 253 307
#
# _framework density 18.045038999999999
#
# number of rings (size 3 to 8) (size 9 to 14) (size 15 to 20)
#    0.750    1.750    0.000    3.000    0.000    9.500 
#    0.000    3.750    0.000    0.750    0.000    5.250 
#    0.000    0.000    0.000    0.000    0.000    0.000 
#
# Total GULP energy -396629.505561 kJ/mol
# GULP energy per Si atom -12394.672049 kJ/mol
# Density = 1.800397 g / cm^3
# Si number density = 18.045039 Si / 1000 Ang^3
#
#
#
# Elastic Constant Matrix: (Units=GPa)
#
#
# Indices 1 2 3 4 5 6 
#
# 1 63.5346 39.9945 28.6512 0.0000 5.3716 0.0000
# 2 39.9945 108.3833 53.6883 0.0000 7.3944 0.0000
# 3 28.6512 53.6883 97.0579 0.0000 5.2950 0.0000
# 4 0.0000 0.0000 0.0000 31.5486 0.0000 2.9789
# 5 5.3716 7.3944 5.2950 0.0000 17.1200 0.0000
# 6 0.0000 0.0000 0.0000 2.9789 0.0000 14.5922
#
#
#
# Elastic Compliance Matrix: (Units=1/GPa)
#
#
# Indices 1 2 3 4 5 6 
#
# 1 0.021138 -0.006310 -0.002580 0.000000 -0.003109 0.000000
# 2 -0.006310 0.014787 -0.006181 0.000000 -0.002495 0.000000
# 3 -0.002580 -0.006181 0.014539 0.000000 -0.001018 0.000000
# 4 0.000000 0.000000 0.000000 0.032320 0.000000 -0.006598
# 5 -0.003109 -0.002495 -0.001018 0.000000 0.060779 0.000000
# 6 0.000000 0.000000 0.000000 -0.006598 0.000000 0.069877
#
#
# Mechanical properties :
#
#
# Convention : Reuss Voigt Hill
#
# Bulk Modulus (GPa) = 49.20575 57.07154 53.13865
# Shear Modulus (GPa) = 19.97167 22.42827 21.19997
#
# Velocity S-wave (km/s) = 3.33042 3.52931 3.43131
# Velocity P-wave (km/s) = 6.48972 6.95011 6.72385
#
# Compressibility (1/GPa) = 0.02032283
#
# Stress axis : x y z
#
# Youngs Moduli (GPa) = 47.30863 67.62781 68.78033
#
# Poissons Ratio (x) = 0.42674 0.17744
# Poissons Ratio (y) = 0.29852 0.42510
# Poissons Ratio (z) = 0.12204 0.41798
#
# Static dielectric constant tensor:
#      x y z
#    x 3.228400 0.000000 -0.115670 
#    y 0.000000 3.360590 0.000000 
#    z -0.115670 0.000000 3.167160 
# 
# 
# High freq. dielectric constant tensor:
#      x y z
#    x 1.680530 0.000000 -0.015810 
#    y 0.000000 1.706540 0.000000 
#    z -0.015810 0.000000 1.682950 
# 
# From -- ./inp_files/95010.got.cif
#   From: 2010.06.25/outbox.cif.g09.slc.cpg/sg10_48_cif.got.tgz:95010.got - 2010.06.27 22:07:45.
