data_PCOD8067612
_publ_section_title
;
Structure prediction by ZEFSAII (Michael W. Deem and Ramdas Pophale) SiO2 
 PCOD8067612
Probable space group: P 2/M
;
_chemical_formula_sum "Si O2"
_cell_formula_units_Z 32
_cell_length_a 13.847453
_cell_length_b 17.774033
_cell_length_c 12.123291
_cell_angle_alpha 90.000000
_cell_angle_beta 32.328128
_cell_angle_gamma 90.000000
_cell_volume 1595.663134
_symmetry_space_group_name_H-M "P 2/M"
_symmetry_group_IT_number 10
_symmetry_cell_setting 'monoclinic'
loop_
_space_group_symop_operation_xyz
x,y,z
-x,y,-z
-x,-y,-z
x,-y,z
loop_
_atom_site_type_symbol
_atom_site_label
_atom_site_fract_x
_atom_site_fract_y
_atom_site_fract_z
Si Si1 0.319035 0.809098 0.516486
Si Si2 0.791136 0.086466 0.189791
Si Si3 0.236659 0.083556 0.165094
Si Si4 0.704376 0.814416 0.083953
Si Si5 0.187903 0.917142 0.456205
Si Si6 0.988455 0.589018 0.336696
Si Si7 0.988113 0.698799 0.141090
Si Si8 0.294489 0.589179 0.209328
O O1 0.326957 0.865912 0.611204
O O2 0.517014 0.776792 0.300673
O O3 0.242215 0.852023 0.485697
O O4 0.204164 0.736663 0.656440
O O5 0.737451 0.108137 0.118269
O O6 0.752236 0.000000 0.250306
O O7 0.000000 0.108030 0.000000
O O8 0.289132 0.096574 0.242230
O O9 0.023517 0.086045 0.357064
O O10 0.307024 0.000000 0.060530
O O11 0.314903 0.154546 0.021905
O O12 0.858346 0.754464 0.961753
O O13 0.241190 0.000000 0.451272
O O14 0.986590 0.500000 0.323950
O O15 0.992004 0.623966 0.211243
O O16 0.809327 0.615331 0.578301
O O17 0.170505 0.614959 0.225636
O O18 0.000000 0.678215 0.000000
O O19 0.306159 0.500000 0.199216
O O20 0.500000 0.622593 0.000000
#
# Coordination Sequence:
#
# PCOD8067612 Si02
#       8
#     4   4   4   4   4   4   4   4
#     4  12  23  38  58  81 113 154 197 245 301 358
#     4  11  21  37  61  84 109 146 198 256 304 345
#     4   9  18  35  58  81 111 151 192 242 302 360
#     4  12  23  38  58  81 113 154 197 245 301 358
#     4   9  18  35  58  81 111 151 192 242 302 360
#     4   9  20  39  67  99 126 158 200 240 287 358
#     4  12  25  44  60  81 122 164 200 253 304 346
#     4   8  15  35  68 103 133 154 181 233 293 347
#
# _framework density 20.054359000000002
#
# number of rings (size 3 to 8) (size 9 to 14) (size 15 to 20)
#    0.000    1.750    3.750    2.625    0.000    6.250 
#    4.500    1.250    0.000    0.000    0.000    5.250 
#    0.000    0.000    0.000    0.000    0.000    0.000 
#
# Total GULP energy -396654.428141 kJ/mol
# GULP energy per Si atom -12395.450879 kJ/mol
# Density = 2.000871 g / cm^3
# Si number density = 20.054359 Si / 1000 Ang^3
#
#
#
# Elastic Constant Matrix: (Units=GPa)
#
#
# Indices 1 2 3 4 5 6 
#
# 1 74.6557 34.6895 37.8592 0.0000 22.0648 0.0000
# 2 34.6895 54.5181 39.9860 0.0000 13.0119 0.0000
# 3 37.8592 39.9860 120.6244 0.0000 1.5968 0.0000
# 4 0.0000 0.0000 0.0000 28.9549 0.0000 0.5354
# 5 22.0648 13.0119 1.5968 0.0000 35.8406 0.0000
# 6 0.0000 0.0000 0.0000 0.5354 0.0000 30.4232
#
#
#
# Elastic Compliance Matrix: (Units=1/GPa)
#
#
# Indices 1 2 3 4 5 6 
#
# 1 0.022729 -0.009005 -0.004009 0.000000 -0.010545 0.000000
# 2 -0.009005 0.030658 -0.007267 0.000000 -0.005263 0.000000
# 3 -0.004009 -0.007267 0.011897 0.000000 0.004576 0.000000
# 4 0.000000 0.000000 0.000000 0.034548 0.000000 -0.000608
# 5 -0.010545 -0.005263 0.004576 0.000000 0.036100 0.000000
# 6 0.000000 0.000000 0.000000 -0.000608 0.000000 0.032880
#
#
# Mechanical properties :
#
#
# Convention : Reuss Voigt Hill
#
# Bulk Modulus (GPa) = 40.44995 52.76306 46.60650
# Shear Modulus (GPa) = 22.97641 28.19463 25.58552
#
# Velocity S-wave (km/s) = 3.38850 3.75362 3.57572
# Velocity P-wave (km/s) = 5.96013 6.71962 6.35124
#
# Compressibility (1/GPa) = 0.02472191
#
# Stress axis : x y z
#
# Youngs Moduli (GPa) = 43.99733 32.61750 84.05606
#
# Poissons Ratio (x) = 0.29372 0.33698
# Poissons Ratio (y) = 0.39620 0.61084
# Poissons Ratio (z) = 0.17638 0.23703
#
# Static dielectric constant tensor:
#      x y z
#    x 3.913510 0.000000 0.057560 
#    y 0.000000 3.278500 0.000000 
#    z 0.057560 0.000000 4.000930 
# 
# 
# High freq. dielectric constant tensor:
#      x y z
#    x 1.786010 0.000000 0.000750 
#    y 0.000000 1.742910 0.000000 
#    z 0.000750 0.000000 1.794980 
# 
# From -- ./inp_files/51967.got.cif
#   From: 2010.06.25/outbox.cif.g09.slc.cpg/sg10_26_cif.got.tgz:51967.got - 2010.06.27 22:07:45.
