data_PCOD8067151
_publ_section_title
;
Structure prediction by ZEFSAII (Michael W. Deem and Ramdas Pophale) SiO2 
 PCOD8067151
Probable space group: P 2/M
;
_chemical_formula_sum "Si O2"
_cell_formula_units_Z 32
_cell_length_a 12.212049
_cell_length_b 13.712295
_cell_length_c 18.907559
_cell_angle_alpha 90.000000
_cell_angle_beta 151.424801
_cell_angle_gamma 90.000000
_cell_volume 1514.416101
_symmetry_space_group_name_H-M "P 2/M"
_symmetry_group_IT_number 10
_symmetry_cell_setting 'monoclinic'
loop_
_space_group_symop_operation_xyz
x,y,z
-x,y,-z
-x,-y,-z
x,-y,z
loop_
_atom_site_type_symbol
_atom_site_label
_atom_site_fract_x
_atom_site_fract_y
_atom_site_fract_z
Si Si1 0.979325 0.194372 0.191722
Si Si2 0.477975 0.786348 0.853582
Si Si3 0.140854 0.390304 0.245418
Si Si4 0.930809 0.111105 0.311179
Si Si5 0.520042 0.390273 0.349627
Si Si6 0.356384 0.188222 0.626079
Si Si7 0.682819 0.394659 0.911700
Si Si8 0.830252 0.114454 0.842578
O O1 0.031344 0.130751 0.290258
O O2 0.071593 0.305372 0.262021
O O3 0.122952 0.159239 0.206910
O O4 0.715332 0.176518 0.020970
O O5 0.278880 0.814169 0.795339
O O6 0.410517 0.829896 0.739182
O O7 0.509577 0.671315 0.859129
O O8 0.129744 0.500000 0.273035
O O9 0.389955 0.375414 0.350681
O O10 0.949713 0.376274 0.076606
O O11 0.128932 0.127838 0.480802
O O12 0.843691 0.000000 0.268068
O O13 0.634299 0.500000 0.413444
O O14 0.691160 0.300383 0.428569
O O15 0.333834 0.381652 0.181738
O O16 0.570113 0.143160 0.707284
O O17 0.603540 0.500000 0.892305
O O18 0.862648 0.000000 0.856924
O O19 0.000000 0.156674 0.000000
#
# Coordination Sequence:
#
# PCOD8067151 Si02
#       8
#     4   4   4   4   4   4   4   4
#     4  11  22  41  64  91 125 156 198 255 306 360
#     4  10  22  40  66  89 117 160 207 250 298 349
#     4   9  16  29  55  89 123 156 190 233 296 368
#     4  12  28  45  60  83 118 166 213 254 302 358
#     4   9  16  29  55  89 123 156 190 233 296 368
#     4  11  22  41  64  91 125 156 198 255 306 360
#     4   8  15  28  54  92 124 150 191 242 296 351
#     4  11  22  37  62  92 119 154 201 257 315 360
#
# _framework density 21.130257
#
# number of rings (size 3 to 8) (size 9 to 14) (size 15 to 20)
#    0.000    1.875    2.500    1.875    0.000    5.000 
#    0.000    3.125    0.000    7.500    0.000    0.000 
#    0.000    0.000    0.000    0.000    0.000    0.000 
#
# Total GULP energy -396487.405028 kJ/mol
# GULP energy per Si atom -12390.231407 kJ/mol
# Density = 2.108216 g / cm^3
# Si number density = 21.130257 Si / 1000 Ang^3
#
#
#
# Elastic Constant Matrix: (Units=GPa)
#
#
# Indices 1 2 3 4 5 6 
#
# 1 61.0072 18.1110 2.2961 0.0000 3.1080 0.0000
# 2 18.1110 88.4782 9.7326 0.0000 1.7277 0.0000
# 3 2.2961 9.7326 26.7041 0.0000 -0.3216 0.0000
# 4 0.0000 0.0000 0.0000 18.5147 0.0000 -3.6721
# 5 3.1080 1.7277 -0.3216 0.0000 27.2182 0.0000
# 6 0.0000 0.0000 0.0000 -3.6721 0.0000 24.8873
#
#
#
# Elastic Compliance Matrix: (Units=1/GPa)
#
#
# Indices 1 2 3 4 5 6 
#
# 1 0.017539 -0.003529 -0.000244 0.000000 -0.001782 0.000000
# 2 -0.003529 0.012501 -0.004258 0.000000 -0.000441 0.000000
# 3 -0.000244 -0.004258 0.039029 0.000000 0.000759 0.000000
# 4 0.000000 0.000000 0.000000 0.055639 0.000000 0.008209
# 5 -0.001782 -0.000441 0.000759 0.000000 0.036980 0.000000
# 6 0.000000 0.000000 0.000000 0.008209 0.000000 0.041392
#
#
# Mechanical properties :
#
#
# Convention : Reuss Voigt Hill
#
# Bulk Modulus (GPa) = 18.86459 26.27431 22.56945
# Shear Modulus (GPa) = 21.11377 23.86072 22.48724
#
# Velocity S-wave (km/s) = 3.16447 3.36403 3.26578
# Velocity P-wave (km/s) = 4.72218 5.24885 4.99246
#
# Compressibility (1/GPa) = 0.05300938
#
# Stress axis : x y z
#
# Youngs Moduli (GPa) = 57.01597 79.99042 25.62168
#
# Poissons Ratio (x) = 0.28225 0.00624
# Poissons Ratio (y) = 0.20118 0.10910
# Poissons Ratio (z) = 0.01388 0.34062
#
# Static dielectric constant tensor:
#      x y z
#    x 3.617470 0.000000 -0.055220 
#    y 0.000000 4.278760 0.000000 
#    z -0.055220 0.000000 3.641780 
# 
# 
# High freq. dielectric constant tensor:
#      x y z
#    x 1.803810 0.000000 -0.008540 
#    y 0.000000 1.840480 0.000000 
#    z -0.008540 0.000000 1.814000 
# 
# From -- ./inp_files/77056.got.cif
#   From: 2010.06.25/outbox.cif.g09.slc.cpg/sg10_39_cif.got.tgz:77056.got - 2010.06.27 22:07:45.
