data_PCOD8067471
_publ_section_title
;
Structure prediction by ZEFSAII (Michael W. Deem and Ramdas Pophale) SiO2 
 PCOD8067471
Probable space group: P 2/M
;
_chemical_formula_sum "Si O2"
_cell_formula_units_Z 26
_cell_length_a 16.516362
_cell_length_b 20.921852
_cell_length_c 17.223378
_cell_angle_alpha 90.000000
_cell_angle_beta 17.427982
_cell_angle_gamma 90.000000
_cell_volume 1782.540965
_symmetry_space_group_name_H-M "P 2/M"
_symmetry_group_IT_number 10
_symmetry_cell_setting 'monoclinic'
loop_
_space_group_symop_operation_xyz
x,y,z
-x,y,-z
-x,-y,-z
x,-y,z
loop_
_atom_site_type_symbol
_atom_site_label
_atom_site_fract_x
_atom_site_fract_y
_atom_site_fract_z
Si Si1 0.993952 0.076197 0.737598
Si Si2 0.584171 0.114908 0.240598
Si Si3 0.286916 0.774707 0.765894
Si Si4 0.698185 0.000000 0.247719
Si Si5 0.863068 0.634402 0.046890
Si Si6 0.361428 0.573204 0.543809
Si Si7 0.793086 0.075825 0.752170
O O1 0.298462 0.101505 0.461818
O O2 0.878808 0.096169 0.759634
O O3 0.981769 0.000000 0.763065
O O4 0.816999 0.112826 0.963121
O O5 0.581176 0.182343 0.287709
O O6 0.642084 0.062698 0.251463
O O7 0.500000 0.765981 0.500000
O O8 0.212677 0.708287 0.875008
O O9 0.000000 0.805083 0.000000
O O10 0.500000 0.000000 0.500000
O O11 0.000000 0.000000 0.000000
O O12 0.098882 0.618592 0.768552
O O13 0.593479 0.594842 0.270657
O O14 0.000000 0.606889 0.000000
O O15 0.500000 0.586371 0.500000
O O16 0.277058 0.500000 0.608638
O O17 0.000000 0.104730 0.500000
O O18 0.788161 0.000000 0.749699
O O19 0.500000 0.104420 0.000000
#
# Coordination Sequence:
#
# PCOD8067471 Si02
#       7
#     4   4   4   2   4   4   4
#     4  11  20  34  48  65  86 103 124 162 212 254
#     4  12  22  34  47  62  79 105 135 176 219 251
#     4  11  21  34  45  56  75 105 144 179 212 252
#     4  12  22  34  46  58  74  98 136 180 222 256
#     4   9  16  26  39  53  73  98 125 161 203 244
#     4   9  15  23  37  57  76  93 116 151 202 255
#     4   9  17  29  47  68  86 104 121 141 183 252
#
# _framework density 14.585921000000001
#
# number of rings (size 3 to 8) (size 9 to 14) (size 15 to 20)
#    0.000    1.692    1.538    6.462    0.000    4.308 
#    0.000    0.000    0.000    0.000    0.000    0.000 
#    0.000    0.000    0.000    0.000    0.000    0.000 
#
# Total GULP energy -322270.373486 kJ/mol
# GULP energy per Si atom -12395.014365 kJ/mol
# Density = 1.455272 g / cm^3
# Si number density = 14.585921 Si / 1000 Ang^3
#
#
#
# Elastic Constant Matrix: (Units=GPa)
#
#
# Indices 1 2 3 4 5 6 
#
# 1 60.2639 22.7141 28.9555 0.0000 -7.5319 0.0000
# 2 22.7141 68.2668 34.0495 0.0000 -2.1452 0.0000
# 3 28.9555 34.0495 112.5008 0.0000 -10.0240 0.0000
# 4 0.0000 0.0000 0.0000 20.3007 0.0000 -3.0952
# 5 -7.5319 -2.1452 -10.0240 0.0000 26.0232 0.0000
# 6 0.0000 0.0000 0.0000 -3.0952 0.0000 6.4611
#
#
#
# Elastic Compliance Matrix: (Units=1/GPa)
#
#
# Indices 1 2 3 4 5 6 
#
# 1 0.020665 -0.005039 -0.003415 0.000000 0.004250 0.000000
# 2 -0.005039 0.018491 -0.004446 0.000000 -0.001647 0.000000
# 3 -0.003415 -0.004446 0.011383 0.000000 0.003030 0.000000
# 4 0.000000 0.000000 0.000000 0.053141 0.000000 0.025458
# 5 0.004250 -0.001647 0.003030 0.000000 0.040689 0.000000
# 6 0.000000 0.000000 0.000000 0.025458 0.000000 0.166969
#
#
# Mechanical properties :
#
#
# Convention : Reuss Voigt Hill
#
# Bulk Modulus (GPa) = 40.42200 45.82996 43.12598
# Shear Modulus (GPa) = 14.47660 20.91114 17.69387
#
# Velocity S-wave (km/s) = 3.15382 3.79047 3.48671
# Velocity P-wave (km/s) = 6.40588 7.11658 6.77056
#
# Compressibility (1/GPa) = 0.02473900
#
# Stress axis : x y z
#
# Youngs Moduli (GPa) = 48.39116 54.08063 87.84680
#
# Poissons Ratio (x) = 0.27251 0.29999
# Poissons Ratio (y) = 0.24384 0.39059
# Poissons Ratio (z) = 0.16525 0.24046
#
# Static dielectric constant tensor:
#      x y z
#    x 2.539370 0.000000 -0.232280 
#    y 0.000000 2.604290 0.000000 
#    z -0.232280 0.000000 3.048480 
# 
# 
# High freq. dielectric constant tensor:
#      x y z
#    x 1.505590 0.000000 -0.012620 
#    y 0.000000 1.530310 0.000000 
#    z -0.012620 0.000000 1.592150 
# 
# From -- ./inp_files/67790.got.cif
#   From: 2010.06.25/outbox.cif.g09.slc.cpg/sg10_34_cif.got.tgz:67790.got - 2010.06.27 22:07:45.
