data_PCOD8067229
_publ_section_title
;
Structure prediction by ZEFSAII (Michael W. Deem and Ramdas Pophale) SiO2 
 PCOD8067229
Probable space group: P 2/M
;
_chemical_formula_sum "Si O2"
_cell_formula_units_Z 32
_cell_length_a 11.846171
_cell_length_b 8.814737
_cell_length_c 14.679576
_cell_angle_alpha 90.000000
_cell_angle_beta 93.235153
_cell_angle_gamma 90.000000
_cell_volume 1530.411403
_symmetry_space_group_name_H-M "P 2/M"
_symmetry_group_IT_number 10
_symmetry_cell_setting 'monoclinic'
loop_
_space_group_symop_operation_xyz
x,y,z
-x,y,-z
-x,-y,-z
x,-y,z
loop_
_atom_site_type_symbol
_atom_site_label
_atom_site_fract_x
_atom_site_fract_y
_atom_site_fract_z
Si Si1 0.071286 0.820989 0.414782
Si Si2 0.241911 0.179223 0.162857
Si Si3 0.299598 0.671907 0.482138
Si Si4 0.591264 0.671532 0.697657
Si Si5 0.229373 0.673795 0.816465
Si Si6 0.631353 0.677833 0.999959
Si Si7 0.636831 0.821862 0.327906
Si Si8 0.024951 0.324814 0.222670
O O1 0.196694 0.762596 0.434604
O O2 0.017714 0.745634 0.323080
O O3 0.000000 0.773702 0.500000
O O4 0.072304 0.000000 0.399927
O O5 0.303741 0.238749 0.255771
O O6 0.114498 0.243306 0.160443
O O7 0.236051 0.000000 0.164396
O O8 0.309661 0.232151 0.078023
O O9 0.263688 0.500000 0.504922
O O10 0.398450 0.671751 0.411192
O O11 0.345281 0.754887 0.572147
O O12 0.589590 0.500000 0.736106
O O13 0.475803 0.752467 0.722059
O O14 0.256959 0.500000 0.792192
O O15 0.303568 0.726104 0.905697
O O16 0.259034 0.779293 0.732067
O O17 0.096661 0.694343 0.831360
O O18 0.643653 0.500000 0.981099
O O19 0.500000 0.725739 0.000000
O O20 0.624781 0.000000 0.336020
O O21 0.059580 0.500000 0.234008
#
# Coordination Sequence:
#
# PCOD8067229 Si02
#       8
#     4   4   4   4   4   4   4   4
#     4  11  23  38  59  89 126 167 214 270 327 380
#     4  12  25  41  66  97 131 168 210 268 330 388
#     4  11  23  39  61  88 121 167 218 264 313 379
#     4  11  23  41  64  90 124 167 217 265 314 381
#     4  10  23  43  67  94 126 168 217 265 314 379
#     4  10  22  43  71  99 128 166 212 264 321 386
#     4  12  25  39  61  93 131 169 208 265 327 381
#     4  11  23  41  64  91 126 170 219 266 316 381
#
# _framework density 20.909410999999999
#
# number of rings (size 3 to 8) (size 9 to 14) (size 15 to 20)
#    0.000    1.000    1.250    5.625    0.000    9.250 
#    0.000    2.500    0.000    0.000    0.000    0.000 
#    0.000    0.000    0.000    0.000    0.000    0.000 
#
# Total GULP energy -396997.782859 kJ/mol
# GULP energy per Si atom -12406.180714 kJ/mol
# Density = 2.086182 g / cm^3
# Si number density = 20.909411 Si / 1000 Ang^3
#
#
#
# Elastic Constant Matrix: (Units=GPa)
#
#
# Indices 1 2 3 4 5 6 
#
# 1 130.9965 59.7330 49.2698 0.0000 0.3797 0.0000
# 2 59.7330 142.3406 54.4495 0.0000 -11.0945 0.0000
# 3 49.2698 54.4495 100.3821 0.0000 -4.9715 0.0000
# 4 0.0000 0.0000 0.0000 18.5303 0.0000 -1.1570
# 5 0.3797 -11.0945 -4.9715 0.0000 37.4052 0.0000
# 6 0.0000 0.0000 0.0000 -1.1570 0.0000 20.2117
#
#
#
# Elastic Compliance Matrix: (Units=1/GPa)
#
#
# Indices 1 2 3 4 5 6 
#
# 1 0.010374 -0.003147 -0.003459 0.000000 -0.001499 0.000000
# 2 -0.003147 0.009971 -0.003740 0.000000 0.002492 0.000000
# 3 -0.003459 -0.003740 0.013726 0.000000 0.000750 0.000000
# 4 0.000000 0.000000 0.000000 0.054159 0.000000 0.003100
# 5 -0.001499 0.002492 0.000750 0.000000 0.027588 0.000000
# 6 0.000000 0.000000 0.000000 0.003100 0.000000 0.049654
#
#
# Mechanical properties :
#
#
# Convention : Reuss Voigt Hill
#
# Bulk Modulus (GPa) = 74.75033 77.84710 76.29871
# Shear Modulus (GPa) = 26.22950 29.24724 27.73837
#
# Velocity S-wave (km/s) = 3.54564 3.74406 3.64620
# Velocity P-wave (km/s) = 7.25185 7.48345 7.36856
#
# Compressibility (1/GPa) = 0.01337787
#
# Stress axis : x y z
#
# Youngs Moduli (GPa) = 96.39304 100.28898 72.85567
#
# Poissons Ratio (x) = 0.31562 0.25201
# Poissons Ratio (y) = 0.30336 0.27251
# Poissons Ratio (z) = 0.33343 0.37513
#
# Static dielectric constant tensor:
#      x y z
#    x 3.851180 0.000000 -0.040840 
#    y 0.000000 3.822190 0.000000 
#    z -0.040840 0.000000 3.766110 
# 
# 
# High freq. dielectric constant tensor:
#      x y z
#    x 1.832040 0.000000 -0.002100 
#    y 0.000000 1.823790 0.000000 
#    z -0.002100 0.000000 1.818860 
# 
# From -- ./inp_files/63795.got.cif
#   From: 2010.06.25/outbox.cif.g09.slc.cpg/sg10_32_cif.got.tgz:63795.got - 2010.06.27 22:07:45.
