data_PCOD8067057
_publ_section_title
;
Structure prediction by ZEFSAII (Michael W. Deem and Ramdas Pophale) SiO2 
 PCOD8067057
Probable space group: P 2/M
;
_chemical_formula_sum "Si O2"
_cell_formula_units_Z 28
_cell_length_a 10.051216
_cell_length_b 18.273581
_cell_length_c 16.829825
_cell_angle_alpha 90.000000
_cell_angle_beta 152.986094
_cell_angle_gamma 90.000000
_cell_volume 1404.026943
_symmetry_space_group_name_H-M "P 2/M"
_symmetry_group_IT_number 10
_symmetry_cell_setting 'monoclinic'
loop_
_space_group_symop_operation_xyz
x,y,z
-x,y,-z
-x,-y,-z
x,-y,z
loop_
_atom_site_type_symbol
_atom_site_label
_atom_site_fract_x
_atom_site_fract_y
_atom_site_fract_z
Si Si1 0.699749 0.693715 0.804414
Si Si2 0.312294 0.215550 0.709104
Si Si3 0.817926 0.767640 0.705750
Si Si4 0.157489 0.921858 0.311720
Si Si5 0.220025 0.678243 0.802671
Si Si6 0.171903 0.415727 0.510209
Si Si7 0.685514 0.082241 0.177638
O O1 0.563016 0.762960 0.778912
O O2 0.803290 0.718268 0.773821
O O3 0.473765 0.627739 0.676321
O O4 0.000000 0.662605 0.000000
O O5 0.329669 0.277432 0.785038
O O6 0.379084 0.136766 0.783633
O O7 0.000000 0.215721 0.500000
O O8 0.500000 0.776390 0.500000
O O9 0.931283 0.850364 0.787300
O O10 0.034601 0.732693 0.757741
O O11 0.500000 0.929388 0.500000
O O12 0.024897 0.911052 0.330359
O O13 0.032424 0.000000 0.210280
O O14 0.021854 0.610661 0.667769
O O15 0.500000 0.647555 0.000000
O O16 0.248712 0.500000 0.537346
O O17 0.000000 0.402259 0.500000
O O18 0.614143 0.000000 0.169442
O O19 0.500000 0.102549 0.000000
#
# Coordination Sequence:
#
# PCOD8067057 Si02
#       7
#     4   4   4   4   4   4   4
#     4  12  25  41  64  97 130 165 209 260 321 383
#     4  12  22  41  64  91 130 170 219 263 316 383
#     4  11  21  37  63  92 124 166 210 269 314 362
#     4   9  19  34  56  85 119 160 210 256 312 366
#     4  12  22  40  68  95 125 166 218 259 307 375
#     4  11  24  47  71  96 130 166 204 255 324 391
#     4  10  22  39  61  91 126 169 223 275 321 373
#
# _framework density 19.942637999999999
#
# number of rings (size 3 to 8) (size 9 to 14) (size 15 to 20)
#    0.000    1.000    5.714    1.286    4.000    0.857 
#    0.000    2.143    0.000    0.857    0.000    0.000 
#    0.000    0.000    0.000    0.000    0.000    0.000 
#
# Total GULP energy -347048.140487 kJ/mol
# GULP energy per Si atom -12394.576446 kJ/mol
# Density = 1.989725 g / cm^3
# Si number density = 19.942638 Si / 1000 Ang^3
#
#
#
# Elastic Constant Matrix: (Units=GPa)
#
#
# Indices 1 2 3 4 5 6 
#
# 1 25.4895 16.2989 16.1462 0.0000 -2.9283 0.0000
# 2 16.2989 139.6792 52.8856 0.0000 -7.9186 0.0000
# 3 16.1462 52.8856 133.7469 0.0000 -4.2171 0.0000
# 4 0.0000 0.0000 0.0000 -102.9505 0.0000 42.0693
# 5 -2.9283 -7.9186 -4.2171 0.0000 30.8149 0.0000
# 6 0.0000 0.0000 0.0000 42.0693 0.0000 11.9826
#
#
#
# Elastic Compliance Matrix: (Units=1/GPa)
#
#
# Indices 1 2 3 4 5 6 
#
# 1 0.044259 -0.003549 -0.003853 0.000000 0.002767 0.000000
# 2 -0.003549 0.008796 -0.003002 0.000000 0.001512 0.000000
# 3 -0.003853 -0.003002 0.009132 0.000000 0.000112 0.000000
# 4 0.000000 0.000000 0.000000 -0.003990 0.000000 0.014007
# 5 0.002767 0.001512 0.000112 0.000000 0.033119 0.000000
# 6 0.000000 0.000000 0.000000 0.014007 0.000000 0.034277
#
#
# Mechanical properties :
#
#
# Convention : Reuss Voigt Hill
#
# Bulk Modulus (GPa) = 24.16586 52.17522 38.17054
# Shear Modulus (GPa) = 31.21211 2.20842 16.71027
#
# Velocity S-wave (km/s) = 3.96042 1.05347 2.89782
# Velocity P-wave (km/s) = 5.74954 5.26300 5.51164
#
# Compressibility (1/GPa) = 0.04138070
#
# Stress axis : x y z
#
# Youngs Moduli (GPa) = 22.59410 113.69226 109.50031
#
# Poissons Ratio (x) = 0.40350 0.42185
# Poissons Ratio (y) = 0.08019 0.32870
# Poissons Ratio (z) = 0.08704 0.34128
#
# Static dielectric constant tensor:
#      x y z
#    x 3.823000 0.000000 0.282890 
#    y 0.000000 3.843080 0.000000 
#    z 0.282890 0.000000 4.173650 
# 
# 
# High freq. dielectric constant tensor:
#      x y z
#    x 1.774080 0.000000 0.020820 
#    y 0.000000 1.778140 0.000000 
#    z 0.020820 0.000000 1.779480 
# 
# From -- ./inp_files/62617.got.cif
#   From: 2010.06.25/outbox.cif.g09.slc.cpg/sg10_32_cif.got.tgz:62617.got - 2010.06.27 22:07:45.
