data_PCOD8067258
_publ_section_title
;
Structure prediction by ZEFSAII (Michael W. Deem and Ramdas Pophale) SiO2 
 PCOD8067258
Probable space group: P 2/M
;
_chemical_formula_sum "Si O2"
_cell_formula_units_Z 28
_cell_length_a 12.749848
_cell_length_b 18.503587
_cell_length_c 17.618600
_cell_angle_alpha 90.000000
_cell_angle_beta 158.496067
_cell_angle_gamma 90.000000
_cell_volume 1523.643754
_symmetry_space_group_name_H-M "P 2/M"
_symmetry_group_IT_number 10
_symmetry_cell_setting 'monoclinic'
loop_
_space_group_symop_operation_xyz
x,y,z
-x,y,-z
-x,-y,-z
x,-y,z
loop_
_atom_site_type_symbol
_atom_site_label
_atom_site_fract_x
_atom_site_fract_y
_atom_site_fract_z
Si Si1 0.124933 0.842477 0.668287
Si Si2 0.876647 0.918457 0.632996
Si Si3 0.620111 0.324296 0.959285
Si Si4 0.300703 0.916241 0.168820
Si Si5 0.278094 0.420265 0.634605
Si Si6 0.288677 0.831883 0.009082
Si Si7 0.061000 0.690612 0.676068
O O1 0.469299 0.841748 0.893172
O O2 0.989209 0.775984 0.627401
O O3 0.000000 0.844334 0.500000
O O4 0.032706 0.911280 0.655963
O O5 0.539310 0.903054 0.394030
O O6 0.925793 0.000000 0.694791
O O7 0.997261 0.865548 0.779405
O O8 0.574738 0.394419 0.875202
O O9 0.742182 0.254297 0.996806
O O10 0.296977 0.310258 0.768848
O O11 0.825115 0.340725 0.167878
O O12 0.380053 0.869775 0.148365
O O13 0.288401 0.000000 0.136225
O O14 0.000000 0.889625 0.000000
O O15 0.339481 0.500000 0.641370
O O16 0.000000 0.426696 0.500000
O O17 0.209734 0.360140 0.524587
#
# Coordination Sequence:
#
# PCOD8067258 Si02
#       7
#     4   4   4   4   4   4   4
#     4  11  19  32  51  75 106 136 169 208 260 314
#     4  11  23  35  52  77 101 132 171 214 263 311
#     4   9  17  27  45  66  94 130 168 201 246 295
#     4  10  23  41  56  72  97 133 177 221 265 309
#     4   9  17  27  41  64  95 137 179 206 232 281
#     4  11  20  34  55  76 102 136 169 214 260 310
#     4   9  16  28  42  64  96 134 167 201 243 294
#
# _framework density 18.376998
#
# number of rings (size 3 to 8) (size 9 to 14) (size 15 to 20)
#    0.000    2.000    2.857    3.000    0.000    3.143 
#    0.000    5.000    0.000    0.000    0.000    0.000 
#    0.000    0.571    0.000    2.714    0.000    2.286 
#
# Total GULP energy -347023.626653 kJ/mol
# GULP energy per Si atom -12393.700952 kJ/mol
# Density = 1.833517 g / cm^3
# Si number density = 18.376998 Si / 1000 Ang^3
#
#
#
# Elastic Constant Matrix: (Units=GPa)
#
#
# Indices 1 2 3 4 5 6 
#
# 1 22.3421 22.2110 15.4136 0.0000 -5.6121 0.0000
# 2 22.2110 107.8567 45.0881 0.0000 -9.9302 0.0000
# 3 15.4136 45.0881 81.4001 0.0000 -16.3613 0.0000
# 4 0.0000 0.0000 0.0000 26.9824 0.0000 -8.0210
# 5 -5.6121 -9.9302 -16.3613 0.0000 28.0301 0.0000
# 6 0.0000 0.0000 0.0000 -8.0210 0.0000 6.9666
#
#
#
# Elastic Compliance Matrix: (Units=1/GPa)
#
#
# Indices 1 2 3 4 5 6 
#
# 1 0.059030 -0.009679 -0.004679 0.000000 0.005659 0.000000
# 2 -0.009679 0.013657 -0.005833 0.000000 -0.000505 0.000000
# 3 -0.004679 -0.005833 0.017898 0.000000 0.007444 0.000000
# 4 0.000000 0.000000 0.000000 0.056346 0.000000 0.064874
# 5 0.005659 -0.000505 0.007444 0.000000 0.040975 0.000000
# 6 0.000000 0.000000 0.000000 0.064874 0.000000 0.218236
#
#
# Mechanical properties :
#
#
# Convention : Reuss Voigt Hill
#
# Bulk Modulus (GPa) = 19.91928 41.89159 30.90543
# Shear Modulus (GPa) = 10.79308 20.98822 15.89065
#
# Velocity S-wave (km/s) = 2.42609 3.38315 2.94377
# Velocity P-wave (km/s) = 4.32558 6.17301 5.32995
#
# Compressibility (1/GPa) = 0.05020261
#
# Stress axis : x y z
#
# Youngs Moduli (GPa) = 16.94046 73.22340 55.87121
#
# Poissons Ratio (x) = 0.70874 0.26142
# Poissons Ratio (y) = 0.16397 0.32591
# Poissons Ratio (z) = 0.07927 0.42713
#
# Static dielectric constant tensor:
#      x y z
#    x 2.874870 0.000000 -0.218250 
#    y 0.000000 3.602960 0.000000 
#    z -0.218250 0.000000 3.399380 
# 
# 
# High freq. dielectric constant tensor:
#      x y z
#    x 1.652560 0.000000 -0.040120 
#    y 0.000000 1.708470 0.000000 
#    z -0.040120 0.000000 1.712930 
# 
# From -- ./inp_files/85462.got.cif
#   From: 2010.06.25/outbox.cif.g09.slc.cpg/sg10_43_cif.got.tgz:85462.got - 2010.06.27 22:07:45.
