data_PCOD8067813
_publ_section_title
;
Structure prediction by ZEFSAII (Michael W. Deem and Ramdas Pophale) SiO2 
 PCOD8067813
Probable space group: P 2/M
;
_chemical_formula_sum "Si O2"
_cell_formula_units_Z 28
_cell_length_a 26.503555
_cell_length_b 8.884928
_cell_length_c 20.454286
_cell_angle_alpha 90.000000
_cell_angle_beta 18.841478
_cell_angle_gamma 90.000000
_cell_volume 1555.531783
_symmetry_space_group_name_H-M "P 2/M"
_symmetry_group_IT_number 10
_symmetry_cell_setting 'monoclinic'
loop_
_space_group_symop_operation_xyz
x,y,z
-x,y,-z
-x,-y,-z
x,-y,z
loop_
_atom_site_type_symbol
_atom_site_label
_atom_site_fract_x
_atom_site_fract_y
_atom_site_fract_z
Si Si1 0.717395 0.676572 0.406534
Si Si2 0.034639 0.323405 0.089387
Si Si3 0.928270 0.320989 0.489715
Si Si4 0.443074 0.321313 0.265682
Si Si5 0.139795 0.678728 0.568866
Si Si6 0.342154 0.822092 0.657902
Si Si7 0.764350 0.678992 0.817772
O O1 0.710989 0.500000 0.399332
O O2 0.593457 0.722579 0.614678
O O3 0.664011 0.765122 0.408483
O O4 0.893122 0.720486 0.213768
O O5 0.068200 0.500000 0.042278
O O6 0.990034 0.277426 0.218219
O O7 0.191022 0.235020 0.881598
O O8 0.934286 0.500000 0.477787
O O9 0.898426 0.249922 0.454928
O O10 0.792440 0.272842 0.707632
O O11 0.093933 0.259106 0.312012
O O12 0.446767 0.500000 0.255314
O O13 0.306983 0.256551 0.386192
O O14 0.605358 0.249874 0.041454
O O15 0.149345 0.500000 0.552678
O O16 0.500000 0.763225 0.500000
O O17 0.339066 0.000000 0.661019
O O18 0.758576 0.500000 0.829455
#
# Coordination Sequence:
#
# PCOD8067813 Si02
#       7
#     4   4   4   4   4   4   4
#     4   9  18  33  52  72  93 119 154 193 231 275
#     4   9  18  33  52  72  93 119 154 193 231 275
#     4   8  13  20  30  48  78 115 150 180 212 254
#     4   8  14  24  38  58  83 110 143 183 222 260
#     4   8  14  24  38  58  83 110 143 183 222 260
#     4  11  24  37  48  68  96 121 150 189 230 276
#     4   8  13  20  30  48  78 115 150 180 212 254
#
# _framework density 18.000274000000001
#
# number of rings (size 3 to 8) (size 9 to 14) (size 15 to 20)
#    0.000    3.286    0.000    3.429    0.000    5.143 
#    0.000    5.714    0.000    0.000    0.000    0.000 
#    0.000    1.143    0.000   12.571    0.000   20.571 
#
# Total GULP energy -346987.169364 kJ/mol
# GULP energy per Si atom -12392.398906 kJ/mol
# Density = 1.795930 g / cm^3
# Si number density = 18.000274 Si / 1000 Ang^3
#
#
#
# Elastic Constant Matrix: (Units=GPa)
#
#
# Indices 1 2 3 4 5 6 
#
# 1 161.9038 26.5039 97.5848 0.0000 12.2756 0.0000
# 2 26.5039 22.3472 26.3947 0.0000 -1.5918 0.0000
# 3 97.5848 26.3947 166.6170 0.0000 10.6352 0.0000
# 4 0.0000 0.0000 0.0000 5.0889 0.0000 -8.8119
# 5 12.2756 -1.5918 10.6352 0.0000 22.5463 0.0000
# 6 0.0000 0.0000 0.0000 -8.8119 0.0000 6.3868
#
#
#
# Elastic Compliance Matrix: (Units=1/GPa)
#
#
# Indices 1 2 3 4 5 6 
#
# 1 0.010527 -0.007118 -0.004784 0.000000 -0.003977 0.000000
# 2 -0.007118 0.061390 -0.006269 0.000000 0.011167 0.000000
# 3 -0.004784 -0.006269 0.009959 0.000000 -0.002536 0.000000
# 4 0.000000 0.000000 0.000000 -0.141461 0.000000 -0.195175
# 5 -0.003977 0.011167 -0.002536 0.000000 0.048503 0.000000
# 6 0.000000 0.000000 0.000000 -0.195175 0.000000 -0.112713
#
#
# Mechanical properties :
#
#
# Convention : Reuss Voigt Hill
#
# Bulk Modulus (GPa) = 21.96169 72.42608 47.19388
# Shear Modulus (GPa) = -69.17917 20.16336 -24.50790
#
# Velocity S-wave (km/s) = -6.20610 3.35052 -3.69389
# Velocity P-wave (km/s) = 6.25516 7.43582 2.84292
#
# Compressibility (1/GPa) = 0.04553384
#
# Stress axis : x y z
#
# Youngs Moduli (GPa) = 94.99725 16.28929 100.41565
#
# Poissons Ratio (x) = 0.11594 0.48037
# Poissons Ratio (y) = 0.67615 0.62953
# Poissons Ratio (z) = 0.45445 0.10212
#
# Static dielectric constant tensor:
#      x y z
#    x 3.672070 0.000000 0.008160 
#    y 0.000000 2.662010 0.000000 
#    z 0.008160 0.000000 3.675520 
# 
# 
# High freq. dielectric constant tensor:
#      x y z
#    x 1.705500 0.000000 0.008540 
#    y 0.000000 1.628240 0.000000 
#    z 0.008540 0.000000 1.706800 
# 
# From -- ./inp_files/85645.got.cif
#   From: 2010.06.25/outbox.cif.g09.slc.cpg/sg10_43_cif.got.tgz:85645.got - 2010.06.27 22:07:45.
