data_PCOD8067250
_publ_section_title
;
Structure prediction by ZEFSAII (Michael W. Deem and Ramdas Pophale) SiO2 
 PCOD8067250
Probable space group: P 2/M
;
_chemical_formula_sum "Si O2"
_cell_formula_units_Z 32
_cell_length_a 12.542557
_cell_length_b 14.775331
_cell_length_c 19.318757
_cell_angle_alpha 90.000000
_cell_angle_beta 153.133353
_cell_angle_gamma 90.000000
_cell_volume 1617.929967
_symmetry_space_group_name_H-M "P 2/M"
_symmetry_group_IT_number 10
_symmetry_cell_setting 'monoclinic'
loop_
_space_group_symop_operation_xyz
x,y,z
-x,y,-z
-x,-y,-z
x,-y,z
loop_
_atom_site_type_symbol
_atom_site_label
_atom_site_fract_x
_atom_site_fract_y
_atom_site_fract_z
Si Si1 0.118359 0.145163 0.468429
Si Si2 0.581270 0.402995 0.123096
Si Si3 0.506421 0.895436 0.423212
Si Si4 0.069750 0.647212 0.461756
Si Si5 0.851492 0.753855 0.844449
Si Si6 0.425168 0.601553 0.252567
Si Si7 0.643511 0.901025 0.255310
Si Si8 0.674392 0.271571 0.935064
O O1 0.234508 0.118533 0.461552
O O2 0.150852 0.250060 0.502494
O O3 0.247048 0.092593 0.604760
O O4 0.840842 0.120605 0.310815
O O5 0.548943 0.500000 0.144676
O O6 0.415687 0.321060 0.049495
O O7 0.854924 0.374773 0.286514
O O8 0.500000 0.422218 0.000000
O O9 0.500000 0.864424 0.500000
O O10 0.321917 0.836302 0.272398
O O11 0.430420 0.000000 0.373972
O O12 0.297301 0.589745 0.570341
O O13 0.000000 0.624230 0.500000
O O14 0.711232 0.658571 0.767452
O O15 0.000000 0.776199 0.000000
O O16 0.044580 0.741777 0.895840
O O17 0.316160 0.500000 0.183803
O O18 0.399397 0.660647 0.168684
O O19 0.439876 0.826866 0.137276
O O20 0.534644 0.000000 0.175559
#
# Coordination Sequence:
#
# PCOD8067250 Si02
#       8
#     4   4   4   4   4   4   4   4
#     4  11  17  35  60  88 124 153 194 253 309 353
#     4  11  24  39  57  85 120 157 194 237 298 365
#     4  11  24  41  62  88 120 162 206 249 304 368
#     4  12  19  36  66  92 118 152 195 254 310 352
#     4  10  23  40  61  86 119 158 204 248 299 352
#     4  11  21  36  62  93 120 150 201 256 298 350
#     4  11  20  33  60  96 124 151 195 257 312 354
#     4  11  21  38  57  86 122 159 193 246 305 356
#
# _framework density 19.778358000000001
#
# number of rings (size 3 to 8) (size 9 to 14) (size 15 to 20)
#    0.000    1.000    6.250    3.000    0.000    5.000 
#    0.000    0.000    0.000    0.750    0.000    0.000 
#    0.000    0.000    0.000    0.000    0.000    0.000 
#
# Total GULP energy -396630.270923 kJ/mol
# GULP energy per Si atom -12394.695966 kJ/mol
# Density = 1.973334 g / cm^3
# Si number density = 19.778358 Si / 1000 Ang^3
#
#
#
# Elastic Constant Matrix: (Units=GPa)
#
#
# Indices 1 2 3 4 5 6 
#
# 1 108.2387 36.2884 41.8644 0.0000 22.8829 0.0000
# 2 36.2884 156.0014 37.9426 0.0000 13.2200 0.0000
# 3 41.8644 37.9426 80.7911 0.0000 15.2991 0.0000
# 4 0.0000 0.0000 0.0000 12.2475 0.0000 -4.1932
# 5 22.8829 13.2200 15.2991 0.0000 30.7103 0.0000
# 6 0.0000 0.0000 0.0000 -4.1932 0.0000 21.0493
#
#
#
# Elastic Compliance Matrix: (Units=1/GPa)
#
#
# Indices 1 2 3 4 5 6 
#
# 1 0.012954 -0.001267 -0.004851 0.000000 -0.006691 0.000000
# 2 -0.001267 0.007430 -0.002657 0.000000 -0.000931 0.000000
# 3 -0.004851 -0.002657 0.016825 0.000000 -0.003624 0.000000
# 4 0.000000 0.000000 0.000000 0.087625 0.000000 0.017456
# 5 -0.006691 -0.000931 -0.003624 0.000000 0.039754 0.000000
# 6 0.000000 0.000000 0.000000 0.017456 0.000000 0.050985
#
#
# Mechanical properties :
#
#
# Convention : Reuss Voigt Hill
#
# Bulk Modulus (GPa) = 50.86212 64.13578 57.49895
# Shear Modulus (GPa) = 20.86159 28.06381 24.46270
#
# Velocity S-wave (km/s) = 3.25124 3.77094 3.52069
# Velocity P-wave (km/s) = 6.31395 7.17339 6.75735
#
# Compressibility (1/GPa) = 0.01966100
#
# Stress axis : x y z
#
# Youngs Moduli (GPa) = 77.19549 134.59138 59.43500
#
# Poissons Ratio (x) = 0.17047 0.28831
# Poissons Ratio (y) = 0.09777 0.15790
# Poissons Ratio (z) = 0.37446 0.35757
#
# Static dielectric constant tensor:
#      x y z
#    x 3.900710 0.000000 0.437290 
#    y 0.000000 3.832110 0.000000 
#    z 0.437290 0.000000 3.429170 
# 
# 
# High freq. dielectric constant tensor:
#      x y z
#    x 1.759780 0.000000 0.029550 
#    y 0.000000 1.792780 0.000000 
#    z 0.029550 0.000000 1.740910 
# 
# From -- ./inp_files/77046.got.cif
#   From: 2010.06.25/outbox.cif.g09.slc.cpg/sg10_39_cif.got.tgz:77046.got - 2010.06.27 22:07:45.
