data_PCOD8067645
_publ_section_title
;
Structure prediction by ZEFSAII (Michael W. Deem and Ramdas Pophale) SiO2 
 PCOD8067645
Probable space group: P 2/M
;
_chemical_formula_sum "Si O2"
_cell_formula_units_Z 24
_cell_length_a 14.859475
_cell_length_b 15.425608
_cell_length_c 12.484042
_cell_angle_alpha 90.000000
_cell_angle_beta 28.230627
_cell_angle_gamma 90.000000
_cell_volume 1353.574380
_symmetry_space_group_name_H-M "P 2/M"
_symmetry_group_IT_number 10
_symmetry_cell_setting 'monoclinic'
loop_
_space_group_symop_operation_xyz
x,y,z
-x,y,-z
-x,-y,-z
x,-y,z
loop_
_atom_site_type_symbol
_atom_site_label
_atom_site_fract_x
_atom_site_fract_y
_atom_site_fract_z
Si Si1 0.279919 0.902688 0.353638
Si Si2 0.000000 0.645312 0.500000
Si Si3 0.722506 0.500000 0.749175
Si Si4 0.277336 0.902865 0.112664
Si Si5 0.960711 0.364238 0.919431
Si Si6 0.250909 0.500000 0.529181
Si Si7 0.989307 0.229696 0.711159
Si Si8 0.626704 0.500000 0.261257
O O1 0.205820 0.891693 0.309479
O O2 0.175130 0.830242 0.534163
O O3 0.232304 0.000000 0.443933
O O4 0.500944 0.884792 0.127117
O O5 0.812841 0.585256 0.709299
O O6 0.022884 0.701724 0.581929
O O7 0.775175 0.500000 0.569763
O O8 0.500000 0.500000 0.000000
O O9 0.184097 0.833449 0.133198
O O10 0.228327 0.000000 0.124617
O O11 0.941386 0.276750 0.871992
O O12 0.146190 0.416172 0.686078
O O13 0.763695 0.416625 0.113094
O O14 0.000000 0.338208 0.000000
O O15 0.476475 0.500000 0.320611
O O16 0.500000 0.500000 0.500000
#
# Coordination Sequence:
#
# PCOD8067645 Si02
#       8
#     4   2   2   4   4   2   4   2
#     4   9  18  33  54  82 116 151 182 218 271 335
#     4  11  24  38  49  84 116 150 189 220 280 343
#     4  11  26  39  54  77 121 162 183 214 280 360
#     4   9  18  33  54  83 115 148 187 220 265 336
#     4  11  24  40  56  84 109 140 195 244 277 328
#     4  11  21  40  59  78 108 149 185 237 284 322
#     4  12  21  34  56  81 116 144 177 235 279 324
#     4  11  21  40  67  77  95 143 195 244 288 320
#
# _framework density 17.730833000000001
#
# number of rings (size 3 to 8) (size 9 to 14) (size 15 to 20)
#    0.000    1.500    5.000    2.000    2.333    4.000 
#    0.000    0.000    0.000    2.000    0.000    2.333 
#    0.000    0.000    0.000    0.000    0.000    0.000 
#
# Total GULP energy -297604.074963 kJ/mol
# GULP energy per Si atom -12400.169790 kJ/mol
# Density = 1.769048 g / cm^3
# Si number density = 17.730833 Si / 1000 Ang^3
#
#
#
# Elastic Constant Matrix: (Units=GPa)
#
#
# Indices 1 2 3 4 5 6 
#
# 1 42.4775 35.5268 12.1844 0.0000 -0.0533 0.0000
# 2 35.5268 124.3813 44.7941 0.0000 -0.0743 0.0000
# 3 12.1844 44.7941 75.4367 0.0000 -6.3647 0.0000
# 4 0.0000 0.0000 0.0000 27.8207 0.0000 2.1376
# 5 -0.0533 -0.0743 -6.3647 0.0000 34.9772 0.0000
# 6 0.0000 0.0000 0.0000 2.1376 0.0000 -0.0103
#
#
#
# Elastic Compliance Matrix: (Units=1/GPa)
#
#
# Indices 1 2 3 4 5 6 
#
# 1 0.030937 -0.008955 0.000328 0.000000 0.000088 0.000000
# 2 -0.008955 0.012860 -0.006286 0.000000 -0.001130 0.000000
# 3 0.000328 -0.006286 0.017198 0.000000 0.003117 0.000000
# 4 0.000000 0.000000 0.000000 0.002123 0.000000 0.440182
# 5 0.000088 -0.001130 0.003117 0.000000 0.029155 0.000000
# 6 0.000000 0.000000 0.000000 0.440182 0.000000 -5.728878
#
#
# Mechanical properties :
#
#
# Convention : Reuss Voigt Hill
#
# Bulk Modulus (GPa) = 32.08067 47.47847 39.77957
# Shear Modulus (GPa) = -0.89343 22.54353 10.82505
#
# Velocity S-wave (km/s) = -0.71062 3.56958 2.47355
# Velocity P-wave (km/s) = 4.17841 6.62002 5.53551
#
# Compressibility (1/GPa) = 0.03117142
#
# Stress axis : x y z
#
# Youngs Moduli (GPa) = 32.32344 77.75798 58.14461
#
# Poissons Ratio (x) = 0.69628 -0.01905
# Poissons Ratio (y) = 0.28944 0.36547
# Poissons Ratio (z) = -0.01059 0.48875
#
# Static dielectric constant tensor:
#      x y z
#    x 3.279300 0.000000 -0.145480 
#    y 0.000000 3.407150 0.000000 
#    z -0.145480 0.000000 3.300760 
# 
# 
# High freq. dielectric constant tensor:
#      x y z
#    x 1.672990 0.000000 -0.024900 
#    y 0.000000 1.690230 0.000000 
#    z -0.024900 0.000000 1.682040 
# 
# From -- ./inp_files/51375.got.cif
#   From: 2010.06.25/outbox.cif.g09.slc.cpg/sg10_26_cif.got.tgz:51375.got - 2010.06.27 22:07:45.
