data_PCOD8067437
_publ_section_title
;
Structure prediction by ZEFSAII (Michael W. Deem and Ramdas Pophale) SiO2 
 PCOD8067437
Probable space group: P 2/M
;
_chemical_formula_sum "Si O2"
_cell_formula_units_Z 24
_cell_length_a 22.027267
_cell_length_b 11.110020
_cell_length_c 22.027712
_cell_angle_alpha 90.000000
_cell_angle_beta 166.496386
_cell_angle_gamma 90.000000
_cell_volume 1258.763632
_symmetry_space_group_name_H-M "P 2/M"
_symmetry_group_IT_number 10
_symmetry_cell_setting 'monoclinic'
loop_
_space_group_symop_operation_xyz
x,y,z
-x,y,-z
-x,-y,-z
x,-y,z
loop_
_atom_site_type_symbol
_atom_site_label
_atom_site_fract_x
_atom_site_fract_y
_atom_site_fract_z
Si Si1 0.454833 0.500000 0.045748
Si Si2 0.337968 0.643990 0.162597
Si Si3 0.085008 0.500000 0.414514
Si Si4 0.931251 0.859281 0.569021
Si Si5 0.533637 0.765703 0.966142
Si Si6 0.872008 0.277087 0.628508
Si Si7 0.733843 0.358859 0.766112
O O1 0.474038 0.622928 0.026635
O O2 0.185999 0.500000 0.817558
O O3 0.683281 0.500000 0.314742
O O4 0.345604 0.500000 0.155042
O O5 0.599029 0.713043 0.397625
O O6 0.301822 0.667681 0.198148
O O7 0.103257 0.713046 0.901733
O O8 0.105278 0.384402 0.394736
O O9 0.894257 0.839336 0.605984
O O10 0.197540 0.801620 0.804054
O O11 0.937978 0.000000 0.563054
O O12 0.695941 0.801879 0.302463
O O13 0.500000 0.827980 0.000000
O O14 0.500000 0.300221 0.500000
O O15 0.740382 0.500000 0.759429
O O16 0.000000 0.300250 0.000000
#
# Coordination Sequence:
#
# PCOD8067437 Si02
#       7
#     2   4   2   4   4   4   4
#     4  12  21  40  60  92 114 141 182 229 298 347
#     4  11  20  30  53  83 111 148 187 225 274 335
#     4  12  20  34  61  80 118 151 176 235 292 347
#     4  12  27  44  61  82 114 155 192 236 289 339
#     4  12  25  42  65  88 113 146 188 237 286 348
#     4  12  21  35  55  81 109 142 191 233 280 335
#     4   9  17  29  43  68 112 155 183 211 257 325
#
# _framework density 19.066327000000001
#
# number of rings (size 3 to 8) (size 9 to 14) (size 15 to 20)
#    0.000    0.667    5.000    4.250    0.000    4.667 
#    0.000    2.500    0.000    0.000    0.000    0.000 
#    0.000   13.333    0.000    0.000    0.000    0.000 
#
# Total GULP energy -297486.614142 kJ/mol
# GULP energy per Si atom -12395.275589 kJ/mol
# Density = 1.902293 g / cm^3
# Si number density = 19.066327 Si / 1000 Ang^3
#
#
#
# Elastic Constant Matrix: (Units=GPa)
#
#
# Indices 1 2 3 4 5 6 
#
# 1 130.8937 19.8043 83.0023 0.0000 4.0003 0.0000
# 2 19.8043 84.0744 24.0903 0.0000 0.6315 0.0000
# 3 83.0023 24.0903 202.0382 0.0000 2.4553 0.0000
# 4 0.0000 0.0000 0.0000 14.1550 0.0000 0.4953
# 5 4.0003 0.6315 2.4553 0.0000 46.4465 0.0000
# 6 0.0000 0.0000 0.0000 0.4953 0.0000 8.3402
#
#
#
# Elastic Compliance Matrix: (Units=1/GPa)
#
#
# Indices 1 2 3 4 5 6 
#
# 1 0.010482 -0.001276 -0.004146 0.000000 -0.000666 0.000000
# 2 -0.001276 0.012471 -0.000963 0.000000 -0.000009 0.000000
# 3 -0.004146 -0.000963 0.006768 0.000000 0.000012 0.000000
# 4 0.000000 0.000000 0.000000 0.070794 0.000000 -0.004204
# 5 -0.000666 -0.000009 0.000012 0.000000 0.021587 0.000000
# 6 0.000000 0.000000 0.000000 -0.004204 0.000000 0.120151
#
#
# Mechanical properties :
#
#
# Convention : Reuss Voigt Hill
#
# Bulk Modulus (GPa) = 58.99421 74.53334 66.76377
# Shear Modulus (GPa) = 19.18119 33.12896 26.15508
#
# Velocity S-wave (km/s) = 3.17523 4.17293 3.70779
# Velocity P-wave (km/s) = 6.66720 7.89901 7.30910
#
# Compressibility (1/GPa) = 0.01695082
#
# Stress axis : x y z
#
# Youngs Moduli (GPa) = 95.39796 80.18789 147.76442
#
# Poissons Ratio (x) = 0.10233 0.61266
# Poissons Ratio (y) = 0.12174 0.14223
# Poissons Ratio (z) = 0.39554 0.07719
#
# Static dielectric constant tensor:
#      x y z
#    x 3.606180 0.000000 0.000600 
#    y 0.000000 3.348620 0.000000 
#    z 0.000600 0.000000 3.606430 
# 
# 
# High freq. dielectric constant tensor:
#      x y z
#    x 1.753910 0.000000 0.001280 
#    y 0.000000 1.696570 0.000000 
#    z 0.001280 0.000000 1.768590 
# 
# From -- ./inp_files/90842.got.cif
#   From: 2010.06.25/outbox.cif.g09.slc.cpg/sg10_46_cif.got.tgz:90842.got - 2010.06.27 22:07:45.
