data_PCOD8067196
_publ_section_title
;
Structure prediction by ZEFSAII (Michael W. Deem and Ramdas Pophale) SiO2 
 PCOD8067196
Probable space group: P 2/M
;
_chemical_formula_sum "Si O2"
_cell_formula_units_Z 32
_cell_length_a 14.177858
_cell_length_b 8.395940
_cell_length_c 14.016609
_cell_angle_alpha 90.000000
_cell_angle_beta 114.041004
_cell_angle_gamma 90.000000
_cell_volume 1523.752942
_symmetry_space_group_name_H-M "P 2/M"
_symmetry_group_IT_number 10
_symmetry_cell_setting 'monoclinic'
loop_
_space_group_symop_operation_xyz
x,y,z
-x,y,-z
-x,-y,-z
x,-y,z
loop_
_atom_site_type_symbol
_atom_site_label
_atom_site_fract_x
_atom_site_fract_y
_atom_site_fract_z
Si Si1 0.617268 0.314841 0.547712
Si Si2 0.080695 0.315406 0.111596
Si Si3 0.698521 0.183236 0.773997
Si Si4 0.963637 0.316283 0.691526
Si Si5 0.369906 0.184602 0.879315
Si Si6 0.581989 0.686281 0.902848
Si Si7 0.819813 0.316376 0.306048
Si Si8 0.789238 0.181890 0.495200
O O1 0.500000 0.251439 0.500000
O O2 0.621339 0.500000 0.523637
O O3 0.671927 0.289688 0.671610
O O4 0.675716 0.220963 0.488082
O O5 0.106825 0.500000 0.104748
O O6 0.185911 0.217925 0.143232
O O7 0.028688 0.287036 0.192671
O O8 0.000000 0.251829 0.000000
O O9 0.618764 0.222165 0.824620
O O10 0.687439 0.000000 0.740050
O O11 0.939826 0.500000 0.657867
O O12 0.871243 0.210225 0.612895
O O13 0.069725 0.260060 0.687336
O O14 0.460343 0.283182 0.865205
O O15 0.265234 0.207044 0.778462
O O16 0.400881 0.000000 0.894257
O O17 0.354742 0.248352 0.980326
O O18 0.603374 0.500000 0.899606
O O19 0.799329 0.500000 0.271818
O O20 0.817342 0.293918 0.418303
O O21 0.792443 0.000000 0.462730
#
# Coordination Sequence:
#
# PCOD8067196 Si02
#       8
#     4   4   4   4   4   4   4   4
#     4  11  25  45  69  95 127 170 220 268 320 392
#     4  10  22  41  67  97 130 171 218 265 318 388
#     4  12  25  42  66 100 135 170 212 268 328 384
#     4  10  22  42  66  92 126 167 214 263 315 382
#     4  11  23  42  64  96 132 163 207 270 323 371
#     4  11  23  42  67  91 126 174 216 255 311 384
#     4  11  24  41  65  94 126 169 217 261 314 383
#     4  12  25  42  65  94 129 166 208 267 328 380
#
# _framework density 21.000782000000001
#
# number of rings (size 3 to 8) (size 9 to 14) (size 15 to 20)
#    0.000    1.000    1.250    6.375    3.500    3.750 
#    0.000    0.000    0.000    0.000    0.000    0.000 
#    0.000    0.000    0.000    0.000    0.000    0.000 
#
# Total GULP energy -397086.910173 kJ/mol
# GULP energy per Si atom -12408.965943 kJ/mol
# Density = 2.095298 g / cm^3
# Si number density = 21.000782 Si / 1000 Ang^3
#
#
#
# Elastic Constant Matrix: (Units=GPa)
#
#
# Indices 1 2 3 4 5 6 
#
# 1 114.1100 21.1235 35.7399 0.0000 -5.1532 0.0000
# 2 21.1235 73.1383 19.2455 0.0000 6.0292 0.0000
# 3 35.7399 19.2455 73.4011 0.0000 8.8153 0.0000
# 4 0.0000 0.0000 0.0000 20.4400 0.0000 -1.7515
# 5 -5.1532 6.0292 8.8153 0.0000 39.3788 0.0000
# 6 0.0000 0.0000 0.0000 -1.7515 0.0000 27.8636
#
#
#
# Elastic Compliance Matrix: (Units=1/GPa)
#
#
# Indices 1 2 3 4 5 6 
#
# 1 0.010868 -0.002033 -0.005104 0.000000 0.002876 0.000000
# 2 -0.002033 0.015144 -0.002744 0.000000 -0.001970 0.000000
# 3 -0.005104 -0.002744 0.017324 0.000000 -0.004126 0.000000
# 4 0.000000 0.000000 0.000000 0.049189 0.000000 0.003092
# 5 0.002876 -0.001970 -0.004126 0.000000 0.026996 0.000000
# 6 0.000000 0.000000 0.000000 0.003092 0.000000 0.036083
#
#
# Mechanical properties :
#
#
# Convention : Reuss Voigt Hill
#
# Bulk Modulus (GPa) = 42.41987 45.87414 44.14701
# Shear Modulus (GPa) = 27.28867 29.83919 28.56393
#
# Velocity S-wave (km/s) = 3.60865 3.77352 3.69200
# Velocity P-wave (km/s) = 6.13238 6.39354 6.26432
#
# Compressibility (1/GPa) = 0.02357386
#
# Stress axis : x y z
#
# Youngs Moduli (GPa) = 92.00990 66.03087 57.72268
#
# Poissons Ratio (x) = 0.13424 0.29464
# Poissons Ratio (y) = 0.18705 0.15841
# Poissons Ratio (z) = 0.46965 0.18121
#
# Static dielectric constant tensor:
#      x y z
#    x 3.888540 0.000000 -0.039220 
#    y 0.000000 3.702000 0.000000 
#    z -0.039220 0.000000 3.763690 
# 
# 
# High freq. dielectric constant tensor:
#      x y z
#    x 1.833530 0.000000 -0.003310 
#    y 0.000000 1.823590 0.000000 
#    z -0.003310 0.000000 1.826720 
# 
# From -- ./inp_files/66586.got.cif
#   From: 2010.06.25/outbox.cif.g09.slc.cpg/sg10_34_cif.got.tgz:66586.got - 2010.06.27 22:07:45.
