data_PCOD8067946
_publ_section_title
;
Structure prediction by ZEFSAII (Michael W. Deem and Ramdas Pophale) SiO2 
 PCOD8067946
Probable space group: P 2/M
;
_chemical_formula_sum "Si O2"
_cell_formula_units_Z 32
_cell_length_a 23.140160
_cell_length_b 9.247358
_cell_length_c 9.588361
_cell_angle_alpha 90.000000
_cell_angle_beta 115.820416
_cell_angle_gamma 90.000000
_cell_volume 1846.927582
_symmetry_space_group_name_H-M "P 2/M"
_symmetry_group_IT_number 10
_symmetry_cell_setting 'monoclinic'
loop_
_space_group_symop_operation_xyz
x,y,z
-x,y,-z
-x,-y,-z
x,-y,z
loop_
_atom_site_type_symbol
_atom_site_label
_atom_site_fract_x
_atom_site_fract_y
_atom_site_fract_z
Si Si1 0.987900 0.661195 0.822381
Si Si2 0.751834 0.170445 0.949522
Si Si3 0.629261 0.167640 0.998999
Si Si4 0.127065 0.832481 0.249227
Si Si5 0.127208 0.670234 0.958730
Si Si6 0.493782 0.336542 0.158784
Si Si7 0.732405 0.832838 0.616335
Si Si8 0.381625 0.170201 0.690622
O O1 0.965560 0.500000 0.759249
O O2 0.930471 0.769328 0.714312
O O3 0.000000 0.673610 0.000000
O O4 0.055990 0.697318 0.817539
O O5 0.816083 0.253753 0.070629
O O6 0.733278 0.228500 0.775216
O O7 0.766604 0.000000 0.963198
O O8 0.695448 0.211658 0.995558
O O9 0.636420 0.204854 0.169014
O O10 0.612994 0.000000 0.958232
O O11 0.572247 0.258419 0.867311
O O12 0.127717 0.743399 0.109023
O O13 0.198520 0.811332 0.388911
O O14 0.113059 0.000000 0.203770
O O15 0.140428 0.500000 0.987458
O O16 0.493180 0.500000 0.215195
O O17 0.553621 0.251290 0.288422
O O18 0.500000 0.331967 0.000000
O O19 0.675939 0.763416 0.463975
O O20 0.715791 0.000000 0.610307
O O21 0.392434 0.000000 0.680569
#
# Coordination Sequence:
#
# PCOD8067946 Si02
#       8
#     4   4   4   4   4   4   4   4
#     4   8  14  23  34  52  79 108 139 173 207 244
#     4   9  17  29  43  62  87 110 136 171 208 245
#     4   9  17  29  47  67  83 105 139 173 203 242
#     4   9  15  23  37  57  81 109 140 173 208 244
#     4   9  16  25  37  55  81 112 141 169 206 249
#     4   9  17  29  45  65  87 108 134 172 210 240
#     4   8  15  27  42  61  86 112 135 165 207 249
#     4   9  16  29  48  65  82 108 140 169 201 245
#
# _framework density 17.326072
#
# number of rings (size 3 to 8) (size 9 to 14) (size 15 to 20)
#    0.000    3.250    0.000    2.625    0.000    4.750 
#    0.000    3.750    0.000    3.750    0.000    0.875 
#    0.000    7.000    0.000    0.000    0.000    0.000 
#
# Total GULP energy -396472.927936 kJ/mol
# GULP energy per Si atom -12389.778998 kJ/mol
# Density = 1.728664 g / cm^3
# Si number density = 17.326072 Si / 1000 Ang^3
#
#
#
# Elastic Constant Matrix: (Units=GPa)
#
#
# Indices 1 2 3 4 5 6 
#
# 1 118.5754 51.7921 14.5863 0.0000 20.5806 0.0000
# 2 51.7921 73.0742 12.5965 0.0000 12.5860 0.0000
# 3 14.5863 12.5965 15.4062 0.0000 2.8877 0.0000
# 4 0.0000 0.0000 0.0000 7.3107 0.0000 5.8506
# 5 20.5806 12.5860 2.8877 0.0000 14.9665 0.0000
# 6 0.0000 0.0000 0.0000 5.8506 0.0000 25.6874
#
#
#
# Elastic Compliance Matrix: (Units=1/GPa)
#
#
# Indices 1 2 3 4 5 6 
#
# 1 0.014420 -0.007068 -0.005469 0.000000 -0.012831 0.000000
# 2 -0.007068 0.021473 -0.009651 0.000000 -0.006477 0.000000
# 3 -0.005469 -0.009651 0.077863 0.000000 0.000614 0.000000
# 4 0.000000 0.000000 0.000000 0.167277 0.000000 -0.038099
# 5 -0.012831 -0.006477 0.000614 0.000000 0.089787 0.000000
# 6 0.000000 0.000000 0.000000 -0.038099 0.000000 0.047607
#
#
# Mechanical properties :
#
#
# Convention : Reuss Voigt Hill
#
# Bulk Modulus (GPa) = 14.41338 40.55618 27.48478
# Shear Modulus (GPa) = 10.28950 18.13164 14.21057
#
# Velocity S-wave (km/s) = 2.43960 3.23847 2.86699
# Velocity P-wave (km/s) = 4.03391 6.11898 5.18239
#
# Compressibility (1/GPa) = 0.06938000
#
# Stress axis : x y z
#
# Youngs Moduli (GPa) = 69.34644 46.56922 12.84303
#
# Poissons Ratio (x) = 0.32915 0.07024
# Poissons Ratio (y) = 0.49014 0.12395
# Poissons Ratio (z) = 0.37927 0.44946
#
# Static dielectric constant tensor:
#      x y z
#    x 3.704660 0.000000 0.552330 
#    y 0.000000 3.247120 0.000000 
#    z 0.552330 0.000000 3.061320 
# 
# 
# High freq. dielectric constant tensor:
#      x y z
#    x 1.671490 0.000000 0.040870 
#    y 0.000000 1.661110 0.000000 
#    z 0.040870 0.000000 1.619730 
# 
# From -- ./inp_files/54880.got.cif
#   From: 2010.06.25/outbox.cif.g09.slc.cpg/sg10_28_cif.got.tgz:54880.got - 2010.06.27 22:07:45.
