data_PCOD8067706
_publ_section_title
;
Structure prediction by ZEFSAII (Michael W. Deem and Ramdas Pophale) SiO2 
 PCOD8067706
Probable space group: P 2/M
;
_chemical_formula_sum "Si O2"
_cell_formula_units_Z 28
_cell_length_a 31.069438
_cell_length_b 8.680592
_cell_length_c 31.078444
_cell_angle_alpha 90.000000
_cell_angle_beta 9.481895
_cell_angle_gamma 90.000000
_cell_volume 1380.798687
_symmetry_space_group_name_H-M "P 2/M"
_symmetry_group_IT_number 10
_symmetry_cell_setting 'monoclinic'
loop_
_space_group_symop_operation_xyz
x,y,z
-x,y,-z
-x,-y,-z
x,-y,z
loop_
_atom_site_type_symbol
_atom_site_label
_atom_site_fract_x
_atom_site_fract_y
_atom_site_fract_z
Si Si1 0.957668 0.681189 0.591072
Si Si2 0.882783 0.319871 0.383651
Si Si3 0.479035 0.181184 0.111449
Si Si4 0.594606 0.180967 0.094574
Si Si5 0.737083 0.816999 0.238357
Si Si6 0.202580 0.320263 0.631091
Si Si7 0.277417 0.181486 0.845628
O O1 0.937004 0.500000 0.618094
O O2 0.000000 0.726982 0.500000
O O3 0.195770 0.744288 0.384426
O O4 0.684955 0.755468 0.874086
O O5 0.887013 0.500000 0.387608
O O6 0.859187 0.278510 0.356999
O O7 0.145263 0.248901 0.142564
O O8 0.645507 0.248526 0.643079
O O9 0.450245 0.000000 0.133950
O O10 0.576986 0.227249 0.062104
O O11 0.595816 0.000000 0.099572
O O12 0.500000 0.747859 0.500000
O O13 0.709659 0.762715 0.216377
O O14 0.736171 0.000000 0.241704
O O15 0.000000 0.749324 0.000000
O O16 0.266547 0.500000 0.574056
O O17 0.449144 0.219385 0.401839
O O18 0.953084 0.275484 0.905028
O O19 0.220378 0.000000 0.905728
#
# Coordination Sequence:
#
# PCOD8067706 Si02
#       7
#     4   4   4   4   4   4   4
#     4  11  24  41  62  90 122 157 200 247 291 339
#     4  11  24  41  62  87 116 157 202 237 286 357
#     4  11  24  41  62  90 122 157 196 239 296 357
#     4  11  24  41  62  90 122 153 192 247 299 342
#     4   9  17  31  53  82 114 145 184 239 291 334
#     4  11  24  41  59  84 122 159 190 237 299 352
#     4  11  22  37  62  91 114 149 202 245 284 345
#
# _framework density 20.278117999999999
#
# number of rings (size 3 to 8) (size 9 to 14) (size 15 to 20)
#    0.000    1.286    0.000    5.571    0.000   16.571 
#    0.000    0.000    0.000    8.571    0.000    0.000 
#    0.000    0.000    0.000    0.000    0.000    0.000 
#
# Total GULP energy -347382.952846 kJ/mol
# GULP energy per Si atom -12406.534030 kJ/mol
# Density = 2.023196 g / cm^3
# Si number density = 20.278118 Si / 1000 Ang^3
#
#
#
# Elastic Constant Matrix: (Units=GPa)
#
#
# Indices 1 2 3 4 5 6 
#
# 1 136.0627 53.8347 47.3863 0.0000 1.6418 0.0000
# 2 53.8347 58.8687 21.7402 0.0000 1.9825 0.0000
# 3 47.3863 21.7402 140.9392 0.0000 1.5755 0.0000
# 4 0.0000 0.0000 0.0000 39.7752 0.0000 -5.3997
# 5 1.6418 1.9825 1.5755 0.0000 47.5112 0.0000
# 6 0.0000 0.0000 0.0000 -5.3997 0.0000 2.4732
#
#
#
# Elastic Compliance Matrix: (Units=1/GPa)
#
#
# Indices 1 2 3 4 5 6 
#
# 1 0.012325 -0.010332 -0.002551 0.000000 0.000090 0.000000
# 2 -0.010332 0.026695 -0.000636 0.000000 -0.000736 0.000000
# 3 -0.002551 -0.000636 0.008053 0.000000 -0.000152 0.000000
# 4 0.000000 0.000000 0.000000 0.035732 0.000000 0.078014
# 5 0.000090 -0.000736 -0.000152 0.000000 0.021080 0.000000
# 6 0.000000 0.000000 0.000000 0.078014 0.000000 0.574669
#
#
# Mechanical properties :
#
#
# Convention : Reuss Voigt Hill
#
# Bulk Modulus (GPa) = 49.91264 64.64369 57.27817
# Shear Modulus (GPa) = 7.01981 32.14586 19.58283
#
# Velocity S-wave (km/s) = 1.86260 3.98584 3.11096
# Velocity P-wave (km/s) = 5.41232 7.28905 6.41964
#
# Compressibility (1/GPa) = 0.02003500
#
# Stress axis : x y z
#
# Youngs Moduli (GPa) = 81.13687 37.46041 124.18084
#
# Poissons Ratio (x) = 0.38703 0.31680
# Poissons Ratio (y) = 0.83829 0.07895
# Poissons Ratio (z) = 0.20699 0.02382
#
# Static dielectric constant tensor:
#      x y z
#    x 3.958740 0.000000 0.040990 
#    y 0.000000 3.656400 0.000000 
#    z 0.040990 0.000000 3.762510 
# 
# 
# High freq. dielectric constant tensor:
#      x y z
#    x 1.811740 0.000000 0.000160 
#    y 0.000000 1.790370 0.000000 
#    z 0.000160 0.000000 1.813480 
# 
# From -- ./inp_files/96003.got.cif
#   From: 2010.06.25/outbox.cif.g09.slc.cpg/sg10_49_cif.got.tgz:96003.got - 2010.06.27 22:07:45.
