data_PCOD8067028
_publ_section_title
;
Structure prediction by ZEFSAII (Michael W. Deem and Ramdas Pophale) SiO2 
 PCOD8067028
Probable space group: P 2/M
;
_chemical_formula_sum "Si O2"
_cell_formula_units_Z 28
_cell_length_a 9.412537
_cell_length_b 14.910404
_cell_length_c 21.179357
_cell_angle_alpha 90.000000
_cell_angle_beta 150.774631
_cell_angle_gamma 90.000000
_cell_volume 1451.268191
_symmetry_space_group_name_H-M "P 2/M"
_symmetry_group_IT_number 10
_symmetry_cell_setting 'monoclinic'
loop_
_space_group_symop_operation_xyz
x,y,z
-x,y,-z
-x,-y,-z
x,-y,z
loop_
_atom_site_type_symbol
_atom_site_label
_atom_site_fract_x
_atom_site_fract_y
_atom_site_fract_z
Si Si1 0.673381 0.000000 0.631589
Si Si2 0.308320 0.272472 0.772705
Si Si3 0.357568 0.000000 0.640009
Si Si4 0.718059 0.850697 0.853510
Si Si5 0.209274 0.808140 0.346720
Si Si6 0.659253 0.401633 0.996259
Si Si7 0.774829 0.295926 0.775561
Si Si8 0.723417 0.598813 0.351768
O O1 0.500000 0.000000 0.500000
O O2 0.867684 0.909098 0.708125
O O3 0.447356 0.000000 0.601849
O O4 0.505041 0.194228 0.821013
O O5 0.187759 0.341254 0.673881
O O6 0.048229 0.227581 0.709910
O O7 0.510719 0.328352 0.896423
O O8 0.504513 0.083452 0.732530
O O9 0.000000 0.000000 0.500000
O O10 0.856176 0.780141 0.858074
O O11 0.000000 0.893647 0.000000
O O12 0.500000 0.810271 0.500000
O O13 0.264605 0.744744 0.308870
O O14 0.656613 0.500000 0.962849
O O15 0.987233 0.372857 0.135099
O O16 0.500000 0.406761 0.000000
O O17 0.486015 0.345214 0.684725
O O18 0.598485 0.500000 0.283096
O O19 0.000000 0.579866 0.500000
#
# Coordination Sequence:
#
# PCOD8067028 Si02
#       8
#     2   4   2   4   4   4   4   4
#     4  10  24  43  63  94 129 161 217 268 321 374
#     4  11  23  39  65  92 123 167 215 260 327 386
#     4  12  27  43  69  98 132 176 220 268 325 395
#     4  11  24  42  66  95 133 170 210 271 325 386
#     4  11  23  40  65  92 130 166 213 273 317 391
#     4  11  22  38  63  93 126 163 213 267 316 381
#     4  11  21  40  64  91 123 168 214 258 327 379
#     4  10  22  39  58  87 128 165 207 262 321 390
#
# _framework density 19.293471
#
# number of rings (size 3 to 8) (size 9 to 14) (size 15 to 20)
#    0.000    1.143    4.286    1.929    4.000    2.286 
#    0.000    2.143    0.000    5.143    0.000    0.000 
#    0.000    0.000    0.000    0.000    0.000    0.000 
#
# Total GULP energy -347039.564951 kJ/mol
# GULP energy per Si atom -12394.270177 kJ/mol
# Density = 1.924956 g / cm^3
# Si number density = 19.293471 Si / 1000 Ang^3
#
#
#
# Elastic Constant Matrix: (Units=GPa)
#
#
# Indices 1 2 3 4 5 6 
#
# 1 144.8057 72.8476 43.9420 0.0000 2.6923 0.0000
# 2 72.8476 136.0090 41.2671 0.0000 6.0680 0.0000
# 3 43.9420 41.2671 96.4258 0.0000 -2.3816 0.0000
# 4 0.0000 0.0000 0.0000 40.5901 0.0000 -5.0005
# 5 2.6923 6.0680 -2.3816 0.0000 21.1624 0.0000
# 6 0.0000 0.0000 0.0000 -5.0005 0.0000 30.2163
#
#
#
# Elastic Compliance Matrix: (Units=1/GPa)
#
#
# Indices 1 2 3 4 5 6 
#
# 1 0.009991 -0.004547 -0.002614 0.000000 -0.000262 0.000000
# 2 -0.004547 0.010692 -0.002573 0.000000 -0.002777 0.000000
# 3 -0.002614 -0.002573 0.012724 0.000000 0.002502 0.000000
# 4 0.000000 0.000000 0.000000 0.025149 0.000000 0.004162
# 5 -0.000262 -0.002777 0.002502 0.000000 0.048365 0.000000
# 6 0.000000 0.000000 0.000000 0.004162 0.000000 0.033783
#
#
# Mechanical properties :
#
#
# Convention : Reuss Voigt Hill
#
# Bulk Modulus (GPa) = 71.72548 77.03933 74.38241
# Shear Modulus (GPa) = 30.33650 33.00602 31.67126
#
# Velocity S-wave (km/s) = 3.96962 4.14059 4.05600
# Velocity P-wave (km/s) = 7.63330 7.92946 7.78278
#
# Compressibility (1/GPa) = 0.01394205
#
# Stress axis : x y z
#
# Youngs Moduli (GPa) = 100.08941 93.52713 78.58860
#
# Poissons Ratio (x) = 0.42523 0.20540
# Poissons Ratio (y) = 0.45507 0.20217
# Poissons Ratio (z) = 0.26160 0.24060
#
# Static dielectric constant tensor:
#      x y z
#    x 3.545170 0.000000 -0.127070 
#    y 0.000000 5.159770 0.000000 
#    z -0.127070 0.000000 3.441900 
# 
# 
# High freq. dielectric constant tensor:
#      x y z
#    x 1.764660 0.000000 -0.005710 
#    y 0.000000 1.768830 0.000000 
#    z -0.005710 0.000000 1.745810 
# 
# From -- ./inp_files/35275.got.cif
#   From: 2010.06.25/outbox.cif.g09.slc.cpg/sg10_18_cif.got.tgz:35275.got - 2010.06.27 22:07:45.
