data_PCOD8067127
_publ_section_title
;
Structure prediction by ZEFSAII (Michael W. Deem and Ramdas Pophale) SiO2 
 PCOD8067127
Probable space group: P 2/M
;
_chemical_formula_sum "Si O2"
_cell_formula_units_Z 20
_cell_length_a 13.569637
_cell_length_b 8.633236
_cell_length_c 21.775317
_cell_angle_alpha 90.000000
_cell_angle_beta 21.381841
_cell_angle_gamma 90.000000
_cell_volume 930.039029
_symmetry_space_group_name_H-M "P 2/M"
_symmetry_group_IT_number 10
_symmetry_cell_setting 'monoclinic'
loop_
_space_group_symop_operation_xyz
x,y,z
-x,y,-z
-x,-y,-z
x,-y,z
loop_
_atom_site_type_symbol
_atom_site_label
_atom_site_fract_x
_atom_site_fract_y
_atom_site_fract_z
Si Si1 0.000233 0.680337 0.092262
Si Si2 0.614778 0.178571 0.218633
Si Si3 0.932221 0.321996 0.471241
Si Si4 0.205182 0.320656 0.190419
Si Si5 0.185916 0.182329 0.677995
O O1 0.937440 0.500000 0.120713
O O2 0.784930 0.781546 0.180112
O O3 0.988087 0.728346 0.169901
O O4 0.294143 0.719846 0.893368
O O5 0.309397 0.216428 0.412931
O O6 0.653089 0.000000 0.180221
O O7 0.838690 0.500000 0.527781
O O8 0.000000 0.262346 0.500000
O O9 0.176761 0.299988 0.280782
O O10 0.180971 0.500000 0.185203
O O11 0.957414 0.228761 0.302558
O O12 0.500000 0.254973 0.000000
O O13 0.500000 0.235817 0.500000
O O14 0.165430 0.000000 0.700171
#
# Coordination Sequence:
#
# PCOD8067127 Si02
#       5
#     4   4   4   4   4
#     4  11  22  38  63  91 122 163 209 259 316 377
#     4  11  22  38  60  91 128 161 205 260 318 376
#     4  10  22  40  63  90 124 167 215 260 308 370
#     4  10  23  42  64  94 129 170 218 266 315 380
#     4  11  24  41  63  93 129 168 211 264 326 385
#
# _framework density 21.504473999999998
#
# number of rings (size 3 to 8) (size 9 to 14) (size 15 to 20)
#    0.000    1.400    0.000    6.600    2.800    6.400 
#    0.000    0.000    0.000    0.000    0.000    0.000 
#    0.000    0.000    0.000    0.000    0.000    0.000 
#
# Total GULP energy -248049.944730 kJ/mol
# GULP energy per Si atom -12402.497237 kJ/mol
# Density = 2.145553 g / cm^3
# Si number density = 21.504474 Si / 1000 Ang^3
#
#
#
# Elastic Constant Matrix: (Units=GPa)
#
#
# Indices 1 2 3 4 5 6 
#
# 1 89.1883 19.0701 54.3540 0.0000 11.1355 0.0000
# 2 19.0701 84.0203 31.2606 0.0000 -0.0086 0.0000
# 3 54.3540 31.2606 125.6480 0.0000 3.9659 0.0000
# 4 0.0000 0.0000 0.0000 9.2469 0.0000 15.7562
# 5 11.1355 -0.0086 3.9659 0.0000 41.9840 0.0000
# 6 0.0000 0.0000 0.0000 15.7562 0.0000 14.2711
#
#
#
# Elastic Compliance Matrix: (Units=1/GPa)
#
#
# Indices 1 2 3 4 5 6 
#
# 1 0.015843 -0.001200 -0.006442 0.000000 -0.003594 0.000000
# 2 -0.001200 0.013211 -0.002786 0.000000 0.000584 0.000000
# 3 -0.006442 -0.002786 0.011419 0.000000 0.000629 0.000000
# 4 0.000000 0.000000 0.000000 -0.122717 0.000000 0.135487
# 5 -0.003594 0.000584 0.000629 0.000000 0.024712 0.000000
# 6 0.000000 0.000000 0.000000 0.135487 0.000000 -0.079514
#
#
# Mechanical properties :
#
#
# Convention : Reuss Voigt Hill
#
# Bulk Modulus (GPa) = 50.97470 56.46957 53.72214
# Shear Modulus (GPa) = -45.59898 26.04520 -9.77689
#
# Velocity S-wave (km/s) = -4.60982 3.48394 -2.13455
# Velocity P-wave (km/s) = 2.13968 6.51922 4.35442
#
# Compressibility (1/GPa) = 0.01961757
#
# Stress axis : x y z
#
# Youngs Moduli (GPa) = 63.11848 75.69506 87.57547
#
# Poissons Ratio (x) = 0.09080 0.56414
# Poissons Ratio (y) = 0.07572 0.24401
# Poissons Ratio (z) = 0.40659 0.21091
#
# Static dielectric constant tensor:
#      x y z
#    x 3.732000 0.000000 0.105410 
#    y 0.000000 3.714720 0.000000 
#    z 0.105410 0.000000 4.108880 
# 
# 
# High freq. dielectric constant tensor:
#      x y z
#    x 1.835970 0.000000 0.011160 
#    y 0.000000 1.839380 0.000000 
#    z 0.011160 0.000000 1.854640 
# 
# From -- ./inp_files/84591.got.cif
#   From: 2010.06.25/outbox.cif.g09.slc.cpg/sg10_43_cif.got.tgz:84591.got - 2010.06.27 22:07:45.
