data_PCOD8067540
_publ_section_title
;
Structure prediction by ZEFSAII (Michael W. Deem and Ramdas Pophale) SiO2 
 PCOD8067540
Probable space group: P 2/M
;
_chemical_formula_sum "Si O2"
_cell_formula_units_Z 32
_cell_length_a 23.847404
_cell_length_b 13.891489
_cell_length_c 19.718305
_cell_angle_alpha 90.000000
_cell_angle_beta 17.381649
_cell_angle_gamma 90.000000
_cell_volume 1951.397800
_symmetry_space_group_name_H-M "P 2/M"
_symmetry_group_IT_number 10
_symmetry_cell_setting 'monoclinic'
loop_
_space_group_symop_operation_xyz
x,y,z
-x,y,-z
-x,-y,-z
x,-y,z
loop_
_atom_site_type_symbol
_atom_site_label
_atom_site_fract_x
_atom_site_fract_y
_atom_site_fract_z
Si Si1 0.533102 0.708289 0.626159
Si Si2 0.086101 0.604262 0.828216
Si Si3 0.852671 0.291660 0.987807
Si Si4 0.119243 0.109119 0.964803
Si Si5 0.385821 0.388185 0.925809
Si Si6 0.008727 0.611773 0.679454
Si Si7 0.712404 0.890870 0.371417
Si Si8 0.418195 0.613510 0.163448
O O1 0.721131 0.659439 0.383743
O O2 0.497094 0.681145 0.745860
O O3 0.558228 0.822690 0.585153
O O4 0.357152 0.670262 0.785213
O O5 0.125616 0.500000 0.749124
O O6 0.932652 0.659710 0.962080
O O7 0.000000 0.590273 0.000000
O O8 0.983397 0.318801 0.773343
O O9 0.846024 0.177242 0.010251
O O10 0.260463 0.134197 0.739688
O O11 0.153721 0.000000 0.949245
O O12 0.908291 0.123302 0.183157
O O13 0.440487 0.500000 0.849079
O O14 0.450925 0.353984 0.924922
O O15 0.161493 0.374107 0.177370
O O16 0.019140 0.500000 0.691217
O O17 0.202054 0.645690 0.421720
O O18 0.640030 0.000000 0.462642
O O19 0.426665 0.500000 0.147190
O O20 0.500000 0.660710 0.000000
#
# Coordination Sequence:
#
# PCOD8067540 Si02
#       8
#     4   4   4   4   4   4   4   4
#     4  11  21  33  51  71  93 125 163 199 242 292
#     4  11  23  35  46  63  90 124 163 207 246 278
#     4  11  21  33  51  71  93 125 163 199 242 292
#     4   9  18  33  51  70  94 124 159 202 252 299
#     4   9  18  31  46  67  96 127 157 190 228 274
#     4   9  18  31  46  67  96 127 157 190 228 274
#     4   9  18  33  51  70  94 124 159 202 252 299
#     4   9  17  29  47  70  94 123 156 187 223 270
#
# _framework density 16.398502000000001
#
# number of rings (size 3 to 8) (size 9 to 14) (size 15 to 20)
#    0.000    2.250    1.250    3.000    0.000    5.500 
#    0.000    5.000    0.000    0.000    0.000    0.000 
#    0.000    2.000    0.000    5.500    0.000    0.250 
#
# Total GULP energy -396692.464862 kJ/mol
# GULP energy per Si atom -12396.639527 kJ/mol
# Density = 1.636118 g / cm^3
# Si number density = 16.398502 Si / 1000 Ang^3
#
#
#
# Elastic Constant Matrix: (Units=GPa)
#
#
# Indices 1 2 3 4 5 6 
#
# 1 89.0421 43.3721 69.5335 0.0000 5.8612 0.0000
# 2 43.3721 79.8996 39.8950 0.0000 9.1531 0.0000
# 3 69.5335 39.8950 89.9012 0.0000 -0.4177 0.0000
# 4 0.0000 0.0000 0.0000 22.4218 0.0000 -7.4856
# 5 5.8612 9.1531 -0.4177 0.0000 23.2774 0.0000
# 6 0.0000 0.0000 0.0000 -7.4856 0.0000 19.1220
#
#
#
# Elastic Compliance Matrix: (Units=1/GPa)
#
#
# Indices 1 2 3 4 5 6 
#
# 1 0.031352 -0.005382 -0.021889 0.000000 -0.006171 0.000000
# 2 -0.005382 0.018033 -0.003866 0.000000 -0.005805 0.000000
# 3 -0.021889 -0.003866 0.029804 0.000000 0.007567 0.000000
# 4 0.000000 0.000000 0.000000 0.051305 0.000000 0.020084
# 5 -0.006171 -0.005805 0.007567 0.000000 0.046932 0.000000
# 6 0.000000 0.000000 0.000000 0.020084 0.000000 0.060158
#
#
# Mechanical properties :
#
#
# Convention : Reuss Voigt Hill
#
# Bulk Modulus (GPa) = 59.12485 62.71602 60.92044
# Shear Modulus (GPa) = 16.36673 20.03371 18.20022
#
# Velocity S-wave (km/s) = 3.16264 3.49904 3.33509
# Velocity P-wave (km/s) = 7.03347 7.39273 7.21533
#
# Compressibility (1/GPa) = 0.01691336
#
# Stress axis : x y z
#
# Youngs Moduli (GPa) = 31.89602 55.45385 33.55231
#
# Poissons Ratio (x) = 0.29847 0.73443
# Poissons Ratio (y) = 0.17168 0.12973
# Poissons Ratio (z) = 0.69817 0.21441
#
# Static dielectric constant tensor:
#      x y z
#    x 3.146770 0.000000 -0.146170 
#    y 0.000000 3.143970 0.000000 
#    z -0.146170 0.000000 3.210460 
# 
# 
# High freq. dielectric constant tensor:
#      x y z
#    x 1.621550 0.000000 -0.020960 
#    y 0.000000 1.607540 0.000000 
#    z -0.020960 0.000000 1.630950 
# 
# From -- ./inp_files/79692.got.cif
#   From: 2010.06.25/outbox.cif.g09.slc.cpg/sg10_40_cif.got.tgz:79692.got - 2010.06.27 22:07:45.
