data_PCOD8067789
_publ_section_title
;
Structure prediction by ZEFSAII (Michael W. Deem and Ramdas Pophale) SiO2 
 PCOD8067789
Probable space group: P 2/M
;
_chemical_formula_sum "Si O2"
_cell_formula_units_Z 28
_cell_length_a 20.327119
_cell_length_b 8.836684
_cell_length_c 14.554928
_cell_angle_alpha 90.000000
_cell_angle_beta 32.630286
_cell_angle_gamma 90.000000
_cell_volume 1409.736694
_symmetry_space_group_name_H-M "P 2/M"
_symmetry_group_IT_number 10
_symmetry_cell_setting 'monoclinic'
loop_
_space_group_symop_operation_xyz
x,y,z
-x,y,-z
-x,-y,-z
x,-y,z
loop_
_atom_site_type_symbol
_atom_site_label
_atom_site_fract_x
_atom_site_fract_y
_atom_site_fract_z
Si Si1 0.707811 0.676516 0.412513
Si Si2 0.069264 0.179420 0.197331
Si Si3 0.361260 0.321779 0.171899
Si Si4 0.238489 0.175042 0.837798
Si Si5 0.545858 0.828630 0.277966
Si Si6 0.268331 0.824093 0.101675
Si Si7 0.202364 0.179025 0.512485
O O1 0.726562 0.500000 0.406890
O O2 0.764796 0.723051 0.248439
O O3 0.564638 0.712844 0.585006
O O4 0.781231 0.767491 0.403090
O O5 0.144686 0.235597 0.197703
O O6 0.930148 0.234728 0.367417
O O7 0.081713 0.000000 0.180085
O O8 0.131702 0.237855 0.029851
O O9 0.354795 0.500000 0.190043
O O10 0.283537 0.271860 0.175531
O O11 0.307424 0.249168 0.326764
O O12 0.500000 0.264341 0.000000
O O13 0.367981 0.194593 0.735781
O O14 0.218035 0.000000 0.834953
O O15 0.494459 0.000000 0.337668
O O16 0.618045 0.796033 0.099281
O O17 0.257681 0.000000 0.141045
O O18 0.212056 0.000000 0.496509
#
# Coordination Sequence:
#
# PCOD8067789 Si02
#       7
#     4   4   4   4   4   4   4
#     4  12  24  35  50  79 118 152 184 227 279 329
#     4   8  18  38  62  86 108 137 184 236 275 315
#     4  11  24  40  57  83 118 149 178 218 272 330
#     4   9  18  36  60  83 109 143 186 231 274 325
#     4   9  18  34  58  85 111 143 186 231 272 323
#     4   9  18  36  62  87 110 140 182 229 275 324
#     4  11  23  40  61  81 106 144 189 232 273 322
#
# _framework density 19.861865000000002
#
# number of rings (size 3 to 8) (size 9 to 14) (size 15 to 20)
#    0.000    2.143    0.000    5.143    0.000    7.429 
#    0.000   10.714    0.000    0.000    0.000    0.000 
#    0.000    0.000    0.000    0.000    0.000    0.000 
#
# Total GULP energy -347272.393896 kJ/mol
# GULP energy per Si atom -12402.585496 kJ/mol
# Density = 1.981666 g / cm^3
# Si number density = 19.861865 Si / 1000 Ang^3
#
#
#
# Elastic Constant Matrix: (Units=GPa)
#
#
# Indices 1 2 3 4 5 6 
#
# 1 102.7585 23.5889 38.8628 0.0000 3.0859 0.0000
# 2 23.5889 53.2202 32.0511 0.0000 -4.3555 0.0000
# 3 38.8628 32.0511 71.6377 0.0000 -15.2721 0.0000
# 4 0.0000 0.0000 0.0000 12.2946 0.0000 2.3002
# 5 3.0859 -4.3555 -15.2721 0.0000 30.9275 0.0000
# 6 0.0000 0.0000 0.0000 2.3002 0.0000 -0.5669
#
#
#
# Elastic Compliance Matrix: (Units=1/GPa)
#
#
# Indices 1 2 3 4 5 6 
#
# 1 0.013105 -0.001757 -0.007438 0.000000 -0.005228 0.000000
# 2 -0.001757 0.026103 -0.011070 0.000000 -0.001615 0.000000
# 3 -0.007438 -0.011070 0.025452 0.000000 0.011751 0.000000
# 4 0.000000 0.000000 0.000000 0.046236 0.000000 0.187611
# 5 -0.005228 -0.001615 0.011751 0.000000 0.038431 0.000000
# 6 0.000000 0.000000 0.000000 0.187611 0.000000 -1.002785
#
#
# Mechanical properties :
#
#
# Convention : Reuss Voigt Hill
#
# Bulk Modulus (GPa) = 41.44063 46.29133 43.86598
# Shear Modulus (GPa) = -6.21206 17.40530 5.59662
#
# Velocity S-wave (km/s) = -1.77043 2.96348 1.68044
# Velocity P-wave (km/s) = 4.09029 5.92173 5.08907
#
# Compressibility (1/GPa) = 0.02413091
#
# Stress axis : x y z
#
# Youngs Moduli (GPa) = 76.30828 38.30970 39.29005
#
# Poissons Ratio (x) = 0.06732 0.29222
# Poissons Ratio (y) = 0.13409 0.43493
# Poissons Ratio (z) = 0.56754 0.42407
#
# Static dielectric constant tensor:
#      x y z
#    x 3.735680 0.000000 -0.082890 
#    y 0.000000 3.331130 0.000000 
#    z -0.082890 0.000000 3.680630 
# 
# 
# High freq. dielectric constant tensor:
#      x y z
#    x 1.784580 0.000000 0.003290 
#    y 0.000000 1.751480 0.000000 
#    z 0.003290 0.000000 1.776620 
# 
# From -- ./inp_files/70195.got.cif
#   From: 2010.06.25/outbox.cif.g09.slc.cpg/sg10_36_cif.got.tgz:70195.got - 2010.06.27 22:07:45.
