data_PCOD8067462
_publ_section_title
;
Structure prediction by ZEFSAII (Michael W. Deem and Ramdas Pophale) SiO2 
 PCOD8067462
Probable space group: P 2/M
;
_chemical_formula_sum "Si O2"
_cell_formula_units_Z 32
_cell_length_a 13.954494
_cell_length_b 17.830056
_cell_length_c 9.844917
_cell_angle_alpha 90.000000
_cell_angle_beta 45.507393
_cell_angle_gamma 90.000000
_cell_volume 1747.334189
_symmetry_space_group_name_H-M "P 2/M"
_symmetry_group_IT_number 10
_symmetry_cell_setting 'monoclinic'
loop_
_space_group_symop_operation_xyz
x,y,z
-x,y,-z
-x,-y,-z
x,-y,z
loop_
_atom_site_type_symbol
_atom_site_label
_atom_site_fract_x
_atom_site_fract_y
_atom_site_fract_z
Si Si1 0.628449 0.419921 0.279553
Si Si2 0.662343 0.738149 0.317402
Si Si3 0.510496 0.084626 0.644064
Si Si4 0.734245 0.844137 0.001407
Si Si5 0.009713 0.911986 0.650854
Si Si6 0.742022 0.814470 0.502689
Si Si7 0.372110 0.581455 0.031152
Si Si8 0.339740 0.736084 0.157829
O O1 0.500000 0.426979 0.500000
O O2 0.708733 0.500000 0.210939
O O3 0.712003 0.347911 0.247664
O O4 0.581914 0.406869 0.170106
O O5 0.500000 0.741226 0.500000
O O6 0.709397 0.780968 0.137449
O O7 0.749805 0.772125 0.351994
O O8 0.500000 0.117561 0.500000
O O9 0.369948 0.088895 0.863282
O O10 0.614444 0.130998 0.630044
O O11 0.561831 0.000000 0.584551
O O12 0.878582 0.882890 0.859378
O O13 0.711410 0.805720 0.879550
O O14 0.000000 0.896910 0.500000
O O15 0.128692 0.864701 0.598800
O O16 0.031595 0.000000 0.658511
O O17 0.721129 0.749495 0.633583
O O18 0.296388 0.500000 0.121687
O O19 0.284209 0.654628 0.161684
O O20 0.500000 0.579340 0.000000
O O21 0.500000 0.734780 0.000000
#
# Coordination Sequence:
#
# PCOD8067462 Si02
#       8
#     4   4   4   4   4   4   4   4
#     4   9  18  30  48  80 122 158 183 225 290 341
#     4  11  20  36  60  88 121 150 191 241 283 339
#     4  11  22  38  59  85 113 142 185 238 295 345
#     4  12  20  40  59  85 112 151 191 235 291 342
#     4  11  26  44  59  82 118 152 192 244 294 348
#     4  12  22  40  58  84 113 151 189 241 289 339
#     4   9  18  30  47  81 122 155 189 229 280 339
#     4  11  20  32  58  87 114 152 194 235 283 338
#
# _framework density 18.313611999999999
#
# number of rings (size 3 to 8) (size 9 to 14) (size 15 to 20)
#    0.000    1.250    6.250    0.750    5.250    0.500 
#    0.000    1.250    0.000    0.000    0.000    5.250 
#    0.000    0.000    0.000    0.000    0.000    0.000 
#
# Total GULP energy -396545.263103 kJ/mol
# GULP energy per Si atom -12392.039472 kJ/mol
# Density = 1.827193 g / cm^3
# Si number density = 18.313612 Si / 1000 Ang^3
#
#
#
# Elastic Constant Matrix: (Units=GPa)
#
#
# Indices 1 2 3 4 5 6 
#
# 1 85.5071 47.2682 34.0019 0.0000 2.6234 0.0000
# 2 47.2682 135.2336 31.8173 0.0000 0.9332 0.0000
# 3 34.0019 31.8173 67.7849 0.0000 -7.2406 0.0000
# 4 0.0000 0.0000 0.0000 15.6813 0.0000 -6.0999
# 5 2.6234 0.9332 -7.2406 0.0000 26.4335 0.0000
# 6 0.0000 0.0000 0.0000 -6.0999 0.0000 5.4158
#
#
#
# Elastic Compliance Matrix: (Units=1/GPa)
#
#
# Indices 1 2 3 4 5 6 
#
# 1 0.016871 -0.004269 -0.006822 0.000000 -0.003392 0.000000
# 2 -0.004269 0.009443 -0.002351 0.000000 -0.000554 0.000000
# 3 -0.006822 -0.002351 0.019942 0.000000 0.006223 0.000000
# 4 0.000000 0.000000 0.000000 0.113497 0.000000 0.127835
# 5 -0.003392 -0.000554 0.006223 0.000000 0.039891 0.000000
# 6 0.000000 0.000000 0.000000 0.127835 0.000000 0.328628
#
#
# Mechanical properties :
#
#
# Convention : Reuss Voigt Hill
#
# Bulk Modulus (GPa) = 51.61148 57.18893 54.40021
# Shear Modulus (GPa) = 8.90291 21.20200 15.05246
#
# Velocity S-wave (km/s) = 2.20724 3.40622 2.87004
# Velocity P-wave (km/s) = 5.89399 6.83850 6.38374
#
# Compressibility (1/GPa) = 0.01937553
#
# Stress axis : x y z
#
# Youngs Moduli (GPa) = 59.27213 105.89312 50.14445
#
# Poissons Ratio (x) = 0.45202 0.34207
# Poissons Ratio (y) = 0.25301 0.11787
# Poissons Ratio (z) = 0.40433 0.24891
#
# Static dielectric constant tensor:
#      x y z
#    x 4.637710 0.000000 0.852300 
#    y 0.000000 4.169560 0.000000 
#    z 0.852300 0.000000 3.508980 
# 
# 
# High freq. dielectric constant tensor:
#      x y z
#    x 1.683910 0.000000 0.037960 
#    y 0.000000 1.739220 0.000000 
#    z 0.037960 0.000000 1.691200 
# 
# From -- ./inp_files/26075.got.cif
#   From: 2010.06.25/outbox.cif.g09.slc.cpg/sg10_14_cif.got.tgz:26075.got - 2010.06.27 22:07:45.
