data_PCOD8067108
_publ_section_title
;
Structure prediction by ZEFSAII (Michael W. Deem and Ramdas Pophale) SiO2 
 PCOD8067108
Probable space group: P 2/M
;
_chemical_formula_sum "Si O2"
_cell_formula_units_Z 28
_cell_length_a 26.933411
_cell_length_b 8.795182
_cell_length_c 9.185066
_cell_angle_alpha 90.000000
_cell_angle_beta 141.443487
_cell_angle_gamma 90.000000
_cell_volume 1356.144655
_symmetry_space_group_name_H-M "P 2/M"
_symmetry_group_IT_number 10
_symmetry_cell_setting 'monoclinic'
loop_
_space_group_symop_operation_xyz
x,y,z
-x,y,-z
-x,-y,-z
x,-y,z
loop_
_atom_site_type_symbol
_atom_site_label
_atom_site_fract_x
_atom_site_fract_y
_atom_site_fract_z
Si Si1 0.342582 0.678821 0.807741
Si Si2 0.204253 0.823504 0.652440
Si Si3 0.629964 0.678209 0.461499
Si Si4 0.231246 0.825062 0.044679
Si Si5 0.486201 0.820037 0.303949
Si Si6 0.072628 0.672649 0.774733
Si Si7 0.975106 0.169033 0.778533
O O1 0.352350 0.500000 0.847437
O O2 0.253528 0.728513 0.646696
O O3 0.359208 0.730098 0.680519
O O4 0.402139 0.760383 0.054814
O O5 0.113662 0.762408 0.442853
O O6 0.206067 0.000000 0.611422
O O7 0.242436 0.797487 0.898711
O O8 0.613683 0.500000 0.434597
O O9 0.708394 0.718000 0.731536
O O10 0.554758 0.764229 0.353980
O O11 0.248340 0.000000 0.123808
O O12 0.142194 0.784595 0.886523
O O13 0.500000 0.759597 0.500000
O O14 0.484873 0.000000 0.299451
O O15 0.104292 0.500000 0.852005
O O16 0.000000 0.694031 0.500000
O O17 0.040050 0.720346 0.856931
O O18 0.977222 0.000000 0.711744
O O19 0.000000 0.156983 0.000000
#
# Coordination Sequence:
#
# PCOD8067108 Si02
#       7
#     4   4   4   4   4   4   4
#     4  11  25  42  63  92 128 165 201 249 305 362
#     4  10  22  40  61  89 123 160 208 258 304 364
#     4  11  25  43  63  94 130 162 202 250 305 365
#     4  11  23  40  64  90 121 162 209 258 307 362
#     4  11  24  43  68  97 126 160 205 250 298 359
#     4  11  23  39  61  90 123 162 206 256 314 369
#     4  10  22  40  62  89 121 162 209 258 312 368
#
# _framework density 20.646764999999998
#
# number of rings (size 3 to 8) (size 9 to 14) (size 15 to 20)
#    0.000    1.286    1.429    3.429    2.000   11.143 
#    0.000    0.000    0.000    0.000    0.000    0.000 
#    0.000    0.000    0.000    0.000    0.000    0.000 
#
# Total GULP energy -347364.109318 kJ/mol
# GULP energy per Si atom -12405.861047 kJ/mol
# Density = 2.059977 g / cm^3
# Si number density = 20.646765 Si / 1000 Ang^3
#
#
#
# Elastic Constant Matrix: (Units=GPa)
#
#
# Indices 1 2 3 4 5 6 
#
# 1 124.6695 32.2578 16.8680 0.0000 -0.8076 0.0000
# 2 32.2578 50.7955 21.3519 0.0000 -6.5383 0.0000
# 3 16.8680 21.3519 70.0450 0.0000 -4.8908 0.0000
# 4 0.0000 0.0000 0.0000 18.3288 0.0000 12.0713
# 5 -0.8076 -6.5383 -4.8908 0.0000 32.9406 0.0000
# 6 0.0000 0.0000 0.0000 12.0713 0.0000 49.1784
#
#
#
# Elastic Compliance Matrix: (Units=1/GPa)
#
#
# Indices 1 2 3 4 5 6 
#
# 1 0.009650 -0.006027 -0.000559 0.000000 -0.001043 0.000000
# 2 -0.006027 0.026750 -0.006409 0.000000 0.004210 0.000000
# 3 -0.000559 -0.006409 0.016446 0.000000 0.001156 0.000000
# 4 0.000000 0.000000 0.000000 0.065080 0.000000 -0.015974
# 5 -0.001043 0.004210 0.001156 0.000000 0.031339 0.000000
# 6 0.000000 0.000000 0.000000 -0.015974 0.000000 0.024255
#
#
# Mechanical properties :
#
#
# Convention : Reuss Voigt Hill
#
# Bulk Modulus (GPa) = 37.23744 42.94062 40.08903
# Shear Modulus (GPa) = 23.98519 31.75838 27.87178
#
# Velocity S-wave (km/s) = 3.41206 3.92621 3.67813
# Velocity P-wave (km/s) = 5.79633 6.43401 6.12348
#
# Compressibility (1/GPa) = 0.02685469
#
# Stress axis : x y z
#
# Youngs Moduli (GPa) = 103.63084 37.38284 60.80664
#
# Poissons Ratio (x) = 0.22531 0.03401
# Poissons Ratio (y) = 0.62460 0.38970
# Poissons Ratio (z) = 0.05797 0.23958
#
# Static dielectric constant tensor:
#      x y z
#    x 3.579730 0.000000 -0.166960 
#    y 0.000000 3.736010 0.000000 
#    z -0.166960 0.000000 3.747630 
# 
# 
# High freq. dielectric constant tensor:
#      x y z
#    x 1.820520 0.000000 0.001870 
#    y 0.000000 1.808250 0.000000 
#    z 0.001870 0.000000 1.815780 
# 
# From -- ./inp_files/37358.got.cif
#   From: 2010.06.25/outbox.cif.g09.slc.cpg/sg10_19_cif.got.tgz:37358.got - 2010.06.27 22:07:45.
