data_PCOD8067103
_publ_section_title
;
Structure prediction by ZEFSAII (Michael W. Deem and Ramdas Pophale) SiO2 
 PCOD8067103
Probable space group: P 2/M
;
_chemical_formula_sum "Si O2"
_cell_formula_units_Z 24
_cell_length_a 13.299631
_cell_length_b 8.578419
_cell_length_c 15.021866
_cell_angle_alpha 90.000000
_cell_angle_beta 139.071125
_cell_angle_gamma 90.000000
_cell_volume 1122.774871
_symmetry_space_group_name_H-M "P 2/M"
_symmetry_group_IT_number 10
_symmetry_cell_setting 'monoclinic'
loop_
_space_group_symop_operation_xyz
x,y,z
-x,y,-z
-x,-y,-z
x,-y,z
loop_
_atom_site_type_symbol
_atom_site_label
_atom_site_fract_x
_atom_site_fract_y
_atom_site_fract_z
Si Si1 0.675635 0.319009 0.105574
Si Si2 0.674496 0.679851 0.437118
Si Si3 0.350094 0.821057 0.248471
Si Si4 0.825209 0.819014 0.371673
Si Si5 0.166637 0.320160 0.971624
Si Si6 0.153263 0.179174 0.286544
O O1 0.703076 0.500000 0.146171
O O2 0.778464 0.215367 0.239370
O O3 0.724291 0.278520 0.038078
O O4 0.500000 0.270467 0.000000
O O5 0.707093 0.500000 0.478859
O O6 0.495123 0.711341 0.330294
O O7 0.717460 0.719334 0.364625
O O8 0.779222 0.783145 0.571721
O O9 0.285509 0.787324 0.303275
O O10 0.401467 0.000000 0.273243
O O11 0.217300 0.784347 0.088613
O O12 0.000000 0.765707 0.500000
O O13 0.803715 0.000000 0.379405
O O14 0.182860 0.500000 0.009296
O O15 0.991371 0.286973 0.830166
O O16 0.100269 0.000000 0.248622
#
# Coordination Sequence:
#
# PCOD8067103 Si02
#       6
#     4   4   4   4   4   4
#     4  10  22  40  61  88 122 159 201 249 301 356
#     4  12  25  41  64  92 123 160 203 255 310 364
#     4  11  24  42  64  90 123 163 205 252 306 364
#     4  11  24  41  63  91 122 159 203 249 300 363
#     4  11  23  39  63  94 126 162 205 254 305 360
#     4  11  24  42  63  89 124 164 205 252 306 364
#
# _framework density 21.375613000000001
#
# number of rings (size 3 to 8) (size 9 to 14) (size 15 to 20)
#    0.000    1.000    0.000    6.500    0.000   13.667 
#    0.000    0.000    0.000    0.000    0.000    0.000 
#    0.000    0.000    0.000    0.000    0.000    0.000 
#
# Total GULP energy -297855.818559 kJ/mol
# GULP energy per Si atom -12410.659107 kJ/mol
# Density = 2.132696 g / cm^3
# Si number density = 21.375613 Si / 1000 Ang^3
#
#
#
# Elastic Constant Matrix: (Units=GPa)
#
#
# Indices 1 2 3 4 5 6 
#
# 1 59.9223 44.1417 -7.2905 0.0000 2.3019 0.0000
# 2 44.1417 69.6198 13.7954 0.0000 -2.2577 0.0000
# 3 -7.2905 13.7954 82.9594 0.0000 1.5437 0.0000
# 4 0.0000 0.0000 0.0000 -294.7698 0.0000 -53.5009
# 5 2.3019 -2.2577 1.5437 0.0000 38.1866 0.0000
# 6 0.0000 0.0000 0.0000 -53.5009 0.0000 20.1597
#
#
#
# Elastic Compliance Matrix: (Units=1/GPa)
#
#
# Indices 1 2 3 4 5 6 
#
# 1 0.035360 -0.023964 0.007164 0.000000 -0.003838 0.000000
# 2 -0.023964 0.031130 -0.007349 0.000000 0.003582 0.000000
# 3 0.007164 -0.007349 0.013932 0.000000 -0.001430 0.000000
# 4 0.000000 0.000000 0.000000 -0.002290 0.000000 -0.006076
# 5 -0.003838 0.003582 -0.001430 0.000000 0.026688 0.000000
# 6 0.000000 0.000000 0.000000 -0.006076 0.000000 0.033478
#
#
# Mechanical properties :
#
#
# Convention : Reuss Voigt Hill
#
# Bulk Modulus (GPa) = 31.12906 34.86608 32.99757
# Shear Modulus (GPa) = 25.34136 -36.49438 -5.57651
#
# Velocity S-wave (km/s) = 3.44688 -4.13642 -1.61694
# Velocity P-wave (km/s) = 5.51687 2.54298 3.46187
#
# Compressibility (1/GPa) = 0.03212432
#
# Stress axis : x y z
#
# Youngs Moduli (GPa) = 28.28040 32.12318 71.77533
#
# Poissons Ratio (x) = 0.76979 -0.51419
# Poissons Ratio (y) = 0.67770 0.52750
# Poissons Ratio (z) = -0.20260 0.23608
#
# Static dielectric constant tensor:
#      x y z
#    x 3.965110 0.000000 -0.053930 
#    y 0.000000 3.768340 0.000000 
#    z -0.053930 0.000000 3.803000 
# 
# 
# High freq. dielectric constant tensor:
#      x y z
#    x 1.852290 0.000000 -0.001180 
#    y 0.000000 1.841550 0.000000 
#    z -0.001180 0.000000 1.848400 
# 
# From -- ./inp_files/66689.got.cif
#   From: 2010.06.25/outbox.cif.g09.slc.cpg/sg10_34_cif.got.tgz:66689.got - 2010.06.27 22:07:45.
