data_PCOD8067077
_publ_section_title
;
Structure prediction by ZEFSAII (Michael W. Deem and Ramdas Pophale) SiO2 
 PCOD8067077
Probable space group: P 2/M
;
_chemical_formula_sum "Si O2"
_cell_formula_units_Z 20
_cell_length_a 18.617642
_cell_length_b 11.319278
_cell_length_c 9.211405
_cell_angle_alpha 90.000000
_cell_angle_beta 29.644778
_cell_angle_gamma 90.000000
_cell_volume 960.156544
_symmetry_space_group_name_H-M "P 2/M"
_symmetry_group_IT_number 10
_symmetry_cell_setting 'monoclinic'
loop_
_space_group_symop_operation_xyz
x,y,z
-x,y,-z
-x,-y,-z
x,-y,z
loop_
_atom_site_type_symbol
_atom_site_label
_atom_site_fract_x
_atom_site_fract_y
_atom_site_fract_z
Si Si1 0.156675 0.000000 0.654875
Si Si2 0.130944 0.252865 0.659204
Si Si3 0.435447 0.225913 0.768640
Si Si4 0.605549 0.370477 0.678907
Si Si5 0.536457 0.000000 0.767174
Si Si6 0.148138 0.637353 0.323729
O O1 0.159025 0.118722 0.552926
O O2 0.286360 0.000000 0.549738
O O3 0.000000 0.000000 0.000000
O O4 0.268119 0.278474 0.518385
O O5 0.118132 0.341229 0.546986
O O6 0.000000 0.266566 0.000000
O O7 0.500000 0.191530 0.500000
O O8 0.521008 0.337673 0.681578
O O9 0.460923 0.113804 0.827686
O O10 0.268060 0.269806 0.053846
O O11 0.672514 0.500000 0.539351
O O12 0.500000 0.367345 0.000000
O O13 0.500000 0.000000 0.000000
O O14 0.195874 0.500000 0.219967
O O15 0.000000 0.664261 0.500000
#
# Coordination Sequence:
#
# PCOD8067077 Si02
#       6
#     2   4   4   4   2   4
#     4  10  22  39  67  96 133 167 210 274 334 385
#     4  11  23  42  67  99 128 171 229 278 332 399
#     4  12  26  43  66 101 136 175 225 275 339 402
#     4  11  22  40  66  95 131 173 226 283 331 393
#     4  12  23  45  73 100 132 176 223 282 331 390
#     4  11  26  46  65  93 138 181 219 277 343 401
#
# _framework density 20.829936
#
# number of rings (size 3 to 8) (size 9 to 14) (size 15 to 20)
#    0.000    0.800    4.000    3.300    2.800    3.200 
#    0.000    2.000    0.000    0.000    0.000    0.000 
#    0.000    0.000    0.000    0.000    0.000    0.000 
#
# Total GULP energy -247908.961570 kJ/mol
# GULP energy per Si atom -12395.448078 kJ/mol
# Density = 2.078253 g / cm^3
# Si number density = 20.829936 Si / 1000 Ang^3
#
#
#
# Elastic Constant Matrix: (Units=GPa)
#
#
# Indices 1 2 3 4 5 6 
#
# 1 112.0678 39.4263 53.3749 0.0000 -7.4170 0.0000
# 2 39.4263 126.0868 55.5776 0.0000 -9.4894 0.0000
# 3 53.3749 55.5776 119.1935 0.0000 -11.2226 0.0000
# 4 0.0000 0.0000 0.0000 23.8513 0.0000 -32.6036
# 5 -7.4170 -9.4894 -11.2226 0.0000 46.0261 0.0000
# 6 0.0000 0.0000 0.0000 -32.6036 0.0000 -92.6824
#
#
#
# Elastic Compliance Matrix: (Units=1/GPa)
#
#
# Indices 1 2 3 4 5 6 
#
# 1 0.011630 -0.001668 -0.004387 0.000000 0.000461 0.000000
# 2 -0.001668 0.010262 -0.003955 0.000000 0.000883 0.000000
# 3 -0.004387 -0.003955 0.012338 0.000000 0.001486 0.000000
# 4 0.000000 0.000000 0.000000 0.028312 0.000000 -0.009960
# 5 0.000461 0.000883 0.001486 0.000000 0.022345 0.000000
# 6 0.000000 0.000000 0.000000 -0.009960 0.000000 -0.007286
#
#
# Mechanical properties :
#
#
# Convention : Reuss Voigt Hill
#
# Bulk Modulus (GPa) = 70.37018 72.67842 71.52430
# Shear Modulus (GPa) = 48.84794 9.37028 29.10911
#
# Velocity S-wave (km/s) = 4.84786 2.12326 3.74232
# Velocity P-wave (km/s) = 8.07417 6.40141 7.28595
#
# Compressibility (1/GPa) = 0.01421056
#
# Stress axis : x y z
#
# Youngs Moduli (GPa) = 85.98619 97.44250 81.05000
#
# Poissons Ratio (x) = 0.16257 0.35553
# Poissons Ratio (y) = 0.14345 0.32055
# Poissons Ratio (z) = 0.37718 0.38538
#
# Static dielectric constant tensor:
#      x y z
#    x 3.625040 0.000000 -0.371080 
#    y 0.000000 4.277780 0.000000 
#    z -0.371080 0.000000 3.593220 
# 
# 
# High freq. dielectric constant tensor:
#      x y z
#    x 1.807610 0.000000 -0.018800 
#    y 0.000000 1.837200 0.000000 
#    z -0.018800 0.000000 1.816790 
# 
# From -- ./inp_files/32386.got.cif
#   From: 2010.06.25/outbox.cif.g09.slc.cpg/sg10_17_cif.got.tgz:32386.got - 2010.06.27 22:07:45.
