data_PCOD8067851
_publ_section_title
;
Structure prediction by ZEFSAII (Michael W. Deem and Ramdas Pophale) SiO2 
 PCOD8067851
Probable space group: P 2/M
;
_chemical_formula_sum "Si O2"
_cell_formula_units_Z 20
_cell_length_a 17.758031
_cell_length_b 7.369503
_cell_length_c 8.712088
_cell_angle_alpha 90.000000
_cell_angle_beta 90.166972
_cell_angle_gamma 90.000000
_cell_volume 1140.127495
_symmetry_space_group_name_H-M "P 2/M"
_symmetry_group_IT_number 10
_symmetry_cell_setting 'monoclinic'
loop_
_space_group_symop_operation_xyz
x,y,z
-x,y,-z
-x,-y,-z
x,-y,z
loop_
_atom_site_type_symbol
_atom_site_label
_atom_site_fract_x
_atom_site_fract_y
_atom_site_fract_z
Si Si1 0.507198 0.000000 0.184580
Si Si2 0.572209 0.293853 0.394335
Si Si3 0.637211 0.000000 0.601144
Si Si4 0.892272 0.705710 0.878385
Si Si5 0.196801 0.000000 0.278869
Si Si6 0.056271 0.705332 0.783067
Si Si7 0.084859 0.000000 0.556573
O O1 0.552214 0.181670 0.238851
O O2 0.426233 0.000000 0.267205
O O3 0.500000 0.000000 0.000000
O O4 0.500000 0.307682 0.500000
O O5 0.600664 0.500000 0.354960
O O6 0.633073 0.179289 0.493181
O O7 0.715664 0.000000 0.688395
O O8 0.877247 0.500000 0.828921
O O9 0.970601 0.775610 0.804812
O O10 0.822554 0.822640 0.820059
O O11 0.897359 0.723483 0.060609
O O12 0.148272 0.000000 0.431076
O O13 0.054835 0.500000 0.724920
O O14 0.099114 0.821405 0.657139
O O15 0.000000 0.000000 0.500000
#
# Coordination Sequence:
#
# PCOD8067851 Si02
#       7
#     2   4   2   4   2   4   2
#     4   9  17  32  56  85 105 122 164 209 241 277
#     4   8  15  32  56  76 100 136 168 191 229 293
#     4   9  20  34  49  73 107 139 161 196 247 302
#     4   9  18  33  52  69  90 129 170 208 256 304
#     4  12  22  32  48  74 105 132 163 207 259 300
#     4   9  18  34  52  68  90 122 170 222 257 293
#     4  12  21  30  47  74  96 124 167 214 253 292
#
# _framework density 17.541898
#
# number of rings (size 3 to 8) (size 9 to 14) (size 15 to 20)
#    0.000    2.600    2.000    3.000    0.000    4.000 
#    0.000    4.000    0.000    2.400    0.000    0.000 
#    0.000    0.000    0.000    0.000    0.000    0.000 
#
# Total GULP energy -247900.200300 kJ/mol
# GULP energy per Si atom -12395.010015 kJ/mol
# Density = 1.750197 g / cm^3
# Si number density = 17.541898 Si / 1000 Ang^3
#
#
#
# Elastic Constant Matrix: (Units=GPa)
#
#
# Indices 1 2 3 4 5 6 
#
# 1 81.9738 39.9419 28.9137 0.0000 24.8864 0.0000
# 2 39.9419 138.4328 53.1491 0.0000 19.5171 0.0000
# 3 28.9137 53.1491 85.7821 0.0000 12.5278 0.0000
# 4 0.0000 0.0000 0.0000 46.2465 0.0000 7.1704
# 5 24.8864 19.5171 12.5278 0.0000 25.6055 0.0000
# 6 0.0000 0.0000 0.0000 7.1704 0.0000 16.6947
#
#
#
# Elastic Compliance Matrix: (Units=1/GPa)
#
#
# Indices 1 2 3 4 5 6 
#
# 1 0.018914 -0.002241 -0.002748 0.000000 -0.015331 0.000000
# 2 -0.002241 0.010297 -0.005165 0.000000 -0.003143 0.000000
# 3 -0.002748 -0.005165 0.015959 0.000000 -0.001200 0.000000
# 4 0.000000 0.000000 0.000000 0.023166 0.000000 -0.009950
# 5 -0.015331 -0.003143 -0.001200 0.000000 0.056937 0.000000
# 6 0.000000 0.000000 0.000000 -0.009950 0.000000 0.064173
#
#
# Mechanical properties :
#
#
# Convention : Reuss Voigt Hill
#
# Bulk Modulus (GPa) = 40.22193 61.13312 50.67752
# Shear Modulus (GPa) = 22.93140 29.98826 26.45983
#
# Velocity S-wave (km/s) = 3.61949 4.13912 3.88800
# Velocity P-wave (km/s) = 6.35976 7.60056 7.00768
#
# Compressibility (1/GPa) = 0.02486206
#
# Stress axis : x y z
#
# Youngs Moduli (GPa) = 52.86985 97.12010 62.65962
#
# Poissons Ratio (x) = 0.21764 0.17218
# Poissons Ratio (y) = 0.11848 0.32365
# Poissons Ratio (z) = 0.14528 0.50164
#
# Static dielectric constant tensor:
#      x y z
#    x 2.930420 0.000000 0.120240 
#    y 0.000000 3.724260 0.000000 
#    z 0.120240 0.000000 3.220100 
# 
# 
# High freq. dielectric constant tensor:
#      x y z
#    x 1.631050 0.000000 0.017530 
#    y 0.000000 1.695500 0.000000 
#    z 0.017530 0.000000 1.676100 
# 
# From -- ./inp_files/30983.got.cif
#   From: 2010.06.25/outbox.cif.g09.slc.cpg/sg10_16_cif.got.tgz:30983.got - 2010.06.27 22:07:45.
