data_PCOD8067166
_publ_section_title
;
Structure prediction by ZEFSAII (Michael W. Deem and Ramdas Pophale) SiO2 
 PCOD8067166
Probable space group: P 2/M
;
_chemical_formula_sum "Si O2"
_cell_formula_units_Z 28
_cell_length_a 9.749507
_cell_length_b 8.748133
_cell_length_c 29.005362
_cell_angle_alpha 90.000000
_cell_angle_beta 33.084951
_cell_angle_gamma 90.000000
_cell_volume 1350.439170
_symmetry_space_group_name_H-M "P 2/M"
_symmetry_group_IT_number 10
_symmetry_cell_setting 'monoclinic'
loop_
_space_group_symop_operation_xyz
x,y,z
-x,y,-z
-x,-y,-z
x,-y,z
loop_
_atom_site_type_symbol
_atom_site_label
_atom_site_fract_x
_atom_site_fract_y
_atom_site_fract_z
Si Si1 0.955653 0.679171 0.870628
Si Si2 0.294905 0.179108 0.143183
Si Si3 0.184455 0.681034 0.988079
Si Si4 0.468861 0.174826 0.699437
Si Si5 0.607862 0.677547 0.566551
Si Si6 0.031500 0.825864 0.390772
Si Si7 0.871057 0.177492 0.334881
O O1 0.910882 0.500000 0.879016
O O2 0.236339 0.717824 0.776275
O O3 0.750796 0.759152 0.895486
O O4 0.916462 0.737172 0.933837
O O5 0.538122 0.253730 0.098083
O O6 0.054711 0.223536 0.241596
O O7 0.338575 0.000000 0.129163
O O8 0.198301 0.500000 0.981754
O O9 0.000000 0.744289 0.000000
O O10 0.593953 0.221943 0.616273
O O11 0.675349 0.195217 0.680923
O O12 0.374208 0.000000 0.722470
O O13 0.598193 0.500000 0.582031
O O14 0.868603 0.712927 0.467865
O O15 0.378953 0.721278 0.597402
O O16 0.005044 0.782386 0.344913
O O17 0.944467 0.000000 0.424887
O O18 0.795911 0.000000 0.353201
#
# Coordination Sequence:
#
# PCOD8067166 Si02
#       7
#     4   4   4   4   4   4   4
#     4  11  23  41  65  92 124 164 206 250 304 365
#     4  11  23  40  66  95 124 163 210 255 301 359
#     4  10  24  44  65  93 130 167 199 245 310 369
#     4  11  23  40  64  91 121 161 207 255 309 365
#     4  12  24  39  61  91 124 162 208 255 306 366
#     4  10  23  41  62  87 122 165 207 256 314 364
#     4  10  22  41  63  89 123 164 206 255 310 363
#
# _framework density 20.733998
#
# number of rings (size 3 to 8) (size 9 to 14) (size 15 to 20)
#    0.000    1.286    1.429    3.857    2.000    8.857 
#    0.000    0.000    0.000    0.000    0.000    0.000 
#    0.000    0.000    0.000    0.000    0.000    0.000 
#
# Total GULP energy -347401.055701 kJ/mol
# GULP energy per Si atom -12407.180561 kJ/mol
# Density = 2.068681 g / cm^3
# Si number density = 20.733998 Si / 1000 Ang^3
#
#
#
# Elastic Constant Matrix: (Units=GPa)
#
#
# Indices 1 2 3 4 5 6 
#
# 1 112.5673 10.4382 10.1543 0.0000 -6.6510 0.0000
# 2 10.4382 30.9447 9.3349 0.0000 -3.8809 0.0000
# 3 10.1543 9.3349 60.5537 0.0000 -2.6715 0.0000
# 4 0.0000 0.0000 0.0000 33.0184 0.0000 -5.9370
# 5 -6.6510 -3.8809 -2.6715 0.0000 35.2000 0.0000
# 6 0.0000 0.0000 0.0000 -5.9370 0.0000 29.6170
#
#
#
# Elastic Compliance Matrix: (Units=1/GPa)
#
#
# Indices 1 2 3 4 5 6 
#
# 1 0.009309 -0.002636 -0.001093 0.000000 0.001385 0.000000
# 2 -0.002636 0.035037 -0.004827 0.000000 0.002999 0.000000
# 3 -0.001093 -0.004827 0.017468 0.000000 0.000587 0.000000
# 4 0.000000 0.000000 0.000000 0.031419 0.000000 0.006298
# 5 0.001385 0.002999 0.000587 0.000000 0.029046 0.000000
# 6 0.000000 0.000000 0.000000 0.006298 0.000000 0.035027
#
#
# Mechanical properties :
#
#
# Convention : Reuss Voigt Hill
#
# Bulk Modulus (GPa) = 22.37140 29.32450 25.84795
# Shear Modulus (GPa) = 26.41057 31.17630 28.79344
#
# Velocity S-wave (km/s) = 3.57288 3.88188 3.73058
# Velocity P-wave (km/s) = 5.27577 5.85370 5.57223
#
# Compressibility (1/GPa) = 0.04469993
#
# Stress axis : x y z
#
# Youngs Moduli (GPa) = 107.42848 28.54113 57.24878
#
# Poissons Ratio (x) = 0.07524 0.06260
# Poissons Ratio (y) = 0.28322 0.27633
# Poissons Ratio (z) = 0.11746 0.13777
#
# Static dielectric constant tensor:
#      x y z
#    x 4.004140 0.000000 0.053070 
#    y 0.000000 3.659690 0.000000 
#    z 0.053070 0.000000 3.700050 
# 
# 
# High freq. dielectric constant tensor:
#      x y z
#    x 1.828910 0.000000 -0.001480 
#    y 0.000000 1.805650 0.000000 
#    z -0.001480 0.000000 1.812340 
# 
# From -- ./inp_files/82169.got.cif
#   From: 2010.06.25/outbox.cif.g09.slc.cpg/sg10_42_cif.got.tgz:82169.got - 2010.06.27 22:07:45.
