data_PCOD8067988
_publ_section_title
;
Structure prediction by ZEFSAII (Michael W. Deem and Ramdas Pophale) SiO2 
 PCOD8067988
Probable space group: P 2/M
;
_chemical_formula_sum "Si O2"
_cell_formula_units_Z 20
_cell_length_a 31.150676
_cell_length_b 7.501580
_cell_length_c 17.734554
_cell_angle_alpha 90.000000
_cell_angle_beta 15.190368
_cell_angle_gamma 90.000000
_cell_volume 1085.891533
_symmetry_space_group_name_H-M "P 2/M"
_symmetry_group_IT_number 10
_symmetry_cell_setting 'monoclinic'
loop_
_space_group_symop_operation_xyz
x,y,z
-x,y,-z
-x,-y,-z
x,-y,z
loop_
_atom_site_type_symbol
_atom_site_label
_atom_site_fract_x
_atom_site_fract_y
_atom_site_fract_z
Si Si1 0.261307 0.500000 0.077509
Si Si2 0.747377 0.788655 0.405389
Si Si3 0.061312 0.500000 0.277390
Si Si4 0.398181 0.794126 0.942671
Si Si5 0.920570 0.205864 0.419958
Si Si6 0.947442 0.788662 0.205104
O O1 0.090087 0.500000 0.409965
O O2 0.228814 0.500000 0.042467
O O3 0.360128 0.678252 0.932826
O O4 0.566205 0.719058 0.693669
O O5 0.807031 0.716122 0.386015
O O6 0.745674 0.000000 0.410631
O O7 0.874763 0.722477 0.125379
O O8 0.054330 0.321763 0.238426
O O9 0.411265 0.000000 0.895143
O O10 0.259875 0.767029 0.240298
O O11 0.914676 0.281013 0.344778
O O12 0.976372 0.000000 0.329737
O O13 0.942019 0.000000 0.214140
#
# Coordination Sequence:
#
# PCOD8067988 Si02
#       6
#     2   4   2   4   4   4
#     4   9  18  32  48  67  92 118 147 189 234 271
#     4   8  14  26  45  68  94 124 153 180 217 266
#     4   9  18  32  48  67  92 118 147 189 234 271
#     4   9  17  29  47  70  92 117 151 187 223 264
#     4   9  17  29  47  70  92 117 151 187 223 264
#     4   8  14  26  45  68  94 124 153 180 217 266
#
# _framework density 18.418044999999999
#
# number of rings (size 3 to 8) (size 9 to 14) (size 15 to 20)
#    0.000    3.400    0.000    1.200    0.000    1.600 
#    0.000   10.000    0.000    8.400    0.000    5.600 
#    0.000    0.000    0.000    0.000    0.000    0.000 
#
# Total GULP energy -247860.565470 kJ/mol
# GULP energy per Si atom -12393.028274 kJ/mol
# Density = 1.837612 g / cm^3
# Si number density = 18.418045 Si / 1000 Ang^3
#
#
#
# Elastic Constant Matrix: (Units=GPa)
#
#
# Indices 1 2 3 4 5 6 
#
# 1 160.7904 55.5361 81.5240 0.0000 -33.0981 0.0000
# 2 55.5361 75.7538 33.6745 0.0000 -12.2418 0.0000
# 3 81.5240 33.6745 74.0700 0.0000 -15.4002 0.0000
# 4 0.0000 0.0000 0.0000 -5.1069 0.0000 23.3939
# 5 -33.0981 -12.2418 -15.4002 0.0000 20.0143 0.0000
# 6 0.0000 0.0000 0.0000 23.3939 0.0000 -46.4867
#
#
#
# Elastic Compliance Matrix: (Units=1/GPa)
#
#
# Indices 1 2 3 4 5 6 
#
# 1 0.019055 -0.004354 -0.015470 0.000000 0.016944 0.000000
# 2 -0.004354 0.017999 -0.003093 0.000000 0.001428 0.000000
# 3 -0.015470 -0.003093 0.031215 0.000000 -0.003456 0.000000
# 4 0.000000 0.000000 0.000000 0.150019 0.000000 0.075495
# 5 0.016944 0.001428 -0.003456 0.000000 0.076200 0.000000
# 6 0.000000 0.000000 0.000000 0.075495 0.000000 0.016481
#
#
# Mechanical properties :
#
#
# Convention : Reuss Voigt Hill
#
# Bulk Modulus (GPa) = 44.57570 72.45371 58.51470
# Shear Modulus (GPa) = 13.72568 3.00943 8.36755
#
# Velocity S-wave (km/s) = 2.73285 1.27965 2.13377
# Velocity P-wave (km/s) = 5.84916 6.45036 6.15710
#
# Compressibility (1/GPa) = 0.02243375
#
# Stress axis : x y z
#
# Youngs Moduli (GPa) = 52.48090 55.55959 32.03600
#
# Poissons Ratio (x) = 0.24192 0.49558
# Poissons Ratio (y) = 0.22852 0.09910
# Poissons Ratio (z) = 0.81185 0.17187
#
# Static dielectric constant tensor:
#      x y z
#    x 3.749890 0.000000 -0.198730 
#    y 0.000000 3.242630 0.000000 
#    z -0.198730 0.000000 3.398250 
# 
# 
# High freq. dielectric constant tensor:
#      x y z
#    x 1.706850 0.000000 -0.010040 
#    y 0.000000 1.707280 0.000000 
#    z -0.010040 0.000000 1.689070 
# 
# From -- ./inp_files/18607.got.cif
#   From: 2010.06.25/outbox.cif.g09.slc.cpg/sg10_10_cif.got.tgz:18607.got - 2010.06.27 22:07:45.
