data_PCOD8067413
_publ_section_title
;
Structure prediction by ZEFSAII (Michael W. Deem and Ramdas Pophale) SiO2 
 PCOD8067413
Probable space group: P 2/M
;
_chemical_formula_sum "Si O2"
_cell_formula_units_Z 32
_cell_length_a 23.915361
_cell_length_b 8.824915
_cell_length_c 34.891429
_cell_angle_alpha 90.000000
_cell_angle_beta 163.927649
_cell_angle_gamma 90.000000
_cell_volume 2038.695180
_symmetry_space_group_name_H-M "P 2/M"
_symmetry_group_IT_number 10
_symmetry_cell_setting 'monoclinic'
loop_
_space_group_symop_operation_xyz
x,y,z
-x,y,-z
-x,-y,-z
x,-y,z
loop_
_atom_site_type_symbol
_atom_site_label
_atom_site_fract_x
_atom_site_fract_y
_atom_site_fract_z
Si Si1 0.343119 0.824197 0.867128
Si Si2 0.253827 0.677650 0.091109
Si Si3 0.101821 0.825909 0.431790
Si Si4 0.507936 0.825391 0.197034
Si Si5 0.465674 0.823619 0.302199
Si Si6 0.308902 0.176570 0.759028
Si Si7 0.896956 0.322881 0.487770
Si Si8 0.105307 0.168176 0.110397
O O1 0.371836 0.760942 0.842625
O O2 0.112961 0.796588 0.730701
O O3 0.396499 0.000000 0.900831
O O4 0.500000 0.743881 0.000000
O O5 0.267589 0.500000 0.102064
O O6 0.326698 0.732527 0.097297
O O7 0.403572 0.742487 0.221927
O O8 0.020349 0.726138 0.943532
O O9 0.296090 0.796128 0.532305
O O10 0.117080 0.709438 0.476448
O O11 0.107378 0.000000 0.450529
O O12 0.508225 0.801040 0.150926
O O13 0.724885 0.772723 0.354148
O O14 0.476810 0.000000 0.187385
O O15 0.332672 0.767884 0.251381
O O16 0.415487 0.000000 0.262809
O O17 0.115156 0.269718 0.616033
O O18 0.246607 0.000000 0.720945
O O19 0.865728 0.500000 0.459080
O O20 0.112735 0.000000 0.133352
O O21 0.000000 0.165782 0.000000
#
# Coordination Sequence:
#
# PCOD8067413 Si02
#       8
#     4   4   4   4   4   4   4   4
#     4   8  14  27  47  68  86 103 132 174 212 248
#     4  11  20  27  38  58  82 110 142 175 214 243
#     4   9  16  27  44  63  84 114 144 169 204 249
#     4  11  20  30  42  55  79 113 147 174 199 245
#     4   9  16  27  42  57  79 112 147 175 200 242
#     4   9  19  32  45  60  78 109 143 169 206 252
#     4  11  20  28  40  60  84 109 138 176 213 239
#     4   8  15  27  40  54  75 109 146 174 203 241
#
# _framework density 15.696313999999999
#
# number of rings (size 3 to 8) (size 9 to 14) (size 15 to 20)
#    0.000    2.500    1.250    4.500    0.000    4.750 
#    0.000    0.000    0.000    6.000    0.000    0.000 
#    0.000    1.000    0.000   12.750    0.000    1.250 
#
# Total GULP energy -396497.462744 kJ/mol
# GULP energy per Si atom -12390.545711 kJ/mol
# Density = 1.566059 g / cm^3
# Si number density = 15.696314 Si / 1000 Ang^3
#
#
#
# Elastic Constant Matrix: (Units=GPa)
#
#
# Indices 1 2 3 4 5 6 
#
# 1 95.0202 23.8074 54.3190 0.0000 30.3771 0.0000
# 2 23.8074 50.7958 15.0013 0.0000 10.6873 0.0000
# 3 54.3190 15.0013 76.6991 0.0000 20.4692 0.0000
# 4 0.0000 0.0000 0.0000 5.7151 0.0000 4.3846
# 5 30.3771 10.6873 20.4692 0.0000 26.5068 0.0000
# 6 0.0000 0.0000 0.0000 4.3846 0.0000 10.3719
#
#
#
# Elastic Compliance Matrix: (Units=1/GPa)
#
#
# Indices 1 2 3 4 5 6 
#
# 1 0.023192 -0.004127 -0.011297 0.000000 -0.016191 0.000000
# 2 -0.004127 0.022598 -0.000413 0.000000 -0.004063 0.000000
# 3 -0.011297 -0.000413 0.022193 0.000000 -0.004026 0.000000
# 4 0.000000 0.000000 0.000000 0.258964 0.000000 -0.109474
# 5 -0.016191 -0.004063 -0.004026 0.000000 0.061028 0.000000
# 6 0.000000 0.000000 0.000000 -0.109474 0.000000 0.142693
#
#
# Mechanical properties :
#
#
# Convention : Reuss Voigt Hill
#
# Bulk Modulus (GPa) = 27.54045 45.41896 36.47970
# Shear Modulus (GPa) = 8.70407 17.14459 12.92433
#
# Velocity S-wave (km/s) = 2.35740 3.30853 2.87261
# Velocity P-wave (km/s) = 4.99937 6.60258 5.85610
#
# Compressibility (1/GPa) = 0.03631022
#
# Stress axis : x y z
#
# Youngs Moduli (GPa) = 43.11847 44.25237 45.05828
#
# Poissons Ratio (x) = 0.18263 0.50901
# Poissons Ratio (y) = 0.17796 0.01859
# Poissons Ratio (z) = 0.48709 0.01826
#
# Static dielectric constant tensor:
#      x y z
#    x 3.211510 0.000000 0.365870 
#    y 0.000000 2.856510 0.000000 
#    z 0.365870 0.000000 3.030860 
# 
# 
# High freq. dielectric constant tensor:
#      x y z
#    x 1.588790 0.000000 0.039460 
#    y 0.000000 1.591650 0.000000 
#    z 0.039460 0.000000 1.563680 
# 
# From -- ./inp_files/95682.got.cif
#   From: 2010.06.25/outbox.cif.g09.slc.cpg/sg10_48_cif.got.tgz:95682.got - 2010.06.27 22:07:45.
