data_PCOD8067002
_publ_section_title
;
Structure prediction by ZEFSAII (Michael W. Deem and Ramdas Pophale) SiO2 
 PCOD8067002
Probable space group: P 2/M
;
_chemical_formula_sum "Si O2"
_cell_formula_units_Z 32
_cell_length_a 15.232317
_cell_length_b 17.256513
_cell_length_c 12.535778
_cell_angle_alpha 90.000000
_cell_angle_beta 151.960015
_cell_angle_gamma 90.000000
_cell_volume 1548.991836
_symmetry_space_group_name_H-M "P 2/M"
_symmetry_group_IT_number 10
_symmetry_cell_setting 'monoclinic'
loop_
_space_group_symop_operation_xyz
x,y,z
-x,y,-z
-x,-y,-z
x,-y,z
loop_
_atom_site_type_symbol
_atom_site_label
_atom_site_fract_x
_atom_site_fract_y
_atom_site_fract_z
Si Si1 0.877613 0.912743 0.509274
Si Si2 0.208402 0.823389 0.192081
Si Si3 0.470388 0.411047 0.298543
Si Si4 0.210797 0.761970 0.705141
Si Si5 0.216169 0.642112 0.207468
Si Si6 0.624370 0.134275 0.418946
Si Si7 0.528543 0.718164 0.197092
Si Si8 0.765557 0.085966 0.992668
O O1 0.790033 0.852339 0.332156
O O2 0.793417 0.905044 0.537118
O O3 0.096137 0.891479 0.761794
O O4 0.851953 0.000000 0.436388
O O5 0.253256 0.733224 0.247187
O O6 0.341481 0.869733 0.417177
O O7 0.237590 0.850689 0.103550
O O8 0.000000 0.842629 0.000000
O O9 0.457874 0.500000 0.251404
O O10 0.657613 0.397536 0.567313
O O11 0.283097 0.389348 0.164028
O O12 0.482493 0.363870 0.201024
O O13 0.310736 0.709743 0.721054
O O14 0.000000 0.731709 0.500000
O O15 0.336259 0.754663 0.945151
O O16 0.000000 0.621610 0.000000
O O17 0.606998 0.224792 0.371445
O O18 0.444586 0.085673 0.188885
O O19 0.820079 0.000000 0.009385
#
# Coordination Sequence:
#
# PCOD8067002 Si02
#       8
#     4   4   4   4   4   4   4   4
#     4  10  22  39  58  84 118 152 200 264 316 357
#     4  11  21  35  56  83 117 167 207 245 290 347
#     4  11  23  40  64  95 129 164 196 243 307 361
#     4  10  22  41  65  89 114 155 206 259 312 366
#     4  10  22  38  61  94 129 168 208 244 285 356
#     4  11  20  37  58  79 117 158 208 244 298 356
#     4  10  22  41  63  91 118 154 203 254 301 370
#     4  11  23  34  52  82 117 161 205 251 303 350
#
# _framework density 20.658598999999999
#
# number of rings (size 3 to 8) (size 9 to 14) (size 15 to 20)
#    0.000    1.500    2.500    3.000    1.750    4.000 
#    0.000    6.875    0.000    0.750    0.000    0.000 
#    0.000    0.000    0.000    0.000    0.000    0.000 
#
# Total GULP energy -396800.515531 kJ/mol
# GULP energy per Si atom -12400.016110 kJ/mol
# Density = 2.061158 g / cm^3
# Si number density = 20.658599 Si / 1000 Ang^3
#
#
#
# Elastic Constant Matrix: (Units=GPa)
#
#
# Indices 1 2 3 4 5 6 
#
# 1 87.5443 45.3753 38.0510 0.0000 8.4146 0.0000
# 2 45.3753 99.2109 47.5785 0.0000 1.6944 0.0000
# 3 38.0510 47.5785 90.6889 0.0000 12.7118 0.0000
# 4 0.0000 0.0000 0.0000 25.7736 0.0000 -3.6132
# 5 8.4146 1.6944 12.7118 0.0000 39.6520 0.0000
# 6 0.0000 0.0000 0.0000 -3.6132 0.0000 14.9314
#
#
#
# Elastic Compliance Matrix: (Units=1/GPa)
#
#
# Indices 1 2 3 4 5 6 
#
# 1 0.016059 -0.005633 -0.003496 0.000000 -0.002046 0.000000
# 2 -0.005633 0.015564 -0.006153 0.000000 0.002503 0.000000
# 3 -0.003496 -0.006153 0.016313 0.000000 -0.004225 0.000000
# 4 0.000000 0.000000 0.000000 0.040162 0.000000 0.009719
# 5 -0.002046 0.002503 -0.004225 0.000000 0.026901 0.000000
# 6 0.000000 0.000000 0.000000 0.009719 0.000000 0.069325
#
#
# Mechanical properties :
#
#
# Convention : Reuss Voigt Hill
#
# Bulk Modulus (GPa) = 57.56021 59.93930 58.74976
# Shear Modulus (GPa) = 22.65748 25.83401 24.24574
#
# Velocity S-wave (km/s) = 3.31533 3.54011 3.42956
# Velocity P-wave (km/s) = 6.52520 6.76661 6.64700
#
# Compressibility (1/GPa) = 0.01737311
#
# Stress axis : x y z
#
# Youngs Moduli (GPa) = 62.27174 64.25165 61.29915
#
# Poissons Ratio (x) = 0.36195 0.21428
# Poissons Ratio (y) = 0.35079 0.37714
# Poissons Ratio (z) = 0.21768 0.39531
#
# Static dielectric constant tensor:
#      x y z
#    x 3.953660 0.000000 0.308700 
#    y 0.000000 3.504220 0.000000 
#    z 0.308700 0.000000 3.841120 
# 
# 
# High freq. dielectric constant tensor:
#      x y z
#    x 1.814730 0.000000 0.012860 
#    y 0.000000 1.784910 0.000000 
#    z 0.012860 0.000000 1.813890 
# 
# From -- ./inp_files/51973.got.cif
#   From: 2010.06.25/outbox.cif.g09.slc.cpg/sg10_26_cif.got.tgz:51973.got - 2010.06.27 22:07:45.
