data_PCOD8067676
_publ_section_title
;
Structure prediction by ZEFSAII (Michael W. Deem and Ramdas Pophale) SiO2 
 PCOD8067676
Probable space group: P 2/M
;
_chemical_formula_sum "Si O2"
_cell_formula_units_Z 28
_cell_length_a 17.006548
_cell_length_b 7.835437
_cell_length_c 20.448716
_cell_angle_alpha 90.000000
_cell_angle_beta 34.390751
_cell_angle_gamma 90.000000
_cell_volume 1539.097434
_symmetry_space_group_name_H-M "P 2/M"
_symmetry_group_IT_number 10
_symmetry_cell_setting 'monoclinic'
loop_
_space_group_symop_operation_xyz
x,y,z
-x,y,-z
-x,-y,-z
x,-y,z
loop_
_atom_site_type_symbol
_atom_site_label
_atom_site_fract_x
_atom_site_fract_y
_atom_site_fract_z
Si Si1 0.223558 0.000000 0.862039
Si Si2 0.899920 0.806723 0.512324
Si Si3 0.389270 0.307138 0.252794
Si Si4 0.364109 0.192941 0.128308
Si Si5 0.931984 0.696919 0.867023
Si Si6 0.335067 0.696343 0.862134
Si Si7 0.922178 0.308316 0.723914
Si Si8 0.953335 0.000000 0.135771
O O1 0.307047 0.826261 0.821632
O O2 0.189551 0.000000 0.807928
O O3 0.082049 0.000000 0.998994
O O4 0.755081 0.705179 0.608212
O O5 0.000000 0.726826 0.500000
O O6 0.974723 0.804586 0.390674
O O7 0.864924 0.000000 0.555698
O O8 0.415324 0.500000 0.212064
O O9 0.383763 0.190863 0.192581
O O10 0.515866 0.248509 0.211716
O O11 0.233275 0.305110 0.197461
O O12 0.338188 0.000000 0.122116
O O13 0.500000 0.270475 0.000000
O O14 0.982329 0.500000 0.840774
O O15 0.922729 0.754298 0.798119
O O16 0.779205 0.720184 0.002651
O O17 0.041866 0.826044 0.824907
O O18 0.334712 0.500000 0.836656
O O19 0.977882 0.500000 0.681090
#
# Coordination Sequence:
#
# PCOD8067676 Si02
#       8
#     2   4   4   4   4   4   4   2
#     4   9  18  32  54  82 111 144 174 206 259 327
#     4  11  23  37  53  73 100 137 182 229 271 311
#     4  11  22  36  54  74 102 140 181 223 267 311
#     4  11  23  34  49  74 103 139 179 219 264 313
#     4   9  19  34  53  80 112 142 175 219 265 315
#     4   9  19  34  53  80 112 142 175 219 265 315
#     4  11  22  36  54  74 102 140 181 223 267 311
#     4   9  18  32  54  82 111 144 174 206 259 327
#
# _framework density 18.19248
#
# number of rings (size 3 to 8) (size 9 to 14) (size 15 to 20)
#    0.000    1.857    1.429    2.571    4.000    3.429 
#    0.000    2.857    0.000    0.000    0.000    2.000 
#    0.000    4.571    0.000    0.000    0.000    0.000 
#
# Total GULP energy -347228.886079 kJ/mol
# GULP energy per Si atom -12401.031646 kJ/mol
# Density = 1.815107 g / cm^3
# Si number density = 18.192480 Si / 1000 Ang^3
#
#
#
# Elastic Constant Matrix: (Units=GPa)
#
#
# Indices 1 2 3 4 5 6 
#
# 1 146.7020 56.7014 45.9200 0.0000 -3.9044 0.0000
# 2 56.7014 82.7247 19.0696 0.0000 -0.0533 0.0000
# 3 45.9200 19.0696 87.3656 0.0000 -3.2809 0.0000
# 4 0.0000 0.0000 0.0000 19.6567 0.0000 -0.3825
# 5 -3.9044 -0.0533 -3.2809 0.0000 7.6487 0.0000
# 6 0.0000 0.0000 0.0000 -0.3825 0.0000 26.6878
#
#
#
# Elastic Compliance Matrix: (Units=1/GPa)
#
#
# Indices 1 2 3 4 5 6 
#
# 1 0.010644 -0.006355 -0.004071 0.000000 0.003643 0.000000
# 2 -0.006355 0.016532 -0.000392 0.000000 -0.003297 0.000000
# 3 -0.004071 -0.000392 0.013816 0.000000 0.003846 0.000000
# 4 0.000000 0.000000 0.000000 0.050888 0.000000 0.000729
# 5 0.003643 -0.003297 0.003846 0.000000 0.134227 0.000000
# 6 0.000000 0.000000 0.000000 0.000729 0.000000 0.037481
#
#
# Mechanical properties :
#
#
# Convention : Reuss Voigt Hill
#
# Bulk Modulus (GPa) = 51.66205 62.24160 56.95183
# Shear Modulus (GPa) = 17.14239 23.80539 20.47389
#
# Velocity S-wave (km/s) = 3.07299 3.62128 3.35834
# Velocity P-wave (km/s) = 6.40704 7.19528 6.81257
#
# Compressibility (1/GPa) = 0.01935657
#
# Stress axis : x y z
#
# Youngs Moduli (GPa) = 93.95104 60.48751 72.38135
#
# Poissons Ratio (x) = 0.38439 0.29463
# Poissons Ratio (y) = 0.59704 0.02839
# Poissons Ratio (z) = 0.38243 0.02373
#
# Static dielectric constant tensor:
#      x y z
#    x 3.378140 0.000000 -0.022100 
#    y 0.000000 3.383490 0.000000 
#    z -0.022100 0.000000 3.151120 
# 
# 
# High freq. dielectric constant tensor:
#      x y z
#    x 1.685050 0.000000 -0.001350 
#    y 0.000000 1.717820 0.000000 
#    z -0.001350 0.000000 1.681280 
# 
# From -- ./inp_files/68725.got.cif
#   From: 2010.06.25/outbox.cif.g09.slc.cpg/sg10_35_cif.got.tgz:68725.got - 2010.06.27 22:07:45.
