data_PCOD8067987
_publ_section_title
;
Structure prediction by ZEFSAII (Michael W. Deem and Ramdas Pophale) SiO2 
 PCOD8067987
Probable space group: P 2/M
;
_chemical_formula_sum "Si O2"
_cell_formula_units_Z 32
_cell_length_a 19.955362
_cell_length_b 9.443938
_cell_length_c 21.070463
_cell_angle_alpha 90.000000
_cell_angle_beta 28.647886
_cell_angle_gamma 90.000000
_cell_volume 1903.741290
_symmetry_space_group_name_H-M "P 2/M"
_symmetry_group_IT_number 10
_symmetry_cell_setting 'monoclinic'
loop_
_space_group_symop_operation_xyz
x,y,z
-x,y,-z
-x,-y,-z
x,-y,z
loop_
_atom_site_type_symbol
_atom_site_label
_atom_site_fract_x
_atom_site_fract_y
_atom_site_fract_z
Si Si1 0.584527 0.331322 0.370311
Si Si2 0.019783 0.166851 0.290240
Si Si3 0.696764 0.168144 0.882452
Si Si4 0.890764 0.668777 0.141393
Si Si5 0.274408 0.166536 0.407431
Si Si6 0.601065 0.168110 0.827227
Si Si7 0.384822 0.338647 0.427941
Si Si8 0.085638 0.338327 0.736191
O O1 0.500000 0.267612 0.500000
O O2 0.581591 0.500000 0.376440
O O3 0.740868 0.270738 0.244632
O O4 0.514768 0.283460 0.361962
O O5 0.159763 0.227483 0.207022
O O6 0.887772 0.204987 0.444913
O O7 0.006854 0.241956 0.233130
O O8 0.028466 0.000000 0.270865
O O9 0.680428 0.225751 0.823972
O O10 0.704137 0.000000 0.874736
O O11 0.561768 0.217302 0.035875
O O12 0.886329 0.500000 0.144548
O O13 0.933824 0.719148 0.176071
O O14 0.000000 0.729991 0.000000
O O15 0.319157 0.225877 0.301230
O O16 0.374719 0.240611 0.374851
O O17 0.300015 0.000000 0.391626
O O18 0.606493 0.000000 0.823183
O O19 0.406488 0.500000 0.387263
O O20 0.248558 0.326188 0.584897
O O21 0.033979 0.500000 0.772277
#
# Coordination Sequence:
#
# PCOD8067987 Si02
#       8
#     4   4   4   4   4   4   4   4
#     4   9  14  24  43  62  78 105 145 178 204 243
#     4   9  17  28  44  66  88 111 140 174 210 249
#     4   8  14  26  44  64  85 112 145 173 204 250
#     4   9  16  26  41  62  85 106 136 181 219 241
#     4   9  17  28  43  65  91 112 135 175 217 246
#     4   8  14  26  44  64  86 112 141 175 210 245
#     4   9  16  27  45  65  85 112 144 174 207 253
#     4   9  16  28  45  63  86 115 141 170 212 257
#
# _framework density 16.809006
#
# number of rings (size 3 to 8) (size 9 to 14) (size 15 to 20)
#    0.000    3.250    1.250    0.750    0.000    0.500 
#    2.250    2.500    0.000    2.250    0.000    5.250 
#    0.000    0.000    0.000    0.000    0.000    0.000 
#
# Total GULP energy -396637.804120 kJ/mol
# GULP energy per Si atom -12394.931379 kJ/mol
# Density = 1.677075 g / cm^3
# Si number density = 16.809006 Si / 1000 Ang^3
#
#
#
# Elastic Constant Matrix: (Units=GPa)
#
#
# Indices 1 2 3 4 5 6 
#
# 1 166.4821 30.8206 93.7848 0.0000 -4.6833 0.0000
# 2 30.8206 19.3271 19.7210 0.0000 0.9664 0.0000
# 3 93.7848 19.7210 116.6565 0.0000 3.7548 0.0000
# 4 0.0000 0.0000 0.0000 8.9899 0.0000 -0.0144
# 5 -4.6833 0.9664 3.7548 0.0000 31.8186 0.0000
# 6 0.0000 0.0000 0.0000 -0.0144 0.0000 10.9095
#
#
#
# Elastic Compliance Matrix: (Units=1/GPa)
#
#
# Indices 1 2 3 4 5 6 
#
# 1 0.013324 -0.012538 -0.008700 0.000000 0.003369 0.000000
# 2 -0.012538 0.074339 -0.002364 0.000000 -0.003824 0.000000
# 3 -0.008700 -0.002364 0.016066 0.000000 -0.003105 0.000000
# 4 0.000000 0.000000 0.000000 0.111236 0.000000 0.000146
# 5 0.003369 -0.003824 -0.003105 0.000000 0.032406 0.000000
# 6 0.000000 0.000000 0.000000 0.000146 0.000000 0.091663
#
#
# Mechanical properties :
#
#
# Convention : Reuss Voigt Hill
#
# Bulk Modulus (GPa) = 17.69171 65.67981 41.68576
# Shear Modulus (GPa) = 12.34322 20.88623 16.61472
#
# Velocity S-wave (km/s) = 2.71278 3.52882 3.14736
# Velocity P-wave (km/s) = 4.51223 7.46743 6.16939
#
# Compressibility (1/GPa) = 0.05652364
#
# Stress axis : x y z
#
# Youngs Moduli (GPa) = 75.05411 13.45197 62.24201
#
# Poissons Ratio (x) = 0.16866 0.54153
# Poissons Ratio (y) = 0.94102 0.14715
# Poissons Ratio (z) = 0.65300 0.03180
#
# Static dielectric constant tensor:
#      x y z
#    x 3.380540 0.000000 -0.005290 
#    y 0.000000 2.651640 0.000000 
#    z -0.005290 0.000000 3.302070 
# 
# 
# High freq. dielectric constant tensor:
#      x y z
#    x 1.658020 0.000000 0.000550 
#    y 0.000000 1.588700 0.000000 
#    z 0.000550 0.000000 1.643350 
# 
# From -- ./inp_files/78932.got.cif
#   From: 2010.06.25/outbox.cif.g09.slc.cpg/sg10_40_cif.got.tgz:78932.got - 2010.06.27 22:07:45.
