data_PCOD8067937
_publ_section_title
;
Structure prediction by ZEFSAII (Michael W. Deem and Ramdas Pophale) SiO2 
 PCOD8067937
Probable space group: P 2/M
;
_chemical_formula_sum "Si O2"
_cell_formula_units_Z 28
_cell_length_a 9.453076
_cell_length_b 9.735895
_cell_length_c 29.814104
_cell_angle_alpha 90.000000
_cell_angle_beta 37.564435
_cell_angle_gamma 90.000000
_cell_volume 1672.837237
_symmetry_space_group_name_H-M "P 2/M"
_symmetry_group_IT_number 10
_symmetry_cell_setting 'monoclinic'
loop_
_space_group_symop_operation_xyz
x,y,z
-x,y,-z
-x,-y,-z
x,-y,z
loop_
_atom_site_type_symbol
_atom_site_label
_atom_site_fract_x
_atom_site_fract_y
_atom_site_fract_z
Si Si1 0.314237 0.660195 0.640225
Si Si2 0.015366 0.660195 0.359774
Si Si3 0.648678 0.152910 0.773183
Si Si4 0.257686 0.836610 0.934205
Si Si5 0.160283 0.336886 0.500000
Si Si6 0.985408 0.847090 0.773183
Si Si7 0.428709 0.163390 0.065795
O O1 0.303440 0.500000 0.654876
O O2 0.576737 0.715480 0.571648
O O3 0.192390 0.741168 0.711552
O O4 0.190232 0.690164 0.623907
O O5 0.077820 0.500000 0.345124
O O6 0.250149 0.741167 0.288448
O O7 0.934979 0.715480 0.428351
O O8 0.392888 0.201775 0.853972
O O9 0.809226 0.149038 0.776310
O O10 0.637674 0.000000 0.754564
O O11 0.393198 0.774148 0.942721
O O12 0.248956 0.000000 0.940379
O O13 0.000000 0.772957 0.000000
O O14 0.159118 0.500000 0.500000
O O15 0.000000 0.278705 0.500000
O O16 0.837253 0.798222 0.853972
O O17 0.089508 0.000000 0.754565
O O18 0.450839 0.000000 0.059625
O O19 0.500000 0.227041 0.000000
#
# Coordination Sequence:
#
# PCOD8067937 Si02
#       7
#     4   4   4   4   4   4   4
#     4   9  16  27  45  65  80  99 134 173 199 227
#     4   9  16  27  45  65  80  99 134 173 199 227
#     4   8  14  25  41  61  84 107 131 163 203 240
#     4   8  13  22  37  56  77 102 132 163 193 228
#     4   9  17  29  44  61  82 108 134 161 198 242
#     4   8  14  25  41  61  84 107 131 163 203 240
#     4   8  13  22  37  56  77 102 132 163 193 228
#
# _framework density 16.738029000000001
#
# number of rings (size 3 to 8) (size 9 to 14) (size 15 to 20)
#    0.000    3.571    0.000    2.143    0.000    1.714 
#    0.000    2.143    0.000    7.714    0.000    0.000 
#    0.000    0.000    0.000    0.000    0.000    0.000 
#
# Total GULP energy -346984.849093 kJ/mol
# GULP energy per Si atom -12392.316039 kJ/mol
# Density = 1.669993 g / cm^3
# Si number density = 16.738029 Si / 1000 Ang^3
#
#
#
# Elastic Constant Matrix: (Units=GPa)
#
#
# Indices 1 2 3 4 5 6 
#
# 1 63.4234 22.3365 64.5864 0.0000 0.7082 0.0000
# 2 22.3365 39.1180 53.9810 0.0000 0.4164 0.0000
# 3 64.5864 53.9810 190.7570 0.0000 0.9677 0.0000
# 4 0.0000 0.0000 0.0000 18.4188 0.0000 0.1302
# 5 0.7082 0.4164 0.9677 0.0000 26.3280 0.0000
# 6 0.0000 0.0000 0.0000 0.1302 0.0000 8.5218
#
#
#
# Elastic Compliance Matrix: (Units=1/GPa)
#
#
# Indices 1 2 3 4 5 6 
#
# 1 0.024474 -0.004165 -0.007106 0.000000 -0.000331 0.000000
# 2 -0.004165 0.042652 -0.010659 0.000000 -0.000171 0.000000
# 3 -0.007106 -0.010659 0.010665 0.000000 -0.000032 0.000000
# 4 0.000000 0.000000 0.000000 0.054298 0.000000 -0.000830
# 5 -0.000331 -0.000171 -0.000032 0.000000 0.037995 0.000000
# 6 0.000000 0.000000 0.000000 -0.000830 0.000000 0.117358
#
#
# Mechanical properties :
#
#
# Convention : Reuss Voigt Hill
#
# Bulk Modulus (GPa) = 29.47155 63.90069 46.68612
# Shear Modulus (GPa) = 14.59371 20.81336 17.70353
#
# Velocity S-wave (km/s) = 2.95598 3.53012 3.25573
# Velocity P-wave (km/s) = 5.41260 7.40780 6.48736
#
# Compressibility (1/GPa) = 0.03393102
#
# Stress axis : x y z
#
# Youngs Moduli (GPa) = 40.85974 23.44530 93.76778
#
# Poissons Ratio (x) = 0.09765 0.66632
# Poissons Ratio (y) = 0.17019 0.99945
# Poissons Ratio (z) = 0.29035 0.24990
#
# Static dielectric constant tensor:
#      x y z
#    x 3.053410 0.000000 0.006640 
#    y 0.000000 2.799540 0.000000 
#    z 0.006640 0.000000 3.557810 
# 
# 
# High freq. dielectric constant tensor:
#      x y z
#    x 1.613300 0.000000 0.000650 
#    y 0.000000 1.594170 0.000000 
#    z 0.000650 0.000000 1.662890 
# 
# From -- ./inp_files/34662.got.cif
#   From: 2010.06.25/outbox.cif.g09.slc.cpg/sg10_18_cif.got.tgz:34662.got - 2010.06.27 22:07:45.
