data_PCOD8067227
_publ_section_title
;
Structure prediction by ZEFSAII (Michael W. Deem and Ramdas Pophale) SiO2 
 PCOD8067227
Probable space group: P 2/M
;
_chemical_formula_sum "Si O2"
_cell_formula_units_Z 28
_cell_length_a 26.957217
_cell_length_b 8.687390
_cell_length_c 9.221223
_cell_angle_alpha 90.000000
_cell_angle_beta 37.848917
_cell_angle_gamma 90.000000
_cell_volume 1325.028162
_symmetry_space_group_name_H-M "P 2/M"
_symmetry_group_IT_number 10
_symmetry_cell_setting 'monoclinic'
loop_
_space_group_symop_operation_xyz
x,y,z
-x,y,-z
-x,-y,-z
x,-y,z
loop_
_atom_site_type_symbol
_atom_site_label
_atom_site_fract_x
_atom_site_fract_y
_atom_site_fract_z
Si Si1 0.573527 0.172187 0.221422
Si Si2 0.295488 0.181878 0.660683
Si Si3 0.730233 0.319562 0.978080
Si Si4 0.470033 0.672158 0.230783
Si Si5 0.005691 0.322783 0.320368
Si Si6 0.163221 0.677875 0.777187
Si Si7 0.865661 0.180718 0.464032
O O1 0.500000 0.165930 0.500000
O O2 0.640082 0.283423 0.134968
O O3 0.542891 0.241557 0.142192
O O4 0.608602 0.000000 0.115543
O O5 0.253487 0.247951 0.901892
O O6 0.387516 0.234863 0.436186
O O7 0.245592 0.239201 0.636494
O O8 0.293938 0.000000 0.672218
O O9 0.744295 0.500000 0.956843
O O10 0.790799 0.250573 0.722101
O O11 0.456523 0.500000 0.325131
O O12 0.500000 0.662557 0.000000
O O13 0.977797 0.500000 0.369471
O O14 0.000000 0.268540 0.500000
O O15 0.948374 0.217719 0.355398
O O16 0.096844 0.299675 0.055743
O O17 0.183068 0.500000 0.704380
O O18 0.130136 0.749551 0.705866
O O19 0.854397 0.000000 0.477364
#
# Coordination Sequence:
#
# PCOD8067227 Si02
#       7
#     4   4   4   4   4   4   4
#     4  11  23  41  66  96 129 166 215 272 330 384
#     4  12  25  43  66  96 132 169 216 272 329 385
#     4  12  25  43  68  94 128 171 220 269 323 393
#     4  11  25  43  65  93 128 172 222 267 322 391
#     4  10  22  43  71 100 131 171 217 264 319 385
#     4  11  24  43  68  97 134 176 219 264 318 386
#     4  12  26  43  66  98 135 172 215 270 327 380
#
# _framework density 21.131627999999999
#
# number of rings (size 3 to 8) (size 9 to 14) (size 15 to 20)
#    0.000    0.714    1.429    6.429    2.000    6.000 
#    0.000    0.000    0.000    0.000    0.000    0.000 
#    0.000    0.000    0.000    0.000    0.000    0.000 
#
# Total GULP energy -347407.365610 kJ/mol
# GULP energy per Si atom -12407.405915 kJ/mol
# Density = 2.108353 g / cm^3
# Si number density = 21.131628 Si / 1000 Ang^3
#
#
#
# Elastic Constant Matrix: (Units=GPa)
#
#
# Indices 1 2 3 4 5 6 
#
# 1 122.2996 41.4165 24.5281 0.0000 7.4042 0.0000
# 2 41.4165 166.9993 42.6978 0.0000 4.5292 0.0000
# 3 24.5281 42.6978 72.1312 0.0000 11.0576 0.0000
# 4 0.0000 0.0000 0.0000 14.8573 0.0000 -5.3482
# 5 7.4042 4.5292 11.0576 0.0000 36.1790 0.0000
# 6 0.0000 0.0000 0.0000 -5.3482 0.0000 36.1315
#
#
#
# Elastic Compliance Matrix: (Units=1/GPa)
#
#
# Indices 1 2 3 4 5 6 
#
# 1 0.009226 -0.001766 -0.001927 0.000000 -0.001078 0.000000
# 2 -0.001766 0.007400 -0.003875 0.000000 0.000619 0.000000
# 3 -0.001927 -0.003875 0.017497 0.000000 -0.004468 0.000000
# 4 0.000000 0.000000 0.000000 0.071095 0.000000 0.010524
# 5 -0.001078 0.000619 -0.004468 0.000000 0.029149 0.000000
# 6 0.000000 0.000000 0.000000 0.010524 0.000000 0.029234
#
#
# Mechanical properties :
#
#
# Convention : Reuss Voigt Hill
#
# Bulk Modulus (GPa) = 52.66319 64.30167 58.48243
# Shear Modulus (GPa) = 27.01718 34.28607 30.65162
#
# Velocity S-wave (km/s) = 3.57952 4.03240 3.81269
# Velocity P-wave (km/s) = 6.48533 7.22326 6.86422
#
# Compressibility (1/GPa) = 0.01898860
#
# Stress axis : x y z
#
# Youngs Moduli (GPa) = 108.38360 135.13529 57.15147
#
# Poissons Ratio (x) = 0.23870 0.11010
# Poissons Ratio (y) = 0.19145 0.22144
# Poissons Ratio (z) = 0.20881 0.52361
#
# Static dielectric constant tensor:
#      x y z
#    x 3.498430 0.000000 0.621050 
#    y 0.000000 4.146460 0.000000 
#    z 0.621050 0.000000 3.339360 
# 
# 
# High freq. dielectric constant tensor:
#      x y z
#    x 1.842600 0.000000 0.002440 
#    y 0.000000 1.841770 0.000000 
#    z 0.002440 0.000000 1.834620 
# 
# From -- ./inp_files/37060.got.cif
#   From: 2010.06.25/outbox.cif.g09.slc.cpg/sg10_19_cif.got.tgz:37060.got - 2010.06.27 22:07:45.
