data_PCOD8067822
_publ_section_title
;
Structure prediction by ZEFSAII (Michael W. Deem and Ramdas Pophale) SiO2 
 PCOD8067822
Probable space group: P 2/M
;
_chemical_formula_sum "Si O2"
_cell_formula_units_Z 20
_cell_length_a 20.932215
_cell_length_b 9.090462
_cell_length_c 7.655252
_cell_angle_alpha 90.000000
_cell_angle_beta 42.997113
_cell_angle_gamma 90.000000
_cell_volume 993.391630
_symmetry_space_group_name_H-M "P 2/M"
_symmetry_group_IT_number 10
_symmetry_cell_setting 'monoclinic'
loop_
_space_group_symop_operation_xyz
x,y,z
-x,y,-z
-x,-y,-z
x,-y,z
loop_
_atom_site_type_symbol
_atom_site_label
_atom_site_fract_x
_atom_site_fract_y
_atom_site_fract_z
Si Si1 0.890811 0.671944 0.718419
Si Si2 0.605765 0.332644 0.083759
Si Si3 0.394220 0.332645 0.506851
Si Si4 0.783024 0.168478 0.630487
Si Si5 0.783044 0.831522 0.237443
O O1 0.868798 0.500000 0.762476
O O2 0.847560 0.738502 0.629858
O O3 0.000000 0.707417 0.500000
O O4 0.847609 0.738529 0.979908
O O5 0.621101 0.500000 0.990211
O O6 0.499990 0.282248 0.252119
O O7 0.626239 0.320967 0.247521
O O8 0.676529 0.226275 0.842485
O O9 0.378886 0.500000 0.474642
O O10 0.323447 0.226284 0.548651
O O11 0.822992 0.183501 0.354063
O O12 0.783447 0.000000 0.691858
O O13 0.783465 0.000000 0.174392
#
# Coordination Sequence:
#
# PCOD8067822 Si02
#       5
#     4   4   4   4   4
#     4  11  25  45  68  91 116 151 199 254 306 357
#     4   9  18  34  58  88 122 162 206 248 292 346
#     4   9  18  34  58  88 122 162 206 248 292 346
#     4  11  24  40  61  92 127 161 198 243 299 362
#     4  11  24  40  61  92 127 161 198 243 299 362
#
# _framework density 20.133047000000001
#
# number of rings (size 3 to 8) (size 9 to 14) (size 15 to 20)
#    0.000    1.800    2.000    3.000    0.000    7.200 
#    0.000   10.000    0.000    0.000    0.000    0.000 
#    0.000    0.000    0.000    0.000    0.000    0.000 
#
# Total GULP energy -248051.063225 kJ/mol
# GULP energy per Si atom -12402.553161 kJ/mol
# Density = 2.008722 g / cm^3
# Si number density = 20.133047 Si / 1000 Ang^3
#
#
#
# Elastic Constant Matrix: (Units=GPa)
#
#
# Indices 1 2 3 4 5 6 
#
# 1 92.0798 65.0438 73.6021 0.0000 0.9007 0.0000
# 2 65.0438 122.6903 72.9184 0.0000 -12.5596 0.0000
# 3 73.6021 72.9184 97.4360 0.0000 -9.2990 0.0000
# 4 0.0000 0.0000 0.0000 -1.1058 0.0000 -8.2673
# 5 0.9007 -12.5596 -9.2990 0.0000 25.4782 0.0000
# 6 0.0000 0.0000 0.0000 -8.2673 0.0000 -6.2173
#
#
#
# Elastic Compliance Matrix: (Units=1/GPa)
#
#
# Indices 1 2 3 4 5 6 
#
# 1 0.031391 -0.005526 -0.020663 0.000000 -0.011375 0.000000
# 2 -0.005526 0.015933 -0.007233 0.000000 0.005410 0.000000
# 3 -0.020663 -0.007233 0.032133 0.000000 0.008893 0.000000
# 4 0.000000 0.000000 0.000000 0.101137 0.000000 -0.134485
# 5 -0.011375 0.005410 0.008893 0.000000 0.045564 0.000000
# 6 0.000000 0.000000 0.000000 -0.134485 0.000000 0.017987
#
#
# Mechanical properties :
#
#
# Convention : Reuss Voigt Hill
#
# Bulk Modulus (GPa) = 79.27893 81.70386 80.49140
# Shear Modulus (GPa) = 15.86327 10.34048 13.10187
#
# Velocity S-wave (km/s) = 2.81004 2.26875 2.55378
# Velocity P-wave (km/s) = 7.07046 6.89442 6.98300
#
# Compressibility (1/GPa) = 0.01261369
#
# Stress axis : x y z
#
# Youngs Moduli (GPa) = 31.85611 62.76363 31.12034
#
# Poissons Ratio (x) = 0.34683 0.64303
# Poissons Ratio (y) = 0.17603 0.22510
# Poissons Ratio (z) = 0.65823 0.45398
#
# Static dielectric constant tensor:
#      x y z
#    x 3.606910 0.000000 -0.059120 
#    y 0.000000 3.684520 0.000000 
#    z -0.059120 0.000000 3.643960 
# 
# 
# High freq. dielectric constant tensor:
#      x y z
#    x 1.787660 0.000000 0.002280 
#    y 0.000000 1.787420 0.000000 
#    z 0.002280 0.000000 1.786270 
# 
# From -- ./inp_files/33649.got.cif
#   From: 2010.06.25/outbox.cif.g09.slc.cpg/sg10_17_cif.got.tgz:33649.got - 2010.06.27 22:07:45.
