data_PCOD8067955
_publ_section_title
;
Structure prediction by ZEFSAII (Michael W. Deem and Ramdas Pophale) SiO2 
 PCOD8067955
Probable space group: P 2/M
;
_chemical_formula_sum "Si O2"
_cell_formula_units_Z 32
_cell_length_a 16.224511
_cell_length_b 9.332798
_cell_length_c 16.725548
_cell_angle_alpha 90.000000
_cell_angle_beta 128.905260
_cell_angle_gamma 90.000000
_cell_volume 1970.820042
_symmetry_space_group_name_H-M "P 2/M"
_symmetry_group_IT_number 10
_symmetry_cell_setting 'monoclinic'
loop_
_space_group_symop_operation_xyz
x,y,z
-x,y,-z
-x,-y,-z
x,-y,z
loop_
_atom_site_type_symbol
_atom_site_label
_atom_site_fract_x
_atom_site_fract_y
_atom_site_fract_z
Si Si1 0.850136 0.829955 0.970467
Si Si2 0.735098 0.167052 0.633886
Si Si3 0.375660 0.338266 0.909409
Si Si4 0.342221 0.168096 0.041634
Si Si5 0.603865 0.834924 0.403804
Si Si6 0.415423 0.836192 0.785595
Si Si7 0.074506 0.168350 0.152715
Si Si8 0.568192 0.340807 0.620705
O O1 0.742198 0.771316 0.944979
O O2 0.863788 0.771244 0.888260
O O3 0.843009 0.000000 0.967190
O O4 0.953665 0.774644 0.083957
O O5 0.699700 0.210442 0.522287
O O6 0.858885 0.205367 0.725935
O O7 0.672508 0.251518 0.664297
O O8 0.713009 0.000000 0.634994
O O9 0.331533 0.500000 0.880167
O O10 0.353609 0.263346 0.810688
O O11 0.500000 0.335303 0.000000
O O12 0.318114 0.250489 0.944291
O O13 0.459940 0.202172 0.145220
O O14 0.327125 0.000000 0.015883
O O15 0.639664 0.811075 0.334207
O O16 0.499497 0.740632 0.353614
O O17 0.572166 0.000000 0.399273
O O18 0.402764 0.000000 0.806242
O O19 0.067337 0.000000 0.135774
O O20 0.500000 0.351313 0.500000
O O21 0.597785 0.500000 0.669590
#
# Coordination Sequence:
#
# PCOD8067955 Si02
#       8
#     4   4   4   4   4   4   4   4
#     4   8  14  24  39  63  86 107 139 176 207 242
#     4   9  16  26  42  59  80 110 140 173 210 241
#     4   9  17  29  43  60  84 109 134 164 204 250
#     4   9  16  26  43  62  82 108 138 168 203 244
#     4   9  17  27  39  60  84 108 139 171 203 244
#     4   9  17  27  41  61  86 110 135 166 201 245
#     4   8  14  24  40  61  86 110 138 176 211 238
#     4   9  17  27  37  52  78 110 142 173 201 236
#
# _framework density 16.236896000000002
#
# number of rings (size 3 to 8) (size 9 to 14) (size 15 to 20)
#    0.000    3.250    0.000    1.500    1.750    3.500 
#    0.000    0.000    0.000    0.750    0.000    2.625 
#    0.000    7.000    0.000    0.000    0.000    0.000 
#
# Total GULP energy -396500.261545 kJ/mol
# GULP energy per Si atom -12390.633173 kJ/mol
# Density = 1.619994 g / cm^3
# Si number density = 16.236896 Si / 1000 Ang^3
#
#
#
# Elastic Constant Matrix: (Units=GPa)
#
#
# Indices 1 2 3 4 5 6 
#
# 1 57.3376 13.1317 26.5257 0.0000 -7.8330 0.0000
# 2 13.1317 46.3223 21.4814 0.0000 -7.0416 0.0000
# 3 26.5257 21.4814 88.2890 0.0000 -5.9637 0.0000
# 4 0.0000 0.0000 0.0000 9.0247 0.0000 -2.6735
# 5 -7.8330 -7.0416 -5.9637 0.0000 20.6455 0.0000
# 6 0.0000 0.0000 0.0000 -2.6735 0.0000 5.8847
#
#
#
# Elastic Compliance Matrix: (Units=1/GPa)
#
#
# Indices 1 2 3 4 5 6 
#
# 1 0.021308 -0.002699 -0.005366 0.000000 0.005614 0.000000
# 2 -0.002699 0.025625 -0.005000 0.000000 0.006272 0.000000
# 3 -0.005366 -0.005000 0.014179 0.000000 0.000354 0.000000
# 4 0.000000 0.000000 0.000000 0.128039 0.000000 0.058170
# 5 0.005614 0.006272 0.000354 0.000000 0.052808 0.000000
# 6 0.000000 0.000000 0.000000 0.058170 0.000000 0.196359
#
#
# Mechanical properties :
#
#
# Convention : Reuss Voigt Hill
#
# Bulk Modulus (GPa) = 28.58595 34.91407 31.75001
# Shear Modulus (GPa) = 10.50178 15.83167 13.16673
#
# Velocity S-wave (km/s) = 2.54596 3.12595 2.85074
# Velocity P-wave (km/s) = 5.12702 5.88034 5.51655
#
# Compressibility (1/GPa) = 0.03498222
#
# Stress axis : x y z
#
# Youngs Moduli (GPa) = 46.93076 39.02416 70.52597
#
# Poissons Ratio (x) = 0.10531 0.37844
# Poissons Ratio (y) = 0.12665 0.35266
# Poissons Ratio (z) = 0.25183 0.19514
#
# Static dielectric constant tensor:
#      x y z
#    x 2.970940 0.000000 -0.024170 
#    y 0.000000 3.007090 0.000000 
#    z -0.024170 0.000000 3.129280 
# 
# 
# High freq. dielectric constant tensor:
#      x y z
#    x 1.590690 0.000000 -0.012070 
#    y 0.000000 1.601230 0.000000 
#    z -0.012070 0.000000 1.615120 
# 
# From -- ./inp_files/78533.got.cif
#   From: 2010.06.25/outbox.cif.g09.slc.cpg/sg10_40_cif.got.tgz:78533.got - 2010.06.27 22:07:45.
