data_PCOD8067696
_publ_section_title
;
Structure prediction by ZEFSAII (Michael W. Deem and Ramdas Pophale) SiO2 
 PCOD8067696
Probable space group: P 2/M
;
_chemical_formula_sum "Si O2"
_cell_formula_units_Z 24
_cell_length_a 27.107363
_cell_length_b 8.226205
_cell_length_c 5.180949
_cell_angle_alpha 90.000000
_cell_angle_beta 89.922238
_cell_angle_gamma 90.000000
_cell_volume 1155.302510
_symmetry_space_group_name_H-M "P 2/M"
_symmetry_group_IT_number 10
_symmetry_cell_setting 'monoclinic'
loop_
_space_group_symop_operation_xyz
x,y,z
-x,y,-z
-x,-y,-z
x,-y,z
loop_
_atom_site_type_symbol
_atom_site_label
_atom_site_fract_x
_atom_site_fract_y
_atom_site_fract_z
Si Si1 0.444336 0.806105 0.500623
Si Si2 0.107946 0.188843 0.503076
Si Si3 0.219618 0.193539 0.501607
Si Si4 0.723869 0.194003 0.999642
Si Si5 0.387505 0.193869 0.001042
Si Si6 0.056147 0.688383 0.002782
O O1 0.500000 0.738187 0.500000
O O2 0.415960 0.739147 0.750957
O O3 0.444902 0.000000 0.500547
O O4 0.415867 0.739113 0.250985
O O5 0.163627 0.257200 0.501779
O O6 0.086058 0.212103 0.788323
O O7 0.106779 0.000000 0.430056
O O8 0.077350 0.284919 0.288306
O O9 0.247900 0.262713 0.750824
O O10 0.220231 0.000000 0.507341
O O11 0.247599 0.260959 0.250365
O O12 0.668171 0.261567 0.998802
O O13 0.723460 0.000000 0.000070
O O14 0.386986 0.000000 0.001053
O O15 0.059067 0.500000 0.928783
O O16 0.000000 0.750518 0.000000
#
# Coordination Sequence:
#
# PCOD8067696 Si02
#       6
#     4   4   4   4   4   4
#     4   9  15  21  27  37  56  84 125 179 232 277
#     4  11  22  37  59  85 110 139 179 223 268 317
#     4   9  17  28  43  65  91 116 145 191 248 297
#     4   9  15  24  37  54  79 108 139 180 238 303
#     4   9  15  21  30  43  60  90 130 171 226 291
#     4  11  24  41  59  81 112 147 179 215 264 317
#
# _framework density 20.773779000000001
#
# number of rings (size 3 to 8) (size 9 to 14) (size 15 to 20)
#    0.000    2.333    0.000    4.000    0.000   12.000 
#    0.000    0.000    0.000    0.000    0.000    0.000 
#    0.000    0.000    0.000    0.000    0.000    0.000 
#
# Total GULP energy -297649.670881 kJ/mol
# GULP energy per Si atom -12402.069620 kJ/mol
# Density = 2.072650 g / cm^3
# Si number density = 20.773779 Si / 1000 Ang^3
#
#
#
# Elastic Constant Matrix: (Units=GPa)
#
#
# Indices 1 2 3 4 5 6 
#
# 1 211.7439 13.6046 94.4476 0.0000 0.7014 0.0000
# 2 13.6046 14.4958 5.0053 0.0000 -0.3947 0.0000
# 3 94.4476 5.0053 186.4604 0.0000 1.2792 0.0000
# 4 0.0000 0.0000 0.0000 11.8031 0.0000 0.4880
# 5 0.7014 -0.3947 1.2792 0.0000 51.5329 0.0000
# 6 0.0000 0.0000 0.0000 0.4880 0.0000 -5.4892
#
#
#
# Elastic Compliance Matrix: (Units=1/GPa)
#
#
# Indices 1 2 3 4 5 6 
#
# 1 0.006436 -0.004962 -0.003127 0.000000 -0.000048 0.000000
# 2 -0.004962 0.073474 0.000537 0.000000 0.000617 0.000000
# 3 -0.003127 0.000537 0.006933 0.000000 -0.000125 0.000000
# 4 0.000000 0.000000 0.000000 0.084413 0.000000 0.007504
# 5 -0.000048 0.000617 -0.000125 0.000000 0.019414 0.000000
# 6 0.000000 0.000000 0.000000 0.007504 0.000000 -0.181508
#
#
# Mechanical properties :
#
#
# Convention : Reuss Voigt Hill
#
# Bulk Modulus (GPa) = 13.93931 70.97947 42.45939
# Shear Modulus (GPa) = 103.77827 31.54552 67.66189
#
# Velocity S-wave (km/s) = 7.07565 3.90105 5.71328
# Velocity P-wave (km/s) = 8.57191 7.38464 8.00033
#
# Compressibility (1/GPa) = 0.07173955
#
# Stress axis : x y z
#
# Youngs Moduli (GPa) = 155.36883 13.61028 144.23254
#
# Poissons Ratio (x) = 0.06754 0.45096
# Poissons Ratio (y) = 0.77098 -0.07745
# Poissons Ratio (z) = 0.48578 -0.00731
#
# Static dielectric constant tensor:
#      x y z
#    x 4.030530 0.000000 0.009720 
#    y 0.000000 2.936060 0.000000 
#    z 0.009720 0.000000 3.883640 
# 
# 
# High freq. dielectric constant tensor:
#      x y z
#    x 1.833230 0.000000 0.000440 
#    y 0.000000 1.742600 0.000000 
#    z 0.000440 0.000000 1.830400 
# 
# From -- ./inp_files/13002.got.cif
#   From: 2010.06.25/outbox.cif.g09.slc.cpg/sg10_7_cif.got.tgz:13002.got - 2010.06.27 22:07:45.
