data_PCOD8067839
_publ_section_title
;
Structure prediction by ZEFSAII (Michael W. Deem and Ramdas Pophale) SiO2 
 PCOD8067839
Probable space group: P 2/M
;
_chemical_formula_sum "Si O2"
_cell_formula_units_Z 18
_cell_length_a 11.248613
_cell_length_b 9.446318
_cell_length_c 11.871833
_cell_angle_alpha 90.000000
_cell_angle_beta 140.820043
_cell_angle_gamma 90.000000
_cell_volume 796.948370
_symmetry_space_group_name_H-M "P 2/M"
_symmetry_group_IT_number 10
_symmetry_cell_setting 'monoclinic'
loop_
_space_group_symop_operation_xyz
x,y,z
-x,y,-z
-x,-y,-z
x,-y,z
loop_
_atom_site_type_symbol
_atom_site_label
_atom_site_fract_x
_atom_site_fract_y
_atom_site_fract_z
Si Si1 0.088824 0.658524 0.682778
Si Si2 0.464129 0.155035 0.217424
Si Si3 0.217207 0.661358 0.187996
Si Si4 0.176697 0.836905 0.374070
Si Si5 0.500000 0.250359 0.000000
O O1 0.017505 0.500000 0.658010
O O2 0.314911 0.654648 0.844600
O O3 0.000000 0.710516 0.500000
O O4 0.016827 0.762969 0.728365
O O5 0.328935 0.277933 0.163177
O O6 0.674382 0.179491 0.416701
O O7 0.470236 0.153625 0.087200
O O8 0.391542 0.000000 0.203683
O O9 0.281500 0.500000 0.257404
O O10 0.263295 0.757612 0.329649
O O11 0.000000 0.669192 0.000000
O O12 0.133889 0.000000 0.312125
#
# Coordination Sequence:
#
# PCOD8067839 Si02
#       5
#     4   4   4   4   2
#     4  11  24  43  67  98 136 178 224 277 334 396
#     4  11  25  43  67  99 135 178 226 278 336 400
#     4  11  25  44  67  97 133 174 225 281 340 405
#     4  11  24  44  69  99 135 175 225 280 337 403
#     4  12  24  44  70 102 136 182 228 278 330 406
#
# _framework density 22.586155999999999
#
# number of rings (size 3 to 8) (size 9 to 14) (size 15 to 20)
#    0.000    0.889    2.222    4.000    0.000   13.778 
#    0.000    0.000    0.000    0.000    0.000    0.000 
#    0.000    0.000    0.000    0.000    0.000    0.000 
#
# Total GULP energy -223292.138514 kJ/mol
# GULP energy per Si atom -12405.118806 kJ/mol
# Density = 2.253475 g / cm^3
# Si number density = 22.586156 Si / 1000 Ang^3
#
#
#
# Elastic Constant Matrix: (Units=GPa)
#
#
# Indices 1 2 3 4 5 6 
#
# 1 134.4757 72.6179 40.7279 0.0000 -5.9663 0.0000
# 2 72.6179 169.2232 36.5878 0.0000 -8.7237 0.0000
# 3 40.7279 36.5878 108.3334 0.0000 -9.4235 0.0000
# 4 0.0000 0.0000 0.0000 14.0265 0.0000 2.6487
# 5 -5.9663 -8.7237 -9.4235 0.0000 42.1581 0.0000
# 6 0.0000 0.0000 0.0000 2.6487 0.0000 34.9196
#
#
#
# Elastic Compliance Matrix: (Units=1/GPa)
#
#
# Indices 1 2 3 4 5 6 
#
# 1 0.010301 -0.003862 -0.002561 0.000000 0.000086 0.000000
# 2 -0.003862 0.007853 -0.001128 0.000000 0.000826 0.000000
# 3 -0.002561 -0.001128 0.010731 0.000000 0.001803 0.000000
# 4 0.000000 0.000000 0.000000 0.072330 0.000000 -0.005486
# 5 0.000086 0.000826 0.001803 0.000000 0.024306 0.000000
# 6 0.000000 0.000000 0.000000 -0.005486 0.000000 0.029053
#
#
# Mechanical properties :
#
#
# Convention : Reuss Voigt Hill
#
# Bulk Modulus (GPa) = 72.55379 79.09993 75.82686
# Shear Modulus (GPa) = 28.69054 35.69409 32.19232
#
# Velocity S-wave (km/s) = 3.56795 3.97968 3.77943
# Velocity P-wave (km/s) = 7.01189 7.49764 7.25883
#
# Compressibility (1/GPa) = 0.01378288
#
# Stress axis : x y z
#
# Youngs Moduli (GPa) = 97.07347 127.33329 93.18421
#
# Poissons Ratio (x) = 0.49182 0.23863
# Poissons Ratio (y) = 0.37495 0.10515
# Poissons Ratio (z) = 0.24859 0.14368
#
# Static dielectric constant tensor:
#      x y z
#    x 3.992990 0.000000 -0.067100 
#    y 0.000000 4.024110 0.000000 
#    z -0.067100 0.000000 4.087500 
# 
# 
# High freq. dielectric constant tensor:
#      x y z
#    x 1.889590 0.000000 -0.001450 
#    y 0.000000 1.892250 0.000000 
#    z -0.001450 0.000000 1.901350 
# 
# From -- ./inp_files/45371.got.cif
#   From: 2010.06.25/outbox.cif.g09.slc.cpg/sg10_23_cif.got.tgz:45371.got - 2010.06.27 22:07:45.
