data_PCOD8067919
_publ_section_title
;
Structure prediction by ZEFSAII (Michael W. Deem and Ramdas Pophale) SiO2 
 PCOD8067919
Probable space group: P 2/M
;
_chemical_formula_sum "Si O2"
_cell_formula_units_Z 32
_cell_length_a 9.832718
_cell_length_b 9.381468
_cell_length_c 22.919323
_cell_angle_alpha 90.000000
_cell_angle_beta 64.611703
_cell_angle_gamma 90.000000
_cell_volume 1910.017116
_symmetry_space_group_name_H-M "P 2/M"
_symmetry_group_IT_number 10
_symmetry_cell_setting 'monoclinic'
loop_
_space_group_symop_operation_xyz
x,y,z
-x,y,-z
-x,-y,-z
x,-y,z
loop_
_atom_site_type_symbol
_atom_site_label
_atom_site_fract_x
_atom_site_fract_y
_atom_site_fract_z
Si Si1 0.276210 0.830729 0.071576
Si Si2 0.852184 0.660259 0.309822
Si Si3 0.409835 0.160004 0.428441
Si Si4 0.528480 0.660258 0.309736
Si Si5 0.972465 0.833158 0.185322
Si Si6 0.342665 0.166839 0.814759
Si Si7 0.266719 0.839996 0.571473
Si Si8 0.580948 0.169270 0.071496
O O1 0.117369 0.772621 0.124273
O O2 0.410895 0.778868 0.089251
O O3 0.271658 0.000000 0.071083
O O4 0.307312 0.773970 0.000048
O O5 0.914108 0.500000 0.305597
O O6 0.687525 0.659416 0.312584
O O7 0.847520 0.733926 0.374497
O O8 0.963118 0.749286 0.247923
O O9 0.403751 0.266075 0.374379
O O10 0.575077 0.160018 0.424967
O O11 0.291012 0.210407 0.499944
O O12 0.370179 0.000000 0.414762
O O13 0.475041 0.500000 0.305481
O O14 0.541437 0.749283 0.247812
O O15 0.829013 0.802199 0.171174
O O16 0.986178 0.000000 0.197603
O O17 0.365366 0.227344 0.875856
O O18 0.380948 0.000000 0.802483
O O19 0.199718 0.000000 0.585123
O O20 0.586454 0.000000 0.070984
#
# Coordination Sequence:
#
# PCOD8067919 Si02
#       8
#     4   4   4   4   4   4   4   4
#     4   8  14  25  41  61  83 104 128 163 205 242
#     4   9  16  24  34  50  75 106 136 166 200 237
#     4   8  13  21  33  49  71 101 135 168 201 237
#     4   9  16  24  34  50  75 106 136 166 200 237
#     4   9  16  25  39  59  81 105 133 165 200 238
#     4   9  16  25  39  59  81 105 133 165 200 238
#     4   8  13  21  33  49  71 101 135 168 201 237
#     4   8  14  25  41  61  83 104 128 163 205 242
#
# _framework density 16.753775999999998
#
# number of rings (size 3 to 8) (size 9 to 14) (size 15 to 20)
#    0.000    3.500    0.000    2.250    0.000    4.000 
#    0.000    5.000    0.000    1.500    0.000    5.250 
#    0.000    1.000    0.000   11.500    0.000   14.750 
#
# Total GULP energy -396569.935978 kJ/mol
# GULP energy per Si atom -12392.810499 kJ/mol
# Density = 1.671564 g / cm^3
# Si number density = 16.753776 Si / 1000 Ang^3
#
#
#
# Elastic Constant Matrix: (Units=GPa)
#
#
# Indices 1 2 3 4 5 6 
#
# 1 35.5491 23.5020 52.0960 0.0000 -0.8590 0.0000
# 2 23.5020 75.2691 71.0083 0.0000 -1.7074 0.0000
# 3 52.0960 71.0083 182.3228 0.0000 -4.4547 0.0000
# 4 0.0000 0.0000 0.0000 6.9766 0.0000 -0.0673
# 5 -0.8590 -1.7074 -4.4547 0.0000 3.2885 0.0000
# 6 0.0000 0.0000 0.0000 -0.0673 0.0000 4.9884
#
#
#
# Elastic Compliance Matrix: (Units=1/GPa)
#
#
# Indices 1 2 3 4 5 6 
#
# 1 0.049036 -0.003305 -0.012879 0.000000 -0.006353 0.000000
# 2 -0.003305 0.021225 -0.007316 0.000000 0.000246 0.000000
# 3 -0.012879 -0.007316 0.012245 0.000000 0.009424 0.000000
# 4 0.000000 0.000000 0.000000 0.143356 0.000000 0.001933
# 5 -0.006353 0.000246 0.009424 0.000000 0.315327 0.000000
# 6 0.000000 0.000000 0.000000 0.001933 0.000000 0.200491
#
#
# Mechanical properties :
#
#
# Convention : Reuss Voigt Hill
#
# Bulk Modulus (GPa) = 28.16512 65.15040 46.65776
# Shear Modulus (GPa) = 6.24598 12.81966 9.53282
#
# Velocity S-wave (km/s) = 1.93292 2.76919 2.38795
# Velocity P-wave (km/s) = 4.67218 7.01398 5.95925
#
# Compressibility (1/GPa) = 0.03550491
#
# Stress axis : x y z
#
# Youngs Moduli (GPa) = 20.39330 47.11401 81.66922
#
# Poissons Ratio (x) = 0.15570 1.05185
# Poissons Ratio (y) = 0.06739 0.59751
# Poissons Ratio (z) = 0.26265 0.34469
#
# Static dielectric constant tensor:
#      x y z
#    x 2.693890 0.000000 -0.030360 
#    y 0.000000 3.028670 0.000000 
#    z -0.030360 0.000000 3.566380 
# 
# 
# High freq. dielectric constant tensor:
#      x y z
#    x 1.581750 0.000000 -0.002860 
#    y 0.000000 1.618770 0.000000 
#    z -0.002860 0.000000 1.663610 
# 
# From -- ./inp_files/82359.got.cif
#   From: 2010.06.25/outbox.cif.g09.slc.cpg/sg10_42_cif.got.tgz:82359.got - 2010.06.27 22:07:45.
