data_PCOD8067493
_publ_section_title
;
Structure prediction by ZEFSAII (Michael W. Deem and Ramdas Pophale) SiO2 
 PCOD8067493
Probable space group: P 2/M
;
_chemical_formula_sum "Si O2"
_cell_formula_units_Z 26
_cell_length_a 11.840152
_cell_length_b 14.623747
_cell_length_c 7.855455
_cell_angle_alpha 90.000000
_cell_angle_beta 69.063193
_cell_angle_gamma 90.000000
_cell_volume 1270.347658
_symmetry_space_group_name_H-M "P 2/M"
_symmetry_group_IT_number 10
_symmetry_cell_setting 'monoclinic'
loop_
_space_group_symop_operation_xyz
x,y,z
-x,y,-z
-x,-y,-z
x,-y,z
loop_
_atom_site_type_symbol
_atom_site_label
_atom_site_fract_x
_atom_site_fract_y
_atom_site_fract_z
Si Si1 0.025066 0.603967 0.685786
Si Si2 0.211811 0.708835 0.153370
Si Si3 0.872532 0.101129 0.293656
Si Si4 0.852561 0.899297 0.906138
Si Si5 0.414766 0.602543 0.895911
Si Si6 0.753162 0.278747 0.481645
Si Si7 0.500000 0.335540 0.500000
O O1 0.022772 0.500000 0.760528
O O2 0.154444 0.650476 0.660889
O O3 0.000000 0.601480 0.500000
O O4 0.920468 0.668151 0.821687
O O5 0.223418 0.818395 0.136356
O O6 0.255906 0.685072 0.319784
O O7 0.297448 0.666270 0.963079
O O8 0.805467 0.176098 0.444816
O O9 0.015218 0.106243 0.248360
O O10 0.825066 0.000000 0.372033
O O11 0.850552 0.118717 0.107551
O O12 0.797197 0.000000 0.896192
O O13 0.373899 0.500000 0.960795
O O14 0.479431 0.603080 0.677804
O O15 0.500000 0.639764 0.000000
O O16 0.620989 0.276037 0.466100
#
# Coordination Sequence:
#
# PCOD8067493 Si02
#       7
#     4   4   4   4   4   4   2
#     4   9  19  34  55  86 122 158 195 250 315 367
#     4  11  20  38  63  90 125 156 203 258 319 361
#     4   9  18  35  57  87 124 162 202 251 313 373
#     4   9  18  33  59  89 123 161 200 252 313 377
#     4  11  24  43  65  90 122 166 215 259 303 366
#     4  11  22  37  60  89 123 165 204 257 305 370
#     4  12  25  44  63  88 124 172 215 254 307 364
#
# _framework density 20.466840000000001
#
# number of rings (size 3 to 8) (size 9 to 14) (size 15 to 20)
#    0.000    1.846    3.077    2.538    0.000    2.462 
#    0.000    1.923    0.000    4.154    0.000    0.000 
#    0.000    0.000    0.000    0.000    0.000    0.000 
#
# Total GULP energy -322297.531520 kJ/mol
# GULP energy per Si atom -12396.058905 kJ/mol
# Density = 2.042026 g / cm^3
# Si number density = 20.466840 Si / 1000 Ang^3
#
#
#
# Elastic Constant Matrix: (Units=GPa)
#
#
# Indices 1 2 3 4 5 6 
#
# 1 89.2129 37.8817 29.4760 0.0000 -14.8443 0.0000
# 2 37.8817 142.7187 31.5786 0.0000 -18.2716 0.0000
# 3 29.4760 31.5786 90.8000 0.0000 -10.9548 0.0000
# 4 0.0000 0.0000 0.0000 28.6983 0.0000 -2.0569
# 5 -14.8443 -18.2716 -10.9548 0.0000 22.6201 0.0000
# 6 0.0000 0.0000 0.0000 -2.0569 0.0000 22.2453
#
#
#
# Elastic Compliance Matrix: (Units=1/GPa)
#
#
# Indices 1 2 3 4 5 6 
#
# 1 0.014206 -0.002326 -0.003085 0.000000 0.005949 0.000000
# 2 -0.002326 0.008583 -0.001675 0.000000 0.004595 0.000000
# 3 -0.003085 -0.001675 0.012946 0.000000 0.002892 0.000000
# 4 0.000000 0.000000 0.000000 0.035078 0.000000 0.003243
# 5 0.005949 0.004595 0.002892 0.000000 0.053225 0.000000
# 6 0.000000 0.000000 0.000000 0.003243 0.000000 0.045253
#
#
# Mechanical properties :
#
#
# Convention : Reuss Voigt Hill
#
# Bulk Modulus (GPa) = 46.37746 57.84490 52.11118
# Shear Modulus (GPa) = 26.22570 29.63244 27.92907
#
# Velocity S-wave (km/s) = 3.58351 3.80916 3.69806
# Velocity P-wave (km/s) = 6.31119 6.90437 6.61443
#
# Compressibility (1/GPa) = 0.02156220
#
# Stress axis : x y z
#
# Youngs Moduli (GPa) = 70.39188 116.50500 77.24248
#
# Poissons Ratio (x) = 0.27105 0.23828
# Poissons Ratio (y) = 0.16377 0.12942
# Poissons Ratio (z) = 0.21714 0.19520
#
# Static dielectric constant tensor:
#      x y z
#    x 3.454560 0.000000 -0.065970 
#    y 0.000000 3.774830 0.000000 
#    z -0.065970 0.000000 3.602260 
# 
# 
# High freq. dielectric constant tensor:
#      x y z
#    x 1.772370 0.000000 0.003640 
#    y 0.000000 1.802560 0.000000 
#    z 0.003640 0.000000 1.795600 
# 
# From -- ./inp_files/24816.got.cif
#   From: 2010.06.25/outbox.cif.g09.slc.cpg/sg10_13_cif.got.tgz:24816.got - 2010.06.27 22:07:45.
