data_PCOD8067760
_publ_section_title
;
Structure prediction by ZEFSAII (Michael W. Deem and Ramdas Pophale) SiO2 
 PCOD8067760
Probable space group: P 2/M
;
_chemical_formula_sum "Si O2"
_cell_formula_units_Z 28
_cell_length_a 9.496137
_cell_length_b 8.917142
_cell_length_c 26.430925
_cell_angle_alpha 90.000000
_cell_angle_beta 140.163586
_cell_angle_gamma 90.000000
_cell_volume 1433.740298
_symmetry_space_group_name_H-M "P 2/M"
_symmetry_group_IT_number 10
_symmetry_cell_setting 'monoclinic'
loop_
_space_group_symop_operation_xyz
x,y,z
-x,y,-z
-x,-y,-z
x,-y,z
loop_
_atom_site_type_symbol
_atom_site_label
_atom_site_fract_x
_atom_site_fract_y
_atom_site_fract_z
Si Si1 0.362163 0.172352 0.011467
Si Si2 0.182143 0.669533 0.685646
Si Si3 0.406105 0.176852 0.237227
Si Si4 0.285220 0.321265 0.412711
Si Si5 0.191543 0.676021 0.274566
Si Si6 0.705459 0.667062 0.166958
Si Si7 0.942900 0.323351 0.927354
O O1 0.512794 0.217501 0.100503
O O2 0.292703 0.000000 0.997323
O O3 0.500000 0.207274 0.000000
O O4 0.143666 0.271947 0.947400
O O5 0.190156 0.500000 0.666283
O O6 0.338660 0.773389 0.694679
O O7 0.264939 0.671936 0.765490
O O8 0.932110 0.733766 0.616789
O O9 0.307045 0.230596 0.262779
O O10 0.278753 0.247726 0.154222
O O11 0.388017 0.000000 0.228871
O O12 0.500000 0.256495 0.500000
O O13 0.279405 0.500000 0.411127
O O14 0.286663 0.267701 0.354816
O O15 0.236773 0.500000 0.278752
O O16 0.931624 0.710341 0.201231
O O17 0.631623 0.500000 0.130012
O O18 0.908958 0.500000 0.914697
O O19 0.000000 0.270480 0.000000
#
# Coordination Sequence:
#
# PCOD8067760 Si02
#       7
#     4   4   4   4   4   4   4
#     4  11  23  35  49  74 105 136 173 219 269 318
#     4   9  18  34  56  80 106 136 172 215 263 316
#     4  12  24  36  52  77 110 145 182 221 262 316
#     4   8  15  32  61  92 113 133 173 225 267 309
#     4   9  18  34  57  82 109 142 178 220 270 318
#     4   9  18  33  53  75  98 132 178 221 264 317
#     4  11  24  40  57  76 101 138 183 229 276 321
#
# _framework density 19.529337999999999
#
# number of rings (size 3 to 8) (size 9 to 14) (size 15 to 20)
#    0.000    2.143    0.000    5.571    0.000    9.143 
#    0.000    2.857    0.000    6.000    0.000    0.000 
#    0.000    0.000    0.000    0.000    0.000    0.000 
#
# Total GULP energy -347206.472428 kJ/mol
# GULP energy per Si atom -12400.231158 kJ/mol
# Density = 1.948489 g / cm^3
# Si number density = 19.529338 Si / 1000 Ang^3
#
#
#
# Elastic Constant Matrix: (Units=GPa)
#
#
# Indices 1 2 3 4 5 6 
#
# 1 103.4105 41.5979 26.7342 0.0000 18.0322 0.0000
# 2 41.5979 70.2843 22.1881 0.0000 6.2413 0.0000
# 3 26.7342 22.1881 87.8544 0.0000 16.1349 0.0000
# 4 0.0000 0.0000 0.0000 6.2107 0.0000 4.6718
# 5 18.0322 6.2413 16.1349 0.0000 26.7171 0.0000
# 6 0.0000 0.0000 0.0000 4.6718 0.0000 9.4391
#
#
#
# Elastic Compliance Matrix: (Units=1/GPa)
#
#
# Indices 1 2 3 4 5 6 
#
# 1 0.014191 -0.007405 -0.001132 0.000000 -0.007164 0.000000
# 2 -0.007405 0.019372 -0.003066 0.000000 0.002324 0.000000
# 3 -0.001132 -0.003066 0.013755 0.000000 -0.006826 0.000000
# 4 0.000000 0.000000 0.000000 0.256511 0.000000 -0.126956
# 5 -0.007164 0.002324 -0.006826 0.000000 0.045844 0.000000
# 6 0.000000 0.000000 0.000000 -0.126956 0.000000 0.168778
#
#
# Mechanical properties :
#
#
# Convention : Reuss Voigt Hill
#
# Bulk Modulus (GPa) = 41.47470 49.17664 45.32567
# Shear Modulus (GPa) = 9.09595 19.87531 14.48563
#
# Velocity S-wave (km/s) = 2.16048 3.19363 2.72644
# Velocity P-wave (km/s) = 5.24469 6.23174 5.75940
#
# Compressibility (1/GPa) = 0.02411109
#
# Stress axis : x y z
#
# Youngs Moduli (GPa) = 70.46674 51.61999 72.70039
#
# Poissons Ratio (x) = 0.38227 0.08232
# Poissons Ratio (y) = 0.52183 0.22290
# Poissons Ratio (z) = 0.07979 0.15827
#
# Static dielectric constant tensor:
#      x y z
#    x 3.705450 0.000000 0.220580 
#    y 0.000000 3.345680 0.000000 
#    z 0.220580 0.000000 3.741340 
# 
# 
# High freq. dielectric constant tensor:
#      x y z
#    x 1.769870 0.000000 0.012030 
#    y 0.000000 1.736910 0.000000 
#    z 0.012030 0.000000 1.748460 
# 
# From -- ./inp_files/37977.got.cif
#   From: 2010.06.25/outbox.cif.g09.slc.cpg/sg10_19_cif.got.tgz:37977.got - 2010.06.27 22:07:45.
