data_PCOD8067243
_publ_section_title
;
Structure prediction by ZEFSAII (Michael W. Deem and Ramdas Pophale) SiO2 
 PCOD8067243
Probable space group: P 2/M
;
_chemical_formula_sum "Si O2"
_cell_formula_units_Z 32
_cell_length_a 9.073914
_cell_length_b 13.961036
_cell_length_c 11.912576
_cell_angle_alpha 90.000000
_cell_angle_beta 90.153282
_cell_angle_gamma 90.000000
_cell_volume 1509.094499
_symmetry_space_group_name_H-M "P 2/M"
_symmetry_group_IT_number 10
_symmetry_cell_setting 'monoclinic'
loop_
_space_group_symop_operation_xyz
x,y,z
-x,y,-z
-x,-y,-z
x,-y,z
loop_
_atom_site_type_symbol
_atom_site_label
_atom_site_fract_x
_atom_site_fract_y
_atom_site_fract_z
Si Si1 0.341388 0.159838 0.041168
Si Si2 0.077099 0.732157 0.108141
Si Si3 0.151014 0.890922 0.839759
Si Si4 0.658553 0.793523 0.350106
Si Si5 0.083410 0.393107 0.329509
Si Si6 0.158059 0.889487 0.468180
Si Si7 0.629352 0.104945 0.715172
Si Si8 0.229339 0.607587 0.554492
O O1 0.246526 0.253063 0.073163
O O2 0.356027 0.095543 0.151765
O O3 0.500000 0.195770 0.000000
O O4 0.260291 0.098545 0.945380
O O5 0.079973 0.670624 0.219413
O O6 0.998539 0.835662 0.127805
O O7 0.000000 0.680679 0.000000
O O8 0.230421 0.825939 0.747030
O O9 0.115811 0.000000 0.797567
O O10 0.707066 0.848985 0.460794
O O11 0.490854 0.816296 0.318961
O O12 0.663794 0.680059 0.378346
O O13 0.129578 0.500000 0.293731
O O14 0.198551 0.356684 0.425819
O O15 0.922852 0.394035 0.380762
O O16 0.209347 0.870593 0.339243
O O17 0.000000 0.839455 0.500000
O O18 0.140891 0.000000 0.497063
O O19 0.578423 0.000000 0.670878
O O20 0.297837 0.500000 0.554798
#
# Coordination Sequence:
#
# PCOD8067243 Si02
#       8
#     4   4   4   4   4   4   4   4
#     4  11  24  41  60  86 124 172 216 261 305 365
#     4  10  23  39  62  93 126 162 211 260 313 369
#     4  11  23  39  59  90 128 170 211 261 307 359
#     4  12  22  36  65  90 128 164 206 259 314 374
#     4   9  18  38  64  95 128 159 204 261 319 378
#     4  10  24  41  59  90 127 164 208 257 310 372
#     4  11  24  41  62  89 124 172 218 256 311 375
#     4   9  20  36  63  96 128 161 200 255 320 381
#
# _framework density 21.204768999999999
#
# number of rings (size 3 to 8) (size 9 to 14) (size 15 to 20)
#    0.000    1.625    2.500    2.625    5.250    4.500 
#    0.000    0.000    0.000    2.625    0.000    0.000 
#    0.000    0.000    0.000    0.000    0.000    0.000 
#
# Total GULP energy -396606.735048 kJ/mol
# GULP energy per Si atom -12393.960470 kJ/mol
# Density = 2.115651 g / cm^3
# Si number density = 21.204769 Si / 1000 Ang^3
#
#
#
# Elastic Constant Matrix: (Units=GPa)
#
#
# Indices 1 2 3 4 5 6 
#
# 1 88.4732 40.4485 37.6840 0.0000 -12.3104 0.0000
# 2 40.4485 104.9897 64.2443 0.0000 7.4009 0.0000
# 3 37.6840 64.2443 139.8060 0.0000 -4.7864 0.0000
# 4 0.0000 0.0000 0.0000 26.8804 0.0000 -2.5491
# 5 -12.3104 7.4009 -4.7864 0.0000 32.5382 0.0000
# 6 0.0000 0.0000 0.0000 -2.5491 0.0000 14.5718
#
#
#
# Elastic Compliance Matrix: (Units=1/GPa)
#
#
# Indices 1 2 3 4 5 6 
#
# 1 0.015392 -0.005596 -0.001341 0.000000 0.006899 0.000000
# 2 -0.005596 0.015804 -0.005980 0.000000 -0.006591 0.000000
# 3 -0.001341 -0.005980 0.010344 0.000000 0.002374 0.000000
# 4 0.000000 0.000000 0.000000 0.037829 0.000000 0.006618
# 5 0.006899 -0.006591 0.002374 0.000000 0.035192 0.000000
# 6 0.000000 0.000000 0.000000 0.006618 0.000000 0.069783
#
#
# Mechanical properties :
#
#
# Convention : Reuss Voigt Hill
#
# Bulk Modulus (GPa) = 63.66817 68.66916 66.16867
# Shear Modulus (GPa) = 23.21115 27.52422 25.36769
#
# Velocity S-wave (km/s) = 3.31209 3.60671 3.46254
# Velocity P-wave (km/s) = 6.68709 7.05682 6.87444
#
# Compressibility (1/GPa) = 0.01570643
#
# Stress axis : x y z
#
# Youngs Moduli (GPa) = 64.96737 63.27401 96.67873
#
# Poissons Ratio (x) = 0.35405 0.12969
# Poissons Ratio (y) = 0.36353 0.57813
# Poissons Ratio (z) = 0.08715 0.37837
#
# Static dielectric constant tensor:
#      x y z
#    x 3.731780 0.000000 -0.071090 
#    y 0.000000 3.866020 0.000000 
#    z -0.071090 0.000000 4.228850 
# 
# 
# High freq. dielectric constant tensor:
#      x y z
#    x 1.821210 0.000000 -0.003830 
#    y 0.000000 1.806990 0.000000 
#    z -0.003830 0.000000 1.848950 
# 
# From -- ./inp_files/42956.got.cif
#   From: 2010.06.25/outbox.cif.g09.slc.cpg/sg10_22_cif.got.tgz:42956.got - 2010.06.27 22:07:45.
