data_PCOD8067688
_publ_section_title
;
Structure prediction by ZEFSAII (Michael W. Deem and Ramdas Pophale) SiO2 
 PCOD8067688
Probable space group: P 2/M
;
_chemical_formula_sum "Si O2"
_cell_formula_units_Z 32
_cell_length_a 14.678511
_cell_length_b 8.620847
_cell_length_c 14.843899
_cell_angle_alpha 90.000000
_cell_angle_beta 118.483397
_cell_angle_gamma 90.000000
_cell_volume 1650.998742
_symmetry_space_group_name_H-M "P 2/M"
_symmetry_group_IT_number 10
_symmetry_cell_setting 'monoclinic'
loop_
_space_group_symop_operation_xyz
x,y,z
-x,y,-z
-x,-y,-z
x,-y,z
loop_
_atom_site_type_symbol
_atom_site_label
_atom_site_fract_x
_atom_site_fract_y
_atom_site_fract_z
Si Si1 0.900854 0.183854 0.506584
Si Si2 0.947873 0.181704 0.728922
Si Si3 0.268391 0.817998 0.709231
Si Si4 0.514812 0.316008 0.227397
Si Si5 0.831699 0.317222 0.163080
Si Si6 0.221494 0.318561 0.226982
Si Si7 0.550422 0.682120 0.612261
Si Si8 0.293919 0.316091 0.067714
O O1 0.902754 0.238880 0.611152
O O2 0.795222 0.242829 0.408469
O O3 0.000000 0.253541 0.500000
O O4 0.905159 0.000000 0.502219
O O5 0.866210 0.215548 0.768556
O O6 0.049378 0.279410 0.800746
O O7 0.974634 0.000000 0.738687
O O8 0.381091 0.742683 0.769614
O O9 0.202613 0.774220 0.765178
O O10 0.283093 0.000000 0.712121
O O11 0.516004 0.500000 0.228333
O O12 0.505309 0.250186 0.324826
O O13 0.413461 0.257079 0.124434
O O14 0.815780 0.500000 0.169239
O O15 0.763951 0.252699 0.047592
O O16 0.192513 0.500000 0.219173
O O17 0.327731 0.283090 0.329738
O O18 0.233571 0.261994 0.129372
O O19 0.500000 0.760904 0.500000
O O20 0.530189 0.500000 0.601763
O O21 0.293990 0.500000 0.068746
#
# Coordination Sequence:
#
# PCOD8067688 Si02
#       8
#     4   4   4   4   4   4   4   4
#     4   9  18  36  56  71 104 153 179 206 268 336
#     4  11  22  37  56  81 112 145 180 221 274 328
#     4  11  22  37  56  81 112 145 180 221 274 328
#     4   9  18  35  57  81 109 143 182 221 268 323
#     4  11  22  38  59  81 104 140 190 232 267 318
#     4   9  18  35  57  81 109 143 182 221 268 323
#     4   8  15  29  51  79 110 139 174 225 271 304
#     4   8  18  38  60  79 108 147 181 221 273 324
#
# _framework density 19.382206
#
# number of rings (size 3 to 8) (size 9 to 14) (size 15 to 20)
#    0.000    2.500    1.250    2.625    1.750    1.000 
#    0.000   12.500    0.000    0.750    0.000    0.000 
#    0.000    0.000    0.000    0.000    0.000    0.000 
#
# Total GULP energy -396732.077059 kJ/mol
# GULP energy per Si atom -12397.877408 kJ/mol
# Density = 1.933809 g / cm^3
# Si number density = 19.382206 Si / 1000 Ang^3
#
#
#
# Elastic Constant Matrix: (Units=GPa)
#
#
# Indices 1 2 3 4 5 6 
#
# 1 92.9249 5.0933 28.9349 0.0000 13.9002 0.0000
# 2 5.0933 16.6862 19.6037 0.0000 0.3375 0.0000
# 3 28.9349 19.6037 135.6182 0.0000 19.2808 0.0000
# 4 0.0000 0.0000 0.0000 18.4141 0.0000 -4.0526
# 5 13.9002 0.3375 19.2808 0.0000 19.0476 0.0000
# 6 0.0000 0.0000 0.0000 -4.0526 0.0000 19.7725
#
#
#
# Elastic Compliance Matrix: (Units=1/GPa)
#
#
# Indices 1 2 3 4 5 6 
#
# 1 0.012429 -0.002194 -0.001227 0.000000 -0.007789 0.000000
# 2 -0.002194 0.074547 -0.012087 0.000000 0.012515 0.000000
# 3 -0.001227 -0.012087 0.010776 0.000000 -0.009798 0.000000
# 4 0.000000 0.000000 0.000000 0.056872 0.000000 0.011657
# 5 -0.007789 0.012515 -0.009798 0.000000 0.067880 0.000000
# 6 0.000000 0.000000 0.000000 0.011657 0.000000 0.052964
#
#
# Mechanical properties :
#
#
# Convention : Reuss Voigt Hill
#
# Bulk Modulus (GPa) = 14.98484 39.16589 27.07537
# Shear Modulus (GPa) = 15.21010 24.22001 19.71505
#
# Velocity S-wave (km/s) = 2.80437 3.53880 3.19277
# Velocity P-wave (km/s) = 4.27013 6.07853 5.25274
#
# Compressibility (1/GPa) = 0.06673409
#
# Stress axis : x y z
#
# Youngs Moduli (GPa) = 80.45759 13.41442 92.80255
#
# Poissons Ratio (x) = 0.02944 0.11389
# Poissons Ratio (y) = 0.17656 1.12169
# Poissons Ratio (z) = 0.09874 0.16214
#
# Static dielectric constant tensor:
#      x y z
#    x 3.579910 0.000000 0.072040 
#    y 0.000000 3.078730 0.000000 
#    z 0.072040 0.000000 4.095340 
# 
# 
# High freq. dielectric constant tensor:
#      x y z
#    x 1.758440 0.000000 0.003330 
#    y 0.000000 1.715620 0.000000 
#    z 0.003330 0.000000 1.764700 
# 
# From -- ./inp_files/66617.got.cif
#   From: 2010.06.25/outbox.cif.g09.slc.cpg/sg10_34_cif.got.tgz:66617.got - 2010.06.27 22:07:45.
