data_PCOD8067282
_publ_section_title
;
Structure prediction by ZEFSAII (Michael W. Deem and Ramdas Pophale) SiO2 
 PCOD8067282
Probable space group: P 2/M
;
_chemical_formula_sum "Si O2"
_cell_formula_units_Z 32
_cell_length_a 28.651692
_cell_length_b 8.393040
_cell_length_c 12.075247
_cell_angle_alpha 90.000000
_cell_angle_beta 147.325736
_cell_angle_gamma 90.000000
_cell_volume 1567.648072
_symmetry_space_group_name_H-M "P 2/M"
_symmetry_group_IT_number 10
_symmetry_cell_setting 'monoclinic'
loop_
_space_group_symop_operation_xyz
x,y,z
-x,y,-z
-x,-y,-z
x,-y,z
loop_
_atom_site_type_symbol
_atom_site_label
_atom_site_fract_x
_atom_site_fract_y
_atom_site_fract_z
Si Si1 0.904133 0.189520 0.330062
Si Si2 0.597521 0.183172 0.161642
Si Si3 0.906190 0.684320 0.794550
Si Si4 0.255959 0.312443 0.391384
Si Si5 0.152639 0.182019 0.545768
Si Si6 0.597205 0.684900 0.708886
Si Si7 0.250562 0.813119 0.134628
Si Si8 0.668426 0.680687 0.089678
O O1 0.879886 0.251978 0.402926
O O2 0.000000 0.257339 0.500000
O O3 0.902853 0.000000 0.325038
O O4 0.833617 0.252034 0.100437
O O5 0.660969 0.229695 0.388631
O O6 0.609215 0.293823 0.078068
O O7 0.613859 0.000000 0.163291
O O8 0.500000 0.214889 0.000000
O O9 0.913119 0.500000 0.838121
O O10 0.831116 0.757414 0.723515
O O11 0.884580 0.706635 0.623429
O O12 0.000000 0.766713 0.000000
O O13 0.263244 0.500000 0.426883
O O14 0.253581 0.277809 0.256583
O O15 0.255499 0.191635 0.750500
O O16 0.123524 0.000000 0.468591
O O17 0.500000 0.748902 0.500000
O O18 0.604788 0.500000 0.690968
O O19 0.662993 0.781570 0.762968
O O20 0.615586 0.715825 0.873819
O O21 0.242690 0.000000 0.141941
O O22 0.704384 0.500000 0.161840
#
# Coordination Sequence:
#
# PCOD8067282 Si02
#       8
#     4   4   4   4   4   4   4   4
#     4   9  20  38  59  88 124 160 198 245 302 361
#     4  11  25  43  64  93 125 158 202 255 308 364
#     4  10  23  42  62  88 124 162 202 252 308 366
#     4  11  24  42  63  88 124 167 205 247 304 367
#     4  11  21  37  64  91 119 158 206 257 305 357
#     4  10  23  42  63  90 122 161 205 248 301 369
#     4  11  23  40  63  90 124 162 202 253 306 356
#     4  11  22  39  64  90 122 162 204 253 307 363
#
# _framework density 20.412744
#
# number of rings (size 3 to 8) (size 9 to 14) (size 15 to 20)
#    0.000    1.500    2.500    1.875    3.500    2.500 
#    0.000    0.000    0.000    3.000    0.000    0.000 
#    0.000    0.000    0.000    0.000    0.000    0.000 
#
# Total GULP energy -396850.953889 kJ/mol
# GULP energy per Si atom -12401.592309 kJ/mol
# Density = 2.036628 g / cm^3
# Si number density = 20.412744 Si / 1000 Ang^3
#
#
#
# Elastic Constant Matrix: (Units=GPa)
#
#
# Indices 1 2 3 4 5 6 
#
# 1 142.0117 20.1613 84.0691 0.0000 -7.1465 0.0000
# 2 20.1613 25.5829 11.4534 0.0000 7.5730 0.0000
# 3 84.0691 11.4534 155.3528 0.0000 13.2233 0.0000
# 4 0.0000 0.0000 0.0000 40.1652 0.0000 -9.7984
# 5 -7.1465 7.5730 13.2233 0.0000 41.4498 0.0000
# 6 0.0000 0.0000 0.0000 -9.7984 0.0000 26.1071
#
#
#
# Elastic Compliance Matrix: (Units=1/GPa)
#
#
# Indices 1 2 3 4 5 6 
#
# 1 0.012467 -0.008591 -0.006609 0.000000 0.005828 0.000000
# 2 -0.008591 0.048188 0.002027 0.000000 -0.010932 0.000000
# 3 -0.006609 0.002027 0.010272 0.000000 -0.004787 0.000000
# 4 0.000000 0.000000 0.000000 0.027406 0.000000 0.010286
# 5 0.005828 -0.010932 -0.004787 0.000000 0.028655 0.000000
# 6 0.000000 0.000000 0.000000 0.010286 0.000000 0.042164
#
#
# Mechanical properties :
#
#
# Convention : Reuss Voigt Hill
#
# Bulk Modulus (GPa) = 22.43187 61.59057 42.01122
# Shear Modulus (GPa) = 23.76889 35.36198 29.56544
#
# Velocity S-wave (km/s) = 3.41605 4.16666 3.80989
# Velocity P-wave (km/s) = 5.15483 7.30659 6.32291
#
# Compressibility (1/GPa) = 0.04457942
#
# Stress axis : x y z
#
# Youngs Moduli (GPa) = 80.21009 20.75218 97.35605
#
# Poissons Ratio (x) = 0.17829 0.64346
# Poissons Ratio (y) = 0.68911 -0.19734
# Poissons Ratio (z) = 0.53013 -0.04207
#
# Static dielectric constant tensor:
#      x y z
#    x 3.799780 0.000000 0.125190 
#    y 0.000000 3.548270 0.000000 
#    z 0.125190 0.000000 3.814440 
# 
# 
# High freq. dielectric constant tensor:
#      x y z
#    x 1.809660 0.000000 -0.000950 
#    y 0.000000 1.782070 0.000000 
#    z -0.000950 0.000000 1.809080 
# 
# From -- ./inp_files/58316.got.cif
#   From: 2010.06.25/outbox.cif.g09.slc.cpg/sg10_30_cif.got.tgz:58316.got - 2010.06.27 22:07:45.
