data_PCOD8067309
_publ_section_title
;
Structure prediction by ZEFSAII (Michael W. Deem and Ramdas Pophale) SiO2 
 PCOD8067309
Probable space group: P 2/M
;
_chemical_formula_sum "Si O2"
_cell_formula_units_Z 20
_cell_length_a 15.947154
_cell_length_b 8.912219
_cell_length_c 14.301449
_cell_angle_alpha 90.000000
_cell_angle_beta 28.972593
_cell_angle_gamma 90.000000
_cell_volume 984.567106
_symmetry_space_group_name_H-M "P 2/M"
_symmetry_group_IT_number 10
_symmetry_cell_setting 'monoclinic'
loop_
_space_group_symop_operation_xyz
x,y,z
-x,y,-z
-x,-y,-z
x,-y,z
loop_
_atom_site_type_symbol
_atom_site_label
_atom_site_fract_x
_atom_site_fract_y
_atom_site_fract_z
Si Si1 0.191425 0.323072 0.086507
Si Si2 0.687395 0.177068 0.419665
Si Si3 0.848484 0.822167 0.452521
Si Si4 0.464211 0.674091 0.142616
Si Si5 0.295931 0.177540 0.802208
O O1 0.171212 0.500000 0.109103
O O2 0.032444 0.251086 0.299509
O O3 0.369979 0.270588 0.960134
O O4 0.181146 0.263362 0.990249
O O5 0.801447 0.237600 0.394009
O O6 0.492196 0.237052 0.620980
O O7 0.768419 0.222012 0.239800
O O8 0.674283 0.000000 0.436820
O O9 0.702842 0.769834 0.666775
O O10 0.864104 0.000000 0.441954
O O11 0.425523 0.500000 0.199712
O O12 0.500000 0.705505 0.000000
O O13 0.277512 0.000000 0.837542
#
# Coordination Sequence:
#
# PCOD8067309 Si02
#       5
#     4   4   4   4   4
#     4  11  23  38  58  87 120 153 190 235 290 345
#     4   8  16  31  56  85 114 152 193 234 277 330
#     4  11  22  38  62  90 118 150 192 239 285 337
#     4  10  23  44  65  83 111 152 193 237 292 350
#     4   9  16  33  58  83 114 153 198 235 273 330
#
# _framework density 20.313495
#
# number of rings (size 3 to 8) (size 9 to 14) (size 15 to 20)
#    0.000    2.200    2.000    2.400    0.000    2.800 
#    0.000   12.000    0.000    0.000    0.000    0.000 
#    0.000    0.000    0.000    0.000    0.000    0.000 
#
# Total GULP energy -247980.596020 kJ/mol
# GULP energy per Si atom -12399.029801 kJ/mol
# Density = 2.026726 g / cm^3
# Si number density = 20.313495 Si / 1000 Ang^3
#
#
#
# Elastic Constant Matrix: (Units=GPa)
#
#
# Indices 1 2 3 4 5 6 
#
# 1 52.1322 22.9686 37.9884 0.0000 16.1268 0.0000
# 2 22.9686 64.1729 49.2258 0.0000 1.1200 0.0000
# 3 37.9884 49.2258 133.2242 0.0000 -5.1442 0.0000
# 4 0.0000 0.0000 0.0000 36.6557 0.0000 -3.1777
# 5 16.1268 1.1200 -5.1442 0.0000 24.6074 0.0000
# 6 0.0000 0.0000 0.0000 -3.1777 0.0000 14.8643
#
#
#
# Elastic Compliance Matrix: (Units=1/GPa)
#
#
# Indices 1 2 3 4 5 6 
#
# 1 0.036208 -0.005362 -0.009325 0.000000 -0.025435 0.000000
# 2 -0.005362 0.022719 -0.006825 0.000000 0.001053 0.000000
# 3 -0.009325 -0.006825 0.013040 0.000000 0.009148 0.000000
# 4 0.000000 0.000000 0.000000 0.027796 0.000000 0.005942
# 5 -0.025435 0.001053 0.009148 0.000000 0.059172 0.000000
# 6 0.000000 0.000000 0.000000 0.005942 0.000000 0.068546
#
#
# Mechanical properties :
#
#
# Convention : Reuss Voigt Hill
#
# Bulk Modulus (GPa) = 34.55158 52.21054 43.38106
# Shear Modulus (GPa) = 17.84741 24.51525 21.18133
#
# Velocity S-wave (km/s) = 2.96733 3.47774 3.23262
# Velocity P-wave (km/s) = 5.36528 6.47182 5.94435
#
# Compressibility (1/GPa) = 0.02894224
#
# Stress axis : x y z
#
# Youngs Moduli (GPa) = 27.61827 44.01610 76.68572
#
# Poissons Ratio (x) = 0.23602 0.71512
# Poissons Ratio (y) = 0.14809 0.52337
# Poissons Ratio (z) = 0.25755 0.30040
#
# Static dielectric constant tensor:
#      x y z
#    x 3.963300 0.000000 0.004390 
#    y 0.000000 3.346500 0.000000 
#    z 0.004390 0.000000 3.657020 
# 
# 
# High freq. dielectric constant tensor:
#      x y z
#    x 1.790620 0.000000 0.001550 
#    y 0.000000 1.765880 0.000000 
#    z 0.001550 0.000000 1.800400 
# 
# From -- ./inp_files/31147.got.cif
#   From: 2010.06.25/outbox.cif.g09.slc.cpg/sg10_16_cif.got.tgz:31147.got - 2010.06.27 22:07:45.
