data_PCOD8067401
_publ_section_title
;
Structure prediction by ZEFSAII (Michael W. Deem and Ramdas Pophale) SiO2 
 PCOD8067401
Probable space group: P 2/M
;
_chemical_formula_sum "Si O2"
_cell_formula_units_Z 24
_cell_length_a 9.611640
_cell_length_b 14.225407
_cell_length_c 9.648928
_cell_angle_alpha 90.000000
_cell_angle_beta 74.872779
_cell_angle_gamma 90.000000
_cell_volume 1273.577871
_symmetry_space_group_name_H-M "P 2/M"
_symmetry_group_IT_number 10
_symmetry_cell_setting 'monoclinic'
loop_
_space_group_symop_operation_xyz
x,y,z
-x,y,-z
-x,-y,-z
x,-y,z
loop_
_atom_site_type_symbol
_atom_site_label
_atom_site_fract_x
_atom_site_fract_y
_atom_site_fract_z
Si Si1 0.560847 0.395066 0.339383
Si Si2 0.933276 0.816606 0.385277
Si Si3 0.864924 0.656153 0.206635
Si Si4 0.589871 0.267834 0.840737
Si Si5 0.775198 0.105807 0.662817
Si Si6 0.173853 0.393339 0.089276
O O1 0.500000 0.358017 0.500000
O O2 0.502502 0.500000 0.320880
O O3 0.733833 0.400234 0.309147
O O4 0.518858 0.321372 0.232587
O O5 0.871851 0.759265 0.272645
O O6 0.803039 0.877109 0.489526
O O7 0.000000 0.755231 0.500000
O O8 0.069914 0.879919 0.298372
O O9 0.014742 0.602650 0.198380
O O10 0.835665 0.665158 0.050432
O O11 0.652418 0.174368 0.754590
O O12 0.718618 0.340491 0.836941
O O13 0.500000 0.239580 0.000000
O O14 0.720123 0.000000 0.700892
O O15 0.227502 0.500000 0.047341
#
# Coordination Sequence:
#
# PCOD8067401 Si02
#       6
#     4   4   4   4   4   4
#     4  11  24  38  56  87 126 162 194 240 295 351
#     4   8  17  34  62  88 109 147 190 244 300 352
#     4  11  19  35  58  86 119 151 201 237 286 346
#     4  12  23  39  60  86 118 164 200 246 295 357
#     4   9  19  38  63  88 110 147 199 246 307 360
#     4  11  22  36  58  85 119 163 205 243 283 344
#
# _framework density 18.844549000000001
#
# number of rings (size 3 to 8) (size 9 to 14) (size 15 to 20)
#    1.000    0.500    3.333    4.500    0.000    1.000 
#    0.000    0.000    0.000   16.000    0.000    0.000 
#    0.000    0.000    0.000    0.000    0.000    0.000 
#
# Total GULP energy -297338.250469 kJ/mol
# GULP energy per Si atom -12389.093770 kJ/mol
# Density = 1.880166 g / cm^3
# Si number density = 18.844549 Si / 1000 Ang^3
#
#
#
# Elastic Constant Matrix: (Units=GPa)
#
#
# Indices 1 2 3 4 5 6 
#
# 1 85.0937 34.6088 34.1486 0.0000 -18.5992 0.0000
# 2 34.6088 126.3966 45.1352 0.0000 2.9672 0.0000
# 3 34.1486 45.1352 79.0390 0.0000 -16.4638 0.0000
# 4 0.0000 0.0000 0.0000 157.9672 0.0000 -57.3335
# 5 -18.5992 2.9672 -16.4638 0.0000 33.2341 0.0000
# 6 0.0000 0.0000 0.0000 -57.3335 0.0000 43.9371
#
#
#
# Elastic Compliance Matrix: (Units=1/GPa)
#
#
# Indices 1 2 3 4 5 6 
#
# 1 0.016187 -0.003369 -0.003479 0.000000 0.007636 0.000000
# 2 -0.003369 0.011174 -0.006161 0.000000 -0.005935 0.000000
# 3 -0.003479 -0.006161 0.019383 0.000000 0.008205 0.000000
# 4 0.000000 0.000000 0.000000 0.012026 0.000000 0.015693
# 5 0.007636 -0.005935 0.008205 0.000000 0.038958 0.000000
# 6 0.000000 0.000000 0.000000 0.015693 0.000000 0.043237
#
#
# Mechanical properties :
#
#
# Convention : Reuss Voigt Hill
#
# Bulk Modulus (GPa) = 48.25240 57.59048 52.92144
# Shear Modulus (GPa) = 28.75343 58.80346 43.77845
#
# Velocity S-wave (km/s) = 3.91042 5.59216 4.82512
# Velocity P-wave (km/s) = 6.78598 8.50432 7.69328
#
# Compressibility (1/GPa) = 0.02072436
#
# Stress axis : x y z
#
# Youngs Moduli (GPa) = 61.77661 89.49634 51.59252
#
# Poissons Ratio (x) = 0.30153 0.17949
# Poissons Ratio (y) = 0.20814 0.31788
# Poissons Ratio (z) = 0.21492 0.55142
#
# Static dielectric constant tensor:
#      x y z
#    x 3.499460 0.000000 -0.249640 
#    y 0.000000 3.105360 0.000000 
#    z -0.249640 0.000000 3.385580 
# 
# 
# High freq. dielectric constant tensor:
#      x y z
#    x 1.730940 0.000000 -0.022390 
#    y 0.000000 1.702390 0.000000 
#    z -0.022390 0.000000 1.724760 
# 
# From -- ./inp_files/18753.got.cif
#   From: 2010.06.25/outbox.cif.g09.slc.cpg/sg10_10_cif.got.tgz:18753.got - 2010.06.27 22:07:45.
