data_PCOD8067616
_publ_section_title
;
Structure prediction by ZEFSAII (Michael W. Deem and Ramdas Pophale) SiO2 
 PCOD8067616
Probable space group: P 2/M
;
_chemical_formula_sum "Si O2"
_cell_formula_units_Z 20
_cell_length_a 26.275072
_cell_length_b 7.450687
_cell_length_c 16.445495
_cell_angle_alpha 90.000000
_cell_angle_beta 161.780957
_cell_angle_gamma 90.000000
_cell_volume 1006.575839
_symmetry_space_group_name_H-M "P 2/M"
_symmetry_group_IT_number 10
_symmetry_cell_setting 'monoclinic'
loop_
_space_group_symop_operation_xyz
x,y,z
-x,y,-z
-x,-y,-z
x,-y,z
loop_
_atom_site_type_symbol
_atom_site_label
_atom_site_fract_x
_atom_site_fract_y
_atom_site_fract_z
Si Si1 0.369651 0.213310 0.739814
Si Si2 0.269194 0.500000 0.904337
Si Si3 0.002673 0.500000 0.638536
Si Si4 0.976468 0.205231 0.729719
Si Si5 0.870318 0.288114 0.870577
Si Si6 0.469024 0.205588 0.715797
O O1 0.194980 0.286743 0.500836
O O2 0.414422 0.286537 0.719434
O O3 0.367492 0.000000 0.735555
O O4 0.500000 0.292018 0.000000
O O5 0.140817 0.500000 0.781202
O O6 0.174992 0.500000 0.674497
O O7 0.379576 0.323407 0.084199
O O8 0.032076 0.323648 0.737900
O O9 0.963946 0.000000 0.680355
O O10 0.094308 0.215872 0.985813
O O11 0.875105 0.500000 0.876402
O O12 0.688654 0.217510 0.580249
O O13 0.000000 0.212475 0.000000
O O14 0.529395 0.000000 0.812544
#
# Coordination Sequence:
#
# PCOD8067616 Si02
#       6
#     4   2   2   4   4   4
#     4   9  18  32  55  90 127 158 194 247 308 373
#     4  11  26  46  65  88 122 166 216 267 314 363
#     4  11  26  46  65  88 122 166 216 267 314 363
#     4  11  22  39  64  94 127 164 207 253 312 379
#     4  11  21  37  63  97 135 172 203 244 312 385
#     4  11  22  39  64  94 127 164 207 253 312 379
#
# _framework density 19.869340999999999
#
# number of rings (size 3 to 8) (size 9 to 14) (size 15 to 20)
#    0.000    1.400    4.000    1.800    0.000    4.800 
#    0.000    6.000    0.000    2.400    0.000    0.000 
#    0.000    0.000    0.000    0.000    0.000    0.000 
#
# Total GULP energy -248030.315210 kJ/mol
# GULP energy per Si atom -12401.515760 kJ/mol
# Density = 1.982412 g / cm^3
# Si number density = 19.869341 Si / 1000 Ang^3
#
#
#
# Elastic Constant Matrix: (Units=GPa)
#
#
# Indices 1 2 3 4 5 6 
#
# 1 101.3726 36.8599 58.1458 0.0000 -8.5753 0.0000
# 2 36.8599 107.3120 27.5404 0.0000 5.2886 0.0000
# 3 58.1458 27.5404 142.5685 0.0000 -17.9862 0.0000
# 4 0.0000 0.0000 0.0000 13.3524 0.0000 0.3690
# 5 -8.5753 5.2886 -17.9862 0.0000 33.7557 0.0000
# 6 0.0000 0.0000 0.0000 0.3690 0.0000 13.3429
#
#
#
# Elastic Compliance Matrix: (Units=1/GPa)
#
#
# Indices 1 2 3 4 5 6 
#
# 1 0.014118 -0.003683 -0.004847 0.000000 0.001581 0.000000
# 2 -0.003683 0.011006 -0.001029 0.000000 -0.003208 0.000000
# 3 -0.004847 -0.001029 0.009707 0.000000 0.004102 0.000000
# 4 0.000000 0.000000 0.000000 0.074950 0.000000 -0.002073
# 5 0.001581 -0.003208 0.004102 0.000000 0.032715 0.000000
# 6 0.000000 0.000000 0.000000 -0.002073 0.000000 0.075004
#
#
# Mechanical properties :
#
#
# Convention : Reuss Voigt Hill
#
# Bulk Modulus (GPa) = 63.64017 66.26057 64.95037
# Shear Modulus (GPa) = 20.67360 27.33732 24.00546
#
# Velocity S-wave (km/s) = 3.22914 3.71328 3.47964
# Velocity P-wave (km/s) = 6.78248 7.19758 6.99311
#
# Compressibility (1/GPa) = 0.01571334
#
# Stress axis : x y z
#
# Youngs Moduli (GPa) = 70.83328 90.86108 103.01674
#
# Poissons Ratio (x) = 0.33466 0.49931
# Poissons Ratio (y) = 0.26089 0.10596
# Poissons Ratio (z) = 0.34332 0.09346
#
# Static dielectric constant tensor:
#      x y z
#    x 3.463500 0.000000 -0.172900 
#    y 0.000000 3.510080 0.000000 
#    z -0.172900 0.000000 3.755210 
# 
# 
# High freq. dielectric constant tensor:
#      x y z
#    x 1.754570 0.000000 -0.017310 
#    y 0.000000 1.781990 0.000000 
#    z -0.017310 0.000000 1.783730 
# 
# From -- ./inp_files/71232.got.cif
#   From: 2010.06.25/outbox.cif.g09.slc.cpg/sg10_36_cif.got.tgz:71232.got - 2010.06.27 22:07:45.
