data_PCOD8067986
_publ_section_title
;
Structure prediction by ZEFSAII (Michael W. Deem and Ramdas Pophale) SiO2 
 PCOD8067986
Probable space group: P 2/M
;
_chemical_formula_sum "Si O2"
_cell_formula_units_Z 32
_cell_length_a 26.706043
_cell_length_b 9.765590
_cell_length_c 21.333232
_cell_angle_alpha 90.000000
_cell_angle_beta 159.905537
_cell_angle_gamma 90.000000
_cell_volume 1911.518837
_symmetry_space_group_name_H-M "P 2/M"
_symmetry_group_IT_number 10
_symmetry_cell_setting 'monoclinic'
loop_
_space_group_symop_operation_xyz
x,y,z
-x,y,-z
-x,-y,-z
x,-y,z
loop_
_atom_site_type_symbol
_atom_site_label
_atom_site_fract_x
_atom_site_fract_y
_atom_site_fract_z
Si Si1 0.117213 0.163095 0.589715
Si Si2 0.375532 0.346808 0.440113
Si Si3 0.290886 0.653105 0.206906
Si Si4 0.436977 0.162790 0.990387
Si Si5 0.651439 0.162900 0.347699
Si Si6 0.064009 0.162304 0.387861
Si Si7 0.447477 0.839616 0.632988
Si Si8 0.773879 0.159664 0.978038
O O1 0.270537 0.211078 0.798772
O O2 0.091320 0.223187 0.489474
O O3 0.000000 0.224059 0.500000
O O4 0.107708 0.000000 0.575214
O O5 0.333899 0.500000 0.413948
O O6 0.541544 0.343717 0.614483
O O7 0.276333 0.305571 0.263303
O O8 0.352691 0.239047 0.469165
O O9 0.228119 0.500000 0.122618
O O10 0.204951 0.760163 0.062515
O O11 0.449544 0.000000 0.005011
O O12 0.500000 0.222511 0.000000
O O13 0.528678 0.222338 0.156353
O O14 0.810341 0.215923 0.511975
O O15 0.612348 0.215627 0.371073
O O16 0.646170 0.000000 0.341071
O O17 0.904240 0.208100 0.176808
O O18 0.074106 0.000000 0.403139
O O19 0.418853 0.000000 0.590087
O O20 0.620200 0.806705 0.830965
O O21 0.786235 0.000000 0.976420
#
# Coordination Sequence:
#
# PCOD8067986 Si02
#       8
#     4   4   4   4   4   4   4   4
#     4   9  16  22  32  51  75 107 143 177 211 245
#     4   8  14  26  44  64  86 110 138 173 210 249
#     4   8  14  26  44  64  85 111 140 170 208 253
#     4   9  14  22  34  49  71 105 147 177 200 243
#     4   9  16  25  37  52  78 115 146 172 207 253
#     4   9  16  26  36  51  80 116 145 169 208 258
#     4   9  17  26  39  63  88 110 138 175 212 246
#     4   9  17  26  39  62  89 111 136 174 215 249
#
# _framework density 16.740614999999998
#
# number of rings (size 3 to 8) (size 9 to 14) (size 15 to 20)
#    0.000    3.250    1.250    0.750    1.750    0.500 
#    0.000    2.500    0.000    1.500    0.000    5.250 
#    0.000    2.000    0.000    0.125    0.000    0.000 
#
# Total GULP energy -396563.014420 kJ/mol
# GULP energy per Si atom -12392.594201 kJ/mol
# Density = 1.670251 g / cm^3
# Si number density = 16.740615 Si / 1000 Ang^3
#
#
#
# Elastic Constant Matrix: (Units=GPa)
#
#
# Indices 1 2 3 4 5 6 
#
# 1 141.7262 32.5601 55.3350 0.0000 -12.2758 0.0000
# 2 32.5601 28.2732 19.9040 0.0000 -8.6682 0.0000
# 3 55.3350 19.9040 68.0173 0.0000 -3.4671 0.0000
# 4 0.0000 0.0000 0.0000 4.8767 0.0000 1.0030
# 5 -12.2758 -8.6682 -3.4671 0.0000 28.3858 0.0000
# 6 0.0000 0.0000 0.0000 1.0030 0.0000 3.1298
#
#
#
# Elastic Compliance Matrix: (Units=1/GPa)
#
#
# Indices 1 2 3 4 5 6 
#
# 1 0.011878 -0.008047 -0.007217 0.000000 0.001798 0.000000
# 2 -0.008047 0.054539 -0.008796 0.000000 0.012100 0.000000
# 3 -0.007217 -0.008796 0.022994 0.000000 -0.002998 0.000000
# 4 0.000000 0.000000 0.000000 0.219526 0.000000 -0.070348
# 5 0.001798 0.012100 -0.002998 0.000000 0.039335 0.000000
# 6 0.000000 0.000000 0.000000 -0.070348 0.000000 0.342054
#
#
# Mechanical properties :
#
#
# Convention : Reuss Voigt Hill
#
# Bulk Modulus (GPa) = 24.21840 50.40164 37.31002
# Shear Modulus (GPa) = 6.64708 15.95963 11.30336
#
# Velocity S-wave (km/s) = 1.99481 3.09098 2.60129
# Velocity P-wave (km/s) = 4.45016 6.55070 5.59980
#
# Compressibility (1/GPa) = 0.04129092
#
# Stress axis : x y z
#
# Youngs Moduli (GPa) = 84.18879 18.33556 43.48881
#
# Poissons Ratio (x) = 0.14755 0.31385
# Poissons Ratio (y) = 0.67750 0.38253
# Poissons Ratio (z) = 0.60757 0.16128
#
# Static dielectric constant tensor:
#      x y z
#    x 3.362360 0.000000 -0.213740 
#    y 0.000000 2.690110 0.000000 
#    z -0.213740 0.000000 3.230410 
# 
# 
# High freq. dielectric constant tensor:
#      x y z
#    x 1.646580 0.000000 -0.015510 
#    y 0.000000 1.581170 0.000000 
#    z -0.015510 0.000000 1.638180 
# 
# From -- ./inp_files/36048.got.cif
#   From: 2010.06.25/outbox.cif.g09.slc.cpg/sg10_19_cif.got.tgz:36048.got - 2010.06.27 22:07:45.
