data_PCOD8067485
_publ_section_title
;
Structure prediction by ZEFSAII (Michael W. Deem and Ramdas Pophale) SiO2 
 PCOD8067485
Probable space group: P 2/M
;
_chemical_formula_sum "Si O2"
_cell_formula_units_Z 28
_cell_length_a 30.043217
_cell_length_b 10.056745
_cell_length_c 30.043216
_cell_angle_alpha 90.000000
_cell_angle_beta 9.938609
_cell_angle_gamma 90.000000
_cell_volume 1566.654289
_symmetry_space_group_name_H-M "P 2/M"
_symmetry_group_IT_number 10
_symmetry_cell_setting 'monoclinic'
loop_
_space_group_symop_operation_xyz
x,y,z
-x,y,-z
-x,-y,-z
x,-y,z
loop_
_atom_site_type_symbol
_atom_site_label
_atom_site_fract_x
_atom_site_fract_y
_atom_site_fract_z
Si Si1 0.234225 0.000000 0.734226
Si Si2 0.101340 0.658906 0.601345
Si Si3 0.525239 0.341389 0.025246
Si Si4 0.796706 0.743569 0.296705
Si Si5 0.949239 0.341521 0.449232
Si Si6 0.626089 0.656771 0.126093
Si Si7 0.235449 0.500000 0.735448
Si Si8 0.677905 0.340709 0.177906
O O1 0.500000 0.000000 0.500000
O O2 0.217405 0.877194 0.717401
O O3 0.000000 0.000000 0.000000
O O4 0.101768 0.500000 0.601771
O O5 0.076032 0.712451 0.576033
O O6 0.362875 0.716480 0.365266
O O7 0.865261 0.716481 0.862880
O O8 0.525104 0.500000 0.025110
O O9 0.787970 0.286717 0.788064
O O10 0.500000 0.286549 0.000000
O O11 0.288054 0.286718 0.287979
O O12 0.778974 0.629186 0.278971
O O13 0.560894 0.729883 0.563002
O O14 0.063006 0.729884 0.060890
O O15 0.949230 0.500000 0.449225
O O16 0.623075 0.500000 0.123080
O O17 0.651934 0.694765 0.151935
O O18 0.500000 0.500000 0.500000
O O19 0.000000 0.500000 0.000000
O O20 0.682394 0.500000 0.182391
#
# Coordination Sequence:
#
# PCOD8067485 Si02
#       8
#     2   4   4   4   4   4   2   4
#     4  12  26  46  62  82 112 144 176 208 250 298
#     4   9  15  24  34  53  75 105 135 168 223 289
#     4   9  15  21  27  37  52  79 120 172 225 273
#     4  12  23  39  60  82 109 139 172 208 249 298
#     4   9  15  21  30  40  59  86 122 166 215 281
#     4   9  17  26  42  61  88 112 138 177 225 285
#     4  12  22  36  56  82 104 130 166 204 242 280
#     4  11  20  36  55  82 106 132 165 206 250 297
#
# _framework density 17.872482999999999
#
# number of rings (size 3 to 8) (size 9 to 14) (size 15 to 20)
#    0.000    1.857    1.429    4.714    0.000    7.429 
#    0.000    0.000    0.000    0.000    0.000    0.000 
#    0.000    0.000    0.000    0.000    0.000    0.000 
#
# Total GULP energy -347164.950283 kJ/mol
# GULP energy per Si atom -12398.748224 kJ/mol
# Density = 1.783180 g / cm^3
# Si number density = 17.872483 Si / 1000 Ang^3
#
#
#
# Elastic Constant Matrix: (Units=GPa)
#
#
# Indices 1 2 3 4 5 6 
#
# 1 186.9010 40.4257 115.1935 0.0000 -2.6207 0.0000
# 2 40.4257 53.3919 25.7605 0.0000 1.2929 0.0000
# 3 115.1935 25.7605 213.2567 0.0000 0.2966 0.0000
# 4 0.0000 0.0000 0.0000 43.6674 0.0000 -2.9319
# 5 -2.6207 1.2929 0.2966 0.0000 50.4582 0.0000
# 6 0.0000 0.0000 0.0000 -2.9319 0.0000 10.3837
#
#
#
# Elastic Compliance Matrix: (Units=1/GPa)
#
#
# Indices 1 2 3 4 5 6 
#
# 1 0.009053 -0.004789 -0.004312 0.000000 0.000618 0.000000
# 2 -0.004789 0.022434 -0.000122 0.000000 -0.000823 0.000000
# 3 -0.004312 -0.000122 0.007034 0.000000 -0.000262 0.000000
# 4 0.000000 0.000000 0.000000 0.023343 0.000000 0.006591
# 5 0.000618 -0.000823 -0.000262 0.000000 0.019873 0.000000
# 6 0.000000 0.000000 0.000000 0.006591 0.000000 0.098166
#
#
# Mechanical properties :
#
#
# Convention : Reuss Voigt Hill
#
# Bulk Modulus (GPa) = 49.81535 90.70100 70.25817
# Shear Modulus (GPa) = 24.38552 39.04652 31.71602
#
# Velocity S-wave (km/s) = 3.69781 4.67918 4.21714
# Velocity P-wave (km/s) = 6.79447 8.94718 7.94408
#
# Compressibility (1/GPa) = 0.02007413
#
# Stress axis : x y z
#
# Youngs Moduli (GPa) = 110.46434 44.57524 142.17310
#
# Poissons Ratio (x) = 0.21345 0.61310
# Poissons Ratio (y) = 0.52897 0.01737
# Poissons Ratio (z) = 0.47636 0.00544
#
# Static dielectric constant tensor:
#      x y z
#    x 3.583910 0.000000 -0.008490 
#    y 0.000000 2.731990 0.000000 
#    z -0.008490 0.000000 3.680200 
# 
# 
# High freq. dielectric constant tensor:
#      x y z
#    x 1.716080 0.000000 -0.000310 
#    y 0.000000 1.605690 0.000000 
#    z -0.000310 0.000000 1.719650 
# 
# From -- ./inp_files/13607.got.cif
#   From: 2010.06.25/outbox.cif.g09.slc.cpg/sg10_7_cif.got.tgz:13607.got - 2010.06.27 22:07:45.
