data_PCOD8067796
_publ_section_title
;
Structure prediction by ZEFSAII (Michael W. Deem and Ramdas Pophale) SiO2 
 PCOD8067796
Probable space group: P 2/M
;
_chemical_formula_sum "Si O2"
_cell_formula_units_Z 20
_cell_length_a 24.438546
_cell_length_b 7.819866
_cell_length_c 15.446706
_cell_angle_alpha 90.000000
_cell_angle_beta 161.768910
_cell_angle_gamma 90.000000
_cell_volume 923.521901
_symmetry_space_group_name_H-M "P 2/M"
_symmetry_group_IT_number 10
_symmetry_cell_setting 'monoclinic'
loop_
_space_group_symop_operation_xyz
x,y,z
-x,y,-z
-x,-y,-z
x,-y,z
loop_
_atom_site_type_symbol
_atom_site_label
_atom_site_fract_x
_atom_site_fract_y
_atom_site_fract_z
Si Si1 0.458809 0.306933 0.688633
Si Si2 0.839346 0.797945 0.196902
Si Si3 0.895923 0.694292 0.926149
Si Si4 0.006350 0.695126 0.737545
Si Si5 0.408989 0.000000 0.730921
Si Si6 0.230328 0.000000 0.637069
O O1 0.461847 0.500000 0.731090
O O2 0.315326 0.294145 0.396371
O O3 0.376469 0.176597 0.633219
O O4 0.652070 0.251864 0.953601
O O5 0.840918 0.704599 0.105253
O O6 0.000000 0.734920 0.500000
O O7 0.850407 0.000000 0.201135
O O8 0.960638 0.500000 0.025275
O O9 0.940913 0.770824 0.088761
O O10 0.000000 0.781448 0.000000
O O11 0.936933 0.500000 0.639878
O O12 0.866029 0.823803 0.484338
O O13 0.268682 0.000000 0.594362
O O14 0.606136 0.000000 0.056499
#
# Coordination Sequence:
#
# PCOD8067796 Si02
#       6
#     4   4   4   4   2   2
#     4  11  23  41  66  94 126 167 214 261 315 380
#     4  11  23  42  65  91 130 172 211 264 322 376
#     4   9  20  40  65  94 129 168 210 259 316 377
#     4  11  23  41  66  94 126 167 214 261 315 380
#     4  11  24  40  60  91 128 166 212 265 320 377
#     4  11  24  40  60  91 128 166 212 265 320 377
#
# _framework density 21.656227999999999
#
# number of rings (size 3 to 8) (size 9 to 14) (size 15 to 20)
#    0.000    1.400    2.000    3.000    0.000    8.000 
#    0.000    8.000    0.000    0.000    0.000    0.000 
#    0.000    0.000    0.000    0.000    0.000    0.000 
#
# Total GULP energy -247809.657063 kJ/mol
# GULP energy per Si atom -12390.482853 kJ/mol
# Density = 2.160694 g / cm^3
# Si number density = 21.656228 Si / 1000 Ang^3
#
#
#
# Elastic Constant Matrix: (Units=GPa)
#
#
# Indices 1 2 3 4 5 6 
#
# 1 121.7382 14.6389 -2.5952 0.0000 5.5777 0.0000
# 2 14.6389 119.1512 16.9972 0.0000 -9.6665 0.0000
# 3 -2.5952 16.9972 93.0108 0.0000 -3.1554 0.0000
# 4 0.0000 0.0000 0.0000 20.5075 0.0000 0.7663
# 5 5.5777 -9.6665 -3.1554 0.0000 40.9264 0.0000
# 6 0.0000 0.0000 0.0000 0.7663 0.0000 53.0330
#
#
#
# Elastic Compliance Matrix: (Units=1/GPa)
#
#
# Indices 1 2 3 4 5 6 
#
# 1 0.008433 -0.001208 0.000408 0.000000 -0.001403 0.000000
# 2 -0.001208 0.008943 -0.001595 0.000000 0.002154 0.000000
# 3 0.000408 -0.001595 0.011069 0.000000 0.000421 0.000000
# 4 0.000000 0.000000 0.000000 0.048789 0.000000 -0.000705
# 5 -0.001403 0.002154 0.000421 0.000000 0.025167 0.000000
# 6 0.000000 0.000000 0.000000 -0.000705 0.000000 0.018866
#
#
# Mechanical properties :
#
#
# Convention : Reuss Voigt Hill
#
# Bulk Modulus (GPa) = 42.27380 43.55355 42.91367
# Shear Modulus (GPa) = 37.32985 43.21733 40.27359
#
# Velocity S-wave (km/s) = 4.15631 4.47207 4.31708
# Velocity P-wave (km/s) = 6.52656 6.84258 6.68643
#
# Compressibility (1/GPa) = 0.02365532
#
# Stress axis : x y z
#
# Youngs Moduli (GPa) = 118.58715 111.81420 90.34571
#
# Poissons Ratio (x) = 0.13509 -0.03690
# Poissons Ratio (y) = 0.14327 0.14410
# Poissons Ratio (z) = -0.04844 0.17834
#
# Static dielectric constant tensor:
#      x y z
#    x 4.169340 0.000000 -0.058580 
#    y 0.000000 4.020740 0.000000 
#    z -0.058580 0.000000 3.876380 
# 
# 
# High freq. dielectric constant tensor:
#      x y z
#    x 1.857470 0.000000 0.001370 
#    y 0.000000 1.851270 0.000000 
#    z 0.001370 0.000000 1.847740 
# 
# From -- ./inp_files/71371.got.cif
#   From: 2010.06.25/outbox.cif.g09.slc.cpg/sg10_36_cif.got.tgz:71371.got - 2010.06.27 22:07:45.
