data_PCOD8067062
_publ_section_title
;
Structure prediction by ZEFSAII (Michael W. Deem and Ramdas Pophale) SiO2 
 PCOD8067062
Probable space group: P 2/M
;
_chemical_formula_sum "Si O2"
_cell_formula_units_Z 32
_cell_length_a 26.692456
_cell_length_b 8.612459
_cell_length_c 20.721489
_cell_angle_alpha 90.000000
_cell_angle_beta 160.332206
_cell_angle_gamma 90.000000
_cell_volume 1603.270896
_symmetry_space_group_name_H-M "P 2/M"
_symmetry_group_IT_number 10
_symmetry_cell_setting 'monoclinic'
loop_
_space_group_symop_operation_xyz
x,y,z
-x,y,-z
-x,-y,-z
x,-y,z
loop_
_atom_site_type_symbol
_atom_site_label
_atom_site_fract_x
_atom_site_fract_y
_atom_site_fract_z
Si Si1 0.159123 0.181705 0.868046
Si Si2 0.993713 0.182631 0.188614
Si Si3 0.490985 0.817279 0.254383
Si Si4 0.296770 0.681759 0.590527
Si Si5 0.736128 0.681292 0.804317
Si Si6 0.543962 0.318413 0.450911
Si Si7 0.052414 0.321486 0.491475
Si Si8 0.663498 0.817090 0.220430
O O1 0.087746 0.250231 0.846537
O O2 0.053737 0.218503 0.680938
O O3 0.174636 0.000000 0.895682
O O4 0.323299 0.249582 0.055402
O O5 0.151050 0.268810 0.373525
O O6 0.023700 0.000000 0.227827
O O7 0.888424 0.224201 0.000372
O O8 0.561852 0.726725 0.280677
O O9 0.572784 0.778595 0.420943
O O10 0.499739 0.000000 0.251159
O O11 0.296242 0.500000 0.604183
O O12 0.302912 0.771631 0.665454
O O13 0.768550 0.500000 0.850992
O O14 0.611118 0.733477 0.704321
O O15 0.679129 0.719825 0.663342
O O16 0.540403 0.500000 0.430159
O O17 0.037791 0.500000 0.453112
O O18 0.222199 0.267032 0.689121
O O19 0.000000 0.292877 0.500000
O O20 0.683922 0.000000 0.237763
O O21 0.500000 0.763157 0.000000
#
# Coordination Sequence:
#
# PCOD8067062 Si02
#       8
#     4   4   4   4   4   4   4   4
#     4  10  22  39  62  89 121 160 202 249 303 356
#     4  11  21  38  62  91 121 158 204 250 299 360
#     4  11  23  40  61  90 124 160 203 252 302 359
#     4  12  26  43  64  89 121 162 202 249 303 359
#     4   9  18  33  57  88 123 161 201 247 301 359
#     4   9  18  34  56  87 124 161 201 247 301 359
#     4  11  25  42  63  95 127 158 201 251 300 353
#     4  11  25  45  67  91 121 162 204 245 300 363
#
# _framework density 19.959199000000002
#
# number of rings (size 3 to 8) (size 9 to 14) (size 15 to 20)
#    0.000    1.500    2.500    3.375    1.750    4.000 
#    0.000    1.875    0.000    3.750    0.000    0.000 
#    0.000    0.000    0.000    0.000    0.000    0.000 
#
# Total GULP energy -396944.344178 kJ/mol
# GULP energy per Si atom -12404.510756 kJ/mol
# Density = 1.991377 g / cm^3
# Si number density = 19.959199 Si / 1000 Ang^3
#
#
#
# Elastic Constant Matrix: (Units=GPa)
#
#
# Indices 1 2 3 4 5 6 
#
# 1 79.4248 13.9385 26.4472 0.0000 13.0053 0.0000
# 2 13.9385 21.6167 9.3065 0.0000 5.9343 0.0000
# 3 26.4472 9.3065 110.5926 0.0000 3.6819 0.0000
# 4 0.0000 0.0000 0.0000 29.6465 0.0000 -0.7070
# 5 13.0053 5.9343 3.6819 0.0000 31.0386 0.0000
# 6 0.0000 0.0000 0.0000 -0.7070 0.0000 29.5085
#
#
#
# Elastic Compliance Matrix: (Units=1/GPa)
#
#
# Indices 1 2 3 4 5 6 
#
# 1 0.015678 -0.007524 -0.002957 0.000000 -0.004780 0.000000
# 2 -0.007524 0.054090 -0.002523 0.000000 -0.006889 0.000000
# 3 -0.002957 -0.002523 0.009944 0.000000 0.000542 0.000000
# 4 0.000000 0.000000 0.000000 0.033750 0.000000 0.000809
# 5 -0.004780 -0.006889 0.000542 0.000000 0.035474 0.000000
# 6 0.000000 0.000000 0.000000 0.000809 0.000000 0.033908
#
#
# Mechanical properties :
#
#
# Convention : Reuss Voigt Hill
#
# Bulk Modulus (GPa) = 18.62086 34.55761 26.58924
# Shear Modulus (GPa) = 22.05047 28.83485 25.44266
#
# Velocity S-wave (km/s) = 3.32743 3.80503 3.57421
# Velocity P-wave (km/s) = 4.91040 6.05442 5.51217
#
# Compressibility (1/GPa) = 0.05370322
#
# Stress axis : x y z
#
# Youngs Moduli (GPa) = 63.78246 18.48785 100.56702
#
# Poissons Ratio (x) = 0.13910 0.29738
# Poissons Ratio (y) = 0.47991 0.25373
# Poissons Ratio (z) = 0.18861 0.04664
#
# Static dielectric constant tensor:
#      x y z
#    x 3.597400 0.000000 0.061440 
#    y 0.000000 3.509080 0.000000 
#    z 0.061440 0.000000 3.767630 
# 
# 
# High freq. dielectric constant tensor:
#      x y z
#    x 1.771440 0.000000 -0.003610 
#    y 0.000000 1.777000 0.000000 
#    z -0.003610 0.000000 1.788090 
# 
# From -- ./inp_files/86972.got.cif
#   From: 2010.06.25/outbox.cif.g09.slc.cpg/sg10_44_cif.got.tgz:86972.got - 2010.06.27 22:07:45.
