data_PCOD8067494
_publ_section_title
;
Structure prediction by ZEFSAII (Michael W. Deem and Ramdas Pophale) SiO2 
 PCOD8067494
Probable space group: P 2/M
;
_chemical_formula_sum "Si O2"
_cell_formula_units_Z 24
_cell_length_a 28.259333
_cell_length_b 11.705601
_cell_length_c 22.984988
_cell_angle_alpha 90.000000
_cell_angle_beta 168.574723
_cell_angle_gamma 90.000000
_cell_volume 1506.128352
_symmetry_space_group_name_H-M "P 2/M"
_symmetry_group_IT_number 10
_symmetry_cell_setting 'monoclinic'
loop_
_space_group_symop_operation_xyz
x,y,z
-x,y,-z
-x,-y,-z
x,-y,z
loop_
_atom_site_type_symbol
_atom_site_label
_atom_site_fract_x
_atom_site_fract_y
_atom_site_fract_z
Si Si1 0.644641 0.000000 0.233477
Si Si2 0.784748 0.000000 0.195886
Si Si3 0.632899 0.500000 0.515535
Si Si4 0.832363 0.500000 0.882754
Si Si5 0.109010 0.134771 0.191664
Si Si6 0.106887 0.120290 0.783294
Si Si7 0.403879 0.260297 0.223052
Si Si8 0.263639 0.742221 0.183087
O O1 0.816104 0.113674 0.439650
O O2 0.500000 0.000000 0.000000
O O3 0.471094 0.000000 0.080294
O O4 0.814889 0.886514 0.190989
O O5 0.000000 0.000000 0.500000
O O6 0.889491 0.500000 0.795304
O O7 0.487167 0.390563 0.318275
O O8 0.668313 0.500000 0.627512
O O9 0.767469 0.608631 0.842679
O O10 0.378351 0.174222 0.522156
O O11 0.091571 0.000000 0.173203
O O12 0.000000 0.183643 0.000000
O O13 0.962330 0.186756 0.067969
O O14 0.204886 0.000000 0.930258
O O15 0.213644 0.232100 0.942967
O O16 0.277847 0.236041 0.132056
O O17 0.500000 0.789137 0.500000
#
# Coordination Sequence:
#
# PCOD8067494 Si02
#       8
#     2   2   2   2   4   4   4   4
#     4   9  15  34  61  89 110 134 177 205 244 328
#     4   9  15  34  63  85 112 142 173 207 248 322
#     4  11  21  34  65  65 108 140 193 253 288 319
#     4  11  20  39  54  83  81 143 217 256 278 304
#     4  11  23  36  51  70 102 148 192 231 275 342
#     4   8  21  32  53  85 116 139 166 218 268 327
#     4  12  22  39  51  80 109 143 182 243 285 323
#     4  12  22  35  57  73  99 140 203 246 284 313
#
# _framework density 15.934896999999999
#
# number of rings (size 3 to 8) (size 9 to 14) (size 15 to 20)
#    1.000    0.333    6.667    1.250    0.000    3.000 
#    0.000    0.000    0.000    0.000    0.000    1.167 
#    0.000    0.000    0.000    0.000    0.000    0.000 
#
# Total GULP energy -297419.876888 kJ/mol
# GULP energy per Si atom -12392.494870 kJ/mol
# Density = 1.589863 g / cm^3
# Si number density = 15.934897 Si / 1000 Ang^3
#
#
#
# Elastic Constant Matrix: (Units=GPa)
#
#
# Indices 1 2 3 4 5 6 
#
# 1 123.5984 36.7250 60.8933 0.0000 12.9532 0.0000
# 2 36.7250 68.6319 40.8953 0.0000 -2.3688 0.0000
# 3 60.8933 40.8953 105.7948 0.0000 4.1175 0.0000
# 4 0.0000 0.0000 0.0000 30.5492 0.0000 13.3948
# 5 12.9532 -2.3688 4.1175 0.0000 36.1079 0.0000
# 6 0.0000 0.0000 0.0000 13.3948 0.0000 78.5333
#
#
#
# Elastic Compliance Matrix: (Units=1/GPa)
#
#
# Indices 1 2 3 4 5 6 
#
# 1 0.012270 -0.003362 -0.005608 0.000000 -0.003983 0.000000
# 2 -0.003362 0.020010 -0.005924 0.000000 0.003194 0.000000
# 3 -0.005608 -0.005924 0.014973 0.000000 -0.000084 0.000000
# 4 0.000000 0.000000 0.000000 0.035380 0.000000 -0.006034
# 5 -0.003983 0.003194 -0.000084 0.000000 0.029343 0.000000
# 6 0.000000 0.000000 0.000000 -0.006034 0.000000 0.013763
#
#
# Mechanical properties :
#
#
# Convention : Reuss Voigt Hill
#
# Bulk Modulus (GPa) = 57.25588 63.89469 60.57529
# Shear Modulus (GPa) = 30.98916 39.67219 35.33067
#
# Velocity S-wave (km/s) = 4.41470 4.99504 4.71381
# Velocity P-wave (km/s) = 7.87370 8.57040 8.22943
#
# Compressibility (1/GPa) = 0.01746546
#
# Stress axis : x y z
#
# Youngs Moduli (GPa) = 81.50151 49.97625 66.78557
#
# Poissons Ratio (x) = 0.16800 0.37452
# Poissons Ratio (y) = 0.27397 0.39565
# Poissons Ratio (z) = 0.45704 0.29607
#
# Static dielectric constant tensor:
#      x y z
#    x 2.948710 0.000000 0.416350 
#    y 0.000000 2.874120 0.000000 
#    z 0.416350 0.000000 2.811150 
# 
# 
# High freq. dielectric constant tensor:
#      x y z
#    x 1.614280 0.000000 0.026610 
#    y 0.000000 1.590550 0.000000 
#    z 0.026610 0.000000 1.606120 
# 
# From -- ./inp_files/91430.got.cif
#   From: 2010.06.25/outbox.cif.g09.slc.cpg/sg10_46_cif.got.tgz:91430.got - 2010.06.27 22:07:45.
