data_PCOD8067717
_publ_section_title
;
Structure prediction by ZEFSAII (Michael W. Deem and Ramdas Pophale) SiO2 
 PCOD8067717
Probable space group: P 2/M
;
_chemical_formula_sum "Si O2"
_cell_formula_units_Z 32
_cell_length_a 15.156891
_cell_length_b 8.390764
_cell_length_c 11.593351
_cell_angle_alpha 90.000000
_cell_angle_beta 86.058785
_cell_angle_gamma 90.000000
_cell_volume 1470.931121
_symmetry_space_group_name_H-M "P 2/M"
_symmetry_group_IT_number 10
_symmetry_cell_setting 'monoclinic'
loop_
_space_group_symop_operation_xyz
x,y,z
-x,y,-z
-x,-y,-z
x,-y,z
loop_
_atom_site_type_symbol
_atom_site_label
_atom_site_fract_x
_atom_site_fract_y
_atom_site_fract_z
Si Si1 0.604141 0.814954 0.284964
Si Si2 0.890774 0.314979 0.731374
Si Si3 0.662624 0.316321 0.511948
Si Si4 0.762228 0.316931 0.130026
Si Si5 0.732619 0.183785 0.886661
Si Si6 0.424372 0.685987 0.238983
Si Si7 0.923962 0.188029 0.243191
Si Si8 0.146911 0.816218 0.503235
O O1 0.603937 0.718860 0.405016
O O2 0.695148 0.791924 0.208166
O O3 0.524313 0.747512 0.214356
O O4 0.590608 0.000000 0.312378
O O5 0.879741 0.500000 0.759519
O O6 0.804301 0.222821 0.782468
O O7 0.898074 0.286115 0.593755
O O8 0.976726 0.247697 0.788536
O O9 0.692961 0.500000 0.511121
O O10 0.605359 0.274063 0.628640
O O11 0.748100 0.204919 0.501634
O O12 0.743442 0.500000 0.162370
O O13 0.861976 0.271223 0.154600
O O14 0.751101 0.291552 0.995551
O O15 0.635688 0.220557 0.846582
O O16 0.738352 0.000000 0.921794
O O17 0.418306 0.500000 0.211466
O O18 0.894082 0.242693 0.373022
O O19 0.918002 0.000000 0.227653
O O20 0.123886 0.000000 0.482493
#
# Coordination Sequence:
#
# PCOD8067717 Si02
#       8
#     4   4   4   4   4   4   4   4
#     4  12  25  42  66  98 134 173 218 265 321 386
#     4  12  25  42  66  98 134 173 218 265 321 386
#     4  11  22  38  65  97 134 173 215 264 323 386
#     4  12  26  46  70  95 128 169 218 271 326 384
#     4  12  26  46  70  95 128 169 218 271 326 384
#     4  11  24  43  67  98 133 171 217 267 323 385
#     4  11  24  43  67  98 133 171 217 267 323 385
#     4  11  22  38  65  97 134 173 215 264 323 386
#
# _framework density 21.754928
#
# number of rings (size 3 to 8) (size 9 to 14) (size 15 to 20)
#    0.000    0.500    2.500    6.750    0.000    7.000 
#    0.000    5.000    0.000    0.000    0.000    0.000 
#    0.000    0.000    0.000    0.000    0.000    0.000 
#
# Total GULP energy -397133.094032 kJ/mol
# GULP energy per Si atom -12410.409189 kJ/mol
# Density = 2.170541 g / cm^3
# Si number density = 21.754928 Si / 1000 Ang^3
#
#
#
# Elastic Constant Matrix: (Units=GPa)
#
#
# Indices 1 2 3 4 5 6 
#
# 1 113.3973 18.7083 17.2826 0.0000 30.8035 0.0000
# 2 18.7083 90.6594 17.0199 0.0000 2.7236 0.0000
# 3 17.2826 17.0199 84.6140 0.0000 25.9563 0.0000
# 4 0.0000 0.0000 0.0000 34.1090 0.0000 4.1914
# 5 30.8035 2.7236 25.9563 0.0000 29.2143 0.0000
# 6 0.0000 0.0000 0.0000 4.1914 0.0000 37.2870
#
#
#
# Elastic Compliance Matrix: (Units=1/GPa)
#
#
# Indices 1 2 3 4 5 6 
#
# 1 0.013255 -0.002779 0.002831 0.000000 -0.016232 0.000000
# 2 -0.002779 0.012085 -0.003322 0.000000 0.004755 0.000000
# 3 0.002831 -0.003322 0.017498 0.000000 -0.018222 0.000000
# 4 0.000000 0.000000 0.000000 0.029728 0.000000 -0.003342
# 5 -0.016232 0.004755 -0.018222 0.000000 0.067092 0.000000
# 6 0.000000 0.000000 0.000000 -0.003342 0.000000 0.027195
#
#
# Mechanical properties :
#
#
# Convention : Reuss Voigt Hill
#
# Bulk Modulus (GPa) = 27.54975 43.85472 35.70224
# Shear Modulus (GPa) = 26.95546 35.83273 31.39410
#
# Velocity S-wave (km/s) = 3.52383 4.06286 3.80291
# Velocity P-wave (km/s) = 5.40812 6.49703 5.97742
#
# Compressibility (1/GPa) = 0.03629797
#
# Stress axis : x y z
#
# Youngs Moduli (GPa) = 75.44366 82.75032 57.14896
#
# Poissons Ratio (x) = 0.22997 -0.16179
# Poissons Ratio (y) = 0.20967 0.18984
# Poissons Ratio (z) = -0.21359 0.27488
#
# Static dielectric constant tensor:
#      x y z
#    x 3.994840 0.000000 0.086470 
#    y 0.000000 3.844610 0.000000 
#    z 0.086470 0.000000 3.840700 
# 
# 
# High freq. dielectric constant tensor:
#      x y z
#    x 1.866160 0.000000 0.010480 
#    y 0.000000 1.863480 0.000000 
#    z 0.010480 0.000000 1.849050 
# 
# From -- ./inp_files/49936.got.cif
#   From: 2010.06.25/outbox.cif.g09.slc.cpg/sg10_25_cif.got.tgz:49936.got - 2010.06.27 22:07:45.
