data_PCOD8067969
_publ_section_title
;
Structure prediction by ZEFSAII (Michael W. Deem and Ramdas Pophale) SiO2 
 PCOD8067969
Probable space group: P 2/M
;
_chemical_formula_sum "Si O2"
_cell_formula_units_Z 32
_cell_length_a 21.261561
_cell_length_b 9.434706
_cell_length_c 21.261549
_cell_angle_alpha 90.000000
_cell_angle_beta 25.572775
_cell_angle_gamma 90.000000
_cell_volume 1841.015263
_symmetry_space_group_name_H-M "P 2/M"
_symmetry_group_IT_number 10
_symmetry_cell_setting 'monoclinic'
loop_
_space_group_symop_operation_xyz
x,y,z
-x,y,-z
-x,-y,-z
x,-y,z
loop_
_atom_site_type_symbol
_atom_site_label
_atom_site_fract_x
_atom_site_fract_y
_atom_site_fract_z
Si Si1 0.558541 0.331348 0.380909
Si Si2 0.070009 0.163705 0.239096
Si Si3 0.695378 0.168443 0.875378
Si Si4 0.119089 0.668651 0.941460
Si Si5 0.260904 0.163705 0.429990
Si Si6 0.624623 0.168442 0.804621
Si Si7 0.322187 0.334606 0.493545
Si Si8 0.993549 0.334605 0.822184
O O1 0.500000 0.270633 0.500000
O O2 0.562315 0.500000 0.380228
O O3 0.447665 0.280140 0.427070
O O4 0.720524 0.271862 0.220523
O O5 0.177722 0.228685 0.194551
O O6 0.910556 0.184343 0.410556
O O7 0.090207 0.250493 0.156789
O O8 0.104654 0.000000 0.193100
O O9 0.711931 0.222443 0.788069
O O10 0.702312 0.000000 0.869115
O O11 0.541634 0.221166 0.041635
O O12 0.119769 0.500000 0.937687
O O13 0.072928 0.719859 0.052337
O O14 0.000000 0.729370 0.000000
O O15 0.305451 0.228690 0.322277
O O16 0.343213 0.250490 0.409791
O O17 0.306900 0.000000 0.395346
O O18 0.630891 0.000000 0.797679
O O19 0.338589 0.500000 0.463843
O O20 0.166059 0.301741 0.666056
O O21 0.963848 0.500000 0.838585
#
# Coordination Sequence:
#
# PCOD8067969 Si02
#       8
#     4   4   4   4   4   4   4   4
#     4   9  16  26  42  64  87 110 139 175 211 245
#     4   9  17  28  43  64  87 110 138 173 210 246
#     4   8  14  25  41  61  84 109 138 173 211 248
#     4   9  16  26  42  64  87 110 139 175 211 245
#     4   9  17  28  43  64  87 110 138 173 210 246
#     4   8  14  25  41  61  84 109 138 173 211 248
#     4   9  17  29  44  62  86 114 140 168 206 250
#     4   9  17  29  44  62  86 114 140 168 206 250
#
# _framework density 17.381713000000001
#
# number of rings (size 3 to 8) (size 9 to 14) (size 15 to 20)
#    0.000    3.250    0.000    1.500    0.000    4.500 
#    0.000    2.500    0.000    1.500    0.000    5.250 
#    0.000    0.000    0.000    0.000    0.000    0.000 
#
# Total GULP energy -396672.183453 kJ/mol
# GULP energy per Si atom -12396.005733 kJ/mol
# Density = 1.734215 g / cm^3
# Si number density = 17.381713 Si / 1000 Ang^3
#
#
#
# Elastic Constant Matrix: (Units=GPa)
#
#
# Indices 1 2 3 4 5 6 
#
# 1 199.8433 37.2246 94.8656 0.0000 6.4542 0.0000
# 2 37.2246 21.4705 23.1710 0.0000 4.0571 0.0000
# 3 94.8656 23.1710 111.8192 0.0000 18.9567 0.0000
# 4 0.0000 0.0000 0.0000 12.0799 0.0000 3.4124
# 5 6.4542 4.0571 18.9567 0.0000 37.7005 0.0000
# 6 0.0000 0.0000 0.0000 3.4124 0.0000 23.8918
#
#
#
# Elastic Compliance Matrix: (Units=1/GPa)
#
#
# Indices 1 2 3 4 5 6 
#
# 1 0.010195 -0.010767 -0.006908 0.000000 0.002887 0.000000
# 2 -0.010767 0.071363 -0.005099 0.000000 -0.003273 0.000000
# 3 -0.006908 -0.005099 0.017017 0.000000 -0.006825 0.000000
# 4 0.000000 0.000000 0.000000 0.086262 0.000000 -0.012321
# 5 0.002887 -0.003273 -0.006825 0.000000 0.029815 0.000000
# 6 0.000000 0.000000 0.000000 -0.012321 0.000000 0.043615
#
#
# Mechanical properties :
#
#
# Convention : Reuss Voigt Hill
#
# Bulk Modulus (GPa) = 18.85752 71.51727 45.18740
# Shear Modulus (GPa) = 15.55254 26.59256 21.07255
#
# Velocity S-wave (km/s) = 2.99451 3.91566 3.48564
# Velocity P-wave (km/s) = 4.77794 7.85351 6.50024
#
# Compressibility (1/GPa) = 0.05302924
#
# Stress axis : x y z
#
# Youngs Moduli (GPa) = 98.08352 14.01284 58.76407
#
# Poissons Ratio (x) = 0.15087 0.40594
# Poissons Ratio (y) = 1.05604 0.29961
# Poissons Ratio (z) = 0.67755 0.07145
#
# Static dielectric constant tensor:
#      x y z
#    x 3.590750 0.000000 0.067220 
#    y 0.000000 2.718730 0.000000 
#    z 0.067220 0.000000 3.357920 
# 
# 
# High freq. dielectric constant tensor:
#      x y z
#    x 1.687210 0.000000 0.004060 
#    y 0.000000 1.607960 0.000000 
#    z 0.004060 0.000000 1.673140 
# 
# From -- ./inp_files/78931.got.cif
#   From: 2010.06.25/outbox.cif.g09.slc.cpg/sg10_40_cif.got.tgz:78931.got - 2010.06.27 22:07:45.
