data_PCOD8067252
_publ_section_title
;
Structure prediction by ZEFSAII (Michael W. Deem and Ramdas Pophale) SiO2 
 PCOD8067252
Probable space group: P 2/M
;
_chemical_formula_sum "Si O2"
_cell_formula_units_Z 14
_cell_length_a 5.071092
_cell_length_b 13.242659
_cell_length_c 9.827236
_cell_angle_alpha 90.000000
_cell_angle_beta 115.217189
_cell_angle_gamma 90.000000
_cell_volume 597.052215
_symmetry_space_group_name_H-M "P 2/M"
_symmetry_group_IT_number 10
_symmetry_cell_setting 'monoclinic'
loop_
_space_group_symop_operation_xyz
x,y,z
-x,y,-z
-x,-y,-z
x,-y,z
loop_
_atom_site_type_symbol
_atom_site_label
_atom_site_fract_x
_atom_site_fract_y
_atom_site_fract_z
Si Si1 0.366929 0.691121 0.837055
Si Si2 0.171621 0.000000 0.396509
Si Si3 0.122484 0.888248 0.883542
Si Si4 0.282783 0.618152 0.330444
O O1 0.352372 0.809944 0.871223
O O2 0.607417 0.680530 0.774137
O O3 0.055435 0.646828 0.718743
O O4 0.500000 0.634487 0.000000
O O5 0.500000 0.000000 0.500000
O O6 0.000000 0.000000 0.500000
O O7 0.113372 0.900630 0.290267
O O8 0.264435 0.000000 0.940107
O O9 0.000000 0.845690 0.000000
O O10 0.500000 0.647887 0.500000
O O11 0.305452 0.500000 0.305275
#
# Coordination Sequence:
#
# PCOD8067252 Si02
#       4
#     4   2   4   4
#     4  12  25  43  72 107 137 179 238 288 341 406
#     4  10  23  40  63  96 130 172 229 282 324 384
#     4   9  22  46  67  95 139 190 220 277 336 416
#     4  11  26  48  72  99 140 186 226 283 361 423
#
# _framework density 23.448536000000001
#
# number of rings (size 3 to 8) (size 9 to 14) (size 15 to 20)
#    0.857    0.571    0.000    4.286    0.000   14.286 
#    0.000    0.000    0.000    0.000    0.000    0.000 
#    0.000    0.000    0.000    0.000    0.000    0.000 
#
# Total GULP energy -173441.027136 kJ/mol
# GULP energy per Si atom -12388.644795 kJ/mol
# Density = 2.339517 g / cm^3
# Si number density = 23.448536 Si / 1000 Ang^3
#
#
#
# Elastic Constant Matrix: (Units=GPa)
#
#
# Indices 1 2 3 4 5 6 
#
# 1 90.0221 -6.1760 35.0725 0.0000 5.4541 0.0000
# 2 -6.1760 79.5587 4.6156 0.0000 -12.8602 0.0000
# 3 35.0725 4.6156 155.0191 0.0000 6.3021 0.0000
# 4 0.0000 0.0000 0.0000 34.1236 0.0000 5.8109
# 5 5.4541 -12.8602 6.3021 0.0000 60.9742 0.0000
# 6 0.0000 0.0000 0.0000 5.8109 0.0000 51.1068
#
#
#
# Elastic Compliance Matrix: (Units=1/GPa)
#
#
# Indices 1 2 3 4 5 6 
#
# 1 0.012301 0.001020 -0.002789 0.000000 -0.000597 0.000000
# 2 0.001020 0.013136 -0.000734 0.000000 0.002755 0.000000
# 3 -0.002789 -0.000734 0.007130 0.000000 -0.000642 0.000000
# 4 0.000000 0.000000 0.000000 0.029884 0.000000 -0.003398
# 5 -0.000597 0.002755 -0.000642 0.000000 0.017101 0.000000
# 6 0.000000 0.000000 0.000000 -0.003398 0.000000 0.019953
#
#
# Mechanical properties :
#
#
# Convention : Reuss Voigt Hill
#
# Bulk Modulus (GPa) = 36.28228 43.51379 39.89803
# Shear Modulus (GPa) = 43.97579 48.64678 46.31128
#
# Velocity S-wave (km/s) = 4.33531 4.55974 4.44894
# Velocity P-wave (km/s) = 6.36919 6.80581 6.59112
#
# Compressibility (1/GPa) = 0.02756167
#
# Stress axis : x y z
#
# Youngs Moduli (GPa) = 81.29272 76.12389 140.25575
#
# Poissons Ratio (x) = -0.07767 0.39120
# Poissons Ratio (y) = -0.08294 0.10294
# Poissons Ratio (z) = 0.22674 0.05587
#
# Static dielectric constant tensor:
#      x y z
#    x 3.853670 0.000000 0.137380 
#    y 0.000000 4.158730 0.000000 
#    z 0.137380 0.000000 4.695660 
# 
# 
# High freq. dielectric constant tensor:
#      x y z
#    x 1.927090 0.000000 0.011110 
#    y 0.000000 1.917340 0.000000 
#    z 0.011110 0.000000 1.955150 
# 
# From -- ./inp_files/3174.got.cif
#   From: 2010.06.25/outbox.cif.g09.slc.cpg/sg10_2_cif.got.tgz:3174.got - 2010.06.27 22:07:45.
