data_PCOD8067653
_publ_section_title
;
Structure prediction by ZEFSAII (Michael W. Deem and Ramdas Pophale) SiO2 
 PCOD8067653
Probable space group: P 2/M
;
_chemical_formula_sum "Si O2"
_cell_formula_units_Z 32
_cell_length_a 13.787010
_cell_length_b 9.494385
_cell_length_c 20.619671
_cell_angle_alpha 90.000000
_cell_angle_beta 138.381909
_cell_angle_gamma 90.000000
_cell_volume 1792.639152
_symmetry_space_group_name_H-M "P 2/M"
_symmetry_group_IT_number 10
_symmetry_cell_setting 'monoclinic'
loop_
_space_group_symop_operation_xyz
x,y,z
-x,y,-z
-x,-y,-z
x,-y,z
loop_
_atom_site_type_symbol
_atom_site_label
_atom_site_fract_x
_atom_site_fract_y
_atom_site_fract_z
Si Si1 0.329510 0.836113 0.540694
Si Si2 0.828565 0.832774 0.164247
Si Si3 0.671111 0.336660 0.975568
Si Si4 0.673453 0.344457 0.831634
Si Si5 0.166000 0.834025 0.333069
Si Si6 0.329539 0.836114 0.288928
Si Si7 0.326682 0.344456 0.658349
Si Si8 0.670732 0.336659 0.195253
O O1 0.243779 0.772556 0.436169
O O2 0.499978 0.805031 0.615116
O O3 0.267295 0.762053 0.574362
O O4 0.298177 0.000000 0.534326
O O5 0.757986 0.767040 0.192657
O O6 0.997905 0.791455 0.249029
O O7 0.803968 0.000000 0.151928
O O8 0.758515 0.767031 0.065423
O O9 0.705247 0.500000 0.008671
O O10 0.723018 0.298861 0.928506
O O11 0.500196 0.307365 0.899727
O O12 0.734547 0.500000 0.846265
O O13 0.732762 0.237942 0.806965
O O14 0.500066 0.347581 0.744300
O O15 0.243888 0.772557 0.307806
O O16 0.190285 0.000000 0.345209
O O17 0.298190 0.000000 0.263974
O O18 0.265556 0.500000 0.611912
O O19 0.277236 0.298853 0.705746
O O20 0.704854 0.500000 0.196262
#
# Coordination Sequence:
#
# PCOD8067653 Si02
#       8
#     4   4   4   4   4   4   4   4
#     4   9  16  29  52  75  93 121 161 198 231 276
#     4  11  22  33  47  69  98 129 160 198 236 273
#     4   9  18  34  54  72  94 126 158 191 237 288
#     4   8  15  29  49  73  98 120 147 191 243 285
#     4   9  19  34  47  66 100 133 158 190 238 285
#     4   9  16  29  52  75  93 121 161 198 231 276
#     4   8  15  29  49  73  98 120 147 191 243 285
#     4   9  18  34  54  72  94 126 158 191 237 288
#
# _framework density 17.850776
#
# number of rings (size 3 to 8) (size 9 to 14) (size 15 to 20)
#    0.000    3.000    0.000    2.625    0.000    4.500 
#    0.000    6.875    0.000   10.500    0.000    0.000 
#    0.000    0.000    0.000    0.000    0.000    0.000 
#
# Total GULP energy -396691.046683 kJ/mol
# GULP energy per Si atom -12396.595209 kJ/mol
# Density = 1.781015 g / cm^3
# Si number density = 17.850776 Si / 1000 Ang^3
#
#
#
# Elastic Constant Matrix: (Units=GPa)
#
#
# Indices 1 2 3 4 5 6 
#
# 1 147.2825 67.4922 49.0836 0.0000 -29.1086 0.0000
# 2 67.4922 81.6579 63.7820 0.0000 -17.9290 0.0000
# 3 49.0836 63.7820 134.8320 0.0000 -30.9769 0.0000
# 4 0.0000 0.0000 0.0000 21.6231 0.0000 -7.4540
# 5 -29.1086 -17.9290 -30.9769 0.0000 31.0090 0.0000
# 6 0.0000 0.0000 0.0000 -7.4540 0.0000 22.6895
#
#
#
# Elastic Compliance Matrix: (Units=1/GPa)
#
#
# Indices 1 2 3 4 5 6 
#
# 1 0.012221 -0.010016 0.002069 0.000000 0.007748 0.000000
# 2 -0.010016 0.027803 -0.010348 0.000000 -0.003664 0.000000
# 3 0.002069 -0.010348 0.013796 0.000000 0.009742 0.000000
# 4 0.000000 0.000000 0.000000 0.052153 0.000000 0.017133
# 5 0.007748 -0.003664 0.009742 0.000000 0.047135 0.000000
# 6 0.000000 0.000000 0.000000 0.017133 0.000000 0.049702
#
#
# Mechanical properties :
#
#
# Convention : Reuss Voigt Hill
#
# Bulk Modulus (GPa) = 58.03386 80.49866 69.26626
# Shear Modulus (GPa) = 20.39618 27.29196 23.84407
#
# Velocity S-wave (km/s) = 3.38389 3.91435 3.65875
# Velocity P-wave (km/s) = 6.91728 8.10079 7.53231
#
# Compressibility (1/GPa) = 0.01723132
#
# Stress axis : x y z
#
# Youngs Moduli (GPa) = 81.82353 35.96744 72.48296
#
# Poissons Ratio (x) = 0.36026 -0.14999
# Poissons Ratio (y) = 0.81958 0.75003
# Poissons Ratio (z) = -0.16932 0.37218
#
# Static dielectric constant tensor:
#      x y z
#    x 3.364430 0.000000 -0.328150 
#    y 0.000000 3.256670 0.000000 
#    z -0.328150 0.000000 3.319850 
# 
# 
# High freq. dielectric constant tensor:
#      x y z
#    x 1.685850 0.000000 -0.025640 
#    y 0.000000 1.675870 0.000000 
#    z -0.025640 0.000000 1.682310 
# 
# From -- ./inp_files/70027.got.cif
#   From: 2010.06.25/outbox.cif.g09.slc.cpg/sg10_36_cif.got.tgz:70027.got - 2010.06.27 22:07:45.
