data_PCOD8067572
_publ_section_title
;
Structure prediction by ZEFSAII (Michael W. Deem and Ramdas Pophale) SiO2 
 PCOD8067572
Probable space group: P 2/M
;
_chemical_formula_sum "Si O2"
_cell_formula_units_Z 24
_cell_length_a 14.003543
_cell_length_b 13.829654
_cell_length_c 11.695399
_cell_angle_alpha 90.000000
_cell_angle_beta 33.569037
_cell_angle_gamma 90.000000
_cell_volume 1252.400861
_symmetry_space_group_name_H-M "P 2/M"
_symmetry_group_IT_number 10
_symmetry_cell_setting 'monoclinic'
loop_
_space_group_symop_operation_xyz
x,y,z
-x,y,-z
-x,-y,-z
x,-y,z
loop_
_atom_site_type_symbol
_atom_site_label
_atom_site_fract_x
_atom_site_fract_y
_atom_site_fract_z
Si Si1 0.800419 0.798985 0.967396
Si Si2 0.312344 0.392164 0.828965
Si Si3 0.485046 0.111856 0.148706
Si Si4 0.281617 0.392077 0.600022
Si Si5 0.817212 0.200542 0.411535
Si Si6 0.303598 0.887402 0.698146
O O1 0.763776 0.683942 0.004244
O O2 0.663390 0.855932 0.028110
O O3 0.796228 0.833093 0.102517
O O4 0.992241 0.820615 0.727918
O O5 0.262366 0.500000 0.920228
O O6 0.236223 0.373665 0.778145
O O7 0.516435 0.379877 0.621189
O O8 0.324850 0.175533 0.351784
O O9 0.451858 0.000000 0.212852
O O10 0.500000 0.128912 0.000000
O O11 0.220989 0.500000 0.624799
O O12 0.185048 0.313840 0.618665
O O13 0.785062 0.134171 0.333520
O O14 0.500000 0.848551 0.500000
O O15 0.297904 0.000000 0.730287
#
# Coordination Sequence:
#
# PCOD8067572 Si02
#       6
#     4   4   4   4   4   4
#     4  12  23  37  61  91 123 156 193 244 301 358
#     4   9  17  32  56  87 125 164 197 231 281 352
#     4  11  26  47  66  83 110 155 209 258 300 348
#     4   9  17  32  56  87 125 164 197 231 281 352
#     4  12  23  37  61  91 123 156 193 244 301 358
#     4  11  21  35  56  84 122 161 192 234 296 362
#
# _framework density 19.163194000000001
#
# number of rings (size 3 to 8) (size 9 to 14) (size 15 to 20)
#    0.000    1.333    5.000    2.500    0.000    4.667 
#    0.000    3.333    0.000    2.000    0.000    2.333 
#    0.000    0.000    0.000    0.000    0.000    0.000 
#
# Total GULP energy -297635.690501 kJ/mol
# GULP energy per Si atom -12401.487104 kJ/mol
# Density = 1.911958 g / cm^3
# Si number density = 19.163194 Si / 1000 Ang^3
#
#
#
# Elastic Constant Matrix: (Units=GPa)
#
#
# Indices 1 2 3 4 5 6 
#
# 1 46.5733 12.0360 35.2039 0.0000 0.3787 0.0000
# 2 12.0360 81.8043 16.3332 0.0000 7.7771 0.0000
# 3 35.2039 16.3332 65.1068 0.0000 -16.3202 0.0000
# 4 0.0000 0.0000 0.0000 13.3211 0.0000 4.4827
# 5 0.3787 7.7771 -16.3202 0.0000 27.2418 0.0000
# 6 0.0000 0.0000 0.0000 4.4827 0.0000 18.3847
#
#
#
# Elastic Compliance Matrix: (Units=1/GPa)
#
#
# Indices 1 2 3 4 5 6 
#
# 1 0.041933 0.000887 -0.027189 0.000000 -0.017124 0.000000
# 2 0.000887 0.013981 -0.005873 0.000000 -0.007522 0.000000
# 3 -0.027189 -0.005873 0.037712 0.000000 0.024647 0.000000
# 4 0.000000 0.000000 0.000000 0.081779 0.000000 -0.019940
# 5 -0.017124 -0.007522 0.024647 0.000000 0.053860 0.000000
# 6 0.000000 0.000000 0.000000 -0.019940 0.000000 0.059255
#
#
# Mechanical properties :
#
#
# Convention : Reuss Voigt Hill
#
# Bulk Modulus (GPa) = 34.15548 35.62563 34.89055
# Shear Modulus (GPa) = 13.78822 20.45026 17.11924
#
# Velocity S-wave (km/s) = 2.68529 3.27029 2.99212
# Velocity P-wave (km/s) = 5.24181 5.73505 5.49396
#
# Compressibility (1/GPa) = 0.02927788
#
# Stress axis : x y z
#
# Youngs Moduli (GPa) = 23.84759 71.52332 26.51672
#
# Poissons Ratio (x) = -0.06343 0.72095
# Poissons Ratio (y) = -0.02115 0.15572
# Poissons Ratio (z) = 0.64838 0.42003
#
# Static dielectric constant tensor:
#      x y z
#    x 3.204940 0.000000 -0.170180 
#    y 0.000000 3.836250 0.000000 
#    z -0.170180 0.000000 3.410330 
# 
# 
# High freq. dielectric constant tensor:
#      x y z
#    x 1.709050 0.000000 -0.025960 
#    y 0.000000 1.765230 0.000000 
#    z -0.025960 0.000000 1.732890 
# 
# From -- ./inp_files/51498.got.cif
#   From: 2010.06.25/outbox.cif.g09.slc.cpg/sg10_26_cif.got.tgz:51498.got - 2010.06.27 22:07:45.
