data_PCOD8067774
_publ_section_title
;
Structure prediction by ZEFSAII (Michael W. Deem and Ramdas Pophale) SiO2 
 PCOD8067774
Probable space group: P 2/M
;
_chemical_formula_sum "Si O2"
_cell_formula_units_Z 28
_cell_length_a 22.353801
_cell_length_b 8.824793
_cell_length_c 24.703192
_cell_angle_alpha 90.000000
_cell_angle_beta 162.858887
_cell_angle_gamma 90.000000
_cell_volume 1436.241784
_symmetry_space_group_name_H-M "P 2/M"
_symmetry_group_IT_number 10
_symmetry_cell_setting 'monoclinic'
loop_
_space_group_symop_operation_xyz
x,y,z
-x,y,-z
-x,-y,-z
x,-y,z
loop_
_atom_site_type_symbol
_atom_site_label
_atom_site_fract_x
_atom_site_fract_y
_atom_site_fract_z
Si Si1 0.635925 0.834025 0.572808
Si Si2 0.857711 0.179576 0.666427
Si Si3 0.238042 0.321677 0.050993
Si Si4 0.060462 0.167284 0.994973
Si Si5 0.345899 0.177391 0.619897
Si Si6 0.144964 0.679360 0.548989
Si Si7 0.295954 0.321325 0.795944
O O1 0.500000 0.741447 0.500000
O O2 0.666875 0.761808 0.539749
O O3 0.532070 0.000000 0.476856
O O4 0.863340 0.849045 0.788953
O O5 0.804679 0.220570 0.559250
O O6 0.064890 0.261824 0.861076
O O7 0.885136 0.000000 0.699086
O O8 0.225214 0.500000 0.041463
O O9 0.219949 0.263202 0.097609
O O10 0.448233 0.270002 0.207259
O O11 0.154121 0.000000 0.087634
O O12 0.000000 0.246015 0.000000
O O13 0.235730 0.223972 0.579227
O O14 0.397250 0.000000 0.664351
O O15 0.163358 0.500000 0.553955
O O16 0.272460 0.725981 0.712808
O O17 0.908881 0.728813 0.350066
O O18 0.312483 0.500000 0.813531
O O19 0.500000 0.249233 0.000000
#
# Coordination Sequence:
#
# PCOD8067774 Si02
#       7
#     4   4   4   4   4   4   4
#     4   8  14  26  48  75  96 122 172 229 274 323
#     4   9  20  38  57  78 107 144 189 238 284 339
#     4  11  23  38  56  79 113 149 186 237 292 347
#     4   9  18  32  53  77 103 138 183 231 281 345
#     4  11  23  38  59  83 115 155 194 237 287 342
#     4   9  18  33  54  84 115 144 190 235 270 325
#     4   8  15  31  56  83 114 151 186 225 271 322
#
# _framework density 19.495324
#
# number of rings (size 3 to 8) (size 9 to 14) (size 15 to 20)
#    0.000    2.714    0.000    3.429    2.000    2.571 
#    0.000    2.857    0.000    2.571    0.000    0.000 
#    0.000    0.000    0.000    0.000    0.000    0.000 
#
# Total GULP energy -346912.966869 kJ/mol
# GULP energy per Si atom -12389.748817 kJ/mol
# Density = 1.945095 g / cm^3
# Si number density = 19.495324 Si / 1000 Ang^3
#
#
#
# Elastic Constant Matrix: (Units=GPa)
#
#
# Indices 1 2 3 4 5 6 
#
# 1 158.4635 35.2529 63.0620 0.0000 3.6651 0.0000
# 2 35.2529 61.8383 32.3173 0.0000 0.5650 0.0000
# 3 63.0620 32.3173 113.7840 0.0000 -0.2216 0.0000
# 4 0.0000 0.0000 0.0000 6.3196 0.0000 7.3977
# 5 3.6651 0.5650 -0.2216 0.0000 26.6994 0.0000
# 6 0.0000 0.0000 0.0000 7.3977 0.0000 24.4022
#
#
#
# Elastic Compliance Matrix: (Units=1/GPa)
#
#
# Indices 1 2 3 4 5 6 
#
# 1 0.008524 -0.002793 -0.003933 0.000000 -0.001144 0.000000
# 2 -0.002793 0.019911 -0.004107 0.000000 -0.000072 0.000000
# 3 -0.003933 -0.004107 0.012136 0.000000 0.000727 0.000000
# 4 0.000000 0.000000 0.000000 0.245282 0.000000 -0.074359
# 5 -0.001144 -0.000072 0.000727 0.000000 0.037619 0.000000
# 6 0.000000 0.000000 0.000000 -0.074359 0.000000 0.063522
#
#
# Mechanical properties :
#
#
# Convention : Reuss Voigt Hill
#
# Bulk Modulus (GPa) = 52.89909 66.15002 59.52455
# Shear Modulus (GPa) = 12.04932 25.04782 18.54857
#
# Velocity S-wave (km/s) = 2.48878 3.58832 3.08788
# Velocity P-wave (km/s) = 5.95415 7.15352 6.58121
#
# Compressibility (1/GPa) = 0.01890392
#
# Stress axis : x y z
#
# Youngs Moduli (GPa) = 117.32149 50.22416 82.39821
#
# Poissons Ratio (x) = 0.14029 0.32406
# Poissons Ratio (y) = 0.32772 0.33842
# Poissons Ratio (z) = 0.46141 0.20628
#
# Static dielectric constant tensor:
#      x y z
#    x 3.796700 0.000000 -0.072000 
#    y 0.000000 3.185770 0.000000 
#    z -0.072000 0.000000 3.719260 
# 
# 
# High freq. dielectric constant tensor:
#      x y z
#    x 1.772300 0.000000 -0.000340 
#    y 0.000000 1.712560 0.000000 
#    z -0.000340 0.000000 1.761300 
# 
# From -- ./inp_files/90400.got.cif
#   From: 2010.06.25/outbox.cif.g09.slc.cpg/sg10_46_cif.got.tgz:90400.got - 2010.06.27 22:07:45.
