data_PCOD8067825
_publ_section_title
;
Structure prediction by ZEFSAII (Michael W. Deem and Ramdas Pophale) SiO2 
 PCOD8067825
Probable space group: P 2/M
;
_chemical_formula_sum "Si O2"
_cell_formula_units_Z 22
_cell_length_a 7.850981
_cell_length_b 9.794501
_cell_length_c 18.688188
_cell_angle_alpha 90.000000
_cell_angle_beta 45.616364
_cell_angle_gamma 90.000000
_cell_volume 1027.023766
_symmetry_space_group_name_H-M "P 2/M"
_symmetry_group_IT_number 10
_symmetry_cell_setting 'monoclinic'
loop_
_space_group_symop_operation_xyz
x,y,z
-x,y,-z
-x,-y,-z
x,-y,z
loop_
_atom_site_type_symbol
_atom_site_label
_atom_site_fract_x
_atom_site_fract_y
_atom_site_fract_z
Si Si1 0.077275 0.843839 0.591720
Si Si2 0.524793 0.847085 0.075537
Si Si3 0.618636 0.845662 0.629248
Si Si4 0.795087 0.649736 0.201361
Si Si5 0.878936 0.342321 0.764164
Si Si6 0.000000 0.755295 0.000000
O O1 0.840774 0.823153 0.615265
O O2 0.072219 0.734149 0.657132
O O3 0.305496 0.811229 0.474652
O O4 0.093277 0.000000 0.615798
O O5 0.371660 0.738599 0.166620
O O6 0.423849 0.000000 0.118160
O O7 0.500000 0.807474 0.000000
O O8 0.798308 0.846905 0.021200
O O9 0.403032 0.756293 0.719150
O O10 0.527331 0.000000 0.660409
O O11 0.683798 0.500000 0.245186
O O12 0.026834 0.667565 0.182861
O O13 0.877361 0.661810 0.095612
O O14 0.842876 0.500000 0.750488
#
# Coordination Sequence:
#
# PCOD8067825 Si02
#       6
#     4   4   4   4   4   2
#     4   9  19  39  64  91 122 161 205 260 318 377
#     4  11  24  43  66  94 125 163 210 263 315 373
#     4   9  20  39  64  91 122 159 208 261 317 377
#     4  11  25  41  60  89 126 168 214 260 315 376
#     4  11  24  41  61  91 129 168 207 259 316 376
#     4  12  24  44  68  94 124 170 214 264 316 376
#
# _framework density 21.421122
#
# number of rings (size 3 to 8) (size 9 to 14) (size 15 to 20)
#    0.000    1.636    1.818    3.273    0.000    9.818 
#    0.000    5.455    0.000    0.000    0.000    0.000 
#    0.000    0.000    0.000    0.000    0.000    0.000 
#
# Total GULP energy -272810.665372 kJ/mol
# GULP energy per Si atom -12400.484790 kJ/mol
# Density = 2.137237 g / cm^3
# Si number density = 21.421122 Si / 1000 Ang^3
#
#
#
# Elastic Constant Matrix: (Units=GPa)
#
#
# Indices 1 2 3 4 5 6 
#
# 1 76.7088 33.7594 40.6913 0.0000 7.0563 0.0000
# 2 33.7594 147.4768 81.9408 0.0000 0.6196 0.0000
# 3 40.6913 81.9408 133.3390 0.0000 -0.7119 0.0000
# 4 0.0000 0.0000 0.0000 7.1745 0.0000 30.4075
# 5 7.0563 0.6196 -0.7119 0.0000 34.4550 0.0000
# 6 0.0000 0.0000 0.0000 30.4075 0.0000 -27.0717
#
#
#
# Elastic Compliance Matrix: (Units=1/GPa)
#
#
# Indices 1 2 3 4 5 6 
#
# 1 0.016127 -0.001417 -0.004069 0.000000 -0.003361 0.000000
# 2 -0.001417 0.010424 -0.005974 0.000000 -0.000021 0.000000
# 3 -0.004069 -0.005974 0.012419 0.000000 0.001197 0.000000
# 4 0.000000 0.000000 0.000000 0.024196 0.000000 0.027178
# 5 -0.003361 -0.000021 0.001197 0.000000 0.029737 0.000000
# 6 0.000000 0.000000 0.000000 0.027178 0.000000 -0.006412
#
#
# Mechanical properties :
#
#
# Convention : Reuss Voigt Hill
#
# Bulk Modulus (GPa) = 62.29933 74.47861 68.38897
# Shear Modulus (GPa) = 43.56889 16.32043 29.94466
#
# Velocity S-wave (km/s) = 4.51479 2.76322 3.74291
# Velocity P-wave (km/s) = 7.50494 6.71005 7.11860
#
# Compressibility (1/GPa) = 0.01605154
#
# Stress axis : x y z
#
# Youngs Moduli (GPa) = 62.00595 95.92978 80.52305
#
# Poissons Ratio (x) = 0.13593 0.32764
# Poissons Ratio (y) = 0.08786 0.48102
# Poissons Ratio (z) = 0.25229 0.57306
#
# Static dielectric constant tensor:
#      x y z
#    x 3.844860 0.000000 0.093220 
#    y 0.000000 3.826380 0.000000 
#    z 0.093220 0.000000 4.244010 
# 
# 
# High freq. dielectric constant tensor:
#      x y z
#    x 1.840770 0.000000 0.007920 
#    y 0.000000 1.837320 0.000000 
#    z 0.007920 0.000000 1.843210 
# 
# From -- ./inp_files/81905.got.cif
#   From: 2010.06.25/outbox.cif.g09.slc.cpg/sg10_41_cif.got.tgz:81905.got - 2010.06.27 22:07:45.
