data_PCOD8067848
_publ_section_title
;
Structure prediction by ZEFSAII (Michael W. Deem and Ramdas Pophale) SiO2 
 PCOD8067848
Probable space group: P 2/M
;
_chemical_formula_sum "Si O2"
_cell_formula_units_Z 22
_cell_length_a 10.176196
_cell_length_b 15.345990
_cell_length_c 6.699424
_cell_angle_alpha 90.000000
_cell_angle_beta 103.261864
_cell_angle_gamma 90.000000
_cell_volume 1018.307029
_symmetry_space_group_name_H-M "P 2/M"
_symmetry_group_IT_number 10
_symmetry_cell_setting 'monoclinic'
loop_
_space_group_symop_operation_xyz
x,y,z
-x,y,-z
-x,-y,-z
x,-y,z
loop_
_atom_site_type_symbol
_atom_site_label
_atom_site_fract_x
_atom_site_fract_y
_atom_site_fract_z
Si Si1 0.000000 0.356250 0.000000
Si Si2 0.500000 0.206547 0.500000
Si Si3 0.181417 0.780695 0.912159
Si Si4 0.591626 0.327162 0.202405
Si Si5 0.000000 0.849810 0.500000
Si Si6 0.930661 0.500000 0.683778
Si Si7 0.762186 0.099055 0.699086
Si Si8 0.356045 0.500000 0.559089
O O1 0.132989 0.297623 0.035385
O O2 0.987919 0.413693 0.801148
O O3 0.495937 0.272972 0.314980
O O4 0.635034 0.148655 0.557280
O O5 0.314905 0.749144 0.850604
O O6 0.071130 0.794955 0.699619
O O7 0.200406 0.862613 0.068383
O O8 0.665039 0.410999 0.323150
O O9 0.500000 0.369313 0.000000
O O10 0.884827 0.903255 0.580361
O O11 0.767844 0.500000 0.638239
O O12 0.000000 0.500000 0.500000
O O13 0.719184 0.000000 0.724875
O O14 0.500000 0.500000 0.500000
#
# Coordination Sequence:
#
# PCOD8067848 Si02
#       8
#     2   2   4   4   2   2   4   2
#     4  11  26  44  71 100 142 184 235 288 354 423
#     4  12  25  49  74 106 140 194 238 281 361 438
#     4  12  26  44  76 105 140 188 238 295 351 432
#     4  12  26  47  73 103 144 188 240 290 357 417
#     4  12  25  46  74 105 138 188 228 293 362 418
#     4  11  27  47  68 102 141 187 234 290 350 431
#     4  12  27  48  73 109 144 183 240 300 358 426
#     4  12  28  43  73 105 144 183 237 300 344 418
#
# _framework density 21.604486000000001
#
# number of rings (size 3 to 8) (size 9 to 14) (size 15 to 20)
#    0.000    0.182    6.364    1.909    8.909    2.909 
#    0.000    0.909    0.000    0.000    0.000    0.000 
#    0.000    0.000    0.000    0.000    0.000    0.000 
#
# Total GULP energy -272689.475324 kJ/mol
# GULP energy per Si atom -12394.976151 kJ/mol
# Density = 2.155531 g / cm^3
# Si number density = 21.604486 Si / 1000 Ang^3
#
#
#
# Elastic Constant Matrix: (Units=GPa)
#
#
# Indices 1 2 3 4 5 6 
#
# 1 100.9882 23.8285 28.6574 0.0000 -8.9951 0.0000
# 2 23.8285 139.6761 45.9525 0.0000 -5.5219 0.0000
# 3 28.6574 45.9525 114.9853 0.0000 -1.5615 0.0000
# 4 0.0000 0.0000 0.0000 34.7996 0.0000 4.1574
# 5 -8.9951 -5.5219 -1.5615 0.0000 43.6025 0.0000
# 6 0.0000 0.0000 0.0000 4.1574 0.0000 16.1163
#
#
#
# Elastic Compliance Matrix: (Units=1/GPa)
#
#
# Indices 1 2 3 4 5 6 
#
# 1 0.010981 -0.001037 -0.002294 0.000000 0.002052 0.000000
# 2 -0.001037 0.008379 -0.003080 0.000000 0.000737 0.000000
# 3 -0.002294 -0.003080 0.010493 0.000000 -0.000488 0.000000
# 4 0.000000 0.000000 0.000000 0.029650 0.000000 -0.007649
# 5 0.002052 0.000737 -0.000488 0.000000 0.023434 0.000000
# 6 0.000000 0.000000 0.000000 -0.007649 0.000000 0.064022
#
#
# Mechanical properties :
#
#
# Convention : Reuss Voigt Hill
#
# Bulk Modulus (GPa) = 58.72278 61.39182 60.05730
# Shear Modulus (GPa) = 30.21930 36.05109 33.13520
#
# Velocity S-wave (km/s) = 3.74405 4.08939 3.92052
# Velocity P-wave (km/s) = 6.77719 7.12568 6.95362
#
# Compressibility (1/GPa) = 0.01702917
#
# Stress axis : x y z
#
# Youngs Moduli (GPa) = 91.06875 119.34879 95.30354
#
# Poissons Ratio (x) = 0.12381 0.21865
# Poissons Ratio (y) = 0.09447 0.29353
# Poissons Ratio (z) = 0.20893 0.36759
#
# Static dielectric constant tensor:
#      x y z
#    x 4.012600 0.000000 -0.078760 
#    y 0.000000 3.830020 0.000000 
#    z -0.078760 0.000000 3.765990 
# 
# 
# High freq. dielectric constant tensor:
#      x y z
#    x 1.858400 0.000000 -0.004110 
#    y 0.000000 1.851150 0.000000 
#    z -0.004110 0.000000 1.862260 
# 
# From -- ./inp_files/6857.got.cif
#   From: 2010.06.25/outbox.cif.g09.slc.cpg/sg10_4_cif.got.tgz:6857.got - 2010.06.27 22:07:45.
