data_PCOD8067088
_publ_section_title
;
Structure prediction by ZEFSAII (Michael W. Deem and Ramdas Pophale) SiO2 
 PCOD8067088
Probable space group: P 2/M
;
_chemical_formula_sum "Si O2"
_cell_formula_units_Z 28
_cell_length_a 24.406357
_cell_length_b 8.955700
_cell_length_c 22.113915
_cell_angle_alpha 90.000000
_cell_angle_beta 17.160973
_cell_angle_gamma 90.000000
_cell_volume 1426.180479
_symmetry_space_group_name_H-M "P 2/M"
_symmetry_group_IT_number 10
_symmetry_cell_setting 'monoclinic'
loop_
_space_group_symop_operation_xyz
x,y,z
-x,y,-z
-x,-y,-z
x,-y,z
loop_
_atom_site_type_symbol
_atom_site_label
_atom_site_fract_x
_atom_site_fract_y
_atom_site_fract_z
Si Si1 0.385677 0.323225 0.343086
Si Si2 0.627523 0.172414 0.186107
Si Si3 0.570975 0.334695 0.362290
Si Si4 0.995793 0.665300 0.937471
Si Si5 0.058930 0.827586 0.754701
Si Si6 0.549046 0.823258 0.852892
Si Si7 0.205024 0.823814 0.294984
O O1 0.383674 0.500000 0.349111
O O2 0.553187 0.261811 0.207164
O O3 0.186561 0.261850 0.573805
O O4 0.420446 0.271675 0.238701
O O5 0.519333 0.230418 0.360151
O O6 0.577230 0.000000 0.231348
O O7 0.847334 0.198384 0.958083
O O8 0.500000 0.261614 0.500000
O O9 0.480285 0.500000 0.450148
O O10 0.789120 0.350832 0.132673
O O11 0.089324 0.500000 0.841102
O O12 0.101218 0.769609 0.778273
O O13 0.000000 0.738383 0.000000
O O14 0.114283 0.000000 0.694291
O O15 0.711927 0.775861 0.727743
O O16 0.556117 0.000000 0.831702
O O17 0.348408 0.775920 0.091269
O O18 0.000000 0.751936 0.500000
O O19 0.187743 0.000000 0.312284
#
# Coordination Sequence:
#
# PCOD8067088 Si02
#       7
#     4   4   4   4   4   4   4
#     4  12  25  39  59  84 118 160 198 240 294 352
#     4  10  22  40  59  81 110 146 192 245 295 346
#     4   9  18  32  51  77 108 142 181 226 284 355
#     4   9  18  32  51  77 108 142 181 226 284 355
#     4  10  22  40  59  81 110 146 192 245 295 346
#     4   9  18  34  56  86 118 148 194 240 274 330
#     4   8  15  31  58  88 118 152 188 231 280 327
#
# _framework density 19.632857999999999
#
# number of rings (size 3 to 8) (size 9 to 14) (size 15 to 20)
#    0.000    2.429    0.000    3.000    2.000    3.429 
#    0.000    4.286    0.000    0.857    0.000    0.000 
#    0.000    0.000    0.000    0.000    0.000    0.000 
#
# Total GULP energy -347107.371420 kJ/mol
# GULP energy per Si atom -12396.691836 kJ/mol
# Density = 1.958817 g / cm^3
# Si number density = 19.632858 Si / 1000 Ang^3
#
#
#
# Elastic Constant Matrix: (Units=GPa)
#
#
# Indices 1 2 3 4 5 6 
#
# 1 144.6174 68.9192 73.4903 0.0000 22.2461 0.0000
# 2 68.9192 120.7522 53.1141 0.0000 14.9213 0.0000
# 3 73.4903 53.1141 112.4343 0.0000 8.0649 0.0000
# 4 0.0000 0.0000 0.0000 445.5516 0.0000 718.7797
# 5 22.2461 14.9213 8.0649 0.0000 37.1358 0.0000
# 6 0.0000 0.0000 0.0000 718.7797 0.0000 1207.5150
#
#
#
# Elastic Compliance Matrix: (Units=1/GPa)
#
#
# Indices 1 2 3 4 5 6 
#
# 1 0.012569 -0.003956 -0.006014 0.000000 -0.004634 0.000000
# 2 -0.003956 0.012081 -0.002990 0.000000 -0.001835 0.000000
# 3 -0.006014 -0.002990 0.014113 0.000000 0.001739 0.000000
# 4 0.000000 0.000000 0.000000 0.056516 0.000000 -0.033641
# 5 -0.004634 -0.001835 0.001739 0.000000 0.030064 0.000000
# 6 0.000000 0.000000 0.000000 -0.033641 0.000000 0.020853
#
#
# Mechanical properties :
#
#
# Convention : Reuss Voigt Hill
#
# Bulk Modulus (GPa) = 77.86330 85.42789 81.64560
# Shear Modulus (GPa) = 28.34511 350.19250 189.26880
#
# Velocity S-wave (km/s) = 3.80380 13.37004 9.82921
# Velocity P-wave (km/s) = 7.68360 16.79140 13.05735
#
# Compressibility (1/GPa) = 0.01284302
#
# Stress axis : x y z
#
# Youngs Moduli (GPa) = 79.56000 82.77438 70.85667
#
# Poissons Ratio (x) = 0.32743 0.42617
# Poissons Ratio (y) = 0.31471 0.21186
# Poissons Ratio (z) = 0.47851 0.24749
#
# Static dielectric constant tensor:
#      x y z
#    x 3.655930 0.000000 -0.080350 
#    y 0.000000 3.528610 0.000000 
#    z -0.080350 0.000000 3.740410 
# 
# 
# High freq. dielectric constant tensor:
#      x y z
#    x 1.768160 0.000000 -0.002470 
#    y 0.000000 1.743270 0.000000 
#    z -0.002470 0.000000 1.770750 
# 
# From -- ./inp_files/86429.got.cif
#   From: 2010.06.25/outbox.cif.g09.slc.cpg/sg10_44_cif.got.tgz:86429.got - 2010.06.27 22:07:45.
