data_PCOD8067856
_publ_section_title
;
Structure prediction by ZEFSAII (Michael W. Deem and Ramdas Pophale) SiO2 
 PCOD8067856
Probable space group: P 2/M
;
_chemical_formula_sum "Si O2"
_cell_formula_units_Z 20
_cell_length_a 18.639201
_cell_length_b 7.534480
_cell_length_c 10.230585
_cell_angle_alpha 90.000000
_cell_angle_beta 47.244382
_cell_angle_gamma 90.000000
_cell_volume 1054.941840
_symmetry_space_group_name_H-M "P 2/M"
_symmetry_group_IT_number 10
_symmetry_cell_setting 'monoclinic'
loop_
_space_group_symop_operation_xyz
x,y,z
-x,y,-z
-x,-y,-z
x,-y,z
loop_
_atom_site_type_symbol
_atom_site_label
_atom_site_fract_x
_atom_site_fract_y
_atom_site_fract_z
Si Si1 0.797855 0.204872 0.531997
Si Si2 0.426780 0.790109 0.483880
Si Si3 0.794391 0.203383 0.231002
Si Si4 0.938887 0.500000 0.444653
Si Si5 0.072509 0.500000 0.029797
Si Si6 0.576515 0.789226 0.801085
O O1 0.818163 0.235537 0.353679
O O2 0.871452 0.325066 0.523630
O O3 0.686995 0.263879 0.702937
O O4 0.815339 0.000000 0.548455
O O5 0.500000 0.705034 0.500000
O O6 0.316926 0.741781 0.660764
O O7 0.449371 0.713248 0.311095
O O8 0.439642 0.000000 0.462948
O O9 0.861905 0.323610 0.056916
O O10 0.814238 0.000000 0.168084
O O11 0.000000 0.500000 0.500000
O O12 0.016295 0.500000 0.233700
O O13 0.000000 0.500000 0.000000
O O14 0.569090 0.000000 0.806491
O O15 0.500000 0.708152 0.000000
#
# Coordination Sequence:
#
# PCOD8067856 Si02
#       6
#     4   4   4   2   2   4
#     4   9  18  36  60  82 108 144 181 220 270 323
#     4   8  14  27  48  77 113 141 163 209 267 309
#     4   9  18  34  59  87 109 137 183 225 262 321
#     4  12  26  42  55  76 112 142 177 236 284 316
#     4  12  22  38  61  80 100 142 187 230 274 318
#     4   8  14  27  50  78 106 139 177 209 248 317
#
# _framework density 18.958392
#
# number of rings (size 3 to 8) (size 9 to 14) (size 15 to 20)
#    0.000    2.800    2.000    2.400    0.000    1.600 
#    3.600    1.000    0.000    0.000    0.000    0.000 
#    0.000    0.000    0.000    0.000    0.000    0.000 
#
# Total GULP energy -247934.785218 kJ/mol
# GULP energy per Si atom -12396.739261 kJ/mol
# Density = 1.891524 g / cm^3
# Si number density = 18.958392 Si / 1000 Ang^3
#
#
#
# Elastic Constant Matrix: (Units=GPa)
#
#
# Indices 1 2 3 4 5 6 
#
# 1 169.8632 53.1809 74.0639 0.0000 0.2189 0.0000
# 2 53.1809 79.5972 46.3946 0.0000 -7.9690 0.0000
# 3 74.0639 46.3946 149.2728 0.0000 -11.6824 0.0000
# 4 0.0000 0.0000 0.0000 -30.0747 0.0000 86.2369
# 5 0.2189 -7.9690 -11.6824 0.0000 21.1360 0.0000
# 6 0.0000 0.0000 0.0000 86.2369 0.0000 -158.5137
#
#
#
# Elastic Compliance Matrix: (Units=1/GPa)
#
#
# Indices 1 2 3 4 5 6 
#
# 1 0.008626 -0.004223 -0.003239 0.000000 -0.003472 0.000000
# 2 -0.004223 0.017632 -0.002991 0.000000 0.005039 0.000000
# 3 -0.003239 -0.002991 0.009564 0.000000 0.004192 0.000000
# 4 0.000000 0.000000 0.000000 0.059378 0.000000 0.032304
# 5 -0.003472 0.005039 0.004192 0.000000 0.051566 0.000000
# 6 0.000000 0.000000 0.000000 0.032304 0.000000 0.011266
#
#
# Mechanical properties :
#
#
# Convention : Reuss Voigt Hill
#
# Bulk Modulus (GPa) = 67.03802 82.89021 74.96411
# Shear Modulus (GPa) = 27.18734 -18.48422 4.35156
#
# Velocity S-wave (km/s) = 3.79100 -3.12587 1.51667
# Velocity P-wave (km/s) = 7.38915 5.54879 6.53409
#
# Compressibility (1/GPa) = 0.01491691
#
# Stress axis : x y z
#
# Youngs Moduli (GPa) = 115.92862 56.71434 104.56004
#
# Poissons Ratio (x) = 0.23950 0.33869
# Poissons Ratio (y) = 0.48955 0.31270
# Poissons Ratio (z) = 0.37551 0.16961
#
# Static dielectric constant tensor:
#      x y z
#    x 3.601520 0.000000 -0.057590 
#    y 0.000000 3.291810 0.000000 
#    z -0.057590 0.000000 3.560980 
# 
# 
# High freq. dielectric constant tensor:
#      x y z
#    x 1.725730 0.000000 -0.017870 
#    y 0.000000 1.728810 0.000000 
#    z -0.017870 0.000000 1.725430 
# 
# From -- ./inp_files/31462.got.cif
#   From: 2010.06.25/outbox.cif.g09.slc.cpg/sg10_16_cif.got.tgz:31462.got - 2010.06.27 22:07:45.
