data_PCOD8067058
_publ_section_title
;
Structure prediction by ZEFSAII (Michael W. Deem and Ramdas Pophale) SiO2 
 PCOD8067058
Probable space group: P 2/M
;
_chemical_formula_sum "Si O2"
_cell_formula_units_Z 20
_cell_length_a 16.430122
_cell_length_b 7.605728
_cell_length_c 27.850561
_cell_angle_alpha 90.000000
_cell_angle_beta 16.531541
_cell_angle_gamma 90.000000
_cell_volume 990.292808
_symmetry_space_group_name_H-M "P 2/M"
_symmetry_group_IT_number 10
_symmetry_cell_setting 'monoclinic'
loop_
_space_group_symop_operation_xyz
x,y,z
-x,y,-z
-x,-y,-z
x,-y,z
loop_
_atom_site_type_symbol
_atom_site_label
_atom_site_fract_x
_atom_site_fract_y
_atom_site_fract_z
Si Si1 0.739085 0.705884 0.902453
Si Si2 0.317432 0.000000 0.803558
Si Si3 0.330666 0.000000 0.299749
Si Si4 0.636006 0.801351 0.471145
Si Si5 0.260690 0.305978 0.764808
Si Si6 0.655631 0.293183 0.060003
O O1 0.795690 0.500000 0.867622
O O2 0.023667 0.802092 0.724353
O O3 0.500000 0.767492 0.000000
O O4 0.654315 0.759317 0.004568
O O5 0.523394 0.000000 0.731579
O O6 0.369251 0.824172 0.744195
O O7 0.000000 0.000000 0.000000
O O8 0.416112 0.824633 0.221748
O O9 0.000000 0.000000 0.500000
O O10 0.500000 0.720955 0.500000
O O11 0.515001 0.683415 0.582376
O O12 0.526440 0.000000 0.541259
O O13 0.221948 0.500000 0.809230
O O14 0.964402 0.244248 0.907721
O O15 0.584139 0.500000 0.107358
#
# Coordination Sequence:
#
# PCOD8067058 Si02
#       6
#     4   2   2   4   4   4
#     4  10  22  39  61  93 132 172 208 250 304 375
#     4  12  24  44  66  93 124 153 217 279 309 373
#     4  12  28  46  68  92 126 165 210 271 330 376
#     4  11  22  35  61  95 130 167 206 254 304 369
#     4  11  22  39  68  98 127 166 212 263 317 369
#     4  10  22  42  68  94 126 169 213 258 318 380
#
# _framework density 20.196048999999999
#
# number of rings (size 3 to 8) (size 9 to 14) (size 15 to 20)
#    0.000    1.200    5.000    0.600    1.400    4.400 
#    0.000    2.000    0.000    0.000    0.000    0.000 
#    0.000    0.000    0.000    0.000    0.000    0.000 
#
# Total GULP energy -248040.838247 kJ/mol
# GULP energy per Si atom -12402.041912 kJ/mol
# Density = 2.015008 g / cm^3
# Si number density = 20.196049 Si / 1000 Ang^3
#
#
#
# Elastic Constant Matrix: (Units=GPa)
#
#
# Indices 1 2 3 4 5 6 
#
# 1 130.2790 40.4749 56.9886 0.0000 0.1597 0.0000
# 2 40.4749 95.4404 43.9240 0.0000 10.3556 0.0000
# 3 56.9886 43.9240 150.2783 0.0000 2.1838 0.0000
# 4 0.0000 0.0000 0.0000 26.9862 0.0000 -6.3389
# 5 0.1597 10.3556 2.1838 0.0000 34.2641 0.0000
# 6 0.0000 0.0000 0.0000 -6.3389 0.0000 -23.8413
#
#
#
# Elastic Compliance Matrix: (Units=1/GPa)
#
#
# Indices 1 2 3 4 5 6 
#
# 1 0.009858 -0.002964 -0.002887 0.000000 0.001034 0.000000
# 2 -0.002964 0.013416 -0.002741 0.000000 -0.003866 0.000000
# 3 -0.002887 -0.002741 0.008546 0.000000 0.000297 0.000000
# 4 0.000000 0.000000 0.000000 0.034878 0.000000 -0.009273
# 5 0.001034 -0.003866 0.000297 0.000000 0.030330 0.000000
# 6 0.000000 0.000000 0.000000 -0.009273 0.000000 -0.039478
#
#
# Mechanical properties :
#
#
# Convention : Reuss Voigt Hill
#
# Bulk Modulus (GPa) = 68.32685 73.19697 70.76191
# Shear Modulus (GPa) = 62.80425 23.12248 42.96336
#
# Velocity S-wave (km/s) = 5.58254 3.38731 4.61729
# Velocity P-wave (km/s) = 8.68667 7.18473 7.97116
#
# Compressibility (1/GPa) = 0.01463554
#
# Stress axis : x y z
#
# Youngs Moduli (GPa) = 101.43592 74.53905 117.01386
#
# Poissons Ratio (x) = 0.22095 0.33784
# Poissons Ratio (y) = 0.30068 0.32073
# Poissons Ratio (z) = 0.29286 0.20431
#
# Static dielectric constant tensor:
#      x y z
#    x 3.720260 0.000000 0.147360 
#    y 0.000000 3.635960 0.000000 
#    z 0.147360 0.000000 3.562980 
# 
# 
# High freq. dielectric constant tensor:
#      x y z
#    x 1.787190 0.000000 0.009000 
#    y 0.000000 1.799260 0.000000 
#    z 0.009000 0.000000 1.782170 
# 
# From -- ./inp_files/89316.got.cif
#   From: 2010.06.25/outbox.cif.g09.slc.cpg/sg10_45_cif.got.tgz:89316.got - 2010.06.27 22:07:45.
