data_PCOD8067884
_publ_section_title
;
Structure prediction by ZEFSAII (Michael W. Deem and Ramdas Pophale) SiO2 
 PCOD8067884
Probable space group: P 2/M
;
_chemical_formula_sum "Si O2"
_cell_formula_units_Z 28
_cell_length_a 16.157615
_cell_length_b 9.930716
_cell_length_c 12.442813
_cell_angle_alpha 90.000000
_cell_angle_beta 104.756446
_cell_angle_gamma 90.000000
_cell_volume 1930.681481
_symmetry_space_group_name_H-M "P 2/M"
_symmetry_group_IT_number 10
_symmetry_cell_setting 'monoclinic'
loop_
_space_group_symop_operation_xyz
x,y,z
-x,y,-z
-x,-y,-z
x,-y,z
loop_
_atom_site_type_symbol
_atom_site_label
_atom_site_fract_x
_atom_site_fract_y
_atom_site_fract_z
Si Si1 0.738319 0.654357 0.943810
Si Si2 0.487548 0.660104 0.663579
Si Si3 0.799726 0.654582 0.721699
Si Si4 0.060000 0.849183 0.177440
Si Si5 0.121336 0.150992 0.954242
Si Si6 0.366471 0.340342 0.444727
Si Si7 0.544593 0.339741 0.908433
O O1 0.749919 0.500000 0.983730
O O2 0.757509 0.671125 0.824506
O O3 0.642858 0.707239 0.935184
O O4 0.802013 0.743521 0.038062
O O5 0.493697 0.500000 0.667755
O O6 0.567637 0.717810 0.622084
O O7 0.398864 0.704056 0.574717
O O8 0.492935 0.716060 0.787035
O O9 0.825692 0.500000 0.709323
O O10 0.884859 0.743978 0.734548
O O11 0.729923 0.709009 0.612044
O O12 0.959363 0.809933 0.148300
O O13 0.073331 0.000000 0.227653
O O14 0.091094 0.842956 0.066195
O O15 0.153082 0.000000 0.937021
O O16 0.367097 0.500000 0.433965
O O17 0.540947 0.500000 0.908777
O O18 0.500000 0.279069 0.000000
#
# Coordination Sequence:
#
# PCOD8067884 Si02
#       7
#     4   4   4   4   4   4   4
#     4   9  15  22  33  50  70  91 118 148 177 206
#     4   8  12  19  30  45  66  93 120 145 175 205
#     4   9  14  20  32  51  72  91 116 147 174 203
#     4   8  14  23  33  47  68  94 119 140 169 212
#     4   8  14  24  35  46  65  94 122 143 167 209
#     4   8  12  18  30  47  68  90 116 148 174 203
#     4   9  15  22  32  48  72  97 120 147 178 210
#
# _framework density 14.502651
#
# number of rings (size 3 to 8) (size 9 to 14) (size 15 to 20)
#    0.000    3.571    1.429    1.714    0.000    0.571 
#    0.000    2.857    0.000    0.429    0.000    3.000 
#    0.000    1.143    0.000   14.286    0.000    2.857 
#
# Total GULP energy -346879.262998 kJ/mol
# GULP energy per Si atom -12388.545107 kJ/mol
# Density = 1.446964 g / cm^3
# Si number density = 14.502651 Si / 1000 Ang^3
#
#
#
# Elastic Constant Matrix: (Units=GPa)
#
#
# Indices 1 2 3 4 5 6 
#
# 1 71.0817 37.5829 54.6299 0.0000 29.9955 0.0000
# 2 37.5829 46.3808 32.3320 0.0000 22.0058 0.0000
# 3 54.6299 32.3320 93.8181 0.0000 26.2898 0.0000
# 4 0.0000 0.0000 0.0000 3.2221 0.0000 0.7702
# 5 29.9955 22.0058 26.2898 0.0000 31.2226 0.0000
# 6 0.0000 0.0000 0.0000 0.7702 0.0000 7.0514
#
#
#
# Elastic Compliance Matrix: (Units=1/GPa)
#
#
# Indices 1 2 3 4 5 6 
#
# 1 0.038307 -0.014645 -0.012877 0.000000 -0.015637 0.000000
# 2 -0.014645 0.041043 -0.001902 0.000000 -0.013257 0.000000
# 3 -0.012877 -0.001902 0.019594 0.000000 -0.002786 0.000000
# 4 0.000000 0.000000 0.000000 0.318676 0.000000 -0.034808
# 5 -0.015637 -0.013257 -0.002786 0.000000 0.058740 0.000000
# 6 0.000000 0.000000 0.000000 -0.034808 0.000000 0.145619
#
#
# Mechanical properties :
#
#
# Convention : Reuss Voigt Hill
#
# Bulk Modulus (GPa) = 24.94048 51.15227 38.04637
# Shear Modulus (GPa) = 7.20263 14.08159 10.64211
#
# Velocity S-wave (km/s) = 2.23096 3.11941 2.71182
# Velocity P-wave (km/s) = 4.88577 6.95139 6.00802
#
# Compressibility (1/GPa) = 0.04009547
#
# Stress axis : x y z
#
# Youngs Moduli (GPa) = 26.10516 24.36462 51.03722
#
# Poissons Ratio (x) = 0.35681 0.65721
# Poissons Ratio (y) = 0.38230 0.09708
# Poissons Ratio (z) = 0.33616 0.04635
#
# Static dielectric constant tensor:
#      x y z
#    x 2.840160 0.000000 0.377950 
#    y 0.000000 2.577500 0.000000 
#    z 0.377950 0.000000 2.931880 
# 
# 
# High freq. dielectric constant tensor:
#      x y z
#    x 1.532610 0.000000 0.039460 
#    y 0.000000 1.513370 0.000000 
#    z 0.039460 0.000000 1.530360 
# 
# From -- ./inp_files/50333.got.cif
#   From: 2010.06.25/outbox.cif.g09.slc.cpg/sg10_26_cif.got.tgz:50333.got - 2010.06.27 22:07:45.
