data_PCOD8067829
_publ_section_title
;
Structure prediction by ZEFSAII (Michael W. Deem and Ramdas Pophale) SiO2 
 PCOD8067829
Probable space group: P 2/M
;
_chemical_formula_sum "Si O2"
_cell_formula_units_Z 28
_cell_length_a 29.533298
_cell_length_b 9.112483
_cell_length_c 30.411775
_cell_angle_alpha 90.000000
_cell_angle_beta 9.675957
_cell_angle_gamma 90.000000
_cell_volume 1375.610446
_symmetry_space_group_name_H-M "P 2/M"
_symmetry_group_IT_number 10
_symmetry_cell_setting 'monoclinic'
loop_
_space_group_symop_operation_xyz
x,y,z
-x,y,-z
-x,-y,-z
x,-y,z
loop_
_atom_site_type_symbol
_atom_site_label
_atom_site_fract_x
_atom_site_fract_y
_atom_site_fract_z
Si Si1 0.362226 0.322521 0.379373
Si Si2 0.799276 0.500000 0.233586
Si Si3 0.919974 0.330772 0.526210
Si Si4 0.637013 0.831936 0.954808
Si Si5 0.795368 0.000000 0.234851
Si Si6 0.903707 0.757259 0.198708
Si Si7 0.508088 0.175119 0.330666
Si Si8 0.799131 0.830118 0.900404
O O1 0.359754 0.500000 0.380096
O O2 0.438985 0.266433 0.353790
O O3 0.074393 0.257571 0.642389
O O4 0.575351 0.257416 0.141406
O O5 0.500000 0.500000 0.500000
O O6 0.856959 0.618830 0.214437
O O7 0.000000 0.500000 0.000000
O O8 0.897253 0.500000 0.533026
O O9 0.000000 0.318791 0.500000
O O10 0.140887 0.249989 0.286000
O O11 0.640282 0.251093 0.786373
O O12 0.718544 0.827311 0.927160
O O13 0.609875 0.000000 0.964600
O O14 0.500000 0.000000 0.500000
O O15 0.843559 0.133484 0.218638
O O16 0.000000 0.000000 0.000000
O O17 0.701742 0.774039 0.432213
O O18 0.200395 0.773735 0.933553
O O19 0.495253 0.000000 0.334735
O O20 0.825535 0.000000 0.891543
#
# Coordination Sequence:
#
# PCOD8067829 Si02
#       8
#     4   2   4   4   2   4   4   4
#     4  12  27  43  71 102 134 171 220 275 329 398
#     4  12  26  46  66  94 132 170 206 256 320 372
#     4  11  24  41  62  94 134 180 226 277 339 398
#     4  11  24  41  67  96 130 175 225 280 335 394
#     4  12  22  40  64  94 126 158 210 260 298 364
#     4  12  25  42  68  96 127 168 211 254 315 377
#     4  12  24  45  67  96 129 169 210 259 323 381
#     4  11  24  46  68  98 135 176 220 272 338 402
#
# _framework density 20.354600999999999
#
# number of rings (size 3 to 8) (size 9 to 14) (size 15 to 20)
#    0.000    0.429    1.429    7.286    2.000    8.571 
#    0.000    0.000    0.000    0.000    0.000    0.000 
#    0.000    0.000    0.000    0.000    0.000    0.000 
#
# Total GULP energy -347053.774081 kJ/mol
# GULP energy per Si atom -12394.777646 kJ/mol
# Density = 2.030827 g / cm^3
# Si number density = 20.354601 Si / 1000 Ang^3
#
#
#
# Elastic Constant Matrix: (Units=GPa)
#
#
# Indices 1 2 3 4 5 6 
#
# 1 119.8712 81.4318 74.1124 0.0000 -0.1879 0.0000
# 2 81.4318 224.6600 93.0140 0.0000 -0.2261 0.0000
# 3 74.1124 93.0140 216.5785 0.0000 -0.3119 0.0000
# 4 0.0000 0.0000 0.0000 40.5204 0.0000 -0.0081
# 5 -0.1879 -0.2261 -0.3119 0.0000 43.3760 0.0000
# 6 0.0000 0.0000 0.0000 -0.0081 0.0000 45.5950
#
#
#
# Elastic Compliance Matrix: (Units=1/GPa)
#
#
# Indices 1 2 3 4 5 6 
#
# 1 0.012317 -0.003308 -0.002794 0.000000 0.000016 0.000000
# 2 -0.003308 0.006302 -0.001575 0.000000 0.000007 0.000000
# 3 -0.002794 -0.001575 0.006250 0.000000 0.000025 0.000000
# 4 0.000000 0.000000 0.000000 0.024679 0.000000 0.000004
# 5 0.000016 0.000007 0.000025 0.000000 0.023055 0.000000
# 6 0.000000 0.000000 0.000000 0.000004 0.000000 0.021932
#
#
# Mechanical properties :
#
#
# Convention : Reuss Voigt Hill
#
# Bulk Modulus (GPa) = 105.09036 117.58067 111.33551
# Shear Modulus (GPa) = 44.22468 46.73506 45.47987
#
# Velocity S-wave (km/s) = 4.66629 4.79690 4.73205
# Velocity P-wave (km/s) = 8.98745 9.41127 9.20180
#
# Compressibility (1/GPa) = 0.00951562
#
# Stress axis : x y z
#
# Youngs Moduli (GPa) = 81.18984 158.67968 160.00604
#
# Poissons Ratio (x) = 0.52484 0.44710
# Poissons Ratio (y) = 0.26854 0.25196
# Poissons Ratio (z) = 0.22687 0.24987
#
# Static dielectric constant tensor:
#      x y z
#    x 3.989550 0.000000 -0.000290 
#    y 0.000000 4.174230 0.000000 
#    z -0.000290 0.000000 3.985010 
# 
# 
# High freq. dielectric constant tensor:
#      x y z
#    x 1.820710 0.000000 0.000010 
#    y 0.000000 1.822550 0.000000 
#    z 0.000010 0.000000 1.819200 
# 
# From -- ./inp_files/96031.got.cif
#   From: 2010.06.25/outbox.cif.g09.slc.cpg/sg10_49_cif.got.tgz:96031.got - 2010.06.27 22:07:45.
