data_PCOD8067148
_publ_section_title
;
Structure prediction by ZEFSAII (Michael W. Deem and Ramdas Pophale) SiO2 
 PCOD8067148
Probable space group: P 2/M
;
_chemical_formula_sum "Si O2"
_cell_formula_units_Z 20
_cell_length_a 9.684948
_cell_length_b 7.878515
_cell_length_c 26.608659
_cell_angle_alpha 90.000000
_cell_angle_beta 28.340736
_cell_angle_gamma 90.000000
_cell_volume 963.821852
_symmetry_space_group_name_H-M "P 2/M"
_symmetry_group_IT_number 10
_symmetry_cell_setting 'monoclinic'
loop_
_space_group_symop_operation_xyz
x,y,z
-x,y,-z
-x,-y,-z
x,-y,z
loop_
_atom_site_type_symbol
_atom_site_label
_atom_site_fract_x
_atom_site_fract_y
_atom_site_fract_z
Si Si1 0.631819 0.803265 0.806935
Si Si2 0.363057 0.693565 0.991421
Si Si3 0.206842 0.183762 0.565725
Si Si4 0.200957 0.500000 0.503494
Si Si5 0.556390 0.500000 0.683353
Si Si6 0.737508 0.807518 0.170720
O O1 0.590521 0.702881 0.872446
O O2 0.377897 0.757850 0.847948
O O3 0.945534 0.748968 0.684683
O O4 0.625353 0.000000 0.822672
O O5 0.265540 0.500000 0.031412
O O6 0.500000 0.764039 0.000000
O O7 0.086028 0.802979 0.062467
O O8 0.500000 0.146207 0.500000
O O9 0.298770 0.325429 0.496903
O O10 0.109645 0.000000 0.572801
O O11 0.368567 0.500000 0.398354
O O12 0.855067 0.500000 0.617355
O O13 0.384819 0.672657 0.750287
O O14 0.634192 0.000000 0.216865
#
# Coordination Sequence:
#
# PCOD8067148 Si02
#       6
#     4   4   4   2   2   4
#     4  10  22  40  65  94 123 166 218 258 309 377
#     4  11  25  41  62  96 132 165 207 258 319 382
#     4  10  22  41  64  94 127 167 215 258 310 371
#     4  11  23  40  63  92 130 166 207 261 315 369
#     4  11  24  40  63  97 124 164 213 255 318 371
#     4  11  23  43  68  94 126 167 214 259 311 377
#
# _framework density 20.750722
#
# number of rings (size 3 to 8) (size 9 to 14) (size 15 to 20)
#    0.000    1.400    3.000    1.500    2.800    6.400 
#    0.000    4.000    0.000    0.000    0.000    0.000 
#    0.000    0.000    0.000    0.000    0.000    0.000 
#
# Total GULP energy -247918.313065 kJ/mol
# GULP energy per Si atom -12395.915653 kJ/mol
# Density = 2.070349 g / cm^3
# Si number density = 20.750722 Si / 1000 Ang^3
#
#
#
# Elastic Constant Matrix: (Units=GPa)
#
#
# Indices 1 2 3 4 5 6 
#
# 1 151.2041 51.3347 82.8231 0.0000 40.4562 0.0000
# 2 51.3347 131.7837 47.7588 0.0000 40.1490 0.0000
# 3 82.8231 47.7588 110.0761 0.0000 40.0758 0.0000
# 4 0.0000 0.0000 0.0000 33.2103 0.0000 1.7251
# 5 40.4562 40.1490 40.0758 0.0000 83.2953 0.0000
# 6 0.0000 0.0000 0.0000 1.7251 0.0000 28.9229
#
#
#
# Elastic Compliance Matrix: (Units=1/GPa)
#
#
# Indices 1 2 3 4 5 6 
#
# 1 0.011634 -0.001347 -0.007697 0.000000 -0.001298 0.000000
# 2 -0.001347 0.009816 -0.002135 0.000000 -0.003050 0.000000
# 3 -0.007697 -0.002135 0.017053 0.000000 -0.003438 0.000000
# 4 0.000000 0.000000 0.000000 0.030205 0.000000 -0.001802
# 5 -0.001298 -0.003050 -0.003438 0.000000 0.015760 0.000000
# 6 0.000000 0.000000 0.000000 -0.001802 0.000000 0.034682
#
#
# Mechanical properties :
#
#
# Convention : Reuss Voigt Hill
#
# Bulk Modulus (GPa) = 61.93337 84.09967 73.01652
# Shear Modulus (GPa) = 34.03920 43.16221 38.60070
#
# Velocity S-wave (km/s) = 4.05456 4.56569 4.31769
# Velocity P-wave (km/s) = 7.19934 8.27107 7.75374
#
# Compressibility (1/GPa) = 0.01614638
#
# Stress axis : x y z
#
# Youngs Moduli (GPa) = 85.95375 101.87683 58.63913
#
# Poissons Ratio (x) = 0.13724 0.45132
# Poissons Ratio (y) = 0.11579 0.12518
# Poissons Ratio (z) = 0.66155 0.21748
#
# Static dielectric constant tensor:
#      x y z
#    x 3.695600 0.000000 -0.153950 
#    y 0.000000 3.384170 0.000000 
#    z -0.153950 0.000000 3.689100 
# 
# 
# High freq. dielectric constant tensor:
#      x y z
#    x 1.799250 0.000000 -0.010780 
#    y 0.000000 1.825870 0.000000 
#    z -0.010780 0.000000 1.811840 
# 
# From -- ./inp_files/71247.got.cif
#   From: 2010.06.25/outbox.cif.g09.slc.cpg/sg10_36_cif.got.tgz:71247.got - 2010.06.27 22:07:45.
