data_PCOD8067369
_publ_section_title
;
Structure prediction by ZEFSAII (Michael W. Deem and Ramdas Pophale) SiO2 
 PCOD8067369
Probable space group: P 2/M
;
_chemical_formula_sum "Si O2"
_cell_formula_units_Z 20
_cell_length_a 11.544264
_cell_length_b 11.308860
_cell_length_c 14.980228
_cell_angle_alpha 90.000000
_cell_angle_beta 28.574946
_cell_angle_gamma 90.000000
_cell_volume 935.429470
_symmetry_space_group_name_H-M "P 2/M"
_symmetry_group_IT_number 10
_symmetry_cell_setting 'monoclinic'
loop_
_space_group_symop_operation_xyz
x,y,z
-x,y,-z
-x,-y,-z
x,-y,z
loop_
_atom_site_type_symbol
_atom_site_label
_atom_site_fract_x
_atom_site_fract_y
_atom_site_fract_z
Si Si1 0.000000 0.791675 0.500000
Si Si2 0.766972 0.000000 0.454263
Si Si3 0.276212 0.747706 0.592831
Si Si4 0.801285 0.000000 0.743474
Si Si5 0.146389 0.769203 0.990923
Si Si6 0.571405 0.000000 0.146810
Si Si7 0.370775 0.363510 0.348326
O O1 0.229856 0.711474 0.369500
O O2 0.084565 0.875600 0.363622
O O3 0.670369 0.884333 0.469512
O O4 0.665221 0.000000 0.627166
O O5 0.068499 0.000000 0.246485
O O6 0.500000 0.703587 0.500000
O O7 0.251629 0.664213 0.524102
O O8 0.032097 0.725693 0.811891
O O9 0.520730 0.000000 0.898113
O O10 0.271352 0.887206 0.940217
O O11 0.345535 0.668649 0.840637
O O12 0.000000 0.796753 0.000000
O O13 0.341451 0.500000 0.344285
#
# Coordination Sequence:
#
# PCOD8067369 Si02
#       7
#     2   2   4   2   4   2   4
#     4  11  19  44  70 100 129 171 220 272 338 393
#     4  12  19  38  66  99 134 168 212 273 342 395
#     4  12  24  43  66  99 134 173 221 276 335 397
#     4  11  16  34  73  92 131 171 208 277 335 396
#     4  12  24  43  66  99 134 173 221 276 335 397
#     4  12  19  38  66  99 134 168 212 273 342 395
#     4  12  26  45  70  95 133 183 226 272 320 386
#
# _framework density 21.380555000000001
#
# number of rings (size 3 to 8) (size 9 to 14) (size 15 to 20)
#    0.000    0.200   10.000    1.500    0.000    1.600 
#    0.000    5.000    0.000    2.400    0.000    0.000 
#    0.000    0.000    0.000    0.000    0.000    0.000 
#
# Total GULP energy -247881.025436 kJ/mol
# GULP energy per Si atom -12394.051272 kJ/mol
# Density = 2.133189 g / cm^3
# Si number density = 21.380555 Si / 1000 Ang^3
#
#
#
# Elastic Constant Matrix: (Units=GPa)
#
#
# Indices 1 2 3 4 5 6 
#
# 1 105.1534 27.2902 27.2848 0.0000 -21.2962 0.0000
# 2 27.2902 123.5143 17.0636 0.0000 -14.0966 0.0000
# 3 27.2848 17.0636 105.3487 0.0000 -18.5824 0.0000
# 4 0.0000 0.0000 0.0000 2.9288 0.0000 0.2373
# 5 -21.2962 -14.0966 -18.5824 0.0000 37.5966 0.0000
# 6 0.0000 0.0000 0.0000 0.2373 0.0000 16.2999
#
#
#
# Elastic Compliance Matrix: (Units=1/GPa)
#
#
# Indices 1 2 3 4 5 6 
#
# 1 0.011423 -0.001711 -0.001811 0.000000 0.004934 0.000000
# 2 -0.001711 0.008791 -0.000625 0.000000 0.002018 0.000000
# 3 -0.001811 -0.000625 0.010780 0.000000 0.004068 0.000000
# 4 0.000000 0.000000 0.000000 0.341843 0.000000 -0.004977
# 5 0.004934 0.002018 0.004068 0.000000 0.032160 0.000000
# 6 0.000000 0.000000 0.000000 -0.004977 0.000000 0.061423
#
#
# Mechanical properties :
#
#
# Convention : Reuss Voigt Hill
#
# Bulk Modulus (GPa) = 44.05112 53.03261 48.54187
# Shear Modulus (GPa) = 10.36742 28.85690 19.61216
#
# Velocity S-wave (km/s) = 2.20443 3.67778 3.03196
# Velocity P-wave (km/s) = 5.20840 6.54926 5.91693
#
# Compressibility (1/GPa) = 0.02270090
#
# Stress axis : x y z
#
# Youngs Moduli (GPa) = 87.54221 113.75471 92.76326
#
# Poissons Ratio (x) = 0.19459 0.16801
# Poissons Ratio (y) = 0.14975 0.05796
# Poissons Ratio (z) = 0.15855 0.07108
#
# Static dielectric constant tensor:
#      x y z
#    x 4.079810 0.000000 -0.143860 
#    y 0.000000 3.683760 0.000000 
#    z -0.143860 0.000000 4.067510 
# 
# 
# High freq. dielectric constant tensor:
#      x y z
#    x 1.858880 0.000000 -0.016480 
#    y 0.000000 1.823100 0.000000 
#    z -0.016480 0.000000 1.838320 
# 
# From -- ./inp_files/64625.got.cif
#   From: 2010.06.25/outbox.cif.g09.slc.cpg/sg10_33_cif.got.tgz:64625.got - 2010.06.27 22:07:45.
