data_PCOD8067026
_publ_section_title
;
Structure prediction by ZEFSAII (Michael W. Deem and Ramdas Pophale) SiO2 
 PCOD8067026
Probable space group: P 2/M
;
_chemical_formula_sum "Si O2"
_cell_formula_units_Z 24
_cell_length_a 16.651867
_cell_length_b 8.684700
_cell_length_c 7.884268
_cell_angle_alpha 90.000000
_cell_angle_beta 90.800454
_cell_angle_gamma 90.000000
_cell_volume 1140.083734
_symmetry_space_group_name_H-M "P 2/M"
_symmetry_group_IT_number 10
_symmetry_cell_setting 'monoclinic'
loop_
_space_group_symop_operation_xyz
x,y,z
-x,y,-z
-x,-y,-z
x,-y,z
loop_
_atom_site_type_symbol
_atom_site_label
_atom_site_fract_x
_atom_site_fract_y
_atom_site_fract_z
Si Si1 0.092919 0.320604 0.502365
Si Si2 0.331589 0.820074 0.331329
Si Si3 0.504830 0.820913 0.194383
Si Si4 0.665767 0.679120 0.315437
Si Si5 0.816968 0.180211 0.178331
Si Si6 0.185153 0.319192 0.165913
O O1 0.106968 0.500000 0.539326
O O2 0.135608 0.227118 0.652120
O O3 0.127384 0.272839 0.319803
O O4 0.000000 0.276224 0.500000
O O5 0.421307 0.778270 0.278716
O O6 0.307962 0.719994 0.493493
O O7 0.269827 0.770589 0.183638
O O8 0.323401 0.000000 0.372725
O O9 0.573493 0.724111 0.287500
O O10 0.525807 0.000000 0.215698
O O11 0.500000 0.771568 0.000000
O O12 0.678745 0.500000 0.283229
O O13 0.723413 0.771600 0.189839
O O14 0.823883 0.000000 0.151465
O O15 0.854055 0.263709 0.012868
O O16 0.200805 0.500000 0.160957
#
# Coordination Sequence:
#
# PCOD8067026 Si02
#       6
#     4   4   4   4   4   4
#     4  10  23  45  71  99 132 169 211 263 324 390
#     4  11  22  38  62  91 127 169 215 265 321 381
#     4  10  22  39  58  85 122 165 213 265 323 381
#     4  12  24  39  61  89 124 167 218 269 322 380
#     4  12  25  42  67  96 132 173 218 269 323 385
#     4  11  23  41  68  98 132 172 217 266 320 384
#
# _framework density 21.051086000000002
#
# number of rings (size 3 to 8) (size 9 to 14) (size 15 to 20)
#    0.000    1.000    1.667    5.500    0.000    6.667 
#    0.000    3.333    0.000    0.000    0.000    0.000 
#    0.000    0.000    0.000    0.000    0.000    0.000 
#
# Total GULP energy -297761.243845 kJ/mol
# GULP energy per Si atom -12406.718494 kJ/mol
# Density = 2.100317 g / cm^3
# Si number density = 21.051086 Si / 1000 Ang^3
#
#
#
# Elastic Constant Matrix: (Units=GPa)
#
#
# Indices 1 2 3 4 5 6 
#
# 1 108.7816 46.1107 39.4176 0.0000 -7.0378 0.0000
# 2 46.1107 83.5075 40.4644 0.0000 -7.4331 0.0000
# 3 39.4176 40.4644 136.2837 0.0000 -14.7991 0.0000
# 4 0.0000 0.0000 0.0000 33.5257 0.0000 4.2137
# 5 -7.0378 -7.4331 -14.7991 0.0000 18.8197 0.0000
# 6 0.0000 0.0000 0.0000 4.2137 0.0000 24.8223
#
#
#
# Elastic Compliance Matrix: (Units=1/GPa)
#
#
# Indices 1 2 3 4 5 6 
#
# 1 0.012388 -0.005922 -0.001723 0.000000 0.000939 0.000000
# 2 -0.005922 0.016924 -0.003091 0.000000 0.002039 0.000000
# 3 -0.001723 -0.003091 0.009349 0.000000 0.005487 0.000000
# 4 0.000000 0.000000 0.000000 0.030478 0.000000 -0.005174
# 5 0.000939 0.002039 0.005487 0.000000 0.058607 0.000000
# 6 0.000000 0.000000 0.000000 -0.005174 0.000000 0.041165
#
#
# Mechanical properties :
#
#
# Convention : Reuss Voigt Hill
#
# Bulk Modulus (GPa) = 58.17110 64.50648 61.33879
# Shear Modulus (GPa) = 25.49556 28.93887 27.21722
#
# Velocity S-wave (km/s) = 3.48390 3.71171 3.59961
# Velocity P-wave (km/s) = 6.62395 7.00560 6.81745
#
# Compressibility (1/GPa) = 0.01719067
#
# Stress axis : x y z
#
# Youngs Moduli (GPa) = 80.72370 59.08733 106.95861
#
# Poissons Ratio (x) = 0.34991 0.18426
# Poissons Ratio (y) = 0.47804 0.33058
# Poissons Ratio (z) = 0.13906 0.18262
#
# Static dielectric constant tensor:
#      x y z
#    x 3.840610 0.000000 -0.113790 
#    y 0.000000 3.672250 0.000000 
#    z -0.113790 0.000000 3.977190 
# 
# 
# High freq. dielectric constant tensor:
#      x y z
#    x 1.822960 0.000000 -0.002610 
#    y 0.000000 1.823470 0.000000 
#    z -0.002610 0.000000 1.841400 
# 
# From -- ./inp_files/31217.got.cif
#   From: 2010.06.25/outbox.cif.g09.slc.cpg/sg10_16_cif.got.tgz:31217.got - 2010.06.27 22:07:45.
