data_PCOD8067004
_publ_section_title
;
Structure prediction by ZEFSAII (Michael W. Deem and Ramdas Pophale) SiO2 
 PCOD8067004
Probable space group: P 2/M
;
_chemical_formula_sum "Si O2"
_cell_formula_units_Z 32
_cell_length_a 11.894579
_cell_length_b 18.358142
_cell_length_c 13.984597
_cell_angle_alpha 90.000000
_cell_angle_beta 148.629866
_cell_angle_gamma 90.000000
_cell_volume 1589.653313
_symmetry_space_group_name_H-M "P 2/M"
_symmetry_group_IT_number 10
_symmetry_cell_setting 'monoclinic'
loop_
_space_group_symop_operation_xyz
x,y,z
-x,y,-z
-x,-y,-z
x,-y,z
loop_
_atom_site_type_symbol
_atom_site_label
_atom_site_fract_x
_atom_site_fract_y
_atom_site_fract_z
Si Si1 0.351845 0.083559 0.118344
Si Si2 0.024906 0.335053 0.241585
Si Si3 0.388264 0.416397 0.623023
Si Si4 0.038345 0.835252 0.257056
Si Si5 0.238438 0.173936 0.209411
Si Si6 0.673915 0.666745 0.704449
Si Si7 0.160065 0.083417 0.534071
Si Si8 0.410888 0.416435 0.036206
O O1 0.351075 0.112138 0.227432
O O2 0.592798 0.090986 0.250851
O O3 0.274677 0.000000 0.063325
O O4 0.192592 0.129856 0.936524
O O5 0.190393 0.369867 0.437918
O O6 0.095278 0.345156 0.180555
O O7 0.007299 0.250006 0.250789
O O8 0.792725 0.369130 0.083188
O O9 0.356273 0.500000 0.569257
O O10 0.621927 0.387270 0.754381
O O11 0.400922 0.408385 0.747297
O O12 0.218658 0.851195 0.305756
O O13 0.129147 0.868625 0.418807
O O14 0.366703 0.249847 0.292281
O O15 0.000000 0.190902 0.000000
O O16 0.500000 0.644974 0.500000
O O17 0.000000 0.112221 0.500000
O O18 0.105101 0.000000 0.468596
O O19 0.335422 0.500000 0.972660
O O20 0.500000 0.387669 0.000000
#
# Coordination Sequence:
#
# PCOD8067004 Si02
#       8
#     4   4   4   4   4   4   4   4
#     4  10  22  38  62  90 120 159 198 245 298 353
#     4  10  22  39  59  89 121 158 196 246 302 353
#     4  10  22  38  62  90 120 159 198 245 298 353
#     4  10  22  39  59  89 121 158 196 246 302 353
#     4   9  20  34  57  86 120 155 192 240 303 359
#     4   9  20  34  57  86 120 155 192 240 303 359
#     4  10  23  42  61  85 119 159 205 248 291 349
#     4  10  23  42  61  85 119 159 205 248 291 349
#
# _framework density 20.130175000000001
#
# number of rings (size 3 to 8) (size 9 to 14) (size 15 to 20)
#    0.000    2.250    0.000    0.750   10.500    6.500 
#    4.500    6.250    0.000    0.000    0.000    0.000 
#    0.000    0.000    0.000    0.000    0.000    0.000 
#
# Total GULP energy -396759.343660 kJ/mol
# GULP energy per Si atom -12398.729489 kJ/mol
# Density = 2.008436 g / cm^3
# Si number density = 20.130175 Si / 1000 Ang^3
#
#
#
# Elastic Constant Matrix: (Units=GPa)
#
#
# Indices 1 2 3 4 5 6 
#
# 1 81.1354 50.3089 30.7356 0.0000 -2.1629 0.0000
# 2 50.3089 118.3741 49.9748 0.0000 -0.1548 0.0000
# 3 30.7356 49.9748 60.5020 0.0000 2.6198 0.0000
# 4 0.0000 0.0000 0.0000 36.1097 0.0000 -0.6056
# 5 -2.1629 -0.1548 2.6198 0.0000 31.2155 0.0000
# 6 0.0000 0.0000 0.0000 -0.6056 0.0000 6.8971
#
#
#
# Elastic Compliance Matrix: (Units=1/GPa)
#
#
# Indices 1 2 3 4 5 6 
#
# 1 0.017476 -0.005603 -0.004317 0.000000 0.001545 0.000000
# 2 -0.005603 0.014796 -0.009396 0.000000 0.000474 0.000000
# 3 -0.004317 -0.009396 0.026594 0.000000 -0.002578 0.000000
# 4 0.000000 0.000000 0.000000 0.027734 0.000000 0.002435
# 5 0.001545 0.000474 -0.002578 0.000000 0.032361 0.000000
# 6 0.000000 0.000000 0.000000 0.002435 0.000000 0.145203
#
#
# Mechanical properties :
#
#
# Convention : Reuss Voigt Hill
#
# Bulk Modulus (GPa) = 49.41970 58.00558 53.71264
# Shear Modulus (GPa) = 16.15296 23.44392 19.79844
#
# Velocity S-wave (km/s) = 2.83578 3.41635 3.13952
# Velocity P-wave (km/s) = 5.94353 6.66631 6.31527
#
# Compressibility (1/GPa) = 0.02023484
#
# Stress axis : x y z
#
# Youngs Moduli (GPa) = 57.22290 67.58427 37.60197
#
# Poissons Ratio (x) = 0.37864 0.16233
# Poissons Ratio (y) = 0.32059 0.35332
# Poissons Ratio (z) = 0.24703 0.63504
#
# Static dielectric constant tensor:
#      x y z
#    x 3.994850 0.000000 0.004350 
#    y 0.000000 3.649720 0.000000 
#    z 0.004350 0.000000 3.582820 
# 
# 
# High freq. dielectric constant tensor:
#      x y z
#    x 1.780200 0.000000 -0.002960 
#    y 0.000000 1.787060 0.000000 
#    z -0.002960 0.000000 1.786970 
# 
# From -- ./inp_files/65417.got.cif
#   From: 2010.06.25/outbox.cif.g09.slc.cpg/sg10_33_cif.got.tgz:65417.got - 2010.06.27 22:07:45.
