data_PCOD8067755
_publ_section_title
;
Structure prediction by ZEFSAII (Michael W. Deem and Ramdas Pophale) SiO2 
 PCOD8067755
Probable space group: P 2/M
;
_chemical_formula_sum "Si O2"
_cell_formula_units_Z 32
_cell_length_a 11.418029
_cell_length_b 9.336924
_cell_length_c 21.053479
_cell_angle_alpha 90.000000
_cell_angle_beta 62.719460
_cell_angle_gamma 90.000000
_cell_volume 1994.847354
_symmetry_space_group_name_H-M "P 2/M"
_symmetry_group_IT_number 10
_symmetry_cell_setting 'monoclinic'
loop_
_space_group_symop_operation_xyz
x,y,z
-x,y,-z
-x,-y,-z
x,-y,z
loop_
_atom_site_type_symbol
_atom_site_label
_atom_site_fract_x
_atom_site_fract_y
_atom_site_fract_z
Si Si1 0.217083 0.342011 0.854256
Si Si2 0.034037 0.331049 0.394442
Si Si3 0.701164 0.668427 0.303137
Si Si4 0.524176 0.831337 0.567337
Si Si5 0.848536 0.839616 0.016993
Si Si6 0.991156 0.329496 0.266907
Si Si7 0.212637 0.330380 0.462997
Si Si8 0.084108 0.339939 0.113193
O O1 0.258734 0.500000 0.867430
O O2 0.302823 0.298842 0.771412
O O3 0.065268 0.345247 0.872823
O O4 0.241074 0.233304 0.906326
O O5 0.022929 0.500000 0.393824
O O6 0.160464 0.289626 0.405316
O O7 0.047912 0.268670 0.319484
O O8 0.898063 0.277772 0.459740
O O9 0.676697 0.500000 0.322389
O O10 0.591463 0.763685 0.362929
O O11 0.840221 0.720527 0.297384
O O12 0.500000 0.795640 0.500000
O O13 0.658525 0.759714 0.556187
O O14 0.530627 0.000000 0.578453
O O15 0.829345 0.759122 0.954623
O O16 0.796824 0.000000 0.020969
O O17 0.000000 0.836204 0.000000
O O18 0.993110 0.500000 0.262973
O O19 0.082129 0.274818 0.185566
O O20 0.241605 0.500000 0.461558
O O21 0.144489 0.500000 0.096525
#
# Coordination Sequence:
#
# PCOD8067755 Si02
#       8
#     4   4   4   4   4   4   4   4
#     4   8  14  24  37  54  76 103 137 172 204 242
#     4   8  14  26  46  70  88 103 134 179 218 251
#     4   9  17  29  46  65  83 109 145 179 210 249
#     4  11  23  34  43  60  88 117 143 174 211 249
#     4   9  15  21  31  49  75 108 141 170 200 236
#     4   8  13  23  41  64  87 109 137 175 216 253
#     4   9  17  30  49  68  84 107 140 177 214 252
#     4   8  13  21  34  52  76 107 137 166 202 243
#
# _framework density 16.041328
#
# number of rings (size 3 to 8) (size 9 to 14) (size 15 to 20)
#    0.000    3.250    0.000    3.750    0.000    4.000 
#    0.000    3.125    0.000    2.250    0.000    0.000 
#    0.000    1.000    0.000   11.500    0.000    6.375 
#
# Total GULP energy -396549.275032 kJ/mol
# GULP energy per Si atom -12392.164845 kJ/mol
# Density = 1.600482 g / cm^3
# Si number density = 16.041328 Si / 1000 Ang^3
#
#
#
# Elastic Constant Matrix: (Units=GPa)
#
#
# Indices 1 2 3 4 5 6 
#
# 1 66.2118 34.3672 50.8315 0.0000 13.4259 0.0000
# 2 34.3672 79.5428 65.6591 0.0000 6.6753 0.0000
# 3 50.8315 65.6591 143.5976 0.0000 25.4345 0.0000
# 4 0.0000 0.0000 0.0000 15.4707 0.0000 2.8579
# 5 13.4259 6.6753 25.4345 0.0000 20.9340 0.0000
# 6 0.0000 0.0000 0.0000 2.8579 0.0000 10.0017
#
#
#
# Elastic Compliance Matrix: (Units=1/GPa)
#
#
# Indices 1 2 3 4 5 6 
#
# 1 0.022833 -0.005923 -0.003969 0.000000 -0.007933 0.000000
# 2 -0.005923 0.022358 -0.009603 0.000000 0.008337 0.000000
# 3 -0.003969 -0.009603 0.014993 0.000000 -0.012609 0.000000
# 4 0.000000 0.000000 0.000000 0.068241 0.000000 -0.019500
# 5 -0.007933 0.008337 -0.012609 0.000000 0.065517 0.000000
# 6 0.000000 0.000000 0.000000 -0.019500 0.000000 0.105555
#
#
# Mechanical properties :
#
#
# Convention : Reuss Voigt Hill
#
# Bulk Modulus (GPa) = 47.18397 65.67422 56.42909
# Shear Modulus (GPa) = 14.46953 18.51424 16.49189
#
# Velocity S-wave (km/s) = 3.00662 3.40098 3.20986
# Velocity P-wave (km/s) = 6.44444 7.51344 6.99938
#
# Compressibility (1/GPa) = 0.02119364
#
# Stress axis : x y z
#
# Youngs Moduli (GPa) = 43.79590 44.72608 66.69664
#
# Poissons Ratio (x) = 0.26492 0.26474
# Poissons Ratio (y) = 0.25941 0.64050
# Poissons Ratio (z) = 0.17384 0.42951
#
# Static dielectric constant tensor:
#      x y z
#    x 2.752100 0.000000 0.367250 
#    y 0.000000 2.905010 0.000000 
#    z 0.367250 0.000000 3.478620 
# 
# 
# High freq. dielectric constant tensor:
#      x y z
#    x 1.563620 0.000000 0.020450 
#    y 0.000000 1.593390 0.000000 
#    z 0.020450 0.000000 1.629600 
# 
# From -- ./inp_files/83356.got.cif
#   From: 2010.06.25/outbox.cif.g09.slc.cpg/sg10_42_cif.got.tgz:83356.got - 2010.06.27 22:07:45.
