data_PCOD8067215
_publ_section_title
;
Structure prediction by ZEFSAII (Michael W. Deem and Ramdas Pophale) SiO2 
 PCOD8067215
Probable space group: P 2/M
;
_chemical_formula_sum "Si O2"
_cell_formula_units_Z 28
_cell_length_a 10.028687
_cell_length_b 15.548615
_cell_length_c 22.435607
_cell_angle_alpha 90.000000
_cell_angle_beta 154.639743
_cell_angle_gamma 90.000000
_cell_volume 1498.408537
_symmetry_space_group_name_H-M "P 2/M"
_symmetry_group_IT_number 10
_symmetry_cell_setting 'monoclinic'
loop_
_space_group_symop_operation_xyz
x,y,z
-x,y,-z
-x,-y,-z
x,-y,z
loop_
_atom_site_type_symbol
_atom_site_label
_atom_site_fract_x
_atom_site_fract_y
_atom_site_fract_z
Si Si1 0.759913 0.275036 0.956152
Si Si2 0.247107 0.904348 0.550671
Si Si3 0.569467 0.000000 0.127898
Si Si4 0.832320 0.718612 0.665509
Si Si5 0.030844 0.000000 0.828389
Si Si6 0.829337 0.182937 0.782120
Si Si7 0.398183 0.399478 0.892099
Si Si8 0.184743 0.832634 0.720558
O O1 0.649764 0.359269 0.947763
O O2 0.448513 0.232845 0.802433
O O3 0.000000 0.299426 0.000000
O O4 0.913245 0.207724 0.065129
O O5 0.501978 0.838929 0.682029
O O6 0.000000 0.924799 0.500000
O O7 0.098355 0.849550 0.437658
O O8 0.374853 0.000000 0.581724
O O9 0.767716 0.000000 0.148822
O O10 0.633586 0.919608 0.194953
O O11 0.212580 0.000000 0.964633
O O12 0.500000 0.702987 0.500000
O O13 0.793866 0.740027 0.719953
O O14 0.044772 0.634196 0.741144
O O15 0.026344 0.797537 0.716476
O O16 0.862309 0.907649 0.759692
O O17 0.397506 0.500000 0.879183
O O18 0.500000 0.375837 0.000000
#
# Coordination Sequence:
#
# PCOD8067215 Si02
#       8
#     4   4   2   4   2   4   4   4
#     4  11  24  40  61  87 118 155 193 240 291 349
#     4  11  23  35  49  72 113 165 206 244 285 328
#     4  11  20  31  50  77 113 151 197 252 296 329
#     4  11  22  36  61  90 116 149 185 236 296 348
#     4  11  22  31  52  81 115 155 195 250 300 327
#     4  12  21  37  55  85 116 154 202 246 285 339
#     4  10  22  42  69  95 116 143 183 236 297 362
#     4  11  21  35  54  80 113 150 207 244 283 338
#
# _framework density 18.686492999999999
#
# number of rings (size 3 to 8) (size 9 to 14) (size 15 to 20)
#    0.000    1.000    7.143    0.857    0.000    0.571 
#    0.000    2.857    0.000    0.000    0.000    1.000 
#    0.000    0.000    0.000    0.000    0.000    0.000 
#
# Total GULP energy -346941.855958 kJ/mol
# GULP energy per Si atom -12390.780570 kJ/mol
# Density = 1.864396 g / cm^3
# Si number density = 18.686493 Si / 1000 Ang^3
#
#
#
# Elastic Constant Matrix: (Units=GPa)
#
#
# Indices 1 2 3 4 5 6 
#
# 1 75.3209 38.0606 13.3694 0.0000 13.1507 0.0000
# 2 38.0606 102.1927 32.2477 0.0000 8.0430 0.0000
# 3 13.3694 32.2477 80.8870 0.0000 8.0274 0.0000
# 4 0.0000 0.0000 0.0000 7.5306 0.0000 -10.1967
# 5 13.1507 8.0430 8.0274 0.0000 26.8549 0.0000
# 6 0.0000 0.0000 0.0000 -10.1967 0.0000 16.0908
#
#
#
# Elastic Compliance Matrix: (Units=1/GPa)
#
#
# Indices 1 2 3 4 5 6 
#
# 1 0.017481 -0.006035 0.000193 0.000000 -0.006810 0.000000
# 2 -0.006035 0.013391 -0.004366 0.000000 0.000250 0.000000
# 3 0.000193 -0.004366 0.014378 0.000000 -0.003085 0.000000
# 4 0.000000 0.000000 0.000000 0.935391 0.000000 0.592752
# 5 -0.006810 0.000250 -0.003085 0.000000 0.041419 0.000000
# 6 0.000000 0.000000 0.000000 0.592752 0.000000 0.437771
#
#
# Mechanical properties :
#
#
# Convention : Reuss Voigt Hill
#
# Bulk Modulus (GPa) = 40.26943 47.30624 43.78784
# Shear Modulus (GPa) = 3.35903 21.74347 12.55125
#
# Velocity S-wave (km/s) = 1.34219 3.41485 2.59448
# Velocity P-wave (km/s) = 4.89885 6.39679 5.69727
#
# Compressibility (1/GPa) = 0.02483273
#
# Stress axis : x y z
#
# Youngs Moduli (GPa) = 57.20432 74.67506 69.55152
#
# Poissons Ratio (x) = 0.45070 -0.01340
# Poissons Ratio (y) = 0.34526 0.30367
# Poissons Ratio (z) = -0.01102 0.32604
#
# Static dielectric constant tensor:
#      x y z
#    x 3.383560 0.000000 -0.096950 
#    y 0.000000 3.230210 0.000000 
#    z -0.096950 0.000000 4.039180 
# 
# 
# High freq. dielectric constant tensor:
#      x y z
#    x 1.715840 0.000000 0.010150 
#    y 0.000000 1.708710 0.000000 
#    z 0.010150 0.000000 1.736860 
# 
# From -- ./inp_files/29635.got.cif
#   From: 2010.06.25/outbox.cif.g09.slc.cpg/sg10_15_cif.got.tgz:29635.got - 2010.06.27 22:07:45.
