data_PCOD8067887
_publ_section_title
;
Structure prediction by ZEFSAII (Michael W. Deem and Ramdas Pophale) SiO2 
 PCOD8067887
Probable space group: P 2/M
;
_chemical_formula_sum "Si O2"
_cell_formula_units_Z 32
_cell_length_a 24.320778
_cell_length_b 9.137560
_cell_length_c 12.338328
_cell_angle_alpha 90.000000
_cell_angle_beta 39.718862
_cell_angle_gamma 90.000000
_cell_volume 1752.181926
_symmetry_space_group_name_H-M "P 2/M"
_symmetry_group_IT_number 10
_symmetry_cell_setting 'monoclinic'
loop_
_space_group_symop_operation_xyz
x,y,z
-x,y,-z
-x,-y,-z
x,-y,z
loop_
_atom_site_type_symbol
_atom_site_label
_atom_site_fract_x
_atom_site_fract_y
_atom_site_fract_z
Si Si1 0.047102 0.674638 0.534673
Si Si2 0.370931 0.327505 0.885627
Si Si3 0.016651 0.673853 0.143565
Si Si4 0.241992 0.325665 0.265534
Si Si5 0.434765 0.329192 0.369752
Si Si6 0.399202 0.164909 0.631489
Si Si7 0.703433 0.672665 0.584446
Si Si8 0.133697 0.673957 0.783984
O O1 0.048636 0.500000 0.529118
O O2 0.145139 0.732795 0.393987
O O3 0.000000 0.738383 0.500000
O O4 0.991669 0.733492 0.721294
O O5 0.363461 0.500000 0.877516
O O6 0.465326 0.284634 0.787873
O O7 0.351162 0.248967 0.801702
O O8 0.301771 0.269321 0.077077
O O9 0.014996 0.500000 0.149605
O O10 0.934724 0.730473 0.200495
O O11 0.103931 0.728241 0.949672
O O12 0.243259 0.500000 0.266623
O O13 0.281070 0.261505 0.319047
O O14 0.424551 0.500000 0.411151
O O15 0.382710 0.245463 0.542848
O O16 0.390741 0.288481 0.320884
O O17 0.500000 0.168247 0.500000
O O18 0.363706 0.000000 0.679045
O O19 0.715605 0.500000 0.575222
O O20 0.773602 0.735878 0.392293
O O21 0.134583 0.500000 0.783022
#
# Coordination Sequence:
#
# PCOD8067887 Si02
#       8
#     4   4   4   4   4   4   4   4
#     4   9  15  23  33  48  76 115 153 183 216 262
#     4   9  17  29  45  66  93 121 150 183 220 262
#     4   8  12  19  31  45  66 103 147 180 212 256
#     4   9  16  26  39  56  84 123 156 182 218 267
#     4   9  17  28  44  68  93 118 149 186 222 260
#     4   9  17  31  50  66  84 116 153 187 226 268
#     4   9  15  24  38  57  85 118 151 183 218 263
#     4   8  12  19  32  48  69 104 146 180 210 255
#
# _framework density 18.262944000000001
#
# number of rings (size 3 to 8) (size 9 to 14) (size 15 to 20)
#    0.000    3.250    1.250    1.125    0.000    2.000 
#    2.250    2.500    0.000    0.750    0.000    3.500 
#    0.000    0.500    0.000    4.875    0.000    4.250 
#
# Total GULP energy -396488.965526 kJ/mol
# GULP energy per Si atom -12390.280173 kJ/mol
# Density = 1.822138 g / cm^3
# Si number density = 18.262944 Si / 1000 Ang^3
#
#
#
# Elastic Constant Matrix: (Units=GPa)
#
#
# Indices 1 2 3 4 5 6 
#
# 1 114.5127 16.1666 53.2364 0.0000 22.3390 0.0000
# 2 16.1666 21.8578 15.9342 0.0000 4.5896 0.0000
# 3 53.2364 15.9342 126.5420 0.0000 29.5373 0.0000
# 4 0.0000 0.0000 0.0000 3.5653 0.0000 -0.3706
# 5 22.3390 4.5896 29.5373 0.0000 28.8673 0.0000
# 6 0.0000 0.0000 0.0000 -0.3706 0.0000 3.5814
#
#
#
# Elastic Compliance Matrix: (Units=1/GPa)
#
#
# Indices 1 2 3 4 5 6 
#
# 1 0.011977 -0.005482 -0.003138 0.000000 -0.005186 0.000000
# 2 -0.005482 0.052971 -0.004451 0.000000 0.000375 0.000000
# 3 -0.003138 -0.004451 0.011891 0.000000 -0.009031 0.000000
# 4 0.000000 0.000000 0.000000 0.283528 0.000000 0.029335
# 5 -0.005186 0.000375 -0.009031 0.000000 0.047836 0.000000
# 6 0.000000 0.000000 0.000000 0.029335 0.000000 0.282255
#
#
# Mechanical properties :
#
#
# Convention : Reuss Voigt Hill
#
# Bulk Modulus (GPa) = 19.72512 48.17631 33.95071
# Shear Modulus (GPa) = 6.81663 19.04116 12.92889
#
# Velocity S-wave (km/s) = 1.93406 3.23245 2.66358
# Velocity P-wave (km/s) = 3.97637 6.35360 5.29999
#
# Compressibility (1/GPa) = 0.05069678
#
# Stress axis : x y z
#
# Youngs Moduli (GPa) = 83.49262 18.87819 84.09563
#
# Poissons Ratio (x) = 0.10349 0.26389
# Poissons Ratio (y) = 0.45771 0.37434
# Poissons Ratio (z) = 0.26200 0.08403
#
# Static dielectric constant tensor:
#      x y z
#    x 3.457030 0.000000 0.192280 
#    y 0.000000 2.684790 0.000000 
#    z 0.192280 0.000000 3.677580 
# 
# 
# High freq. dielectric constant tensor:
#      x y z
#    x 1.703460 0.000000 0.013160 
#    y 0.000000 1.625570 0.000000 
#    z 0.013160 0.000000 1.713640 
# 
# From -- ./inp_files/55665.got.cif
#   From: 2010.06.25/outbox.cif.g09.slc.cpg/sg10_28_cif.got.tgz:55665.got - 2010.06.27 22:07:45.
