data_PCOD8067014
_publ_section_title
;
Structure prediction by ZEFSAII (Michael W. Deem and Ramdas Pophale) SiO2 
 PCOD8067014
Probable space group: P 2/M
;
_chemical_formula_sum "Si O2"
_cell_formula_units_Z 32
_cell_length_a 11.456319
_cell_length_b 13.837254
_cell_length_c 12.146562
_cell_angle_alpha 90.000000
_cell_angle_beta 69.187835
_cell_angle_gamma 90.000000
_cell_volume 1799.881763
_symmetry_space_group_name_H-M "P 2/M"
_symmetry_group_IT_number 10
_symmetry_cell_setting 'monoclinic'
loop_
_space_group_symop_operation_xyz
x,y,z
-x,y,-z
-x,-y,-z
x,-y,z
loop_
_atom_site_type_symbol
_atom_site_label
_atom_site_fract_x
_atom_site_fract_y
_atom_site_fract_z
Si Si1 0.178844 0.107669 0.028023
Si Si2 0.711430 0.299109 0.959472
Si Si3 0.808548 0.300254 0.314501
Si Si4 0.142926 0.613053 0.474757
Si Si5 0.030698 0.612284 0.111038
Si Si6 0.620420 0.611841 0.217128
Si Si7 0.904176 0.891725 0.192795
Si Si8 0.647819 0.389533 0.765820
O O1 0.286330 0.183231 0.026204
O O2 0.052632 0.125950 0.139554
O O3 0.229743 0.000000 0.034531
O O4 0.151411 0.121632 0.909268
O O5 0.850464 0.332853 0.881782
O O6 0.627225 0.324448 0.881807
O O7 0.667498 0.353675 0.082771
O O8 0.798653 0.324990 0.445905
O O9 0.679550 0.325058 0.295375
O O10 0.839840 0.186599 0.293496
O O11 0.914912 0.367978 0.228124
O O12 0.152836 0.500000 0.500498
O O13 0.226157 0.638946 0.340664
O O14 0.000000 0.643264 0.500000
O O15 0.061404 0.500000 0.097385
O O16 0.000000 0.653030 0.000000
O O17 0.659116 0.500000 0.218891
O O18 0.471206 0.625753 0.273712
O O19 0.875608 0.000000 0.246618
O O20 0.655119 0.500000 0.803507
#
# Coordination Sequence:
#
# PCOD8067014 Si02
#       8
#     4   4   4   4   4   4   4   4
#     4   9  17  30  50  79 111 140 173 218 275 330
#     4  12  19  32  54  77 110 145 177 218 272 323
#     4  12  20  33  55  80 106 140 182 228 266 311
#     4  10  22  39  56  77 108 144 181 218 265 322
#     4  11  19  26  43  77 111 131 160 214 271 314
#     4  11  22  34  52  80 109 142 185 224 262 319
#     4   9  17  31  50  79 113 138 170 220 277 328
#     4  10  23  39  52  73 110 154 185 213 261 321
#
# _framework density 17.778946000000001
#
# number of rings (size 3 to 8) (size 9 to 14) (size 15 to 20)
#    0.000    1.500    3.750    4.125    0.000    2.500 
#    0.000    1.875    0.000    3.375    0.000    0.875 
#    0.000    0.000    0.000    0.000    0.000    0.000 
#
# Total GULP energy -396853.249063 kJ/mol
# GULP energy per Si atom -12401.664033 kJ/mol
# Density = 1.773848 g / cm^3
# Si number density = 17.778946 Si / 1000 Ang^3
#
#
#
# Elastic Constant Matrix: (Units=GPa)
#
#
# Indices 1 2 3 4 5 6 
#
# 1 64.1725 23.2864 21.7510 0.0000 2.7286 0.0000
# 2 23.2864 103.4823 29.0984 0.0000 7.1480 0.0000
# 3 21.7510 29.0984 60.4627 0.0000 11.6048 0.0000
# 4 0.0000 0.0000 0.0000 19.9824 0.0000 2.3524
# 5 2.7286 7.1480 11.6048 0.0000 24.7918 0.0000
# 6 0.0000 0.0000 0.0000 2.3524 0.0000 22.2316
#
#
#
# Elastic Compliance Matrix: (Units=1/GPa)
#
#
# Indices 1 2 3 4 5 6 
#
# 1 0.018387 -0.002658 -0.005597 0.000000 0.001362 0.000000
# 2 -0.002658 0.011574 -0.004427 0.000000 -0.000972 0.000000
# 3 -0.005597 -0.004427 0.022326 0.000000 -0.008558 0.000000
# 4 0.000000 0.000000 0.000000 0.050675 0.000000 -0.005362
# 5 0.001362 -0.000972 -0.008558 0.000000 0.044472 0.000000
# 6 0.000000 0.000000 0.000000 -0.005362 0.000000 0.045548
#
#
# Mechanical properties :
#
#
# Convention : Reuss Voigt Hill
#
# Bulk Modulus (GPa) = 37.14413 41.82102 39.48257
# Shear Modulus (GPa) = 21.99547 23.66660 22.83104
#
# Velocity S-wave (km/s) = 3.52115 3.65246 3.58741
# Velocity P-wave (km/s) = 6.12118 6.43126 6.27814
#
# Compressibility (1/GPa) = 0.02692216
#
# Stress axis : x y z
#
# Youngs Moduli (GPa) = 54.38765 86.40329 44.79131
#
# Poissons Ratio (x) = 0.22964 0.25069
# Poissons Ratio (y) = 0.14455 0.19830
# Poissons Ratio (z) = 0.30440 0.38253
#
# Static dielectric constant tensor:
#      x y z
#    x 3.342230 0.000000 0.028250 
#    y 0.000000 3.369630 0.000000 
#    z 0.028250 0.000000 3.059490 
# 
# 
# High freq. dielectric constant tensor:
#      x y z
#    x 1.680580 0.000000 0.001980 
#    y 0.000000 1.678510 0.000000 
#    z 0.001980 0.000000 1.662540 
# 
# From -- ./inp_files/47377.got.cif
#   From: 2010.06.25/outbox.cif.g09.slc.cpg/sg10_24_cif.got.tgz:47377.got - 2010.06.27 22:07:45.
