data_PCOD8067510
_publ_section_title
;
Structure prediction by ZEFSAII (Michael W. Deem and Ramdas Pophale) SiO2 
 PCOD8067510
Probable space group: P 2/M
;
_chemical_formula_sum "Si O2"
_cell_formula_units_Z 32
_cell_length_a 15.586635
_cell_length_b 9.096435
_cell_length_c 27.797505
_cell_angle_alpha 90.000000
_cell_angle_beta 27.859708
_cell_angle_gamma 90.000000
_cell_volume 1841.759056
_symmetry_space_group_name_H-M "P 2/M"
_symmetry_group_IT_number 10
_symmetry_cell_setting 'monoclinic'
loop_
_space_group_symop_operation_xyz
x,y,z
-x,y,-z
-x,-y,-z
x,-y,z
loop_
_atom_site_type_symbol
_atom_site_label
_atom_site_fract_x
_atom_site_fract_y
_atom_site_fract_z
Si Si1 0.799389 0.826337 0.152241
Si Si2 0.808691 0.169978 0.417329
Si Si3 0.432451 0.325954 0.922886
Si Si4 0.577341 0.826201 0.352329
Si Si5 0.300855 0.160491 0.076307
Si Si6 0.296506 0.663025 0.620504
Si Si7 0.786977 0.825671 0.050573
Si Si8 0.206612 0.170085 0.225178
O O1 0.650583 0.767667 0.264572
O O2 0.742804 0.773771 0.127031
O O3 0.802470 0.000000 0.149811
O O4 0.004847 0.775349 0.064736
O O5 0.636728 0.221478 0.535626
O O6 0.823954 0.257738 0.360007
O O7 0.002948 0.194759 0.349083
O O8 0.782206 0.000000 0.416807
O O9 0.432952 0.500000 0.920723
O O10 0.354228 0.261147 0.912600
O O11 0.642253 0.270913 0.824270
O O12 0.301894 0.275107 0.031822
O O13 0.706755 0.754482 0.328566
O O14 0.600472 0.000000 0.345278
O O15 0.177995 0.211187 0.182583
O O16 0.237718 0.000000 0.087847
O O17 0.500000 0.146897 0.000000
O O18 0.500000 0.654253 0.500000
O O19 0.217632 0.500000 0.669342
O O20 0.759568 0.000000 0.057207
O O21 0.269667 0.000000 0.198947
#
# Coordination Sequence:
#
# PCOD8067510 Si02
#       8
#     4   4   4   4   4   4   4   4
#     4   8  16  31  53  75  90 113 151 191 231 277
#     4   9  17  29  47  69  94 124 157 194 229 261
#     4  11  21  31  46  70  96 121 152 191 234 273
#     4   9  16  29  49  72  95 118 152 196 234 267
#     4   8  15  29  46  62  85 119 156 188 218 260
#     4   9  17  28  41  61  92 127 158 184 217 266
#     4   9  17  33  53  70  91 119 151 186 229 282
#     4   9  18  32  48  67  92 126 162 189 222 270
#
# _framework density 17.374694000000002
#
# number of rings (size 3 to 8) (size 9 to 14) (size 15 to 20)
#    0.000    3.000    0.000    3.000    0.000    5.250 
#    0.000    7.500    0.000    0.750    0.000    5.250 
#    0.000    0.000    0.000    0.000    0.000    0.000 
#
# Total GULP energy -396518.379398 kJ/mol
# GULP energy per Si atom -12391.199356 kJ/mol
# Density = 1.733515 g / cm^3
# Si number density = 17.374694 Si / 1000 Ang^3
#
#
#
# Elastic Constant Matrix: (Units=GPa)
#
#
# Indices 1 2 3 4 5 6 
#
# 1 110.7392 52.0822 58.8023 0.0000 4.4837 0.0000
# 2 52.0822 77.3363 37.4076 0.0000 -0.2059 0.0000
# 3 58.8023 37.4076 102.7123 0.0000 6.2965 0.0000
# 4 0.0000 0.0000 0.0000 9.1811 0.0000 -3.8950
# 5 4.4837 -0.2059 6.2965 0.0000 22.8643 0.0000
# 6 0.0000 0.0000 0.0000 -3.8950 0.0000 3.9295
#
#
#
# Elastic Compliance Matrix: (Units=1/GPa)
#
#
# Indices 1 2 3 4 5 6 
#
# 1 0.016098 -0.007807 -0.006281 0.000000 -0.001497 0.000000
# 2 -0.007807 0.019550 -0.002803 0.000000 0.002479 0.000000
# 3 -0.006281 -0.002803 0.014524 0.000000 -0.002793 0.000000
# 4 0.000000 0.000000 0.000000 0.187963 0.000000 0.186316
# 5 -0.001497 0.002479 -0.002793 0.000000 0.044821 0.000000
# 6 0.000000 0.000000 0.000000 0.186316 0.000000 0.439171
#
#
# Mechanical properties :
#
#
# Convention : Reuss Voigt Hill
#
# Bulk Modulus (GPa) = 61.00991 65.26358 63.13675
# Shear Modulus (GPa) = 6.56709 16.69468 11.63089
#
# Velocity S-wave (km/s) = 1.94625 3.10314 2.59011
# Velocity P-wave (km/s) = 6.34358 7.10516 6.73514
#
# Compressibility (1/GPa) = 0.01639078
#
# Stress axis : x y z
#
# Youngs Moduli (GPa) = 62.12092 51.14980 68.85343
#
# Poissons Ratio (x) = 0.39932 0.43245
# Poissons Ratio (y) = 0.48498 0.19298
# Poissons Ratio (z) = 0.39017 0.14336
#
# Static dielectric constant tensor:
#      x y z
#    x 3.137450 0.000000 0.206340 
#    y 0.000000 3.123580 0.000000 
#    z 0.206340 0.000000 3.775340 
# 
# 
# High freq. dielectric constant tensor:
#      x y z
#    x 1.649200 0.000000 -0.005360 
#    y 0.000000 1.651570 0.000000 
#    z -0.005360 0.000000 1.666710 
# 
# From -- ./inp_files/93102.got.cif
#   From: 2010.06.25/outbox.cif.g09.slc.cpg/sg10_47_cif.got.tgz:93102.got - 2010.06.27 22:07:45.
