data_PCOD8067904
_publ_section_title
;
Structure prediction by ZEFSAII (Michael W. Deem and Ramdas Pophale) SiO2 
 PCOD8067904
Probable space group: P 2/M
;
_chemical_formula_sum "Si O2"
_cell_formula_units_Z 28
_cell_length_a 15.222445
_cell_length_b 13.008600
_cell_length_c 9.638982
_cell_angle_alpha 90.000000
_cell_angle_beta 108.457461
_cell_angle_gamma 90.000000
_cell_volume 1810.549823
_symmetry_space_group_name_H-M "P 2/M"
_symmetry_group_IT_number 10
_symmetry_cell_setting 'monoclinic'
loop_
_space_group_symop_operation_xyz
x,y,z
-x,y,-z
-x,-y,-z
x,-y,z
loop_
_atom_site_type_symbol
_atom_site_label
_atom_site_fract_x
_atom_site_fract_y
_atom_site_fract_z
Si Si1 0.586564 0.879839 0.953200
Si Si2 0.586564 0.879839 0.633361
Si Si3 0.895447 0.000000 0.113294
Si Si4 0.216968 0.805345 0.273602
Si Si5 0.104552 0.000000 0.217847
Si Si6 0.104174 0.386156 0.217130
Si Si7 0.216969 0.805345 0.943368
Si Si8 0.104174 0.386156 0.887044
O O1 0.564079 0.856543 0.782039
O O2 0.676493 0.817231 0.050393
O O3 0.607030 0.000000 0.986091
O O4 0.500000 0.841742 0.000000
O O5 0.500000 0.841739 0.500000
O O6 0.676495 0.817232 0.626099
O O7 0.607027 0.000000 0.620932
O O8 0.843817 0.100676 0.146143
O O9 0.999999 0.000000 0.222120
O O10 0.894030 0.000000 0.947014
O O11 0.156182 0.899324 0.302326
O O12 0.175353 0.698633 0.312598
O O13 0.212058 0.807797 0.106030
O O14 0.134016 0.500000 0.284072
O O15 1.000000 0.360893 0.216539
O O16 0.105674 0.383190 0.052837
O O17 0.175354 0.698633 0.862757
O O18 0.134017 0.500000 0.849945
#
# Coordination Sequence:
#
# PCOD8067904 Si02
#       8
#     4   4   2   4   2   4   4   4
#     4   9  16  26  39  55  76 100 128 160 191 225
#     4   9  16  26  39  55  76 100 128 160 191 225
#     4   9  14  18  27  46  71  95 115 141 184 229
#     4   9  14  21  32  48  71  97 122 151 186 222
#     4   9  14  18  27  46  71  95 115 141 184 229
#     4   8  13  20  30  46  70 100 128 149 176 222
#     4   9  14  21  32  48  71  97 122 151 186 222
#     4   8  13  20  30  46  70 100 128 149 176 222
#
# _framework density 15.464916000000001
#
# number of rings (size 3 to 8) (size 9 to 14) (size 15 to 20)
#    0.000    3.286    1.429    1.714    0.000    3.429 
#    0.000    0.000    0.000    0.857    0.000    0.000 
#    0.000    5.714    0.000    3.143    0.000    2.857 
#
# Total GULP energy -347013.970769 kJ/mol
# GULP energy per Si atom -12393.356099 kJ/mol
# Density = 1.542972 g / cm^3
# Si number density = 15.464916 Si / 1000 Ang^3
#
#
#
# Elastic Constant Matrix: (Units=GPa)
#
#
# Indices 1 2 3 4 5 6 
#
# 1 132.5082 78.1247 33.8772 0.0000 31.3518 0.0000
# 2 78.1247 123.1620 24.5457 0.0000 25.0755 0.0000
# 3 33.8772 24.5457 27.5748 0.0000 17.7584 0.0000
# 4 0.0000 0.0000 0.0000 7.1905 0.0000 7.5024
# 5 31.3518 25.0755 17.7584 0.0000 22.1832 0.0000
# 6 0.0000 0.0000 0.0000 7.5024 0.0000 23.2212
#
#
#
# Elastic Compliance Matrix: (Units=1/GPa)
#
#
# Indices 1 2 3 4 5 6 
#
# 1 0.015267 -0.006502 -0.007857 0.000000 -0.007938 0.000000
# 2 -0.006502 0.013485 -0.000241 0.000000 -0.005861 0.000000
# 3 -0.007857 -0.000241 0.080102 0.000000 -0.052748 0.000000
# 4 0.000000 0.000000 0.000000 0.209792 0.000000 -0.067780
# 5 -0.007938 -0.005861 -0.052748 0.000000 0.105148 0.000000
# 6 0.000000 0.000000 0.000000 -0.067780 0.000000 0.064963
#
#
# Mechanical properties :
#
#
# Convention : Reuss Voigt Hill
#
# Bulk Modulus (GPa) = 12.55430 61.81558 37.18494
# Shear Modulus (GPa) = 9.18260 20.29881 14.74070
#
# Velocity S-wave (km/s) = 2.43938 3.62687 3.09070
# Velocity P-wave (km/s) = 4.00870 7.58928 6.06906
#
# Compressibility (1/GPa) = 0.07965400
#
# Stress axis : x y z
#
# Youngs Moduli (GPa) = 65.50020 74.15479 12.48413
#
# Poissons Ratio (x) = 0.48219 0.09808
# Poissons Ratio (y) = 0.42591 0.00301
# Poissons Ratio (z) = 0.51461 0.01787
#
# Static dielectric constant tensor:
#      x y z
#    x 3.017690 0.000000 0.284340 
#    y 0.000000 3.188520 0.000000 
#    z 0.284340 0.000000 2.410150 
# 
# 
# High freq. dielectric constant tensor:
#      x y z
#    x 1.588230 0.000000 0.029800 
#    y 0.000000 1.586760 0.000000 
#    z 0.029800 0.000000 1.524550 
# 
# From -- ./inp_files/50421.got.cif
#   From: 2010.06.25/outbox.cif.g09.slc.cpg/sg10_26_cif.got.tgz:50421.got - 2010.06.27 22:07:45.
