data_PCOD8067507
_publ_section_title
;
Structure prediction by ZEFSAII (Michael W. Deem and Ramdas Pophale) SiO2 
 PCOD8067507
Probable space group: P 2/M
;
_chemical_formula_sum "Si O2"
_cell_formula_units_Z 28
_cell_length_a 25.588401
_cell_length_b 9.022010
_cell_length_c 19.783205
_cell_angle_alpha 90.000000
_cell_angle_beta 159.685596
_cell_angle_gamma 90.000000
_cell_volume 1585.576036
_symmetry_space_group_name_H-M "P 2/M"
_symmetry_group_IT_number 10
_symmetry_cell_setting 'monoclinic'
loop_
_space_group_symop_operation_xyz
x,y,z
-x,y,-z
-x,-y,-z
x,-y,z
loop_
_atom_site_type_symbol
_atom_site_label
_atom_site_fract_x
_atom_site_fract_y
_atom_site_fract_z
Si Si1 0.101434 0.175507 0.522920
Si Si2 0.986324 0.166028 0.829510
Si Si3 0.532096 0.176365 0.240421
Si Si4 0.851248 0.334121 0.864901
Si Si5 0.808724 0.676150 0.503909
Si Si6 0.307612 0.836254 0.435175
Si Si7 0.213199 0.174377 0.803453
O O1 0.171709 0.271089 0.548691
O O2 0.197976 0.217164 0.706408
O O3 0.929770 0.229976 0.326778
O O4 0.110394 0.000000 0.517928
O O5 0.948182 0.261820 0.717078
O O6 0.843307 0.161453 0.704248
O O7 0.032431 0.000000 0.863181
O O8 0.125327 0.238669 0.038757
O O9 0.650735 0.260510 0.337751
O O10 0.559143 0.215228 0.352578
O O11 0.551240 0.000000 0.251745
O O12 0.367836 0.238553 0.021546
O O13 0.810989 0.500000 0.838019
O O14 0.710580 0.271765 0.650896
O O15 0.000000 0.329911 0.000000
O O16 0.807455 0.500000 0.507386
O O17 0.340385 0.000000 0.446209
O O18 0.215441 0.000000 0.812523
#
# Coordination Sequence:
#
# PCOD8067507 Si02
#       7
#     4   4   4   4   4   4   4
#     4   9  17  33  54  73  92 119 157 198 237 279
#     4   9  16  27  42  60  85 119 157 194 230 269
#     4   9  17  31  49  70  95 124 158 197 237 275
#     4   9  15  22  35  57  87 120 151 184 225 273
#     4  11  21  31  44  68 100 129 156 190 235 284
#     4   8  14  23  37  58  86 118 151 186 225 270
#     4   8  16  32  55  75  90 116 159 202 235 275
#
# _framework density 17.659198
#
# number of rings (size 3 to 8) (size 9 to 14) (size 15 to 20)
#    0.000    3.000    0.000    3.857    0.000    5.714 
#    0.000    5.714    0.000    0.000    0.000    1.000 
#    0.000    8.000    0.000    0.000    0.000    0.000 
#
# Total GULP energy -347059.388894 kJ/mol
# GULP energy per Si atom -12394.978175 kJ/mol
# Density = 1.761901 g / cm^3
# Si number density = 17.659198 Si / 1000 Ang^3
#
#
#
# Elastic Constant Matrix: (Units=GPa)
#
#
# Indices 1 2 3 4 5 6 
#
# 1 24.3523 22.7567 51.7560 0.0000 -11.8915 0.0000
# 2 22.7567 94.3027 53.1042 0.0000 -10.3977 0.0000
# 3 51.7560 53.1042 137.5138 0.0000 -32.0400 0.0000
# 4 0.0000 0.0000 0.0000 9.8434 0.0000 -5.7109
# 5 -11.8915 -10.3977 -32.0400 0.0000 20.0523 0.0000
# 6 0.0000 0.0000 0.0000 -5.7109 0.0000 13.9515
#
#
#
# Elastic Compliance Matrix: (Units=1/GPa)
#
#
# Indices 1 2 3 4 5 6 
#
# 1 0.209719 -0.007830 -0.076271 0.000000 -0.001560 0.000000
# 2 -0.007830 0.013901 -0.002905 0.000000 -0.002077 0.000000
# 3 -0.076271 -0.002905 0.041755 0.000000 0.019981 0.000000
# 4 0.000000 0.000000 0.000000 0.133232 0.000000 0.054537
# 5 -0.001560 -0.002077 0.019981 0.000000 0.079793 0.000000
# 6 0.000000 0.000000 0.000000 0.054537 0.000000 0.094001
#
#
# Mechanical properties :
#
#
# Convention : Reuss Voigt Hill
#
# Bulk Modulus (GPa) = 10.94551 56.82252 33.88401
# Shear Modulus (GPa) = 6.43610 17.33956 11.88783
#
# Velocity S-wave (km/s) = 1.91116 3.13693 2.59739
# Velocity P-wave (km/s) = 3.32892 6.73555 5.31269
#
# Compressibility (1/GPa) = 0.09136170
#
# Stress axis : x y z
#
# Youngs Moduli (GPa) = 4.76829 71.93974 23.94900
#
# Poissons Ratio (x) = 0.56330 1.82662
# Poissons Ratio (y) = 0.03734 0.06957
# Poissons Ratio (z) = 0.36368 0.20898
#
# Static dielectric constant tensor:
#      x y z
#    x 2.999800 0.000000 -0.344860 
#    y 0.000000 3.192080 0.000000 
#    z -0.344860 0.000000 3.752340 
# 
# 
# High freq. dielectric constant tensor:
#      x y z
#    x 1.651220 0.000000 -0.036610 
#    y 0.000000 1.669540 0.000000 
#    z -0.036610 0.000000 1.674150 
# 
# From -- ./inp_files/68693.got.cif
#   From: 2010.06.25/outbox.cif.g09.slc.cpg/sg10_35_cif.got.tgz:68693.got - 2010.06.27 22:07:45.
