data_PCOD8067781
_publ_section_title
;
Structure prediction by ZEFSAII (Michael W. Deem and Ramdas Pophale) SiO2 
 PCOD8067781
Probable space group: P 2/M
;
_chemical_formula_sum "Si O2"
_cell_formula_units_Z 28
_cell_length_a 7.914400
_cell_length_b 8.642108
_cell_length_c 24.078168
_cell_angle_alpha 90.000000
_cell_angle_beta 130.941155
_cell_angle_gamma 90.000000
_cell_volume 1244.022746
_symmetry_space_group_name_H-M "P 2/M"
_symmetry_group_IT_number 10
_symmetry_cell_setting 'monoclinic'
loop_
_space_group_symop_operation_xyz
x,y,z
-x,y,-z
-x,-y,-z
x,-y,z
loop_
_atom_site_type_symbol
_atom_site_label
_atom_site_fract_x
_atom_site_fract_y
_atom_site_fract_z
Si Si1 0.037568 0.182374 0.673168
Si Si2 0.866502 0.321804 0.829403
Si Si3 0.828452 0.677350 0.413152
Si Si4 0.204781 0.179134 0.080816
Si Si5 0.635810 0.678133 0.170337
Si Si6 0.706046 0.821098 0.079978
Si Si7 0.651472 0.817545 0.673967
O O1 0.050592 0.241161 0.612922
O O2 0.244351 0.260898 0.748990
O O3 0.799452 0.226277 0.651076
O O4 0.073525 0.000000 0.682102
O O5 0.928501 0.500000 0.836769
O O6 0.706021 0.288920 0.847674
O O7 0.759239 0.260207 0.750500
O O8 0.060660 0.211654 0.901553
O O9 0.774626 0.500000 0.385986
O O10 0.601602 0.758133 0.385649
O O11 0.000000 0.689893 0.500000
O O12 0.439260 0.211118 0.099753
O O13 0.172649 0.000000 0.088323
O O14 0.000000 0.243494 0.000000
O O15 0.572988 0.500000 0.163361
O O16 0.793041 0.710675 0.150615
O O17 0.675102 0.000000 0.088379
O O18 0.500000 0.756149 0.000000
O O19 0.649680 0.000000 0.682459
#
# Coordination Sequence:
#
# PCOD8067781 Si02
#       7
#     4   4   4   4   4   4   4
#     4  11  24  44  72 102 137 181 230 283 338 407
#     4  12  24  39  62  91 125 164 213 274 333 396
#     4  11  26  47  72 105 145 183 222 277 344 413
#     4  11  24  41  60  83 119 169 220 275 340 407
#     4  12  24  39  62  91 125 164 213 274 333 396
#     4  11  23  39  59  85 122 167 214 265 323 387
#     4  11  24  44  72 102 137 181 230 283 338 407
#
# _framework density 22.507625999999998
#
# number of rings (size 3 to 8) (size 9 to 14) (size 15 to 20)
#    0.000    0.714    1.429    6.429    0.000    9.143 
#    0.000    2.857    0.000    0.000    0.000    0.000 
#    0.000    0.000    0.000    0.000    0.000    0.000 
#
# Total GULP energy -346925.635246 kJ/mol
# GULP energy per Si atom -12390.201259 kJ/mol
# Density = 2.245640 g / cm^3
# Si number density = 22.507626 Si / 1000 Ang^3
#
#
#
# Elastic Constant Matrix: (Units=GPa)
#
#
# Indices 1 2 3 4 5 6 
#
# 1 86.1192 52.0823 49.3886 0.0000 -8.7849 0.0000
# 2 52.0823 140.7559 51.1817 0.0000 -2.0907 0.0000
# 3 49.3886 51.1817 103.5251 0.0000 -5.4795 0.0000
# 4 0.0000 0.0000 0.0000 37.1265 0.0000 0.2774
# 5 -8.7849 -2.0907 -5.4795 0.0000 26.5798 0.0000
# 6 0.0000 0.0000 0.0000 0.2774 0.0000 37.4240
#
#
#
# Elastic Compliance Matrix: (Units=1/GPa)
#
#
# Indices 1 2 3 4 5 6 
#
# 1 0.018379 -0.004428 -0.006345 0.000000 0.004418 0.000000
# 2 -0.004428 0.009729 -0.002765 0.000000 -0.001268 0.000000
# 3 -0.006345 -0.002765 0.014085 0.000000 0.000589 0.000000
# 4 0.000000 0.000000 0.000000 0.026936 0.000000 -0.000200
# 5 0.004418 -0.001268 0.000589 0.000000 0.039104 0.000000
# 6 0.000000 0.000000 0.000000 -0.000200 0.000000 0.026722
#
#
# Mechanical properties :
#
#
# Convention : Reuss Voigt Hill
#
# Bulk Modulus (GPa) = 66.14842 70.63393 68.39117
# Shear Modulus (GPa) = 29.92732 32.07592 31.00162
#
# Velocity S-wave (km/s) = 3.65040 3.77916 3.71534
# Velocity P-wave (km/s) = 6.87170 7.10585 6.98976
#
# Compressibility (1/GPa) = 0.01511752
#
# Stress axis : x y z
#
# Youngs Moduli (GPa) = 54.40924 102.78144 70.99897
#
# Poissons Ratio (x) = 0.45509 0.45051
# Poissons Ratio (y) = 0.24091 0.19630
# Poissons Ratio (z) = 0.34524 0.28418
#
# Static dielectric constant tensor:
#      x y z
#    x 4.725220 0.000000 0.123480 
#    y 0.000000 3.893960 0.000000 
#    z 0.123480 0.000000 3.836730 
# 
# 
# High freq. dielectric constant tensor:
#      x y z
#    x 1.940780 0.000000 0.004480 
#    y 0.000000 1.890350 0.000000 
#    z 0.004480 0.000000 1.878200 
# 
# From -- ./inp_files/92115.got.cif
#   From: 2010.06.25/outbox.cif.g09.slc.cpg/sg10_47_cif.got.tgz:92115.got - 2010.06.27 22:07:45.
