data_PCOD8067475
_publ_section_title
;
Structure prediction by ZEFSAII (Michael W. Deem and Ramdas Pophale) SiO2 
 PCOD8067475
Probable space group: P 2/M
;
_chemical_formula_sum "Si O2"
_cell_formula_units_Z 32
_cell_length_a 16.225953
_cell_length_b 20.644493
_cell_length_c 16.445135
_cell_angle_alpha 90.000000
_cell_angle_beta 162.857809
_cell_angle_gamma 90.000000
_cell_volume 1623.666935
_symmetry_space_group_name_H-M "P 2/M"
_symmetry_group_IT_number 10
_symmetry_cell_setting 'monoclinic'
loop_
_space_group_symop_operation_xyz
x,y,z
-x,y,-z
-x,-y,-z
x,-y,z
loop_
_atom_site_type_symbol
_atom_site_label
_atom_site_fract_x
_atom_site_fract_y
_atom_site_fract_z
Si Si1 0.984471 0.265954 0.893844
Si Si2 0.636961 0.645167 0.976872
Si Si3 0.902410 0.575370 0.497553
Si Si4 0.446392 0.073358 0.631726
Si Si5 0.662608 0.212747 0.071147
Si Si6 0.028155 0.118098 0.117951
Si Si7 0.567491 0.290388 0.371800
Si Si8 0.238282 0.824019 0.550750
O O1 0.867090 0.192778 0.782647
O O2 0.297030 0.258884 0.156086
O O3 0.000000 0.294799 0.000000
O O4 0.781279 0.311947 0.646262
O O5 0.422098 0.593164 0.809659
O O6 0.625494 0.712054 0.014778
O O7 0.553165 0.654009 0.802546
O O8 0.942258 0.614828 0.283117
O O9 0.946262 0.500000 0.555557
O O10 0.000000 0.596191 0.500000
O O11 0.743286 0.108754 0.900735
O O12 0.238975 0.110409 0.499333
O O13 0.493960 0.000000 0.706223
O O14 0.276974 0.074516 0.387942
O O15 0.520574 0.170328 0.867766
O O16 0.500000 0.197801 0.000000
O O17 0.980973 0.187174 0.370856
O O18 0.000000 0.092839 0.000000
O O19 0.756827 0.238624 0.502561
#
# Coordination Sequence:
#
# PCOD8067475 Si02
#       8
#     4   4   4   4   4   4   4   4
#     4  11  20  34  55  80 114 150 182 224 290 355
#     4  11  22  35  57  86 116 151 192 236 267 326
#     4  11  22  37  56  82 124 166 194 220 262 326
#     4  12  24  38  56  77 108 147 191 233 274 346
#     4  11  22  36  59  83 107 138 179 237 284 334
#     4  11  22  37  56  79 110 147 186 228 273 340
#     4  11  20  35  56  81 114 148 185 236 286 331
#     4  11  21  37  55  77 108 139 181 227 292 343
#
# _framework density 19.708475
#
# number of rings (size 3 to 8) (size 9 to 14) (size 15 to 20)
#    0.000    0.875    2.500    7.500    0.000    4.500 
#    0.000    0.000    0.000    2.250    0.000    0.000 
#    0.000   35.000    0.000    0.000    0.000    0.000 
#
# Total GULP energy -396669.934525 kJ/mol
# GULP energy per Si atom -12395.935454 kJ/mol
# Density = 1.966362 g / cm^3
# Si number density = 19.708475 Si / 1000 Ang^3
#
#
#
# Elastic Constant Matrix: (Units=GPa)
#
#
# Indices 1 2 3 4 5 6 
#
# 1 71.5946 28.5296 6.2664 0.0000 3.3843 0.0000
# 2 28.5296 56.2104 17.1096 0.0000 -10.5537 0.0000
# 3 6.2664 17.1096 84.7058 0.0000 -0.5265 0.0000
# 4 0.0000 0.0000 0.0000 20.9939 0.0000 -1.7695
# 5 3.3843 -10.5537 -0.5265 0.0000 37.8886 0.0000
# 6 0.0000 0.0000 0.0000 -1.7695 0.0000 17.1537
#
#
#
# Elastic Compliance Matrix: (Units=1/GPa)
#
#
# Indices 1 2 3 4 5 6 
#
# 1 0.018226 -0.010308 0.000706 0.000000 -0.004489 0.000000
# 2 -0.010308 0.025881 -0.004415 0.000000 0.008068 0.000000
# 3 0.000706 -0.004415 0.012638 0.000000 -0.001117 0.000000
# 4 0.000000 0.000000 0.000000 0.048051 0.000000 0.004957
# 5 -0.004489 0.008068 -0.001117 0.000000 0.029026 0.000000
# 6 0.000000 0.000000 0.000000 0.004957 0.000000 0.058808
#
#
# Mechanical properties :
#
#
# Convention : Reuss Voigt Hill
#
# Bulk Modulus (GPa) = 34.83063 35.14688 34.98876
# Shear Modulus (GPa) = 21.71703 25.91424 23.81564
#
# Velocity S-wave (km/s) = 3.32311 3.63006 3.47997
# Velocity P-wave (km/s) = 5.69520 5.95331 5.82569
#
# Compressibility (1/GPa) = 0.02871036
#
# Stress axis : x y z
#
# Youngs Moduli (GPa) = 54.86764 38.63839 79.12542
#
# Poissons Ratio (x) = 0.39829 -0.05586
# Poissons Ratio (y) = 0.56559 0.34933
# Poissons Ratio (z) = -0.03873 0.17059
#
# Static dielectric constant tensor:
#      x y z
#    x 3.684580 0.000000 -0.133220 
#    y 0.000000 3.171770 0.000000 
#    z -0.133220 0.000000 3.809190 
# 
# 
# High freq. dielectric constant tensor:
#      x y z
#    x 1.764220 0.000000 -0.002290 
#    y 0.000000 1.718080 0.000000 
#    z -0.002290 0.000000 1.794820 
# 
# From -- ./inp_files/67926.got.cif
#   From: 2010.06.25/outbox.cif.g09.slc.cpg/sg10_34_cif.got.tgz:67926.got - 2010.06.27 22:07:45.
