data_PCOD8067644
_publ_section_title
;
Structure prediction by ZEFSAII (Michael W. Deem and Ramdas Pophale) SiO2 
 PCOD8067644
Probable space group: P 2/M
;
_chemical_formula_sum "Si O2"
_cell_formula_units_Z 32
_cell_length_a 13.505489
_cell_length_b 18.191096
_cell_length_c 11.368196
_cell_angle_alpha 90.000000
_cell_angle_beta 147.204460
_cell_angle_gamma 90.000000
_cell_volume 1512.772735
_symmetry_space_group_name_H-M "P 2/M"
_symmetry_group_IT_number 10
_symmetry_cell_setting 'monoclinic'
loop_
_space_group_symop_operation_xyz
x,y,z
-x,y,-z
-x,-y,-z
x,-y,z
loop_
_atom_site_type_symbol
_atom_site_label
_atom_site_fract_x
_atom_site_fract_y
_atom_site_fract_z
Si Si1 0.914686 0.665714 0.665981
Si Si2 0.455587 0.168067 0.323411
Si Si3 0.549102 0.334753 0.417402
Si Si4 0.710141 0.836523 0.199639
Si Si5 0.710011 0.335740 0.224587
Si Si6 0.748013 0.586005 0.029494
Si Si7 0.911643 0.171986 0.160211
Si Si8 0.754176 0.086708 0.477012
O O1 0.766704 0.658672 0.621910
O O2 0.805950 0.638985 0.440345
O O3 0.071897 0.608295 0.864532
O O4 0.003426 0.746639 0.742977
O O5 0.500000 0.143823 0.500000
O O6 0.506345 0.251108 0.344401
O O7 0.565201 0.117221 0.341498
O O8 0.237833 0.164313 0.091583
O O9 0.500000 0.358527 0.500000
O O10 0.437641 0.384382 0.214022
O O11 0.733142 0.750912 0.244692
O O12 0.806601 0.854884 0.173263
O O13 0.804335 0.882060 0.397779
O O14 0.500000 0.860830 0.000000
O O15 0.804823 0.374472 0.208749
O O16 0.500000 0.360314 0.000000
O O17 0.725997 0.500000 0.025111
O O18 0.069961 0.115837 0.275675
O O19 0.741627 0.000000 0.463771
#
# Coordination Sequence:
#
# PCOD8067644 Si02
#       8
#     4   4   4   4   4   4   4   4
#     4  12  23  42  72 102 136 180 228 282 341 412
#     4  11  24  47  74  99 132 186 243 286 335 406
#     4  11  24  47  74  99 132 186 243 286 335 406
#     4  11  21  39  70  98 137 182 221 273 345 418
#     4  11  21  39  70  98 137 182 221 273 345 418
#     4  12  27  44  67 106 145 181 227 286 351 410
#     4  12  23  42  72 102 136 180 228 282 341 412
#     4  12  27  44  67 106 145 181 227 286 351 410
#
# _framework density 21.153210999999999
#
# number of rings (size 3 to 8) (size 9 to 14) (size 15 to 20)
#    0.000    0.500    7.500    0.750    0.000    5.000 
#    0.000    1.250    0.000    0.000    0.000    0.000 
#    0.000    0.000    0.000    0.000    0.000    0.000 
#
# Total GULP energy -396725.717678 kJ/mol
# GULP energy per Si atom -12397.678677 kJ/mol
# Density = 2.110507 g / cm^3
# Si number density = 21.153211 Si / 1000 Ang^3
#
#
#
# Elastic Constant Matrix: (Units=GPa)
#
#
# Indices 1 2 3 4 5 6 
#
# 1 91.8556 20.6633 47.7147 0.0000 5.4379 0.0000
# 2 20.6633 80.4267 35.0123 0.0000 -1.4676 0.0000
# 3 47.7147 35.0123 116.0293 0.0000 15.2470 0.0000
# 4 0.0000 0.0000 0.0000 23.2995 0.0000 8.1814
# 5 5.4379 -1.4676 15.2470 0.0000 43.6207 0.0000
# 6 0.0000 0.0000 0.0000 8.1814 0.0000 16.4220
#
#
#
# Elastic Compliance Matrix: (Units=1/GPa)
#
#
# Indices 1 2 3 4 5 6 
#
# 1 0.013953 -0.001243 -0.005376 0.000000 0.000098 0.000000
# 2 -0.001243 0.014608 -0.004174 0.000000 0.002105 0.000000
# 3 -0.005376 -0.004174 0.012598 0.000000 -0.003874 0.000000
# 4 0.000000 0.000000 0.000000 0.052020 0.000000 -0.025916
# 5 0.000098 0.002105 -0.003874 0.000000 0.024337 0.000000
# 6 0.000000 0.000000 0.000000 -0.025916 0.000000 0.073805
#
#
# Mechanical properties :
#
#
# Convention : Reuss Voigt Hill
#
# Bulk Modulus (GPa) = 51.08693 55.01023 53.04858
# Shear Modulus (GPa) = 22.78626 28.99652 25.89139
#
# Velocity S-wave (km/s) = 3.28563 3.70643 3.50236
# Velocity P-wave (km/s) = 6.21266 6.66175 6.44112
#
# Compressibility (1/GPa) = 0.01957448
#
# Stress axis : x y z
#
# Youngs Moduli (GPa) = 71.66995 68.45399 79.38022
#
# Poissons Ratio (x) = 0.08507 0.42672
# Poissons Ratio (y) = 0.08907 0.33131
# Poissons Ratio (z) = 0.38527 0.28571
#
# Static dielectric constant tensor:
#      x y z
#    x 4.016430 0.000000 0.375790 
#    y 0.000000 3.500850 0.000000 
#    z 0.375790 0.000000 4.335780 
# 
# 
# High freq. dielectric constant tensor:
#      x y z
#    x 1.831630 0.000000 0.018950 
#    y 0.000000 1.797490 0.000000 
#    z 0.018950 0.000000 1.846580 
# 
# From -- ./inp_files/51979.got.cif
#   From: 2010.06.25/outbox.cif.g09.slc.cpg/sg10_26_cif.got.tgz:51979.got - 2010.06.27 22:07:45.
