data_PCOD8067528
_publ_section_title
;
Structure prediction by ZEFSAII (Michael W. Deem and Ramdas Pophale) SiO2 
 PCOD8067528
Probable space group: P 2/M
;
_chemical_formula_sum "Si O2"
_cell_formula_units_Z 28
_cell_length_a 14.892315
_cell_length_b 14.221334
_cell_length_c 9.679432
_cell_angle_alpha 90.000000
_cell_angle_beta 49.490996
_cell_angle_gamma 90.000000
_cell_volume 1558.617826
_symmetry_space_group_name_H-M "P 2/M"
_symmetry_group_IT_number 10
_symmetry_cell_setting 'monoclinic'
loop_
_space_group_symop_operation_xyz
x,y,z
-x,y,-z
-x,-y,-z
x,-y,z
loop_
_atom_site_type_symbol
_atom_site_label
_atom_site_fract_x
_atom_site_fract_y
_atom_site_fract_z
Si Si1 0.383154 0.398425 0.205668
Si Si2 0.637839 0.800225 0.392592
Si Si3 0.005119 0.110459 0.840865
Si Si4 0.747397 0.109718 0.025040
Si Si5 0.616539 0.398991 0.473058
Si Si6 0.752835 0.890472 0.522851
Si Si7 0.359332 0.795282 0.121299
O O1 0.315514 0.500000 0.258486
O O2 0.414964 0.380169 0.334368
O O3 0.312884 0.308945 0.212806
O O4 0.500000 0.405655 0.000000
O O5 0.500000 0.800899 0.500000
O O6 0.687133 0.691876 0.344279
O O7 0.653435 0.842292 0.528784
O O8 0.710581 0.866244 0.217658
O O9 0.117161 0.151007 0.644141
O O10 0.886609 0.132064 0.872458
O O11 0.020489 0.000000 0.843025
O O12 0.000000 0.155758 0.000000
O O13 0.672955 0.180127 0.003448
O O14 0.719749 0.000000 0.022243
O O15 0.500000 0.408393 0.500000
O O16 0.685588 0.500000 0.390222
O O17 0.716243 0.870204 0.716182
O O18 0.750593 0.000000 0.498527
O O19 0.500000 0.805247 0.000000
#
# Coordination Sequence:
#
# PCOD8067528 Si02
#       7
#     4   4   4   4   4   4   4
#     4   9  18  33  52  74 105 143 177 216 266 318
#     4  11  21  32  51  81 109 143 178 212 269 333
#     4   9  18  36  57  76  98 134 191 240 263 295
#     4  11  23  37  54  76 109 147 183 225 264 309
#     4   9  18  32  51  77 106 137 178 224 264 312
#     4  11  21  35  55  76 106 145 184 222 264 316
#     4  11  23  36  51  81 116 146 175 215 269 331
#
# _framework density 17.964635000000001
#
# number of rings (size 3 to 8) (size 9 to 14) (size 15 to 20)
#    0.000    1.857    2.857    1.714    6.000    4.000 
#    0.000    2.143    0.000    0.000    0.000    6.000 
#    0.000    0.000    0.000    0.000    0.000    0.000 
#
# Total GULP energy -346922.290635 kJ/mol
# GULP energy per Si atom -12390.081808 kJ/mol
# Density = 1.792375 g / cm^3
# Si number density = 17.964635 Si / 1000 Ang^3
#
#
#
# Elastic Constant Matrix: (Units=GPa)
#
#
# Indices 1 2 3 4 5 6 
#
# 1 56.2190 37.0144 17.8837 0.0000 1.7425 0.0000
# 2 37.0144 110.2626 16.9421 0.0000 -1.1127 0.0000
# 3 17.8837 16.9421 64.6016 0.0000 -6.4329 0.0000
# 4 0.0000 0.0000 0.0000 20.3755 0.0000 12.4492
# 5 1.7425 -1.1127 -6.4329 0.0000 27.2982 0.0000
# 6 0.0000 0.0000 0.0000 12.4492 0.0000 11.1438
#
#
#
# Elastic Compliance Matrix: (Units=1/GPa)
#
#
# Indices 1 2 3 4 5 6 
#
# 1 0.024406 -0.007439 -0.005111 0.000000 -0.003065 0.000000
# 2 -0.007439 0.011718 -0.000941 0.000000 0.000731 0.000000
# 3 -0.005111 -0.000941 0.017582 0.000000 0.004431 0.000000
# 4 0.000000 0.000000 0.000000 0.154604 0.000000 -0.172714
# 5 -0.003065 0.000731 0.004431 0.000000 0.037902 0.000000
# 6 0.000000 0.000000 0.000000 -0.172714 0.000000 0.282680
#
#
# Mechanical properties :
#
#
# Convention : Reuss Voigt Hill
#
# Bulk Modulus (GPa) = 37.41732 41.64037 39.52884
# Shear Modulus (GPa) = 8.85297 22.37971 15.61634
#
# Velocity S-wave (km/s) = 2.22232 3.53337 2.95156
# Velocity P-wave (km/s) = 5.24008 6.31472 5.80233
#
# Compressibility (1/GPa) = 0.02672559
#
# Stress axis : x y z
#
# Youngs Moduli (GPa) = 40.97377 85.33651 56.87506
#
# Poissons Ratio (x) = 0.63478 0.29067
# Poissons Ratio (y) = 0.30478 0.05353
# Poissons Ratio (z) = 0.20941 0.08032
#
# Static dielectric constant tensor:
#      x y z
#    x 3.168610 0.000000 0.101420 
#    y 0.000000 3.895360 0.000000 
#    z 0.101420 0.000000 3.348080 
# 
# 
# High freq. dielectric constant tensor:
#      x y z
#    x 1.673110 0.000000 0.026450 
#    y 0.000000 1.698830 0.000000 
#    z 0.026450 0.000000 1.687320 
# 
# From -- ./inp_files/24934.got.cif
#   From: 2010.06.25/outbox.cif.g09.slc.cpg/sg10_13_cif.got.tgz:24934.got - 2010.06.27 22:07:45.
