data_PCOD8067090
_publ_section_title
;
Structure prediction by ZEFSAII (Michael W. Deem and Ramdas Pophale) SiO2 
 PCOD8067090
Probable space group: P 2/M
;
_chemical_formula_sum "Si O2"
_cell_formula_units_Z 24
_cell_length_a 9.920625
_cell_length_b 9.096238
_cell_length_c 13.722811
_cell_angle_alpha 90.000000
_cell_angle_beta 89.836236
_cell_angle_gamma 90.000000
_cell_volume 1238.346430
_symmetry_space_group_name_H-M "P 2/M"
_symmetry_group_IT_number 10
_symmetry_cell_setting 'monoclinic'
loop_
_space_group_symop_operation_xyz
x,y,z
-x,y,-z
-x,-y,-z
x,-y,z
loop_
_atom_site_type_symbol
_atom_site_label
_atom_site_fract_x
_atom_site_fract_y
_atom_site_fract_z
Si Si1 0.110258 0.826164 0.576511
Si Si2 0.758701 0.672294 0.074543
Si Si3 0.614875 0.671912 0.424962
Si Si4 0.488503 0.670994 0.786483
Si Si5 0.032575 0.169635 0.792061
Si Si6 0.260955 0.170145 0.130292
O O1 0.251187 0.756736 0.545105
O O2 0.068011 0.772949 0.684270
O O3 0.000000 0.769210 0.500000
O O4 0.123974 0.000000 0.572075
O O5 0.781448 0.500000 0.063151
O O6 0.622111 0.708116 0.132127
O O7 0.887538 0.736698 0.129002
O O8 0.746310 0.742244 0.969434
O O9 0.500000 0.720965 0.500000
O O10 0.645167 0.500000 0.431665
O O11 0.571323 0.717968 0.316978
O O12 0.529224 0.500000 0.788323
O O13 0.619344 0.768464 0.803927
O O14 0.874461 0.193148 0.808058
O O15 0.073665 0.000000 0.805543
O O16 0.286544 0.000000 0.106447
#
# Coordination Sequence:
#
# PCOD8067090 Si02
#       6
#     4   4   4   4   4   4
#     4  10  22  40  63  89 119 154 194 240 291 347
#     4  11  22  39  62  86 116 155 199 243 292 347
#     4  10  22  41  63  89 120 154 193 240 293 347
#     4  10  22  40  59  85 120 154 194 243 290 343
#     4  10  22  40  59  85 121 156 193 242 292 344
#     4  11  24  38  58  88 120 155 197 241 290 348
#
# _framework density 19.380682
#
# number of rings (size 3 to 8) (size 9 to 14) (size 15 to 20)
#    0.000    1.667    1.667    2.000    2.333    8.000 
#    0.000    0.000    0.000    0.000    0.000    0.000 
#    0.000    0.000    0.000    0.000    0.000    0.000 
#
# Total GULP energy -297756.202876 kJ/mol
# GULP energy per Si atom -12406.508453 kJ/mol
# Density = 1.933657 g / cm^3
# Si number density = 19.380682 Si / 1000 Ang^3
#
#
#
# Elastic Constant Matrix: (Units=GPa)
#
#
# Indices 1 2 3 4 5 6 
#
# 1 137.3948 51.5921 47.7239 0.0000 8.5831 0.0000
# 2 51.5921 55.8137 24.9995 0.0000 0.4418 0.0000
# 3 47.7239 24.9995 98.3137 0.0000 -1.7136 0.0000
# 4 0.0000 0.0000 0.0000 14.4842 0.0000 8.3760
# 5 8.5831 0.4418 -1.7136 0.0000 34.4946 0.0000
# 6 0.0000 0.0000 0.0000 8.3760 0.0000 49.2747
#
#
#
# Elastic Compliance Matrix: (Units=1/GPa)
#
#
# Indices 1 2 3 4 5 6 
#
# 1 0.012415 -0.009849 -0.003577 0.000000 -0.003141 0.000000
# 2 -0.009849 0.028042 -0.002315 0.000000 0.001977 0.000000
# 3 -0.003577 -0.002315 0.012523 0.000000 0.001542 0.000000
# 4 0.000000 0.000000 0.000000 0.076567 0.000000 -0.013015
# 5 -0.003141 0.001977 0.001542 0.000000 0.029823 0.000000
# 6 0.000000 0.000000 0.000000 -0.013015 0.000000 0.022507
#
#
# Mechanical properties :
#
#
# Convention : Reuss Voigt Hill
#
# Bulk Modulus (GPa) = 46.51513 60.01702 53.26608
# Shear Modulus (GPa) = 22.67292 30.79781 26.73537
#
# Velocity S-wave (km/s) = 3.42405 3.99067 3.71817
# Velocity P-wave (km/s) = 6.29961 7.22971 6.78062
#
# Compressibility (1/GPa) = 0.02149838
#
# Stress axis : x y z
#
# Youngs Moduli (GPa) = 80.54513 35.66027 79.85018
#
# Poissons Ratio (x) = 0.35123 0.28562
# Poissons Ratio (y) = 0.79331 0.18487
# Poissons Ratio (z) = 0.28811 0.08256
#
# Static dielectric constant tensor:
#      x y z
#    x 3.711220 0.000000 0.003280 
#    y 0.000000 3.534870 0.000000 
#    z 0.003280 0.000000 3.715170 
# 
# 
# High freq. dielectric constant tensor:
#      x y z
#    x 1.767190 0.000000 -0.001060 
#    y 0.000000 1.752360 0.000000 
#    z -0.001060 0.000000 1.766610 
# 
# From -- ./inp_files/60284.got.cif
#   From: 2010.06.25/outbox.cif.g09.slc.cpg/sg10_31_cif.got.tgz:60284.got - 2010.06.27 22:07:45.
