data_PCOD8067651
_publ_section_title
;
Structure prediction by ZEFSAII (Michael W. Deem and Ramdas Pophale) SiO2 
 PCOD8067651
Probable space group: P 2/M
;
_chemical_formula_sum "Si O2"
_cell_formula_units_Z 28
_cell_length_a 18.240101
_cell_length_b 9.591516
_cell_length_c 14.397376
_cell_angle_alpha 90.000000
_cell_angle_beta 140.812144
_cell_angle_gamma 90.000000
_cell_volume 1591.556887
_symmetry_space_group_name_H-M "P 2/M"
_symmetry_group_IT_number 10
_symmetry_cell_setting 'monoclinic'
loop_
_space_group_symop_operation_xyz
x,y,z
-x,y,-z
-x,-y,-z
x,-y,z
loop_
_atom_site_type_symbol
_atom_site_label
_atom_site_fract_x
_atom_site_fract_y
_atom_site_fract_z
Si Si1 0.912657 0.840660 0.691890
Si Si2 0.916468 0.346233 0.046813
Si Si3 0.052766 0.836857 0.648643
Si Si4 0.300634 0.338643 0.279372
Si Si5 0.767106 0.345356 0.085446
Si Si6 0.656889 0.163476 0.498136
Si Si7 0.551757 0.338648 0.758934
O O1 0.776063 0.811883 0.559564
O O2 0.974997 0.756705 0.836189
O O3 0.960661 0.796250 0.638135
O O4 0.942380 0.000000 0.741421
O O5 0.967441 0.500000 0.078228
O O6 0.840950 0.346468 0.064811
O O7 0.832144 0.302452 0.879420
O O8 0.176325 0.761258 0.785903
O O9 0.000000 0.784314 0.500000
O O10 0.079257 0.000000 0.672316
O O11 0.310598 0.500000 0.321070
O O12 0.338908 0.235730 0.397767
O O13 0.386022 0.310391 0.277732
O O14 0.766826 0.500000 0.129554
O O15 0.636727 0.301201 0.928578
O O16 0.557919 0.236631 0.339368
O O17 0.630152 0.000000 0.484792
O O18 0.513009 0.500000 0.727136
#
# Coordination Sequence:
#
# PCOD8067651 Si02
#       7
#     4   4   4   4   4   4   4
#     4   9  19  33  45  64  96 124 146 182 232 276
#     4   8  15  29  48  67  87 116 154 190 225 270
#     4   9  17  31  53  76  94 115 145 181 224 277
#     4   9  18  32  48  66  89 119 158 200 232 258
#     4   8  15  29  49  72  94 115 144 186 231 267
#     4  11  22  31  42  64  94 126 157 190 227 267
#     4   9  18  33  50  66  89 123 160 194 225 259
#
# _framework density 17.592836999999999
#
# number of rings (size 3 to 8) (size 9 to 14) (size 15 to 20)
#    0.000    3.000    0.000    2.571    0.000    5.429 
#    0.000    5.714    0.000    0.857    0.000    6.000 
#    0.000    0.000    0.000    0.000    0.000    0.000 
#
# Total GULP energy -347106.081083 kJ/mol
# GULP energy per Si atom -12396.645753 kJ/mol
# Density = 1.755279 g / cm^3
# Si number density = 17.592837 Si / 1000 Ang^3
#
#
#
# Elastic Constant Matrix: (Units=GPa)
#
#
# Indices 1 2 3 4 5 6 
#
# 1 31.1862 28.8829 35.0834 0.0000 13.1940 0.0000
# 2 28.8829 89.6333 80.9641 0.0000 15.3373 0.0000
# 3 35.0834 80.9641 150.8474 0.0000 12.8417 0.0000
# 4 0.0000 0.0000 0.0000 28.7556 0.0000 9.7199
# 5 13.1940 15.3373 12.8417 0.0000 18.5682 0.0000
# 6 0.0000 0.0000 0.0000 9.7199 0.0000 15.2166
#
#
#
# Elastic Compliance Matrix: (Units=1/GPa)
#
#
# Indices 1 2 3 4 5 6 
#
# 1 0.060821 -0.007397 -0.007455 0.000000 -0.031952 0.000000
# 2 -0.007397 0.024655 -0.010866 0.000000 -0.007594 0.000000
# 3 -0.007455 -0.010866 0.013792 0.000000 0.004734 0.000000
# 4 0.000000 0.000000 0.000000 0.044352 0.000000 -0.028331
# 5 -0.031952 -0.007594 0.004734 0.000000 0.079558 0.000000
# 6 0.000000 0.000000 0.000000 -0.028331 0.000000 0.083815
#
#
# Mechanical properties :
#
#
# Convention : Reuss Voigt Hill
#
# Bulk Modulus (GPa) = 20.90686 62.39195 41.64940
# Shear Modulus (GPa) = 13.35569 20.95720 17.15645
#
# Velocity S-wave (km/s) = 2.75827 3.45517 3.12620
# Velocity P-wave (km/s) = 4.69612 7.17349 6.06270
#
# Compressibility (1/GPa) = 0.04783119
#
# Stress axis : x y z
#
# Youngs Moduli (GPa) = 16.44168 40.56053 72.50509
#
# Poissons Ratio (x) = 0.30003 0.54054
# Poissons Ratio (y) = 0.12162 0.78783
# Poissons Ratio (z) = 0.12258 0.44073
#
# Static dielectric constant tensor:
#      x y z
#    x 2.957510 0.000000 0.123950 
#    y 0.000000 3.394460 0.000000 
#    z 0.123950 0.000000 3.521580 
# 
# 
# High freq. dielectric constant tensor:
#      x y z
#    x 1.641490 0.000000 0.012440 
#    y 0.000000 1.679170 0.000000 
#    z 0.012440 0.000000 1.686030 
# 
# From -- ./inp_files/54700.got.cif
#   From: 2010.06.25/outbox.cif.g09.slc.cpg/sg10_28_cif.got.tgz:54700.got - 2010.06.27 22:07:45.
