data_PCOD8067975
_publ_section_title
;
Structure prediction by ZEFSAII (Michael W. Deem and Ramdas Pophale) SiO2 
 PCOD8067975
Probable space group: P 2/M
;
_chemical_formula_sum "Si O2"
_cell_formula_units_Z 24
_cell_length_a 9.883242
_cell_length_b 15.085678
_cell_length_c 10.898147
_cell_angle_alpha 90.000000
_cell_angle_beta 63.035682
_cell_angle_gamma 90.000000
_cell_volume 1448.223237
_symmetry_space_group_name_H-M "P 2/M"
_symmetry_group_IT_number 10
_symmetry_cell_setting 'monoclinic'
loop_
_space_group_symop_operation_xyz
x,y,z
-x,y,-z
-x,-y,-z
x,-y,z
loop_
_atom_site_type_symbol
_atom_site_label
_atom_site_fract_x
_atom_site_fract_y
_atom_site_fract_z
Si Si1 0.765171 0.751564 0.158394
Si Si2 0.429993 0.598156 0.836503
Si Si3 0.076435 0.248436 0.158394
Si Si4 0.733504 0.401844 0.836503
Si Si5 0.032484 0.101430 0.624392
Si Si6 0.343124 0.898570 0.624392
O O1 0.645514 0.671011 0.220990
O O2 0.690156 0.840438 0.241900
O O3 0.913001 0.723245 0.173998
O O4 0.807131 0.771338 1.000000
O O5 0.418833 0.500000 0.780714
O O6 0.605929 0.622931 0.788141
O O7 0.340620 0.596875 0.000000
O O8 0.133497 0.328989 0.220990
O O9 0.067944 0.159562 0.241900
O O10 0.800452 0.500000 0.780714
O O11 0.211073 0.113431 0.577855
O O12 0.000000 0.133311 0.500000
O O13 0.981067 0.000000 0.664607
O O14 0.500000 0.866688 0.500000
O O15 0.354329 0.000000 0.664605
#
# Coordination Sequence:
#
# PCOD8067975 Si02
#       6
#     4   4   4   4   4   4
#     4   9  17  28  44  68  93 115 143 181 222 259
#     4   8  14  25  41  62  89 119 147 175 212 259
#     4   9  17  28  44  68  93 115 143 181 222 259
#     4   8  14  25  41  62  89 119 147 175 212 259
#     4   9  18  32  48  65  87 117 150 181 216 261
#     4   9  18  32  48  65  87 117 150 181 216 261
#
# _framework density 16.572030999999999
#
# number of rings (size 3 to 8) (size 9 to 14) (size 15 to 20)
#    0.000    3.333    0.000    1.000    0.000    2.667 
#    0.000    6.667    0.000    1.000    0.000    9.333 
#    0.000    0.000    0.000    0.000    0.000    0.000 
#
# Total GULP energy -297512.451275 kJ/mol
# GULP energy per Si atom -12396.352136 kJ/mol
# Density = 1.653431 g / cm^3
# Si number density = 16.572031 Si / 1000 Ang^3
#
#
#
# Elastic Constant Matrix: (Units=GPa)
#
#
# Indices 1 2 3 4 5 6 
#
# 1 86.2981 72.4898 45.3940 0.0000 -0.0192 0.0000
# 2 72.4898 116.8148 52.5332 0.0000 0.3927 0.0000
# 3 45.3940 52.5332 57.0496 0.0000 0.5945 0.0000
# 4 0.0000 0.0000 0.0000 7.6822 0.0000 0.4688
# 5 -0.0192 0.3927 0.5945 0.0000 20.9265 0.0000
# 6 0.0000 0.0000 0.0000 0.4688 0.0000 31.5113
#
#
#
# Elastic Compliance Matrix: (Units=1/GPa)
#
#
# Indices 1 2 3 4 5 6 
#
# 1 0.027466 -0.012315 -0.010521 0.000000 0.000555 0.000000
# 2 -0.012315 0.020133 -0.008739 0.000000 -0.000141 0.000000
# 3 -0.010521 -0.008739 0.033955 0.000000 -0.000810 0.000000
# 4 0.000000 0.000000 0.000000 0.130289 0.000000 -0.001938
# 5 0.000555 -0.000141 -0.000810 0.000000 0.047813 0.000000
# 6 0.000000 0.000000 0.000000 -0.001938 0.000000 0.031764
#
#
# Mechanical properties :
#
#
# Convention : Reuss Voigt Hill
#
# Bulk Modulus (GPa) = 54.33028 66.77741 60.55384
# Shear Modulus (GPa) = 13.86179 18.00702 15.93441
#
# Velocity S-wave (km/s) = 2.89529 3.29992 3.10421
# Velocity P-wave (km/s) = 6.63570 7.40959 7.03330
#
# Compressibility (1/GPa) = 0.01840594
#
# Stress axis : x y z
#
# Youngs Moduli (GPa) = 36.40836 49.66958 29.45056
#
# Poissons Ratio (x) = 0.61167 0.30984
# Poissons Ratio (y) = 0.44836 0.25736
# Poissons Ratio (z) = 0.38304 0.43406
#
# Static dielectric constant tensor:
#      x y z
#    x 3.277870 0.000000 0.010100 
#    y 0.000000 3.363000 0.000000 
#    z 0.010100 0.000000 2.764490 
# 
# 
# High freq. dielectric constant tensor:
#      x y z
#    x 1.642240 0.000000 0.000920 
#    y 0.000000 1.643800 0.000000 
#    z 0.000920 0.000000 1.595240 
# 
# From -- ./inp_files/42404.got.cif
#   From: 2010.06.25/outbox.cif.g09.slc.cpg/sg10_22_cif.got.tgz:42404.got - 2010.06.27 22:07:45.
