data_PCOD8067869
_publ_section_title
;
Structure prediction by ZEFSAII (Michael W. Deem and Ramdas Pophale) SiO2 
 PCOD8067869
Probable space group: P 2/M
;
_chemical_formula_sum "Si O2"
_cell_formula_units_Z 32
_cell_length_a 22.964245
_cell_length_b 9.387940
_cell_length_c 27.952481
_cell_angle_alpha 90.000000
_cell_angle_beta 162.456802
_cell_angle_gamma 90.000000
_cell_volume 1816.442985
_symmetry_space_group_name_H-M "P 2/M"
_symmetry_group_IT_number 10
_symmetry_cell_setting 'monoclinic'
loop_
_space_group_symop_operation_xyz
x,y,z
-x,y,-z
-x,-y,-z
x,-y,z
loop_
_atom_site_type_symbol
_atom_site_label
_atom_site_fract_x
_atom_site_fract_y
_atom_site_fract_z
Si Si1 0.401665 0.660434 0.037994
Si Si2 0.835221 0.160604 0.080993
Si Si3 0.836173 0.330688 0.836121
Si Si4 0.918204 0.665494 0.794110
Si Si5 0.340764 0.330997 0.840814
Si Si6 0.578284 0.665495 0.454293
Si Si7 0.818312 0.160604 0.572648
Si Si8 0.052911 0.660431 0.689349
O O1 0.422563 0.500000 0.074591
O O2 0.603554 0.711724 0.170390
O O3 0.354041 0.764519 0.044775
O O4 0.232736 0.663828 0.866395
O O5 0.902897 0.246528 0.087270
O O6 0.004912 0.163016 0.252402
O O7 0.781001 0.000000 0.023800
O O8 0.832835 0.500000 0.832778
O O9 0.879647 0.274875 0.816945
O O10 0.628788 0.274884 0.691335
O O11 0.000000 0.271518 0.000000
O O12 0.977370 0.500000 0.840350
O O13 0.724008 0.690685 0.612085
O O14 0.358485 0.500000 0.858527
O O15 0.128864 0.288276 0.695847
O O16 0.500000 0.259038 0.000000
O O17 0.570758 0.500000 0.433864
O O18 0.640384 0.753458 0.456148
O O19 0.882902 0.235470 0.573779
O O20 0.752129 0.000000 0.509475
O O21 0.969163 0.500000 0.621335
#
# Coordination Sequence:
#
# PCOD8067869 Si02
#       8
#     4   4   4   4   4   4   4   4
#     4   8  12  19  31  46  66  95 131 167 201 238
#     4   9  16  24  34  51  75 101 131 168 204 234
#     4   9  17  29  46  67  86 102 126 165 206 238
#     4   9  16  27  44  63  81 104 134 164 196 239
#     4   7  10  16  27  43  63  91 128 165 198 235
#     4   9  16  27  44  63  81 104 134 164 196 239
#     4   9  16  24  34  51  75 101 131 168 204 234
#     4   8  12  19  31  46  66  95 131 167 201 238
#
# _framework density 17.616848000000001
#
# number of rings (size 3 to 8) (size 9 to 14) (size 15 to 20)
#    0.000    3.500    0.000    2.625    0.000    4.500 
#    0.000    1.250    0.000    8.250    0.000    0.000 
#    0.000    0.000    0.000    1.125    0.000   27.000 
#
# Total GULP energy -396475.613081 kJ/mol
# GULP energy per Si atom -12389.862909 kJ/mol
# Density = 1.757675 g / cm^3
# Si number density = 17.616848 Si / 1000 Ang^3
#
#
#
# Elastic Constant Matrix: (Units=GPa)
#
#
# Indices 1 2 3 4 5 6 
#
# 1 159.6993 71.4060 58.5848 0.0000 57.5296 0.0000
# 2 71.4060 88.3124 28.2910 0.0000 24.9430 0.0000
# 3 58.5848 28.2910 33.7532 0.0000 15.2921 0.0000
# 4 0.0000 0.0000 0.0000 4.8945 0.0000 1.2610
# 5 57.5296 24.9430 15.2921 0.0000 25.2966 0.0000
# 6 0.0000 0.0000 0.0000 1.2610 0.0000 7.0717
#
#
#
# Elastic Compliance Matrix: (Units=1/GPa)
#
#
# Indices 1 2 3 4 5 6 
#
# 1 0.176079 -0.005744 -0.167944 0.000000 -0.293252 0.000000
# 2 -0.005744 0.017857 -0.004047 0.000000 -0.002099 0.000000
# 3 -0.167944 -0.004047 0.206120 0.000000 0.261326 0.000000
# 4 0.000000 0.000000 0.000000 0.214151 0.000000 -0.038187
# 5 -0.293252 -0.002099 0.261326 0.000000 0.550540 0.000000
# 6 0.000000 0.000000 0.000000 -0.038187 0.000000 0.148217
#
#
# Mechanical properties :
#
#
# Convention : Reuss Voigt Hill
#
# Bulk Modulus (GPa) = 22.42784 66.48096 44.45440
# Shear Modulus (GPa) = 2.97036 15.68478 9.32757
#
# Velocity S-wave (km/s) = 1.29990 2.98707 2.30352
# Velocity P-wave (km/s) = 3.87447 7.05095 5.68891
#
# Compressibility (1/GPa) = 0.04458744
#
# Stress axis : x y z
#
# Youngs Moduli (GPa) = 5.67926 56.00143 4.85153
#
# Poissons Ratio (x) = 0.32165 0.81478
# Poissons Ratio (y) = 0.03262 0.01964
# Poissons Ratio (z) = 0.95380 0.22666
#
# Static dielectric constant tensor:
#      x y z
#    x 3.585530 0.000000 0.452990 
#    y 0.000000 3.100330 0.000000 
#    z 0.452990 0.000000 2.803710 
# 
# 
# High freq. dielectric constant tensor:
#      x y z
#    x 1.690280 0.000000 0.041390 
#    y 0.000000 1.650210 0.000000 
#    z 0.041390 0.000000 1.618860 
# 
# From -- ./inp_files/87091.got.cif
#   From: 2010.06.25/outbox.cif.g09.slc.cpg/sg10_44_cif.got.tgz:87091.got - 2010.06.27 22:07:45.
