data_PCOD8067729
_publ_section_title
;
Structure prediction by ZEFSAII (Michael W. Deem and Ramdas Pophale) SiO2 
 PCOD8067729
Probable space group: P 2/M
;
_chemical_formula_sum "Si O2"
_cell_formula_units_Z 16
_cell_length_a 9.230870
_cell_length_b 8.307669
_cell_length_c 17.036091
_cell_angle_alpha 90.000000
_cell_angle_beta 35.909669
_cell_angle_gamma 90.000000
_cell_volume 766.242941
_symmetry_space_group_name_H-M "P 2/M"
_symmetry_group_IT_number 10
_symmetry_cell_setting 'monoclinic'
loop_
_space_group_symop_operation_xyz
x,y,z
-x,y,-z
-x,-y,-z
x,-y,z
loop_
_atom_site_type_symbol
_atom_site_label
_atom_site_fract_x
_atom_site_fract_y
_atom_site_fract_z
Si Si1 0.921607 0.813541 0.120998
Si Si2 0.952788 0.186227 0.634240
Si Si3 0.388472 0.312619 0.344856
Si Si4 0.778853 0.685856 0.869384
O O1 0.080296 0.707941 0.110999
O O2 0.633448 0.782134 0.261256
O O3 0.981706 0.000000 0.108857
O O4 0.000000 0.757937 0.000000
O O5 0.709147 0.245410 0.695347
O O6 0.918011 0.212591 0.741677
O O7 0.188092 0.286293 0.501115
O O8 0.000326 0.000000 0.595243
O O9 0.448090 0.500000 0.310096
O O10 0.780284 0.500000 0.843815
O O11 0.500000 0.750225 0.000000
#
# Coordination Sequence:
#
# PCOD8067729 Si02
#       4
#     4   4   4   4
#     4  11  24  41  62  89 121 157 199 246 297 353
#     4  11  22  39  63  90 122 158 199 244 295 353
#     4  11  22  39  63  90 122 158 199 244 295 353
#     4  11  24  41  62  89 121 157 199 246 297 353
#
# _framework density 20.881105999999999
#
# number of rings (size 3 to 8) (size 9 to 14) (size 15 to 20)
#    0.000    1.000    0.000    9.000    0.000    9.000 
#    0.000    5.000    0.000    0.000    0.000    0.000 
#    0.000    0.000    0.000    0.000    0.000    0.000 
#
# Total GULP energy -198552.940913 kJ/mol
# GULP energy per Si atom -12409.558807 kJ/mol
# Density = 2.083358 g / cm^3
# Si number density = 20.881106 Si / 1000 Ang^3
#
#
#
# Elastic Constant Matrix: (Units=GPa)
#
#
# Indices 1 2 3 4 5 6 
#
# 1 122.5708 6.5386 61.3951 0.0000 -0.4597 0.0000
# 2 6.5386 71.7023 8.4397 0.0000 8.1838 0.0000
# 3 61.3951 8.4397 89.9092 0.0000 -6.7240 0.0000
# 4 0.0000 0.0000 0.0000 25.2370 0.0000 2.4281
# 5 -0.4597 8.1838 -6.7240 0.0000 44.6086 0.0000
# 6 0.0000 0.0000 0.0000 2.4281 0.0000 35.9903
#
#
#
# Elastic Compliance Matrix: (Units=1/GPa)
#
#
# Indices 1 2 3 4 5 6 
#
# 1 0.012460 0.000009 -0.008596 0.000000 -0.001169 0.000000
# 2 0.000009 0.014462 -0.001580 0.000000 -0.002891 0.000000
# 3 -0.008596 -0.001580 0.017351 0.000000 0.002817 0.000000
# 4 0.000000 0.000000 0.000000 0.039883 0.000000 -0.002691
# 5 -0.001169 -0.002891 0.002817 0.000000 0.023360 0.000000
# 6 0.000000 0.000000 0.000000 -0.002691 0.000000 0.027967
#
#
# Mechanical properties :
#
#
# Convention : Reuss Voigt Hill
#
# Bulk Modulus (GPa) = 41.77429 48.54767 45.16098
# Shear Modulus (GPa) = 30.52565 35.02110 32.77338
#
# Velocity S-wave (km/s) = 3.82760 4.09977 3.96602
# Velocity P-wave (km/s) = 6.29152 6.76098 6.53047
#
# Compressibility (1/GPa) = 0.02393817
#
# Stress axis : x y z
#
# Youngs Moduli (GPa) = 80.25963 69.14829 57.63230
#
# Poissons Ratio (x) = -0.00063 0.49543
# Poissons Ratio (y) = -0.00073 0.09105
# Poissons Ratio (z) = 0.68994 0.10925
#
# Static dielectric constant tensor:
#      x y z
#    x 3.694970 0.000000 -0.024180 
#    y 0.000000 3.734980 0.000000 
#    z -0.024180 0.000000 3.743220 
# 
# 
# High freq. dielectric constant tensor:
#      x y z
#    x 1.817140 0.000000 0.000660 
#    y 0.000000 1.829140 0.000000 
#    z 0.000660 0.000000 1.825210 
# 
# From -- ./inp_files/21998.got.cif
#   From: 2010.06.25/outbox.cif.g09.slc.cpg/sg10_11_cif.got.tgz:21998.got - 2010.06.27 22:07:45.
