data_PCOD8067746
_publ_section_title
;
Structure prediction by ZEFSAII (Michael W. Deem and Ramdas Pophale) SiO2 
 PCOD8067746
Probable space group: P 2/M
;
_chemical_formula_sum "Si O2"
_cell_formula_units_Z 14
_cell_length_a 6.432436
_cell_length_b 9.941200
_cell_length_c 9.768824
_cell_angle_alpha 90.000000
_cell_angle_beta 77.561713
_cell_angle_gamma 90.000000
_cell_volume 610.016416
_symmetry_space_group_name_H-M "P 2/M"
_symmetry_group_IT_number 10
_symmetry_cell_setting 'monoclinic'
loop_
_space_group_symop_operation_xyz
x,y,z
-x,y,-z
-x,-y,-z
x,-y,z
loop_
_atom_site_type_symbol
_atom_site_label
_atom_site_fract_x
_atom_site_fract_y
_atom_site_fract_z
Si Si1 0.180025 0.708024 0.747676
Si Si2 0.439545 0.500000 0.852965
Si Si3 0.500000 0.787199 0.500000
Si Si4 0.971188 0.000000 0.165462
Si Si5 0.773607 0.000000 0.611549
Si Si6 0.109694 0.500000 0.334669
O O1 0.292527 0.632209 0.857017
O O2 0.334853 0.689894 0.596755
O O3 0.961570 0.634654 0.737282
O O4 0.159467 0.866210 0.780062
O O5 0.634299 0.500000 0.714915
O O6 0.500000 0.500000 0.000000
O O7 0.633606 0.871782 0.592232
O O8 0.184069 0.000000 0.229793
O O9 0.000000 0.000000 0.000000
O O10 0.000000 0.000000 0.500000
O O11 0.000000 0.500000 0.500000
#
# Coordination Sequence:
#
# PCOD8067746 Si02
#       6
#     4   2   2   2   2   2
#     4  11  26  45  70 109 141 184 249 300 359 442
#     4  11  28  47  74  98 148 203 237 298 370 447
#     4  11  22  41  74 108 138 184 254 300 364 426
#     4  12  28  44  72 108 150 194 238 303 372 438
#     4  11  22  41  66 102 146 193 231 298 367 428
#     4  11  26  47  74 104 142 189 242 303 365 426
#
# _framework density 22.950203999999999
#
# number of rings (size 3 to 8) (size 9 to 14) (size 15 to 20)
#    0.000    0.857    2.857    2.571   12.000    3.429 
#    0.000    2.143    0.000    0.000    0.000    0.000 
#    0.000    0.000    0.000    0.000    0.000    0.000 
#
# Total GULP energy -173518.204777 kJ/mol
# GULP energy per Si atom -12394.157484 kJ/mol
# Density = 2.289797 g / cm^3
# Si number density = 22.950204 Si / 1000 Ang^3
#
#
#
# Elastic Constant Matrix: (Units=GPa)
#
#
# Indices 1 2 3 4 5 6 
#
# 1 114.6150 44.9553 28.3488 0.0000 24.9120 0.0000
# 2 44.9553 160.4618 20.4903 0.0000 15.3407 0.0000
# 3 28.3488 20.4903 113.4221 0.0000 29.6567 0.0000
# 4 0.0000 0.0000 0.0000 22.1727 0.0000 -2.1353
# 5 24.9120 15.3407 29.6567 0.0000 46.7841 0.0000
# 6 0.0000 0.0000 0.0000 -2.1353 0.0000 20.1750
#
#
#
# Elastic Compliance Matrix: (Units=1/GPa)
#
#
# Indices 1 2 3 4 5 6 
#
# 1 0.010920 -0.002504 -0.001164 0.000000 -0.004256 0.000000
# 2 -0.002504 0.007059 -0.000471 0.000000 -0.000683 0.000000
# 3 -0.001164 -0.000471 0.010776 0.000000 -0.006057 0.000000
# 4 0.000000 0.000000 0.000000 0.045565 0.000000 0.004823
# 5 -0.004256 -0.000683 -0.006057 0.000000 0.027704 0.000000
# 6 0.000000 0.000000 0.000000 0.004823 0.000000 0.050077
#
#
# Mechanical properties :
#
#
# Convention : Reuss Voigt Hill
#
# Bulk Modulus (GPa) = 48.83453 64.00972 56.42213
# Shear Modulus (GPa) = 29.90348 37.47334 33.68841
#
# Velocity S-wave (km/s) = 3.61359 4.04519 3.83546
# Velocity P-wave (km/s) = 6.22377 7.05474 6.65224
#
# Compressibility (1/GPa) = 0.02047731
#
# Stress axis : x y z
#
# Youngs Moduli (GPa) = 91.57620 141.66511 92.79554
#
# Poissons Ratio (x) = 0.35470 0.10804
# Poissons Ratio (y) = 0.22929 0.04369
# Poissons Ratio (z) = 0.10662 0.06670
#
# Static dielectric constant tensor:
#      x y z
#    x 4.421440 0.000000 0.113340 
#    y 0.000000 4.669900 0.000000 
#    z 0.113340 0.000000 4.083440 
# 
# 
# High freq. dielectric constant tensor:
#      x y z
#    x 1.916890 0.000000 0.012910 
#    y 0.000000 1.919230 0.000000 
#    z 0.012910 0.000000 1.892180 
# 
# From -- ./inp_files/14041.got.cif
#   From: 2010.06.25/outbox.cif.g09.slc.cpg/sg10_8_cif.got.tgz:14041.got - 2010.06.27 22:07:45.
