data_PCOD8067785
_publ_section_title
;
Structure prediction by ZEFSAII (Michael W. Deem and Ramdas Pophale) SiO2 
 PCOD8067785
Probable space group: P 2/M
;
_chemical_formula_sum "Si O2"
_cell_formula_units_Z 24
_cell_length_a 8.721057
_cell_length_b 13.759477
_cell_length_c 19.948501
_cell_angle_alpha 90.000000
_cell_angle_beta 149.493806
_cell_angle_gamma 90.000000
_cell_volume 1215.149991
_symmetry_space_group_name_H-M "P 2/M"
_symmetry_group_IT_number 10
_symmetry_cell_setting 'monoclinic'
loop_
_space_group_symop_operation_xyz
x,y,z
-x,y,-z
-x,-y,-z
x,-y,z
loop_
_atom_site_type_symbol
_atom_site_label
_atom_site_fract_x
_atom_site_fract_y
_atom_site_fract_z
Si Si1 0.350769 0.797918 0.129809
Si Si2 0.645438 0.112185 0.367631
Si Si3 0.675990 0.787766 0.634555
Si Si4 0.315400 0.886824 0.866556
Si Si5 0.559539 0.609609 0.912939
Si Si6 0.992765 0.390311 0.197432
O O1 0.493384 0.820398 0.255005
O O2 0.493028 0.867549 0.127563
O O3 0.413536 0.684481 0.138070
O O4 0.000000 0.821987 0.000000
O O5 0.520915 0.142319 0.393026
O O6 0.000000 0.129971 0.500000
O O7 0.564398 0.000000 0.323528
O O8 0.500000 0.770976 0.500000
O O9 0.997041 0.835038 0.740666
O O10 0.727423 0.682927 0.688717
O O11 0.254968 0.000000 0.852520
O O12 0.500000 0.845307 0.000000
O O13 0.565893 0.500000 0.886522
O O14 0.250445 0.629265 0.835875
O O15 0.841147 0.626882 0.068315
O O16 0.116885 0.500000 0.249414
#
# Coordination Sequence:
#
# PCOD8067785 Si02
#       6
#     4   4   4   4   4   4
#     4  12  23  37  62  91 126 161 197 250 308 362
#     4  11  26  45  61  84 124 167 204 248 310 370
#     4  12  24  40  66  92 118 160 211 259 304 361
#     4  11  23  39  61  89 120 157 209 260 300 355
#     4   9  18  35  63  93 122 158 201 249 301 361
#     4   9  18  36  63  94 124 155 198 253 306 356
#
# _framework density 19.750647000000001
#
# number of rings (size 3 to 8) (size 9 to 14) (size 15 to 20)
#    0.000    1.333    1.667    6.000    0.000    6.000 
#    0.000    0.833    0.000    1.000    0.000    0.000 
#    0.000    0.000    0.000    0.000    0.000    0.000 
#
# Total GULP energy -297720.110958 kJ/mol
# GULP energy per Si atom -12405.004623 kJ/mol
# Density = 1.970569 g / cm^3
# Si number density = 19.750647 Si / 1000 Ang^3
#
#
#
# Elastic Constant Matrix: (Units=GPa)
#
#
# Indices 1 2 3 4 5 6 
#
# 1 76.5820 36.0223 26.2025 0.0000 4.5042 0.0000
# 2 36.0223 121.0051 64.5949 0.0000 3.4475 0.0000
# 3 26.2025 64.5949 103.7670 0.0000 -0.3148 0.0000
# 4 0.0000 0.0000 0.0000 165.7908 0.0000 -139.9066
# 5 4.5042 3.4475 -0.3148 0.0000 32.2992 0.0000
# 6 0.0000 0.0000 0.0000 -139.9066 0.0000 200.7957
#
#
#
# Elastic Compliance Matrix: (Units=1/GPa)
#
#
# Indices 1 2 3 4 5 6 
#
# 1 0.015448 -0.003689 -0.001610 0.000000 -0.001776 0.000000
# 2 -0.003689 0.013321 -0.007364 0.000000 -0.000979 0.000000
# 3 -0.001610 -0.007364 0.014631 0.000000 0.001153 0.000000
# 4 0.000000 0.000000 0.000000 0.014639 0.000000 0.010200
# 5 -0.001776 -0.000979 0.001153 0.000000 0.031324 0.000000
# 6 0.000000 0.000000 0.000000 0.010200 0.000000 0.012087
#
#
# Mechanical properties :
#
#
# Convention : Reuss Voigt Hill
#
# Bulk Modulus (GPa) = 55.32471 61.66594 58.49532
# Shear Modulus (GPa) = 37.65019 91.41279 64.53149
#
# Velocity S-wave (km/s) = 4.37083 6.81057 5.72224
# Velocity P-wave (km/s) = 7.31742 9.65066 8.56387
#
# Compressibility (1/GPa) = 0.01807511
#
# Stress axis : x y z
#
# Youngs Moduli (GPa) = 64.73178 75.06868 68.34783
#
# Poissons Ratio (x) = 0.27691 0.11004
# Poissons Ratio (y) = 0.23878 0.50331
# Poissons Ratio (z) = 0.10422 0.55280
#
# Static dielectric constant tensor:
#      x y z
#    x 3.553150 0.000000 0.012830 
#    y 0.000000 3.803660 0.000000 
#    z 0.012830 0.000000 3.517610 
# 
# 
# High freq. dielectric constant tensor:
#      x y z
#    x 1.767670 0.000000 0.000960 
#    y 0.000000 1.787250 0.000000 
#    z 0.000960 0.000000 1.760410 
# 
# From -- ./inp_files/61963.got.cif
#   From: 2010.06.25/outbox.cif.g09.slc.cpg/sg10_31_cif.got.tgz:61963.got - 2010.06.27 22:07:45.
