data_PCOD8067999
_publ_section_title
;
Structure prediction by ZEFSAII (Michael W. Deem and Ramdas Pophale) SiO2 
 PCOD8067999
Probable space group: P 2/M
;
_chemical_formula_sum "Si O2"
_cell_formula_units_Z 32
_cell_length_a 19.282741
_cell_length_b 9.305496
_cell_length_c 34.711547
_cell_angle_alpha 90.000000
_cell_angle_beta 160.876501
_cell_angle_gamma 90.000000
_cell_volume 2040.484749
_symmetry_space_group_name_H-M "P 2/M"
_symmetry_group_IT_number 10
_symmetry_cell_setting 'monoclinic'
loop_
_space_group_symop_operation_xyz
x,y,z
-x,y,-z
-x,-y,-z
x,-y,z
loop_
_atom_site_type_symbol
_atom_site_label
_atom_site_fract_x
_atom_site_fract_y
_atom_site_fract_z
Si Si1 0.619813 0.671203 0.100828
Si Si2 0.496418 0.329065 0.407325
Si Si3 0.911935 0.328844 0.665611
Si Si4 0.749502 0.162241 0.873205
Si Si5 0.869596 0.671458 0.729796
Si Si6 0.795098 0.666254 0.970542
Si Si7 0.293711 0.329284 0.991644
Si Si8 0.710612 0.666411 0.779160
O O1 0.621626 0.500000 0.100337
O O2 0.498118 0.725993 0.075220
O O3 0.859589 0.731327 0.227819
O O4 0.500000 0.729806 0.000000
O O5 0.484751 0.500000 0.402254
O O6 0.731320 0.273291 0.541383
O O7 0.330902 0.267938 0.351851
O O8 0.434270 0.276438 0.331980
O O9 0.917087 0.500000 0.668790
O O10 0.856876 0.271926 0.679396
O O11 0.687371 0.242053 0.880077
O O12 0.644213 0.243249 0.781841
O O13 0.663441 0.000000 0.829506
O O14 0.000000 0.167002 0.000000
O O15 0.871588 0.500000 0.731584
O O16 0.082901 0.733092 0.861069
O O17 0.744321 0.500000 0.935787
O O18 0.692599 0.721100 0.956795
O O19 0.046325 0.690798 0.105023
O O20 0.279924 0.500000 0.983304
O O21 0.668263 0.500000 0.766238
#
# Coordination Sequence:
#
# PCOD8067999 Si02
#       8
#     4   4   4   4   4   4   4   4
#     4   9  14  20  29  43  69 106 138 160 191 233
#     4   9  15  21  30  48  73 102 135 164 190 226
#     4   9  15  20  28  44  71 106 136 163 195 227
#     4   9  17  27  39  57  81 104 126 156 197 244
#     4   9  13  19  29  44  69 102 135 162 188 223
#     4   9  15  24  38  56  78 104 133 161 193 234
#     4   9  14  20  32  49  71 102 135 161 187 227
#     4   9  15  24  38  55  78 106 132 158 193 237
#
# _framework density 15.682547
#
# number of rings (size 3 to 8) (size 9 to 14) (size 15 to 20)
#    0.000    3.000    2.500    0.750    0.000    3.000 
#    0.000    0.000    0.000    0.000    0.000    0.875 
#    0.000   11.500    0.000    0.250    0.000    0.125 
#
# Total GULP energy -396626.667282 kJ/mol
# GULP energy per Si atom -12394.583353 kJ/mol
# Density = 1.564685 g / cm^3
# Si number density = 15.682547 Si / 1000 Ang^3
#
#
#
# Elastic Constant Matrix: (Units=GPa)
#
#
# Indices 1 2 3 4 5 6 
#
# 1 136.9180 31.7970 78.0855 0.0000 -21.5268 0.0000
# 2 31.7970 30.9981 21.6391 0.0000 -9.6383 0.0000
# 3 78.0855 21.6391 112.1807 0.0000 -7.8745 0.0000
# 4 0.0000 0.0000 0.0000 2.7454 0.0000 0.9032
# 5 -21.5268 -9.6383 -7.8745 0.0000 27.9767 0.0000
# 6 0.0000 0.0000 0.0000 0.9032 0.0000 1.7705
#
#
#
# Elastic Compliance Matrix: (Units=1/GPa)
#
#
# Indices 1 2 3 4 5 6 
#
# 1 0.014860 -0.007292 -0.008478 0.000000 0.006535 0.000000
# 2 -0.007292 0.044529 -0.002887 0.000000 0.008917 0.000000
# 3 -0.008478 -0.002887 0.015144 0.000000 -0.003256 0.000000
# 4 0.000000 0.000000 0.000000 0.437721 0.000000 -0.223310
# 5 0.006535 0.008917 -0.003256 0.000000 0.042928 0.000000
# 6 0.000000 0.000000 0.000000 -0.223310 0.000000 0.678736
#
#
# Mechanical properties :
#
#
# Convention : Reuss Voigt Hill
#
# Bulk Modulus (GPa) = 26.86975 60.34889 43.60932
# Shear Modulus (GPa) = 3.89518 16.40352 10.14935
#
# Velocity S-wave (km/s) = 1.57771 3.23766 2.54672
# Velocity P-wave (km/s) = 4.52654 7.24856 6.04282
#
# Compressibility (1/GPa) = 0.03721657
#
# Stress axis : x y z
#
# Youngs Moduli (GPa) = 67.29587 22.45749 66.03320
#
# Poissons Ratio (x) = 0.16377 0.55983
# Poissons Ratio (y) = 0.49075 0.19067
# Poissons Ratio (z) = 0.57053 0.06484
#
# Static dielectric constant tensor:
#      x y z
#    x 3.164890 0.000000 -0.093370 
#    y 0.000000 2.433420 0.000000 
#    z -0.093370 0.000000 3.015380 
# 
# 
# High freq. dielectric constant tensor:
#      x y z
#    x 1.603530 0.000000 -0.017380 
#    y 0.000000 1.534920 0.000000 
#    z -0.017380 0.000000 1.582200 
# 
# From -- ./inp_files/52730.got.cif
#   From: 2010.06.25/outbox.cif.g09.slc.cpg/sg10_27_cif.got.tgz:52730.got - 2010.06.27 22:07:45.
