data_PCOD8067231
_publ_section_title
;
Structure prediction by ZEFSAII (Michael W. Deem and Ramdas Pophale) SiO2 
 PCOD8067231
Probable space group: P 2/M
;
_chemical_formula_sum "Si O2"
_cell_formula_units_Z 22
_cell_length_a 11.709736
_cell_length_b 13.764194
_cell_length_c 11.058491
_cell_angle_alpha 90.000000
_cell_angle_beta 141.614631
_cell_angle_gamma 90.000000
_cell_volume 1106.747976
_symmetry_space_group_name_H-M "P 2/M"
_symmetry_group_IT_number 10
_symmetry_cell_setting 'monoclinic'
loop_
_space_group_symop_operation_xyz
x,y,z
-x,y,-z
-x,-y,-z
x,-y,z
loop_
_atom_site_type_symbol
_atom_site_label
_atom_site_fract_x
_atom_site_fract_y
_atom_site_fract_z
Si Si1 0.205987 0.500000 0.509131
Si Si2 0.290614 0.000000 0.219448
Si Si3 0.006230 0.181930 0.368364
Si Si4 0.500000 0.170507 0.500000
Si Si5 0.364108 0.706677 0.991940
Si Si6 0.343428 0.703731 0.568715
Si Si7 0.015975 0.000000 0.213039
Si Si8 0.780475 0.500000 0.192034
O O1 0.301946 0.589817 0.520128
O O2 0.242230 0.500000 0.682459
O O3 0.986774 0.500000 0.311794
O O4 0.407319 0.900735 0.324120
O O5 0.150111 0.000000 0.212412
O O6 0.193431 0.000000 0.008427
O O7 0.819741 0.230197 0.166155
O O8 0.000000 0.143959 0.500000
O O9 0.170189 0.259237 0.501932
O O10 0.058601 0.093219 0.327438
O O11 0.643339 0.241164 0.549310
O O12 0.321941 0.593292 0.944353
O O13 0.500000 0.742947 0.000000
O O14 0.464428 0.722674 0.203142
#
# Coordination Sequence:
#
# PCOD8067231 Si02
#       8
#     2   2   4   2   4   4   2   2
#     4  11  21  37  64  94 131 168 207 252 311 378
#     4  10  22  44  71  89 117 164 231 259 295 388
#     4  12  23  41  62  97 135 163 203 262 330 376
#     4  11  24  45  68  92 120 169 218 265 308 372
#     4  12  22  37  63  96 128 167 213 251 307 372
#     4  12  24  41  65  93 131 170 210 261 310 371
#     4  11  23  42  66  95 123 165 208 268 323 369
#     4  11  20  37  63  97 127 171 211 247 302 383
#
# _framework density 19.878056000000001
#
# number of rings (size 3 to 8) (size 9 to 14) (size 15 to 20)
#    0.000    0.545    7.273    2.182    0.000    0.364 
#    0.000    0.455    0.000    1.091    0.000    0.000 
#    0.000    0.000    0.000    0.000    0.000    0.000 
#
# Total GULP energy -272851.510542 kJ/mol
# GULP energy per Si atom -12402.341388 kJ/mol
# Density = 1.983281 g / cm^3
# Si number density = 19.878056 Si / 1000 Ang^3
#
#
#
# Elastic Constant Matrix: (Units=GPa)
#
#
# Indices 1 2 3 4 5 6 
#
# 1 67.8470 31.6315 11.5072 0.0000 5.2497 0.0000
# 2 31.6315 121.8366 27.7579 0.0000 1.0836 0.0000
# 3 11.5072 27.7579 96.2615 0.0000 13.4205 0.0000
# 4 0.0000 0.0000 0.0000 22.9490 0.0000 8.7850
# 5 5.2497 1.0836 13.4205 0.0000 29.0692 0.0000
# 6 0.0000 0.0000 0.0000 8.7850 0.0000 13.0560
#
#
#
# Elastic Compliance Matrix: (Units=1/GPa)
#
#
# Indices 1 2 3 4 5 6 
#
# 1 0.017026 -0.004301 -0.000415 0.000000 -0.002723 0.000000
# 2 -0.004301 0.009894 -0.002560 0.000000 0.001590 0.000000
# 3 -0.000415 -0.002560 0.011920 0.000000 -0.005333 0.000000
# 4 0.000000 0.000000 0.000000 0.058693 0.000000 -0.039493
# 5 -0.002723 0.001590 -0.005333 0.000000 0.037295 0.000000
# 6 0.000000 0.000000 0.000000 -0.039493 0.000000 0.103167
#
#
# Mechanical properties :
#
#
# Convention : Reuss Voigt Hill
#
# Bulk Modulus (GPa) = 41.17814 47.52647 44.35231
# Shear Modulus (GPa) = 19.18336 27.35143 23.26739
#
# Velocity S-wave (km/s) = 3.10990 3.71342 3.42498
# Velocity P-wave (km/s) = 5.80135 6.50745 6.16452
#
# Compressibility (1/GPa) = 0.02428473
#
# Stress axis : x y z
#
# Youngs Moduli (GPa) = 58.73537 101.07497 83.89404
#
# Poissons Ratio (x) = 0.43476 0.03484
# Poissons Ratio (y) = 0.25264 0.21480
# Poissons Ratio (z) = 0.02439 0.25879
#
# Static dielectric constant tensor:
#      x y z
#    x 3.416430 0.000000 0.199450 
#    y 0.000000 3.700880 0.000000 
#    z 0.199450 0.000000 3.811550 
# 
# 
# High freq. dielectric constant tensor:
#      x y z
#    x 1.761820 0.000000 0.015790 
#    y 0.000000 1.786710 0.000000 
#    z 0.015790 0.000000 1.781520 
# 
# From -- ./inp_files/46925.got.cif
#   From: 2010.06.25/outbox.cif.g09.slc.cpg/sg10_24_cif.got.tgz:46925.got - 2010.06.27 22:07:45.
