data_PCOD8067245
_publ_section_title
;
Structure prediction by ZEFSAII (Michael W. Deem and Ramdas Pophale) SiO2 
 PCOD8067245
Probable space group: P 2/M
;
_chemical_formula_sum "Si O2"
_cell_formula_units_Z 28
_cell_length_a 21.676909
_cell_length_b 8.801401
_cell_length_c 14.764990
_cell_angle_alpha 90.000000
_cell_angle_beta 31.010940
_cell_angle_gamma 90.000000
_cell_volume 1451.308151
_symmetry_space_group_name_H-M "P 2/M"
_symmetry_group_IT_number 10
_symmetry_cell_setting 'monoclinic'
loop_
_space_group_symop_operation_xyz
x,y,z
-x,y,-z
-x,-y,-z
x,-y,z
loop_
_atom_site_type_symbol
_atom_site_label
_atom_site_fract_x
_atom_site_fract_y
_atom_site_fract_z
Si Si1 0.816242 0.823478 0.938861
Si Si2 0.118867 0.320088 0.965680
Si Si3 0.367314 0.679642 0.331210
Si Si4 0.149405 0.679506 0.725095
Si Si5 0.278756 0.179134 0.267737
Si Si6 0.971563 0.321411 0.434805
Si Si7 0.609258 0.823492 0.062389
O O1 0.691946 0.789933 0.044773
O O2 0.919471 0.721300 0.766261
O O3 0.850574 0.000000 0.887293
O O4 0.802543 0.771724 0.060116
O O5 0.136055 0.500000 0.957140
O O6 0.163710 0.264675 0.810709
O O7 0.979345 0.272644 0.153137
O O8 0.359476 0.500000 0.332435
O O9 0.255865 0.746413 0.529503
O O10 0.367469 0.752293 0.231167
O O11 0.489243 0.726994 0.227629
O O12 0.156526 0.500000 0.717465
O O13 0.146401 0.240156 0.453279
O O14 0.322278 0.232083 0.114085
O O15 0.279213 0.000000 0.275906
O O16 0.949233 0.500000 0.459085
O O17 0.000000 0.264106 0.500000
O O18 0.575749 0.000000 0.096598
#
# Coordination Sequence:
#
# PCOD8067245 Si02
#       7
#     4   4   4   4   4   4   4
#     4  11  22  37  56  81 114 150 186 226 277 333
#     4   9  17  35  62  85 109 142 178 223 280 339
#     4  11  22  36  57  84 111 142 189 240 279 323
#     4   8  17  35  58  84 112 140 174 224 286 337
#     4  11  22  38  58  79 110 152 189 226 278 334
#     4  11  22  35  55  83 113 142 181 229 273 322
#     4  10  23  40  54  73 110 156 192 223 272 336
#
# _framework density 19.292937999999999
#
# number of rings (size 3 to 8) (size 9 to 14) (size 15 to 20)
#    0.000    1.857    1.429    3.857    0.000    5.714 
#    0.000    4.286    0.000    4.286    0.000    0.000 
#    0.000    0.000    0.000    0.000    0.000    0.000 
#
# Total GULP energy -347303.145403 kJ/mol
# GULP energy per Si atom -12403.683764 kJ/mol
# Density = 1.924903 g / cm^3
# Si number density = 19.292938 Si / 1000 Ang^3
#
#
#
# Elastic Constant Matrix: (Units=GPa)
#
#
# Indices 1 2 3 4 5 6 
#
# 1 141.4950 39.2092 42.1815 0.0000 0.8746 0.0000
# 2 39.2092 52.1701 31.5043 0.0000 -2.0030 0.0000
# 3 42.1815 31.5043 73.5926 0.0000 -5.5539 0.0000
# 4 0.0000 0.0000 0.0000 25.8111 0.0000 -4.6752
# 5 0.8746 -2.0030 -5.5539 0.0000 28.0826 0.0000
# 6 0.0000 0.0000 0.0000 -4.6752 0.0000 34.1241
#
#
#
# Elastic Compliance Matrix: (Units=1/GPa)
#
#
# Indices 1 2 3 4 5 6 
#
# 1 0.009504 -0.005184 -0.003328 0.000000 -0.001324 0.000000
# 2 -0.005184 0.028682 -0.009279 0.000000 0.000372 0.000000
# 3 -0.003328 -0.009279 0.019721 0.000000 0.003342 0.000000
# 4 0.000000 0.000000 0.000000 0.039729 0.000000 0.005443
# 5 -0.001324 0.000372 0.003342 0.000000 0.036338 0.000000
# 6 0.000000 0.000000 0.000000 0.005443 0.000000 0.030051
#
#
# Mechanical properties :
#
#
# Convention : Reuss Voigt Hill
#
# Bulk Modulus (GPa) = 44.79493 54.78310 49.78901
# Shear Modulus (GPa) = 24.14897 27.89440 26.02168
#
# Velocity S-wave (km/s) = 3.54177 3.80654 3.67654
# Velocity P-wave (km/s) = 6.32410 6.91207 6.62461
#
# Compressibility (1/GPa) = 0.02232396
#
# Stress axis : x y z
#
# Youngs Moduli (GPa) = 105.21523 34.86520 50.70864
#
# Poissons Ratio (x) = 0.18074 0.16877
# Poissons Ratio (y) = 0.54544 0.47053
# Poissons Ratio (z) = 0.35019 0.32351
#
# Static dielectric constant tensor:
#      x y z
#    x 3.728650 0.000000 0.101660 
#    y 0.000000 3.308290 0.000000 
#    z 0.101660 0.000000 3.637570 
# 
# 
# High freq. dielectric constant tensor:
#      x y z
#    x 1.761550 0.000000 0.000540 
#    y 0.000000 1.738510 0.000000 
#    z 0.000540 0.000000 1.739890 
# 
# From -- ./inp_files/49093.got.cif
#   From: 2010.06.25/outbox.cif.g09.slc.cpg/sg10_25_cif.got.tgz:49093.got - 2010.06.27 22:07:45.
