data_PCOD8067959
_publ_section_title
;
Structure prediction by ZEFSAII (Michael W. Deem and Ramdas Pophale) SiO2 
 PCOD8067959
Probable space group: P 2/M
;
_chemical_formula_sum "Si O2"
_cell_formula_units_Z 28
_cell_length_a 23.073532
_cell_length_b 9.935963
_cell_length_c 20.282174
_cell_angle_alpha 90.000000
_cell_angle_beta 19.321483
_cell_angle_gamma 90.000000
_cell_volume 1538.486322
_symmetry_space_group_name_H-M "P 2/M"
_symmetry_group_IT_number 10
_symmetry_cell_setting 'monoclinic'
loop_
_space_group_symop_operation_xyz
x,y,z
-x,y,-z
-x,-y,-z
x,-y,z
loop_
_atom_site_type_symbol
_atom_site_label
_atom_site_fract_x
_atom_site_fract_y
_atom_site_fract_z
Si Si1 0.045909 0.850540 0.769636
Si Si2 0.725963 0.160158 0.940126
Si Si3 0.638539 0.149457 0.177009
Si Si4 0.010822 0.650318 0.062464
Si Si5 0.892055 0.839848 0.441857
Si Si6 0.537917 0.160719 0.886258
Si Si7 0.584118 0.650320 0.342596
O O1 0.128830 0.796189 0.612183
O O2 0.098442 0.748671 0.771996
O O3 0.118479 0.000000 0.708566
O O4 0.838493 0.858977 0.984516
O O5 0.925629 0.217094 0.723110
O O6 0.733997 0.000000 0.929759
O O7 0.630147 0.203799 0.110868
O O8 0.614255 0.216548 0.998628
O O9 0.531119 0.251337 0.339319
O O10 0.554463 0.000000 0.272585
O O11 0.928257 0.500000 0.153710
O O12 0.208863 0.644934 0.873404
O O13 0.000000 0.707875 0.000000
O O14 0.727142 0.783443 0.659975
O O15 0.897767 0.000000 0.438469
O O16 0.538521 0.000000 0.884437
O O17 0.500000 0.216036 0.000000
O O18 0.500000 0.707873 0.500000
O O19 0.510236 0.500000 0.407800
#
# Coordination Sequence:
#
# PCOD8067959 Si02
#       7
#     4   4   4   4   4   4   4
#     4   8  14  26  43  59  79 110 143 175 212 255
#     4   8  14  25  39  55  79 111 143 176 216 256
#     4   8  14  26  43  59  79 110 143 175 212 255
#     4   9  17  29  43  59  82 110 138 173 217 259
#     4   8  14  25  39  55  79 111 143 176 216 256
#     4   9  16  24  36  58  87 115 143 175 213 263
#     4   9  17  29  43  59  82 110 138 173 217 259
#
# _framework density 18.199705999999999
#
# number of rings (size 3 to 8) (size 9 to 14) (size 15 to 20)
#    0.000    3.571    0.000    1.714    0.000    1.143 
#    2.571    2.857    0.000    0.000    0.000    0.000 
#    0.000    2.286    0.000   11.143    0.000   11.429 
#
# Total GULP energy -346979.548440 kJ/mol
# GULP energy per Si atom -12392.126730 kJ/mol
# Density = 1.815828 g / cm^3
# Si number density = 18.199706 Si / 1000 Ang^3
#
#
#
# Elastic Constant Matrix: (Units=GPa)
#
#
# Indices 1 2 3 4 5 6 
#
# 1 149.2069 45.7741 63.0393 0.0000 27.2359 0.0000
# 2 45.7741 46.3104 28.9273 0.0000 15.9572 0.0000
# 3 63.0393 28.9273 95.4830 0.0000 23.6368 0.0000
# 4 0.0000 0.0000 0.0000 5.7414 0.0000 -0.1974
# 5 27.2359 15.9572 23.6368 0.0000 32.1064 0.0000
# 6 0.0000 0.0000 0.0000 -0.1974 0.0000 5.5078
#
#
#
# Elastic Compliance Matrix: (Units=1/GPa)
#
#
# Indices 1 2 3 4 5 6 
#
# 1 0.011437 -0.007530 -0.004640 0.000000 -0.002544 0.000000
# 2 -0.007530 0.033859 -0.003304 0.000000 -0.008008 0.000000
# 3 -0.004640 -0.003304 0.016089 0.000000 -0.006266 0.000000
# 4 0.000000 0.000000 0.000000 0.174389 0.000000 0.006249
# 5 -0.002544 -0.008008 -0.006266 0.000000 0.041898 0.000000
# 6 0.000000 0.000000 0.000000 0.006249 0.000000 0.181785
#
#
# Mechanical properties :
#
#
# Convention : Reuss Voigt Hill
#
# Bulk Modulus (GPa) = 32.85466 62.94240 47.89853
# Shear Modulus (GPa) = 9.98901 18.88842 14.43872
#
# Velocity S-wave (km/s) = 2.34531 3.22505 2.81970
# Velocity P-wave (km/s) = 5.04237 6.96615 6.08082
#
# Compressibility (1/GPa) = 0.03043709
#
# Stress axis : x y z
#
# Youngs Moduli (GPa) = 87.43820 29.53413 62.15562
#
# Poissons Ratio (x) = 0.22238 0.28839
# Poissons Ratio (y) = 0.65837 0.20538
# Poissons Ratio (z) = 0.40570 0.09759
#
# Static dielectric constant tensor:
#      x y z
#    x 3.521180 0.000000 0.116180 
#    y 0.000000 3.224950 0.000000 
#    z 0.116180 0.000000 3.398450 
# 
# 
# High freq. dielectric constant tensor:
#      x y z
#    x 1.704130 0.000000 0.006750 
#    y 0.000000 1.642820 0.000000 
#    z 0.006750 0.000000 1.696990 
# 
# From -- ./inp_files/86477.got.cif
#   From: 2010.06.25/outbox.cif.g09.slc.cpg/sg10_44_cif.got.tgz:86477.got - 2010.06.27 22:07:45.
