data_PCOD8067933
_publ_section_title
;
Structure prediction by ZEFSAII (Michael W. Deem and Ramdas Pophale) SiO2 
 PCOD8067933
Probable space group: P 2/M
;
_chemical_formula_sum "Si O2"
_cell_formula_units_Z 32
_cell_length_a 9.364961
_cell_length_b 9.726601
_cell_length_c 22.799094
_cell_angle_alpha 90.000000
_cell_angle_beta 114.252603
_cell_angle_gamma 90.000000
_cell_volume 1893.465007
_symmetry_space_group_name_H-M "P 2/M"
_symmetry_group_IT_number 10
_symmetry_cell_setting 'monoclinic'
loop_
_space_group_symop_operation_xyz
x,y,z
-x,y,-z
-x,-y,-z
x,-y,z
loop_
_atom_site_type_symbol
_atom_site_label
_atom_site_fract_x
_atom_site_fract_y
_atom_site_fract_z
Si Si1 0.090343 0.653072 0.260208
Si Si2 0.838452 0.163328 0.500000
Si Si3 0.040037 0.336509 0.880968
Si Si4 0.721899 0.336509 0.880968
Si Si5 0.430073 0.653072 0.260208
Si Si6 0.790449 0.160014 0.623735
Si Si7 0.542979 0.160014 0.376265
Si Si8 0.339707 0.335761 1.000000
O O1 0.045102 0.500000 0.274987
O O2 0.259275 0.648060 0.259275
O O3 0.089534 0.758032 0.314303
O O4 0.968991 0.704903 0.189541
O O5 0.817822 0.216232 0.562850
O O6 0.692121 0.216232 0.437150
O O7 0.000000 0.221230 0.500000
O O8 0.838296 0.000000 0.500000
O O9 0.036110 0.500000 0.884774
O O10 0.891668 0.275835 0.891668
O O11 0.197967 0.277496 0.936438
O O12 0.733438 0.500000 0.884774
O O13 0.589908 0.295097 0.810459
O O14 0.674910 0.277496 0.936438
O O15 0.504873 0.500000 0.274987
O O16 0.539073 0.758032 0.314303
O O17 0.610462 0.188096 0.610462
O O18 0.832086 0.000000 0.636510
O O19 0.559066 0.000000 0.363490
O O20 0.337855 0.500000 1.000000
O O21 0.500000 0.278417 0.000000
#
# Coordination Sequence:
#
# PCOD8067933 Si02
#       8
#     4   4   4   4   4   4   4   4
#     4   8  14  25  41  61  84 108 133 162 199 243
#     4   9  17  29  44  61  82 108 136 165 198 238
#     4   8  13  22  36  52  72 101 133 160 189 231
#     4   8  13  22  36  52  72 101 133 160 189 231
#     4   8  14  25  41  61  84 108 133 162 199 243
#     4   9  16  27  45  66  83 101 131 170 204 233
#     4   9  16  27  45  66  83 101 131 170 204 233
#     4   9  15  21  31  51  78 103 128 162 200 231
#
# _framework density 16.900231999999999
#
# number of rings (size 3 to 8) (size 9 to 14) (size 15 to 20)
#    0.000    3.500    0.000    2.250    0.000    3.000 
#    0.000    1.875    0.000    6.000    0.000    0.875 
#    0.000    7.000    0.000    0.000    0.000    0.000 
#
# Total GULP energy -396589.851473 kJ/mol
# GULP energy per Si atom -12393.432859 kJ/mol
# Density = 1.686177 g / cm^3
# Si number density = 16.900232 Si / 1000 Ang^3
#
#
#
# Elastic Constant Matrix: (Units=GPa)
#
#
# Indices 1 2 3 4 5 6 
#
# 1 80.9352 21.6546 73.6134 0.0000 -0.2991 0.0000
# 2 21.6546 32.8354 47.7021 0.0000 -1.0254 0.0000
# 3 73.6134 47.7021 195.6057 0.0000 -4.2149 0.0000
# 4 0.0000 0.0000 0.0000 9.1671 0.0000 -0.0687
# 5 -0.2991 -1.0254 -4.2149 0.0000 7.6141 0.0000
# 6 0.0000 0.0000 0.0000 -0.0687 0.0000 7.4223
#
#
#
# Elastic Compliance Matrix: (Units=1/GPa)
#
#
# Indices 1 2 3 4 5 6 
#
# 1 0.019097 -0.003335 -0.006444 0.000000 -0.003266 0.000000
# 2 -0.003335 0.047747 -0.010377 0.000000 0.000554 0.000000
# 3 -0.006444 -0.010377 0.010154 0.000000 0.003970 0.000000
# 4 0.000000 0.000000 0.000000 0.109093 0.000000 0.001010
# 5 -0.003266 0.000554 0.003970 0.000000 0.133479 0.000000
# 6 0.000000 0.000000 0.000000 0.001010 0.000000 0.134738
#
#
# Mechanical properties :
#
#
# Convention : Reuss Voigt Hill
#
# Bulk Modulus (GPa) = 27.25841 66.14630 46.70236
# Shear Modulus (GPa) = 9.86490 15.93445 12.89967
#
# Velocity S-wave (km/s) = 2.41864 3.07392 2.76576
# Velocity P-wave (km/s) = 4.89528 7.19881 6.15576
#
# Compressibility (1/GPa) = 0.03668592
#
# Stress axis : x y z
#
# Youngs Moduli (GPa) = 52.36517 20.94382 98.48714
#
# Poissons Ratio (x) = 0.06984 0.63465
# Poissons Ratio (y) = 0.17461 1.02201
# Poissons Ratio (z) = 0.33744 0.21734
#
# Static dielectric constant tensor:
#      x y z
#    x 3.062120 0.000000 -0.021460 
#    y 0.000000 2.741370 0.000000 
#    z -0.021460 0.000000 3.607250 
# 
# 
# High freq. dielectric constant tensor:
#      x y z
#    x 1.624780 0.000000 -0.001810 
#    y 0.000000 1.589290 0.000000 
#    z -0.001810 0.000000 1.670860 
# 
# From -- ./inp_files/82498.got.cif
#   From: 2010.06.25/outbox.cif.g09.slc.cpg/sg10_42_cif.got.tgz:82498.got - 2010.06.27 22:07:45.
