data_PCOD8067658
_publ_section_title
;
Structure prediction by ZEFSAII (Michael W. Deem and Ramdas Pophale) SiO2 
 PCOD8067658
Probable space group: P 2/M
;
_chemical_formula_sum "Si O2"
_cell_formula_units_Z 32
_cell_length_a 28.433258
_cell_length_b 8.712477
_cell_length_c 15.925955
_cell_angle_alpha 90.000000
_cell_angle_beta 153.210690
_cell_angle_gamma 90.000000
_cell_volume 1778.164397
_symmetry_space_group_name_H-M "P 2/M"
_symmetry_group_IT_number 10
_symmetry_cell_setting 'monoclinic'
loop_
_space_group_symop_operation_xyz
x,y,z
-x,y,-z
-x,-y,-z
x,-y,z
loop_
_atom_site_type_symbol
_atom_site_label
_atom_site_fract_x
_atom_site_fract_y
_atom_site_fract_z
Si Si1 0.521436 0.818912 0.794519
Si Si2 0.447429 0.816464 0.499999
Si Si3 0.016081 0.182517 0.789126
Si Si4 0.947838 0.818528 0.500000
Si Si5 0.703006 0.179667 0.500000
Si Si6 0.726955 0.182518 0.210874
Si Si7 0.803582 0.320245 0.499999
Si Si8 0.226916 0.818912 0.205480
O O1 0.511440 0.756356 0.683247
O O2 0.418658 0.776497 0.683722
O O3 0.533464 0.000000 0.809289
O O4 0.624030 0.748704 0.002059
O O5 0.500000 0.747976 0.500000
O O6 0.328192 0.756359 0.316750
O O7 0.448297 0.000000 0.500001
O O8 0.010953 0.234397 0.683463
O O9 0.919147 0.249870 0.685796
O O10 0.010112 0.000000 0.787535
O O11 0.121971 0.251295 0.997941
O O12 0.827490 0.765602 0.316537
O O13 0.000000 0.743405 0.500000
O O14 0.952690 0.000000 0.499999
O O15 0.748757 0.283302 0.500000
O O16 0.765062 0.223505 0.683720
O O17 0.716242 0.000000 0.500002
O O18 0.733351 0.249868 0.314204
O O19 0.722577 0.000000 0.212463
O O20 0.811896 0.500000 0.499997
O O21 0.224174 0.000000 0.190711
#
# Coordination Sequence:
#
# PCOD8067658 Si02
#       8
#     4   4   4   4   4   4   4   4
#     4   8  15  27  45  68  93 125 159 186 218 270
#     4   8  13  22  39  70 108 131 145 180 232 272
#     4   9  17  31  49  68  93 125 158 188 223 270
#     4   8  14  24  41  67  94 117 147 188 223 252
#     4   9  17  32  50  67  91 121 154 188 226 275
#     4   9  17  31  49  68  93 125 158 188 223 270
#     4  11  22  34  47  66  91 117 152 197 243 281
#     4   8  15  27  45  68  93 125 159 186 218 270
#
# _framework density 17.996085999999998
#
# number of rings (size 3 to 8) (size 9 to 14) (size 15 to 20)
#    0.000    3.250    0.000    3.375    0.000    2.000 
#    0.000   11.250    0.000    6.000    0.000    0.000 
#    0.000   17.000    0.000    0.000    0.000    0.000 
#
# Total GULP energy -396632.708624 kJ/mol
# GULP energy per Si atom -12394.772144 kJ/mol
# Density = 1.795513 g / cm^3
# Si number density = 17.996086 Si / 1000 Ang^3
#
#
#
# Elastic Constant Matrix: (Units=GPa)
#
#
# Indices 1 2 3 4 5 6 
#
# 1 147.9451 19.2710 82.7691 0.0000 -1.2693 0.0000
# 2 19.2710 24.4571 19.6086 0.0000 0.0124 0.0000
# 3 82.7691 19.6086 193.4799 0.0000 2.8929 0.0000
# 4 0.0000 0.0000 0.0000 2.1698 0.0000 0.0824
# 5 -1.2693 0.0124 2.8929 0.0000 14.9288 0.0000
# 6 0.0000 0.0000 0.0000 0.0824 0.0000 -0.1434
#
#
#
# Elastic Compliance Matrix: (Units=1/GPa)
#
#
# Indices 1 2 3 4 5 6 
#
# 1 0.009356 -0.004512 -0.003567 0.000000 0.001490 0.000000
# 2 -0.004512 0.046691 -0.002803 0.000000 0.000121 0.000000
# 3 -0.003567 -0.002803 0.007003 0.000000 -0.001658 0.000000
# 4 0.000000 0.000000 0.000000 0.451025 0.000000 0.259078
# 5 0.001490 0.000121 -0.001658 0.000000 0.067433 0.000000
# 6 0.000000 0.000000 0.000000 0.259078 0.000000 -6.822675
#
#
# Mechanical properties :
#
#
# Convention : Reuss Voigt Hill
#
# Bulk Modulus (GPa) = 24.22247 67.68659 45.95453
# Shear Modulus (GPa) = -0.80572 19.67327 9.43378
#
# Velocity S-wave (km/s) = -0.66984 3.30994 2.29205
# Velocity P-wave (km/s) = 3.59038 7.23195 5.70929
#
# Compressibility (1/GPa) = 0.04128399
#
# Stress axis : x y z
#
# Youngs Moduli (GPa) = 106.88890 21.41734 142.78757
#
# Poissons Ratio (x) = 0.09664 0.50935
# Poissons Ratio (y) = 0.48233 0.40030
# Poissons Ratio (z) = 0.38129 0.06004
#
# Static dielectric constant tensor:
#      x y z
#    x 3.467470 0.000000 0.013480 
#    y 0.000000 2.718180 0.000000 
#    z 0.013480 0.000000 3.845770 
# 
# 
# High freq. dielectric constant tensor:
#      x y z
#    x 1.701280 0.000000 0.000140 
#    y 0.000000 1.636820 0.000000 
#    z 0.000140 0.000000 1.705090 
# 
# From -- ./inp_files/72178.got.cif
#   From: 2010.06.25/outbox.cif.g09.slc.cpg/sg10_37_cif.got.tgz:72178.got - 2010.06.27 22:07:45.
