data_PCOD8067271
_publ_section_title
;
Structure prediction by ZEFSAII (Michael W. Deem and Ramdas Pophale) SiO2 
 PCOD8067271
Probable space group: P 2/M
;
_chemical_formula_sum "Si O2"
_cell_formula_units_Z 30
_cell_length_a 8.212463
_cell_length_b 14.634832
_cell_length_c 12.970495
_cell_angle_alpha 90.000000
_cell_angle_beta 76.947136
_cell_angle_gamma 90.000000
_cell_volume 1518.619410
_symmetry_space_group_name_H-M "P 2/M"
_symmetry_group_IT_number 10
_symmetry_cell_setting 'monoclinic'
loop_
_space_group_symop_operation_xyz
x,y,z
-x,y,-z
-x,-y,-z
x,-y,z
loop_
_atom_site_type_symbol
_atom_site_label
_atom_site_fract_x
_atom_site_fract_y
_atom_site_fract_z
Si Si1 0.288403 0.103336 0.431262
Si Si2 0.291647 0.399967 0.625653
Si Si3 0.679757 0.397582 0.604701
Si Si4 0.129314 0.254296 0.780971
Si Si5 0.316890 0.893269 0.076621
Si Si6 0.000000 0.815026 0.000000
Si Si7 0.331205 0.103334 0.655208
Si Si8 0.790445 0.231687 0.722499
O O1 0.290999 0.140883 0.546899
O O2 0.471791 0.111151 0.353972
O O3 0.169294 0.164761 0.378972
O O4 0.223336 0.000000 0.438996
O O5 0.213373 0.500000 0.654582
O O6 0.488040 0.404262 0.605423
O O7 0.236138 0.366990 0.517637
O O8 0.238764 0.338588 0.729629
O O9 0.743155 0.500000 0.628607
O O10 0.702831 0.324006 0.693098
O O11 0.230247 0.160240 0.752758
O O12 0.080529 0.255242 0.907218
O O13 0.967597 0.262186 0.735241
O O14 0.153621 0.874623 0.026790
O O15 0.311245 0.824048 0.174937
O O16 0.305617 0.000000 0.112967
O O17 0.500000 0.875730 0.000000
O O18 0.270413 0.000000 0.676212
#
# Coordination Sequence:
#
# PCOD8067271 Si02
#       8
#     4   4   4   4   4   2   4   4
#     4   9  18  33  51  78 110 141 183 230 272 343
#     4   9  19  37  61  87 114 150 191 229 282 351
#     4   9  19  36  60  90 118 145 186 235 281 344
#     4  11  23  37  54  80 111 151 189 233 295 341
#     4  10  23  41  61  86 114 156 205 249 298 344
#     4  10  25  42  57  84 120 154 201 258 289 342
#     4   9  19  33  52  76 106 147 187 221 279 343
#     4  11  22  34  53  83 116 146 184 237 283 349
#
# _framework density 19.754785999999999
#
# number of rings (size 3 to 8) (size 9 to 14) (size 15 to 20)
#    0.000    2.267    0.000    3.800    3.733    8.000 
#    0.000    3.000    0.000    1.200    0.000    0.000 
#    0.000    0.000    0.000    0.000    0.000    0.000 
#
# Total GULP energy -371672.775602 kJ/mol
# GULP energy per Si atom -12389.092520 kJ/mol
# Density = 1.970982 g / cm^3
# Si number density = 19.754786 Si / 1000 Ang^3
#
#
#
# Elastic Constant Matrix: (Units=GPa)
#
#
# Indices 1 2 3 4 5 6 
#
# 1 44.4183 22.2505 26.4373 0.0000 4.1769 0.0000
# 2 22.2505 116.3356 63.6790 0.0000 2.6488 0.0000
# 3 26.4373 63.6790 101.8279 0.0000 -2.7336 0.0000
# 4 0.0000 0.0000 0.0000 75.7959 0.0000 -29.4807
# 5 4.1769 2.6488 -2.7336 0.0000 29.5925 0.0000
# 6 0.0000 0.0000 0.0000 -29.4807 0.0000 36.8691
#
#
#
# Elastic Compliance Matrix: (Units=1/GPa)
#
#
# Indices 1 2 3 4 5 6 
#
# 1 0.027460 -0.001808 -0.006113 0.000000 -0.004279 0.000000
# 2 -0.001808 0.013300 -0.007892 0.000000 -0.001664 0.000000
# 3 -0.006113 -0.007892 0.016426 0.000000 0.003087 0.000000
# 4 0.000000 0.000000 0.000000 0.019149 0.000000 0.015311
# 5 -0.004279 -0.001664 0.003087 0.000000 0.034830 0.000000
# 6 0.000000 0.000000 0.000000 0.015311 0.000000 0.039366
#
#
# Mechanical properties :
#
#
# Convention : Reuss Voigt Hill
#
# Bulk Modulus (GPa) = 39.12695 54.14616 46.63655
# Shear Modulus (GPa) = 26.22224 38.46584 32.34404
#
# Velocity S-wave (km/s) = 3.64728 4.41746 4.05072
# Velocity P-wave (km/s) = 6.13076 7.31349 6.74809
#
# Compressibility (1/GPa) = 0.02555783
#
# Stress axis : x y z
#
# Youngs Moduli (GPa) = 36.41645 75.19057 60.87904
#
# Poissons Ratio (x) = 0.13597 0.37218
# Poissons Ratio (y) = 0.06585 0.48047
# Poissons Ratio (z) = 0.22263 0.59342
#
# Static dielectric constant tensor:
#      x y z
#    x 3.572060 0.000000 0.029980 
#    y 0.000000 3.688380 0.000000 
#    z 0.029980 0.000000 3.616530 
# 
# 
# High freq. dielectric constant tensor:
#      x y z
#    x 1.768010 0.000000 0.001820 
#    y 0.000000 1.765770 0.000000 
#    z 0.001820 0.000000 1.759760 
# 
# From -- ./inp_files/42925.got.cif
#   From: 2010.06.25/outbox.cif.g09.slc.cpg/sg10_22_cif.got.tgz:42925.got - 2010.06.27 22:07:45.
