data_PCOD8067611
_publ_section_title
;
Structure prediction by ZEFSAII (Michael W. Deem and Ramdas Pophale) SiO2 
 PCOD8067611
Probable space group: P 2/M
;
_chemical_formula_sum "Si O2"
_cell_formula_units_Z 16
_cell_length_a 8.067971
_cell_length_b 19.354185
_cell_length_c 9.248314
_cell_angle_alpha 90.000000
_cell_angle_beta 147.263759
_cell_angle_gamma 90.000000
_cell_volume 780.937670
_symmetry_space_group_name_H-M "P 2/M"
_symmetry_group_IT_number 10
_symmetry_cell_setting 'monoclinic'
loop_
_space_group_symop_operation_xyz
x,y,z
-x,y,-z
-x,-y,-z
x,-y,z
loop_
_atom_site_type_symbol
_atom_site_label
_atom_site_fract_x
_atom_site_fract_y
_atom_site_fract_z
Si Si1 0.641898 0.500000 0.259783
Si Si2 0.726690 0.791211 0.415179
Si Si3 0.899126 0.134851 0.087752
Si Si4 0.854144 0.000000 0.236552
Si Si5 0.355755 0.647008 0.738454
O O1 0.531926 0.573349 0.252023
O O2 0.000000 0.500000 0.500000
O O3 0.500000 0.500000 0.000000
O O4 0.456650 0.842991 0.169268
O O5 0.582291 0.713667 0.316970
O O6 0.000000 0.797305 0.500000
O O7 0.871427 0.807485 0.677966
O O8 0.958319 0.066890 0.224911
O O9 0.000000 0.119419 0.000000
O O10 0.000000 0.000000 0.500000
O O11 0.500000 0.000000 0.000000
O O12 0.000000 0.638669 0.500000
O O13 0.500000 0.661846 0.000000
#
# Coordination Sequence:
#
# PCOD8067611 Si02
#       5
#     2   4   4   2   4
#     4   8  14  24  40  70 109 140 171 222 283 320
#     4  11  21  37  60  85 112 149 191 231 274 328
#     4  12  25  41  59  85 116 147 182 228 279 332
#     4  12  25  42  65  86 109 144 185 228 275 330
#     4   9  16  27  47  76 109 142 179 228 277 321
#
# _framework density 20.488189999999999
#
# number of rings (size 3 to 8) (size 9 to 14) (size 15 to 20)
#    0.000    1.500    0.000    8.625    0.000    0.000 
#    0.000    3.750    0.000    0.000    0.000    5.250 
#    0.000    0.000    0.000    0.000    0.000    0.000 
#
# Total GULP energy -198225.591956 kJ/mol
# GULP energy per Si atom -12389.099497 kJ/mol
# Density = 2.044156 g / cm^3
# Si number density = 20.488190 Si / 1000 Ang^3
#
#
#
# Elastic Constant Matrix: (Units=GPa)
#
#
# Indices 1 2 3 4 5 6 
#
# 1 66.0097 60.7418 39.2817 0.0000 -17.3865 0.0000
# 2 60.7418 170.6942 59.0500 0.0000 -17.3651 0.0000
# 3 39.2817 59.0500 167.4067 0.0000 -10.0110 0.0000
# 4 0.0000 0.0000 0.0000 34.9295 0.0000 -1.9150
# 5 -17.3865 -17.3651 -10.0110 0.0000 32.4311 0.0000
# 6 0.0000 0.0000 0.0000 -1.9150 0.0000 3.9043
#
#
#
# Elastic Compliance Matrix: (Units=1/GPa)
#
#
# Indices 1 2 3 4 5 6 
#
# 1 0.026062 -0.007310 -0.002991 0.000000 0.009134 0.000000
# 2 -0.007310 0.009002 -0.001433 0.000000 0.000459 0.000000
# 3 -0.002991 -0.001433 0.007171 0.000000 -0.000157 0.000000
# 4 0.000000 0.000000 0.000000 0.029420 0.000000 0.014430
# 5 0.009134 0.000459 -0.000157 0.000000 0.035929 0.000000
# 6 0.000000 0.000000 0.000000 0.014430 0.000000 0.263206
#
#
# Mechanical properties :
#
#
# Convention : Reuss Voigt Hill
#
# Bulk Modulus (GPa) = 53.28150 80.25083 66.76616
# Shear Modulus (GPa) = 12.48400 30.58877 21.53638
#
# Velocity S-wave (km/s) = 2.47113 3.86812 3.24568
# Velocity P-wave (km/s) = 5.84845 7.69442 6.83405
#
# Compressibility (1/GPa) = 0.01876824
#
# Stress axis : x y z
#
# Youngs Moduli (GPa) = 38.37036 111.08559 139.44794
#
# Poissons Ratio (x) = 0.81207 0.41702
# Poissons Ratio (y) = 0.28050 0.19977
# Poissons Ratio (z) = 0.11475 0.15913
#
# Static dielectric constant tensor:
#      x y z
#    x 3.122860 0.000000 0.030950 
#    y 0.000000 5.135530 0.000000 
#    z 0.030950 0.000000 3.959040 
# 
# 
# High freq. dielectric constant tensor:
#      x y z
#    x 1.727640 0.000000 0.006790 
#    y 0.000000 1.833310 0.000000 
#    z 0.006790 0.000000 1.835510 
# 
# From -- ./inp_files/4265.got.cif
#   From: 2010.06.25/outbox.cif.g09.slc.cpg/sg10_3_cif.got.tgz:4265.got - 2010.06.27 22:07:45.
