data_PCOD8067394
_publ_section_title
;
Structure prediction by ZEFSAII (Michael W. Deem and Ramdas Pophale) SiO2 
 PCOD8067394
Probable space group: P 2/M
;
_chemical_formula_sum "Si O2"
_cell_formula_units_Z 28
_cell_length_a 10.424651
_cell_length_b 19.246430
_cell_length_c 18.530860
_cell_angle_alpha 90.000000
_cell_angle_beta 154.648173
_cell_angle_gamma 90.000000
_cell_volume 1591.948724
_symmetry_space_group_name_H-M "P 2/M"
_symmetry_group_IT_number 10
_symmetry_cell_setting 'monoclinic'
loop_
_space_group_symop_operation_xyz
x,y,z
-x,y,-z
-x,-y,-z
x,-y,z
loop_
_atom_site_type_symbol
_atom_site_label
_atom_site_fract_x
_atom_site_fract_y
_atom_site_fract_z
Si Si1 0.991476 0.697887 0.413496
Si Si2 0.384526 0.300955 0.020751
Si Si3 0.810628 0.155994 0.126555
Si Si4 0.317459 0.799018 0.479488
Si Si5 0.931057 0.419542 0.778639
Si Si6 0.332142 0.075790 0.338132
Si Si7 0.733461 0.421405 0.518463
O O1 0.000000 0.723055 0.500000
O O2 0.252094 0.737465 0.501203
O O3 0.099084 0.618769 0.460556
O O4 0.655387 0.706273 0.214290
O O5 0.218470 0.226192 0.936103
O O6 0.167865 0.364935 0.933093
O O7 0.500000 0.318236 0.000000
O O8 0.995780 0.172820 0.292488
O O9 0.980977 0.096016 0.167838
O O10 0.500000 0.126823 0.000000
O O11 0.500000 0.774319 0.500000
O O12 0.498366 0.860206 0.615221
O O13 0.044812 0.500000 0.842039
O O14 0.868543 0.398010 0.664230
O O15 0.623704 0.411151 0.666491
O O16 0.500000 0.071832 0.500000
O O17 0.353851 0.000000 0.310469
O O18 0.819428 0.500000 0.548506
#
# Coordination Sequence:
#
# PCOD8067394 Si02
#       7
#     4   4   4   4   4   4   4
#     4  12  24  35  52  81 110 139 176 224 272 313
#     4  11  19  32  52  77 107 139 177 221 263 318
#     4   9  15  27  49  78 104 134 171 212 262 297
#     4   9  18  32  56  75 101 145 177 210 249 317
#     4   9  18  32  56  81  99 131 186 227 254 309
#     4   8  16  28  48  80 108 135 172 214 258 308
#     4   9  19  34  53  78 104 137 177 219 265 317
#
# _framework density 17.588505999999999
#
# number of rings (size 3 to 8) (size 9 to 14) (size 15 to 20)
#    0.000    2.714    4.286    0.857    6.000    1.429 
#    0.000    0.714    0.000    2.143    0.000    1.000 
#    0.000    0.000    0.000    0.000    0.000    0.000 
#
# Total GULP energy -346885.577880 kJ/mol
# GULP energy per Si atom -12388.770639 kJ/mol
# Density = 1.754847 g / cm^3
# Si number density = 17.588506 Si / 1000 Ang^3
#
#
#
# Elastic Constant Matrix: (Units=GPa)
#
#
# Indices 1 2 3 4 5 6 
#
# 1 58.1056 28.7363 31.1250 0.0000 2.6886 0.0000
# 2 28.7363 104.5922 46.8071 0.0000 11.4734 0.0000
# 3 31.1250 46.8071 102.0606 0.0000 13.6458 0.0000
# 4 0.0000 0.0000 0.0000 22.1282 0.0000 8.5992
# 5 2.6886 11.4734 13.6458 0.0000 19.0668 0.0000
# 6 0.0000 0.0000 0.0000 8.5992 0.0000 7.3058
#
#
#
# Elastic Compliance Matrix: (Units=1/GPa)
#
#
# Indices 1 2 3 4 5 6 
#
# 1 0.021852 -0.003995 -0.005243 0.000000 0.003075 0.000000
# 2 -0.003995 0.012993 -0.004170 0.000000 -0.004271 0.000000
# 3 -0.005243 -0.004170 0.014237 0.000000 -0.006941 0.000000
# 4 0.000000 0.000000 0.000000 0.083288 0.000000 -0.098033
# 5 0.003075 -0.004271 -0.006941 0.000000 0.059551 0.000000
# 6 0.000000 0.000000 0.000000 -0.098033 0.000000 0.252265
#
#
# Mechanical properties :
#
#
# Convention : Reuss Voigt Hill
#
# Bulk Modulus (GPa) = 44.90846 53.12171 49.01508
# Shear Modulus (GPa) = 10.45100 20.23950 15.34525
#
# Velocity S-wave (km/s) = 2.44026 3.39591 2.95695
# Velocity P-wave (km/s) = 5.79034 6.75606 6.29176
#
# Compressibility (1/GPa) = 0.02226752
#
# Stress axis : x y z
#
# Youngs Moduli (GPa) = 45.76258 76.96499 70.23758
#
# Poissons Ratio (x) = 0.30744 0.36827
# Poissons Ratio (y) = 0.18280 0.29286
# Poissons Ratio (z) = 0.23994 0.32091
#
# Static dielectric constant tensor:
#      x y z
#    x 2.758810 0.000000 0.258150 
#    y 0.000000 3.645310 0.000000 
#    z 0.258150 0.000000 3.338200 
# 
# 
# High freq. dielectric constant tensor:
#      x y z
#    x 1.616000 0.000000 0.033450 
#    y 0.000000 1.687850 0.000000 
#    z 0.033450 0.000000 1.679580 
# 
# From -- ./inp_files/75519.got.cif
#   From: 2010.06.25/outbox.cif.g09.slc.cpg/sg10_38_cif.got.tgz:75519.got - 2010.06.27 22:07:45.
