data_PCOD8067525
_publ_section_title
;
Structure prediction by ZEFSAII (Michael W. Deem and Ramdas Pophale) SiO2 
 PCOD8067525
Probable space group: P 2/M
;
_chemical_formula_sum "Si O2"
_cell_formula_units_Z 24
_cell_length_a 17.764895
_cell_length_b 8.577103
_cell_length_c 11.428820
_cell_angle_alpha 90.000000
_cell_angle_beta 130.372665
_cell_angle_gamma 90.000000
_cell_volume 1326.699819
_symmetry_space_group_name_H-M "P 2/M"
_symmetry_group_IT_number 10
_symmetry_cell_setting 'monoclinic'
loop_
_space_group_symop_operation_xyz
x,y,z
-x,y,-z
-x,-y,-z
x,-y,z
loop_
_atom_site_type_symbol
_atom_site_label
_atom_site_fract_x
_atom_site_fract_y
_atom_site_fract_z
Si Si1 0.604586 0.183013 0.230860
Si Si2 0.887197 0.315117 0.895334
Si Si3 0.606906 0.671865 0.622640
Si Si4 0.603439 0.683376 0.974435
Si Si5 0.255125 0.821259 0.067693
Si Si6 0.742889 0.328827 0.550824
O O1 0.621208 0.268000 0.125173
O O2 0.702834 0.219111 0.406693
O O3 0.597957 0.000000 0.204083
O O4 0.498938 0.240438 0.178203
O O5 0.873537 0.500000 0.885572
O O6 0.844638 0.251041 0.975913
O O7 0.830744 0.254508 0.720491
O O8 0.000000 0.261248 0.000000
O O9 0.500000 0.742430 0.500000
O O10 0.607128 0.500000 0.686442
O O11 0.663278 0.803613 0.750359
O O12 0.649076 0.647891 0.537512
O O13 0.591020 0.500000 0.953319
O O14 0.702040 0.735206 0.003474
O O15 0.235301 0.000000 0.016324
O O16 0.775119 0.500000 0.533934
#
# Coordination Sequence:
#
# PCOD8067525 Si02
#       6
#     4   4   4   4   4   4
#     4  11  21  33  50  76 108 138 172 211 252 296
#     4   9  19  37  59  79 100 131 171 212 255 307
#     4   9  17  29  46  68  97 133 169 203 241 294
#     4  11  21  35  53  72 101 142 181 210 244 294
#     4  11  21  32  49  75 104 131 164 209 259 304
#     4   9  17  30  49  74 102 133 169 205 247 301
#
# _framework density 18.09
#
# number of rings (size 3 to 8) (size 9 to 14) (size 15 to 20)
#    0.000    2.000    0.000    7.500    0.000    4.667 
#    0.000    0.000    0.000    1.000    0.000    7.000 
#    0.000    0.000    0.000    0.000    0.000    0.000 
#
# Total GULP energy -297333.452785 kJ/mol
# GULP energy per Si atom -12388.893866 kJ/mol
# Density = 1.804883 g / cm^3
# Si number density = 18.090000 Si / 1000 Ang^3
#
#
#
# Elastic Constant Matrix: (Units=GPa)
#
#
# Indices 1 2 3 4 5 6 
#
# 1 109.5524 14.0734 38.1441 0.0000 15.7037 0.0000
# 2 14.0734 49.1382 2.4793 0.0000 -0.3759 0.0000
# 3 38.1441 2.4793 80.4549 0.0000 11.1099 0.0000
# 4 0.0000 0.0000 0.0000 18.2701 0.0000 -2.8709
# 5 15.7037 -0.3759 11.1099 0.0000 29.7219 0.0000
# 6 0.0000 0.0000 0.0000 -2.8709 0.0000 21.6755
#
#
#
# Elastic Compliance Matrix: (Units=1/GPa)
#
#
# Indices 1 2 3 4 5 6 
#
# 1 0.011895 -0.003193 -0.004922 0.000000 -0.004485 0.000000
# 2 -0.003193 0.021247 0.000621 0.000000 0.001723 0.000000
# 3 -0.004922 0.000621 0.015166 0.000000 -0.003061 0.000000
# 4 0.000000 0.000000 0.000000 0.055898 0.000000 0.007403
# 5 -0.004485 0.001723 -0.003061 0.000000 0.037181 0.000000
# 6 0.000000 0.000000 0.000000 0.007403 0.000000 0.047116
#
#
# Mechanical properties :
#
#
# Convention : Reuss Voigt Hill
#
# Bulk Modulus (GPa) = 30.01088 38.72657 34.36873
# Shear Modulus (GPa) = 23.29960 26.23008 24.76484
#
# Velocity S-wave (km/s) = 3.59274 3.81199 3.70399
# Velocity P-wave (km/s) = 5.81689 6.38977 6.11005
#
# Compressibility (1/GPa) = 0.03332125
#
# Stress axis : x y z
#
# Youngs Moduli (GPa) = 84.07072 47.06541 65.93610
#
# Poissons Ratio (x) = 0.15027 0.32451
# Poissons Ratio (y) = 0.26841 -0.04094
# Poissons Ratio (z) = 0.41376 -0.02922
#
# Static dielectric constant tensor:
#      x y z
#    x 3.489560 0.000000 -0.028120 
#    y 0.000000 3.347800 0.000000 
#    z -0.028120 0.000000 3.264980 
# 
# 
# High freq. dielectric constant tensor:
#      x y z
#    x 1.686860 0.000000 -0.006020 
#    y 0.000000 1.699080 0.000000 
#    z -0.006020 0.000000 1.681530 
# 
# From -- ./inp_files/52865.got.cif
#   From: 2010.06.25/outbox.cif.g09.slc.cpg/sg10_27_cif.got.tgz:52865.got - 2010.06.27 22:07:45.
