data_PCOD8067503
_publ_section_title
;
Structure prediction by ZEFSAII (Michael W. Deem and Ramdas Pophale) SiO2 
 PCOD8067503
Probable space group: P 2/M
;
_chemical_formula_sum "Si O2"
_cell_formula_units_Z 32
_cell_length_a 11.076176
_cell_length_b 14.682449
_cell_length_c 17.868245
_cell_angle_alpha 90.000000
_cell_angle_beta 27.324911
_cell_angle_gamma 90.000000
_cell_volume 1333.880319
_symmetry_space_group_name_H-M "P 2/M"
_symmetry_group_IT_number 10
_symmetry_cell_setting 'monoclinic'
loop_
_space_group_symop_operation_xyz
x,y,z
-x,y,-z
-x,-y,-z
x,-y,z
loop_
_atom_site_type_symbol
_atom_site_label
_atom_site_fract_x
_atom_site_fract_y
_atom_site_fract_z
Si Si1 0.145055 0.235699 0.109845
Si Si2 0.300416 0.871914 0.832009
Si Si3 0.044067 0.750473 0.336917
Si Si4 0.985149 0.604115 0.097946
Si Si5 0.414491 0.897351 0.174018
Si Si6 0.520441 0.316304 0.297613
Si Si7 0.735026 0.401354 0.692756
Si Si8 0.300741 0.100358 0.671791
O O1 0.167255 0.329588 0.049428
O O2 0.938235 0.169107 0.183489
O O3 0.046663 0.256314 0.246743
O O4 0.409198 0.175357 0.969224
O O5 0.480136 0.909672 0.799878
O O6 0.301131 0.763288 0.835574
O O7 0.434531 0.905575 0.680105
O O8 0.000000 0.909124 0.000000
O O9 0.125222 0.849891 0.326092
O O10 0.255961 0.676098 0.249304
O O11 0.754173 0.725162 0.524109
O O12 0.036500 0.500000 0.095063
O O13 0.675935 0.633828 0.280353
O O14 0.000000 0.617673 0.000000
O O15 0.404710 0.000000 0.144326
O O16 0.495822 0.385719 0.240761
O O17 0.690365 0.500000 0.755389
O O18 0.000000 0.399502 0.500000
O O19 0.500000 0.139756 0.500000
O O20 0.203918 0.000000 0.698823
#
# Coordination Sequence:
#
# PCOD8067503 Si02
#       8
#     4   4   4   4   4   4   4   4
#     4  12  25  43  69 100 140 187 227 294 354 421
#     4  12  22  41  73 101 131 178 233 292 346 420
#     4  11  26  42  66  97 142 184 233 284 352 419
#     4  11  25  45  73 106 138 178 230 289 357 424
#     4  12  26  46  72 100 136 190 246 291 344 419
#     4  11  20  42  70  98 139 179 222 291 355 410
#     4   9  19  37  64  93 124 170 222 270 331 409
#     4  11  24  41  65 101 140 178 226 290 359 418
#
# _framework density 23.990157
#
# number of rings (size 3 to 8) (size 9 to 14) (size 15 to 20)
#    0.000    0.875    3.750    3.375    0.000    3.000 
#    0.000    2.500    0.000    1.500    0.000    0.000 
#    0.000    0.000    0.000    0.000    0.000    0.000 
#
# Total GULP energy -396575.811967 kJ/mol
# GULP energy per Si atom -12392.994124 kJ/mol
# Density = 2.393555 g / cm^3
# Si number density = 23.990157 Si / 1000 Ang^3
#
#
#
# Elastic Constant Matrix: (Units=GPa)
#
#
# Indices 1 2 3 4 5 6 
#
# 1 97.7801 34.2652 20.6857 0.0000 8.6129 0.0000
# 2 34.2652 197.8126 25.3749 0.0000 -2.4975 0.0000
# 3 20.6857 25.3749 62.2291 0.0000 3.8326 0.0000
# 4 0.0000 0.0000 0.0000 33.5266 0.0000 -5.9813
# 5 8.6129 -2.4975 3.8326 0.0000 30.9759 0.0000
# 6 0.0000 0.0000 0.0000 -5.9813 0.0000 4.5218
#
#
#
# Elastic Compliance Matrix: (Units=1/GPa)
#
#
# Indices 1 2 3 4 5 6 
#
# 1 0.011722 -0.001681 -0.003025 0.000000 -0.003021 0.000000
# 2 -0.001681 0.005591 -0.001791 0.000000 0.001140 0.000000
# 3 -0.003025 -0.001791 0.017899 0.000000 -0.001518 0.000000
# 4 0.000000 0.000000 0.000000 0.039040 0.000000 0.051641
# 5 -0.003021 0.001140 -0.001518 0.000000 0.033403 0.000000
# 6 0.000000 0.000000 0.000000 0.051641 0.000000 0.289463
#
#
# Mechanical properties :
#
#
# Convention : Reuss Voigt Hill
#
# Bulk Modulus (GPa) = 45.00904 57.60815 51.30859
# Shear Modulus (GPa) = 11.97556 32.30459 22.14008
#
# Velocity S-wave (km/s) = 2.23667 3.67355 3.04119
# Velocity P-wave (km/s) = 5.04702 6.48527 5.81082
#
# Compressibility (1/GPa) = 0.02221776
#
# Stress axis : x y z
#
# Youngs Moduli (GPa) = 85.30964 178.87316 55.86857
#
# Poissons Ratio (x) = 0.30061 0.16902
# Poissons Ratio (y) = 0.14337 0.10007
# Poissons Ratio (z) = 0.25808 0.32040
#
# Static dielectric constant tensor:
#      x y z
#    x 4.432530 0.000000 -0.327710 
#    y 0.000000 4.611270 0.000000 
#    z -0.327710 0.000000 4.316830 
# 
# 
# High freq. dielectric constant tensor:
#      x y z
#    x 1.948800 0.000000 -0.013950 
#    y 0.000000 1.961900 0.000000 
#    z -0.013950 0.000000 1.940940 
# 
# From -- ./inp_files/77011.got.cif
#   From: 2010.06.25/outbox.cif.g09.slc.cpg/sg10_39_cif.got.tgz:77011.got - 2010.06.27 22:07:45.
