data_PCOD8067631
_publ_section_title
;
Structure prediction by ZEFSAII (Michael W. Deem and Ramdas Pophale) SiO2 
 PCOD8067631
Probable space group: P 2/M
;
_chemical_formula_sum "Si O2"
_cell_formula_units_Z 28
_cell_length_a 10.193637
_cell_length_b 8.402158
_cell_length_c 29.853062
_cell_angle_alpha 90.000000
_cell_angle_beta 33.787911
_cell_angle_gamma 90.000000
_cell_volume 1421.928035
_symmetry_space_group_name_H-M "P 2/M"
_symmetry_group_IT_number 10
_symmetry_cell_setting 'monoclinic'
loop_
_space_group_symop_operation_xyz
x,y,z
-x,y,-z
-x,-y,-z
x,-y,z
loop_
_atom_site_type_symbol
_atom_site_label
_atom_site_fract_x
_atom_site_fract_y
_atom_site_fract_z
Si Si1 0.139124 0.189184 0.235603
Si Si2 0.621194 0.684442 0.511906
Si Si3 0.652107 0.811366 0.077548
Si Si4 0.103724 0.811528 0.900933
Si Si5 0.901019 0.814679 0.651950
Si Si6 0.448060 0.682528 0.735647
Si Si7 0.337030 0.814823 0.672985
O O1 0.386730 0.253425 0.144504
O O2 0.111042 0.253250 0.294118
O O3 0.923110 0.249532 0.266640
O O4 0.142386 0.000000 0.236441
O O5 0.500000 0.738101 0.500000
O O6 0.573650 0.500000 0.535646
O O7 0.513305 0.790711 0.581770
O O8 0.899781 0.717355 0.431033
O O9 0.738058 0.754856 0.102008
O O10 0.655765 0.000000 0.077039
O O11 0.833436 0.754801 0.987291
O O12 0.198757 0.725008 0.829690
O O13 0.117543 0.000000 0.889647
O O14 0.651626 0.791714 0.698600
O O15 0.966829 0.000000 0.632815
O O16 0.513544 0.500000 0.725091
O O17 0.427512 0.713636 0.688893
O O18 0.329559 0.000000 0.688010
#
# Coordination Sequence:
#
# PCOD8067631 Si02
#       7
#     4   4   4   4   4   4   4
#     4   9  17  32  59  91 115 141 191 249 289 329
#     4  11  23  39  60  90 126 155 185 231 293 352
#     4   8  14  28  56  91 116 141 188 247 292 329
#     4   9  16  31  58  86 115 151 191 238 289 344
#     4  11  21  38  65  90 114 149 199 246 283 339
#     4  12  25  40  56  83 123 160 192 237 300 356
#     4  11  23  40  62  86 114 155 202 243 287 341
#
# _framework density 19.691575
#
# number of rings (size 3 to 8) (size 9 to 14) (size 15 to 20)
#    0.000    1.857    2.857    3.429    0.000    1.143 
#    0.000    5.000    0.000    4.286    0.000    0.000 
#    0.000    0.000    0.000    0.000    0.000    0.000 
#
# Total GULP energy -347222.016828 kJ/mol
# GULP energy per Si atom -12400.786315 kJ/mol
# Density = 1.964676 g / cm^3
# Si number density = 19.691575 Si / 1000 Ang^3
#
#
#
# Elastic Constant Matrix: (Units=GPa)
#
#
# Indices 1 2 3 4 5 6 
#
# 1 79.0751 11.3232 30.4024 0.0000 -1.4314 0.0000
# 2 11.3232 43.0975 12.5378 0.0000 1.8054 0.0000
# 3 30.4024 12.5378 122.7412 0.0000 -10.9169 0.0000
# 4 0.0000 0.0000 0.0000 13.0970 0.0000 2.5816
# 5 -1.4314 1.8054 -10.9169 0.0000 33.4231 0.0000
# 6 0.0000 0.0000 0.0000 2.5816 0.0000 18.6306
#
#
#
# Elastic Compliance Matrix: (Units=1/GPa)
#
#
# Indices 1 2 3 4 5 6 
#
# 1 0.014303 -0.002789 -0.003285 0.000000 -0.000310 0.000000
# 2 -0.002789 0.024609 -0.002010 0.000000 -0.002105 0.000000
# 3 -0.003285 -0.002010 0.009438 0.000000 0.003050 0.000000
# 4 0.000000 0.000000 0.000000 0.078498 0.000000 -0.010877
# 5 -0.000310 -0.002105 0.003050 0.000000 0.031016 0.000000
# 6 0.000000 0.000000 0.000000 -0.010877 0.000000 0.055182
#
#
# Mechanical properties :
#
#
# Convention : Reuss Voigt Hill
#
# Bulk Modulus (GPa) = 31.07497 39.27119 35.17308
# Shear Modulus (GPa) = 20.83834 25.74016 23.28925
#
# Velocity S-wave (km/s) = 3.25658 3.61940 3.44277
# Velocity P-wave (km/s) = 5.47317 6.11990 5.80555
#
# Compressibility (1/GPa) = 0.03218024
#
# Stress axis : x y z
#
# Youngs Moduli (GPa) = 69.91455 40.63560 105.95829
#
# Poissons Ratio (x) = 0.11334 0.34812
# Poissons Ratio (y) = 0.19500 0.21299
# Poissons Ratio (z) = 0.22970 0.08168
#
# Static dielectric constant tensor:
#      x y z
#    x 3.475520 0.000000 -0.205370 
#    y 0.000000 3.221050 0.000000 
#    z -0.205370 0.000000 3.904730 
# 
# 
# High freq. dielectric constant tensor:
#      x y z
#    x 1.746850 0.000000 -0.009840 
#    y 0.000000 1.740400 0.000000 
#    z -0.009840 0.000000 1.783410 
# 
# From -- ./inp_files/91989.got.cif
#   From: 2010.06.25/outbox.cif.g09.slc.cpg/sg10_46_cif.got.tgz:91989.got - 2010.06.27 22:07:45.
