data_PCOD8067049
_publ_section_title
;
Structure prediction by ZEFSAII (Michael W. Deem and Ramdas Pophale) SiO2 
 PCOD8067049
Probable space group: P 2/M
;
_chemical_formula_sum "Si O2"
_cell_formula_units_Z 24
_cell_length_a 12.211796
_cell_length_b 8.944561
_cell_length_c 23.969722
_cell_angle_alpha 90.000000
_cell_angle_beta 26.754281
_cell_angle_gamma 90.000000
_cell_volume 1178.619031
_symmetry_space_group_name_H-M "P 2/M"
_symmetry_group_IT_number 10
_symmetry_cell_setting 'monoclinic'
loop_
_space_group_symop_operation_xyz
x,y,z
-x,y,-z
-x,-y,-z
x,-y,z
loop_
_atom_site_type_symbol
_atom_site_label
_atom_site_fract_x
_atom_site_fract_y
_atom_site_fract_z
Si Si1 0.571085 0.825813 0.730998
Si Si2 0.924284 0.177970 0.664184
Si Si3 0.468681 0.827356 0.074067
Si Si4 0.332927 0.675411 0.742431
Si Si5 0.456630 0.177388 0.456038
Si Si6 0.854732 0.830730 0.989005
O O1 0.813363 0.773074 0.654523
O O2 0.552924 0.734426 0.681636
O O3 0.590676 0.000000 0.706957
O O4 0.331381 0.793012 0.876834
O O5 0.751917 0.247102 0.790956
O O6 0.195653 0.235195 0.552131
O O7 0.909481 0.000000 0.673826
O O8 0.400496 0.000000 0.095983
O O9 0.500000 0.746746 0.000000
O O10 0.722049 0.810586 0.990581
O O11 0.353055 0.500000 0.726575
O O12 0.345806 0.749511 0.675067
O O13 0.081161 0.719071 0.886996
O O14 0.500000 0.231096 0.500000
O O15 0.481242 0.000000 0.441218
O O16 0.952841 0.000000 0.951196
#
# Coordination Sequence:
#
# PCOD8067049 Si02
#       6
#     4   4   4   4   4   4
#     4   9  18  36  60  85 113 142 181 234 284 328
#     4   8  16  32  54  84 113 138 175 229 284 324
#     4   8  14  25  50  85 114 136 168 224 281 326
#     4  12  25  37  53  79 115 155 190 226 274 330
#     4  10  22  39  61  85 109 143 188 232 274 329
#     4   9  18  33  56  86 114 143 181 229 281 329
#
# _framework density 20.362812999999999
#
# number of rings (size 3 to 8) (size 9 to 14) (size 15 to 20)
#    0.000    2.667    0.000    4.000    2.333    3.667 
#    0.000    4.167    0.000    1.500    0.000    0.000 
#    0.000    0.000    0.000    0.000    0.000    0.000 
#
# Total GULP energy -297499.895045 kJ/mol
# GULP energy per Si atom -12395.828960 kJ/mol
# Density = 2.031647 g / cm^3
# Si number density = 20.362813 Si / 1000 Ang^3
#
#
#
# Elastic Constant Matrix: (Units=GPa)
#
#
# Indices 1 2 3 4 5 6 
#
# 1 128.0917 38.5271 33.9150 0.0000 13.1361 0.0000
# 2 38.5271 53.9553 23.3171 0.0000 1.9640 0.0000
# 3 33.9150 23.3171 51.6157 0.0000 -11.0835 0.0000
# 4 0.0000 0.0000 0.0000 3.0712 0.0000 4.9837
# 5 13.1361 1.9640 -11.0835 0.0000 29.6773 0.0000
# 6 0.0000 0.0000 0.0000 4.9837 0.0000 6.2538
#
#
#
# Elastic Compliance Matrix: (Units=1/GPa)
#
#
# Indices 1 2 3 4 5 6 
#
# 1 0.012083 -0.005221 -0.007236 0.000000 -0.007705 0.000000
# 2 -0.005221 0.026270 -0.009039 0.000000 -0.002803 0.000000
# 3 -0.007236 -0.009039 0.031558 0.000000 0.015587 0.000000
# 4 0.000000 0.000000 0.000000 -1.110740 0.000000 0.885155
# 5 -0.007705 -0.002803 0.015587 0.000000 0.043113 0.000000
# 6 0.000000 0.000000 0.000000 0.885155 0.000000 -0.545481
#
#
# Mechanical properties :
#
#
# Convention : Reuss Voigt Hill
#
# Bulk Modulus (GPa) = 37.14541 47.24234 42.19387
# Shear Modulus (GPa) = -3.35293 16.99403 6.82055
#
# Velocity S-wave (km/s) = -1.28459 2.89201 1.83215
# Velocity P-wave (km/s) = 4.01013 5.86535 5.02412
#
# Compressibility (1/GPa) = 0.02692123
#
# Stress axis : x y z
#
# Youngs Moduli (GPa) = 82.76013 38.06628 31.68722
#
# Poissons Ratio (x) = 0.19873 0.22927
# Poissons Ratio (y) = 0.43206 0.28642
# Poissons Ratio (z) = 0.59882 0.34408
#
# Static dielectric constant tensor:
#      x y z
#    x 4.030550 0.000000 0.043190 
#    y 0.000000 3.042730 0.000000 
#    z 0.043190 0.000000 3.760050 
# 
# 
# High freq. dielectric constant tensor:
#      x y z
#    x 1.814960 0.000000 0.003790 
#    y 0.000000 1.727270 0.000000 
#    z 0.003790 0.000000 1.793660 
# 
# From -- ./inp_files/88610.got.cif
#   From: 2010.06.25/outbox.cif.g09.slc.cpg/sg10_45_cif.got.tgz:88610.got - 2010.06.27 22:07:45.
