data_PCOD8067135
_publ_section_title
;
Structure prediction by ZEFSAII (Michael W. Deem and Ramdas Pophale) SiO2 
 PCOD8067135
Probable space group: P 2/M
;
_chemical_formula_sum "Si O2"
_cell_formula_units_Z 28
_cell_length_a 30.011846
_cell_length_b 7.840057
_cell_length_c 9.315192
_cell_angle_alpha 90.000000
_cell_angle_beta 143.476612
_cell_angle_gamma 90.000000
_cell_volume 1304.460139
_symmetry_space_group_name_H-M "P 2/M"
_symmetry_group_IT_number 10
_symmetry_cell_setting 'monoclinic'
loop_
_space_group_symop_operation_xyz
x,y,z
-x,y,-z
-x,-y,-z
x,-y,z
loop_
_atom_site_type_symbol
_atom_site_label
_atom_site_fract_x
_atom_site_fract_y
_atom_site_fract_z
Si Si1 0.866523 0.192930 0.473810
Si Si2 0.865347 0.693235 0.790293
Si Si3 0.723314 0.198171 0.926608
Si Si4 0.389497 0.500000 0.319610
Si Si5 0.734711 0.192574 0.633018
Si Si6 0.548307 0.500000 0.835033
Si Si7 0.425798 0.804852 0.897426
Si Si8 0.992592 0.693697 0.323062
O O1 0.865104 0.204859 0.641448
O O2 0.930550 0.305252 0.566693
O O3 0.883228 0.000000 0.471233
O O4 0.786262 0.249845 0.204678
O O5 0.887756 0.500000 0.810816
O O6 0.784014 0.692412 0.654607
O O7 0.926604 0.779058 0.056346
O O8 0.654934 0.325194 0.772227
O O9 0.756991 0.228332 0.855199
O O10 0.697086 0.000000 0.876217
O O11 0.458291 0.500000 0.608697
O O12 0.420462 0.500000 0.241619
O O13 0.753468 0.000000 0.637580
O O14 0.646402 0.229248 0.388730
O O15 0.579097 0.672900 0.985456
O O16 0.426537 0.000000 0.957632
O O17 0.500000 0.765707 0.000000
O O18 0.967528 0.500000 0.284963
O O19 0.000000 0.782970 0.500000
#
# Coordination Sequence:
#
# PCOD8067135 Si02
#       8
#     4   4   4   2   4   2   4   4
#     4  11  24  40  62  90 124 168 210 258 316 372
#     4  11  24  38  61  94 126 165 210 262 317 373
#     4  10  24  43  64  93 128 168 215 261 316 379
#     4  11  26  42  66  92 127 176 207 262 323 379
#     4  10  22  40  63  92 125 163 211 263 317 377
#     4  11  25  42  62  98 128 162 220 260 317 389
#     4  10  22  40  66  94 127 168 211 267 325 378
#     4  10  22  41  63  90 125 164 209 259 314 376
#
# _framework density 21.464818000000001
#
# number of rings (size 3 to 8) (size 9 to 14) (size 15 to 20)
#    0.000    1.571    0.000    3.214    6.000    5.429 
#    0.000    1.429    0.000    0.000    0.000    0.000 
#    0.000    0.000    0.000    0.000    0.000    0.000 
#
# Total GULP energy -347253.841985 kJ/mol
# GULP energy per Si atom -12401.922928 kJ/mol
# Density = 2.141596 g / cm^3
# Si number density = 21.464818 Si / 1000 Ang^3
#
#
#
# Elastic Constant Matrix: (Units=GPa)
#
#
# Indices 1 2 3 4 5 6 
#
# 1 110.7518 23.1935 53.4859 0.0000 -5.6368 0.0000
# 2 23.1935 75.4495 31.0621 0.0000 -0.7998 0.0000
# 3 53.4859 31.0621 135.9944 0.0000 -15.8952 0.0000
# 4 0.0000 0.0000 0.0000 31.1337 0.0000 3.2282
# 5 -5.6368 -0.7998 -15.8952 0.0000 37.8472 0.0000
# 6 0.0000 0.0000 0.0000 3.2282 0.0000 34.0552
#
#
#
# Elastic Compliance Matrix: (Units=1/GPa)
#
#
# Indices 1 2 3 4 5 6 
#
# 1 0.011370 -0.001824 -0.004061 0.000000 -0.000051 0.000000
# 2 -0.001824 0.014970 -0.002836 0.000000 -0.001146 0.000000
# 3 -0.004061 -0.002836 0.010012 0.000000 0.003540 0.000000
# 4 0.000000 0.000000 0.000000 0.032438 0.000000 -0.003075
# 5 -0.000051 -0.001146 0.003540 0.000000 0.027877 0.000000
# 6 0.000000 0.000000 0.000000 -0.003075 0.000000 0.029656
#
#
# Mechanical properties :
#
#
# Convention : Reuss Voigt Hill
#
# Bulk Modulus (GPa) = 52.88167 59.74209 56.31188
# Shear Modulus (GPa) = 33.31834 34.90417 34.11126
#
# Velocity S-wave (km/s) = 3.94411 4.03688 3.99076
# Velocity P-wave (km/s) = 6.74027 7.04426 6.89394
#
# Compressibility (1/GPa) = 0.01891014
#
# Stress axis : x y z
#
# Youngs Moduli (GPa) = 87.95252 66.80064 99.88053
#
# Poissons Ratio (x) = 0.12183 0.40562
# Poissons Ratio (y) = 0.16040 0.28326
# Poissons Ratio (z) = 0.35718 0.18944
#
# Static dielectric constant tensor:
#      x y z
#    x 3.627140 0.000000 -0.095320 
#    y 0.000000 3.819720 0.000000 
#    z -0.095320 0.000000 4.192650 
# 
# 
# High freq. dielectric constant tensor:
#      x y z
#    x 1.838440 0.000000 -0.003660 
#    y 0.000000 1.840420 0.000000 
#    z -0.003660 0.000000 1.857170 
# 
# From -- ./inp_files/37427.got.cif
#   From: 2010.06.25/outbox.cif.g09.slc.cpg/sg10_19_cif.got.tgz:37427.got - 2010.06.27 22:07:45.
