data_PCOD8067132
_publ_section_title
;
Structure prediction by ZEFSAII (Michael W. Deem and Ramdas Pophale) SiO2 
 PCOD8067132
Probable space group: P 2/M
;
_chemical_formula_sum "Si O2"
_cell_formula_units_Z 28
_cell_length_a 15.491811
_cell_length_b 8.581735
_cell_length_c 11.880468
_cell_angle_alpha 90.000000
_cell_angle_beta 120.107695
_cell_angle_gamma 90.000000
_cell_volume 1366.372609
_symmetry_space_group_name_H-M "P 2/M"
_symmetry_group_IT_number 10
_symmetry_cell_setting 'monoclinic'
loop_
_space_group_symop_operation_xyz
x,y,z
-x,y,-z
-x,-y,-z
x,-y,z
loop_
_atom_site_type_symbol
_atom_site_label
_atom_site_fract_x
_atom_site_fract_y
_atom_site_fract_z
Si Si1 0.301399 0.318198 0.133155
Si Si2 0.382825 0.822757 0.410435
Si Si3 0.019609 0.184209 0.684409
Si Si4 0.160371 0.815610 0.578891
Si Si5 0.356049 0.318434 0.627175
Si Si6 0.472859 0.816044 0.108353
Si Si7 0.083868 0.815320 0.966571
O O1 0.308017 0.500000 0.112952
O O2 0.348729 0.283294 0.285238
O O3 0.360497 0.231339 0.070358
O O4 0.187655 0.264487 0.063239
O O5 0.500000 0.807291 0.500000
O O6 0.334246 0.766465 0.494880
O O7 0.349280 0.000000 0.364868
O O8 0.104534 0.241585 0.654528
O O9 0.043708 0.251998 0.822230
O O10 0.909108 0.234583 0.572229
O O11 0.022191 0.000000 0.686850
O O12 0.262714 0.720754 0.645182
O O13 0.182558 0.000000 0.594245
O O14 0.367213 0.500000 0.612306
O O15 0.455409 0.259998 0.752714
O O16 0.485198 0.000000 0.123665
O O17 0.500000 0.757136 0.000000
O O18 0.100115 0.000000 0.975399
O O19 0.000000 0.765226 0.000000
#
# Coordination Sequence:
#
# PCOD8067132 Si02
#       7
#     4   4   4   4   4   4   4
#     4  12  26  43  65  95 132 168 203 261 332 382
#     4  11  23  42  68  91 118 162 214 255 297 364
#     4   8  17  36  61  88 116 157 214 264 303 353
#     4   9  18  36  62  88 118 160 210 259 304 363
#     4  12  25  39  61  96 132 162 199 254 323 381
#     4  11  25  45  68  93 124 169 222 264 302 370
#     4  10  22  40  63  91 123 167 219 262 306 371
#
# _framework density 20.492213
#
# number of rings (size 3 to 8) (size 9 to 14) (size 15 to 20)
#    0.000    1.571    1.429    4.286    4.000    2.000 
#    0.000    2.143    0.000    0.000    0.000    0.000 
#    0.000    0.000    0.000    0.000    0.000    0.000 
#
# Total GULP energy -347265.989475 kJ/mol
# GULP energy per Si atom -12402.356767 kJ/mol
# Density = 2.044557 g / cm^3
# Si number density = 20.492213 Si / 1000 Ang^3
#
#
#
# Elastic Constant Matrix: (Units=GPa)
#
#
# Indices 1 2 3 4 5 6 
#
# 1 121.6606 25.6776 45.6637 0.0000 0.1021 0.0000
# 2 25.6776 50.5823 22.4443 0.0000 6.1326 0.0000
# 3 45.6637 22.4443 107.1046 0.0000 -14.5997 0.0000
# 4 0.0000 0.0000 0.0000 19.0349 0.0000 2.8623
# 5 0.1021 6.1326 -14.5997 0.0000 32.7383 0.0000
# 6 0.0000 0.0000 0.0000 2.8623 0.0000 9.9568
#
#
#
# Elastic Compliance Matrix: (Units=1/GPa)
#
#
# Indices 1 2 3 4 5 6 
#
# 1 0.010395 -0.003426 -0.003866 0.000000 -0.001114 0.000000
# 2 -0.003426 0.024315 -0.004529 0.000000 -0.006564 0.000000
# 3 -0.003866 -0.004529 0.012831 0.000000 0.006583 0.000000
# 4 0.000000 0.000000 0.000000 0.054909 0.000000 -0.015785
# 5 -0.001114 -0.006564 0.006583 0.000000 0.034714 0.000000
# 6 0.000000 0.000000 0.000000 -0.015785 0.000000 0.104972
#
#
# Mechanical properties :
#
#
# Convention : Reuss Voigt Hill
#
# Bulk Modulus (GPa) = 41.84436 51.87987 46.86211
# Shear Modulus (GPa) = 18.26530 24.71678 21.49104
#
# Velocity S-wave (km/s) = 2.98875 3.47674 3.24194
# Velocity P-wave (km/s) = 5.68983 6.44118 6.07713
#
# Compressibility (1/GPa) = 0.02389808
#
# Stress axis : x y z
#
# Youngs Moduli (GPa) = 96.20377 41.12765 77.93534
#
# Poissons Ratio (x) = 0.14092 0.30127
# Poissons Ratio (y) = 0.32963 0.35298
# Poissons Ratio (z) = 0.37189 0.18627
#
# Static dielectric constant tensor:
#      x y z
#    x 3.902620 0.000000 -0.154280 
#    y 0.000000 3.478500 0.000000 
#    z -0.154280 0.000000 4.135560 
# 
# 
# High freq. dielectric constant tensor:
#      x y z
#    x 1.814830 0.000000 -0.002880 
#    y 0.000000 1.781600 0.000000 
#    z -0.002880 0.000000 1.806900 
# 
# From -- ./inp_files/50061.got.cif
#   From: 2010.06.25/outbox.cif.g09.slc.cpg/sg10_26_cif.got.tgz:50061.got - 2010.06.27 22:07:45.
