data_PCOD8067533
_publ_section_title
;
Structure prediction by ZEFSAII (Michael W. Deem and Ramdas Pophale) SiO2 
 PCOD8067533
Probable space group: P 2/M
;
_chemical_formula_sum "Si O2"
_cell_formula_units_Z 24
_cell_length_a 25.780250
_cell_length_b 13.744741
_cell_length_c 23.660596
_cell_angle_alpha 90.000000
_cell_angle_beta 169.158943
_cell_angle_gamma 90.000000
_cell_volume 1576.899013
_symmetry_space_group_name_H-M "P 2/M"
_symmetry_group_IT_number 10
_symmetry_cell_setting 'monoclinic'
loop_
_space_group_symop_operation_xyz
x,y,z
-x,y,-z
-x,-y,-z
x,-y,z
loop_
_atom_site_type_symbol
_atom_site_label
_atom_site_fract_x
_atom_site_fract_y
_atom_site_fract_z
Si Si1 0.381054 0.112653 0.254502
Si Si2 0.024746 0.196223 0.093760
Si Si3 0.902373 0.115518 0.163161
Si Si4 0.808514 0.394754 0.848501
Si Si5 0.494968 0.883831 0.164978
Si Si6 0.697369 0.883958 0.162193
O O1 0.661095 0.174629 0.554066
O O2 0.465295 0.000000 0.339192
O O3 0.206749 0.150297 0.014392
O O4 0.192096 0.124312 0.108052
O O5 0.000000 0.184336 0.000000
O O6 0.939324 0.305149 0.023775
O O7 0.205992 0.157796 0.498825
O O8 0.908035 0.000000 0.171267
O O9 0.711514 0.156916 0.008761
O O10 0.500000 0.364988 0.500000
O O11 0.803577 0.500000 0.875951
O O12 0.000000 0.408553 0.000000
O O13 0.495679 0.000000 0.164740
O O14 0.403574 0.843210 0.006118
O O15 0.000000 0.844050 0.500000
O O16 0.695504 0.000000 0.159165
O O17 0.500000 0.843923 0.000000
#
# Coordination Sequence:
#
# PCOD8067533 Si02
#       6
#     4   4   4   4   4   4
#     4  11  22  33  44  59  82 110 140 173 204 239
#     4  11  21  33  47  64  83 104 131 164 210 259
#     4   9  17  28  39  50  65  93 132 165 192 221
#     4   9  17  31  50  68  84 101 123 155 198 250
#     4   9  15  24  37  49  64  89 122 158 195 234
#     4   9  15  21  30  47  68  86 107 144 198 246
#
# _framework density 15.219745
#
# number of rings (size 3 to 8) (size 9 to 14) (size 15 to 20)
#    0.000    2.333    0.000    5.000    0.000    8.667 
#    0.000    0.000    0.000    0.000    0.000    0.000 
#    0.000    0.000    0.000    0.000    0.000    0.000 
#
# Total GULP energy -297464.883842 kJ/mol
# GULP energy per Si atom -12394.370160 kJ/mol
# Density = 1.518510 g / cm^3
# Si number density = 15.219745 Si / 1000 Ang^3
#
#
#
# Elastic Constant Matrix: (Units=GPa)
#
#
# Indices 1 2 3 4 5 6 
#
# 1 91.2070 19.2277 49.9184 0.0000 3.5492 0.0000
# 2 19.2277 36.9510 29.5544 0.0000 -7.2474 0.0000
# 3 49.9184 29.5544 145.3843 0.0000 5.0001 0.0000
# 4 0.0000 0.0000 0.0000 12.5644 0.0000 6.0857
# 5 3.5492 -7.2474 5.0001 0.0000 32.4706 0.0000
# 6 0.0000 0.0000 0.0000 6.0857 0.0000 3.4613
#
#
#
# Elastic Compliance Matrix: (Units=1/GPa)
#
#
# Indices 1 2 3 4 5 6 
#
# 1 0.014124 -0.004678 -0.003830 0.000000 -0.001998 0.000000
# 2 -0.004678 0.036237 -0.006088 0.000000 0.009537 0.000000
# 3 -0.003830 -0.006088 0.009514 0.000000 -0.002405 0.000000
# 4 0.000000 0.000000 0.000000 0.536332 0.000000 -0.942977
# 5 -0.001998 0.009537 -0.002405 0.000000 0.033515 0.000000
# 6 0.000000 0.000000 0.000000 -0.942977 0.000000 1.946841
#
#
# Mechanical properties :
#
#
# Convention : Reuss Voigt Hill
#
# Bulk Modulus (GPa) = 32.59191 52.32704 42.45948
# Shear Modulus (GPa) = 1.91133 21.35539 11.63336
#
# Velocity S-wave (km/s) = 1.12185 3.74991 2.76770
# Velocity P-wave (km/s) = 4.81028 7.29416 6.17833
#
# Compressibility (1/GPa) = 0.03068246
#
# Stress axis : x y z
#
# Youngs Moduli (GPa) = 70.80047 27.59587 105.11200
#
# Poissons Ratio (x) = 0.12910 0.40256
# Poissons Ratio (y) = 0.33123 0.63994
# Poissons Ratio (z) = 0.27115 0.16801
#
# Static dielectric constant tensor:
#      x y z
#    x 3.017320 0.000000 0.085080 
#    y 0.000000 2.740640 0.000000 
#    z 0.085080 0.000000 3.128300 
# 
# 
# High freq. dielectric constant tensor:
#      x y z
#    x 1.583820 0.000000 0.017300 
#    y 0.000000 1.510930 0.000000 
#    z 0.017300 0.000000 1.603330 
# 
# From -- ./inp_files/90901.got.cif
#   From: 2010.06.25/outbox.cif.g09.slc.cpg/sg10_46_cif.got.tgz:90901.got - 2010.06.27 22:07:45.
