data_PCOD8067255
_publ_section_title
;
Structure prediction by ZEFSAII (Michael W. Deem and Ramdas Pophale) SiO2 
 PCOD8067255
Probable space group: P 2/M
;
_chemical_formula_sum "Si O2"
_cell_formula_units_Z 16
_cell_length_a 8.738129
_cell_length_b 11.363354
_cell_length_c 10.080907
_cell_angle_alpha 90.000000
_cell_angle_beta 44.961548
_cell_angle_gamma 90.000000
_cell_volume 707.323263
_symmetry_space_group_name_H-M "P 2/M"
_symmetry_group_IT_number 10
_symmetry_cell_setting 'monoclinic'
loop_
_space_group_symop_operation_xyz
x,y,z
-x,y,-z
-x,-y,-z
x,-y,z
loop_
_atom_site_type_symbol
_atom_site_label
_atom_site_fract_x
_atom_site_fract_y
_atom_site_fract_z
Si Si1 0.877965 0.364761 0.942524
Si Si2 0.166003 0.632890 0.514478
Si Si3 0.501972 0.200627 0.801066
Si Si4 0.201874 0.000000 0.271329
Si Si5 0.207227 0.000000 0.957495
O O1 0.806987 0.500000 0.002480
O O2 0.053670 0.347475 0.721999
O O3 0.662058 0.293907 0.028478
O O4 0.000000 0.318803 0.000000
O O5 0.255903 0.500000 0.445092
O O6 0.360745 0.725506 0.388874
O O7 0.000000 0.662019 0.500000
O O8 0.655245 0.119466 0.800988
O O9 0.343391 0.111561 0.824437
O O10 0.000000 0.000000 0.500000
O O11 0.136586 0.000000 0.156890
O O12 0.000000 0.000000 0.000000
#
# Coordination Sequence:
#
# PCOD8067255 Si02
#       5
#     4   4   4   2   2
#     4  10  23  43  67 101 143 178 218 277 334 393
#     4  10  23  40  66 103 137 174 222 273 328 398
#     4  11  23  43  72  98 131 181 222 271 333 403
#     4  11  27  47  71  98 132 175 230 284 334 396
#     4  11  27  49  69  99 132 173 229 284 341 394
#
# _framework density 22.620491000000001
#
# number of rings (size 3 to 8) (size 9 to 14) (size 15 to 20)
#    0.000    1.500    0.000    3.750   10.500    1.000 
#    4.500    8.750    0.000    0.000    0.000    0.000 
#    0.000    0.000    0.000    0.000    0.000    0.000 
#
# Total GULP energy -198251.493200 kJ/mol
# GULP energy per Si atom -12390.718325 kJ/mol
# Density = 2.256901 g / cm^3
# Si number density = 22.620491 Si / 1000 Ang^3
#
#
#
# Elastic Constant Matrix: (Units=GPa)
#
#
# Indices 1 2 3 4 5 6 
#
# 1 143.2823 69.3933 78.5692 0.0000 -1.4611 0.0000
# 2 69.3933 158.5961 68.2274 0.0000 -24.2736 0.0000
# 3 78.5692 68.2274 88.7029 0.0000 -10.7479 0.0000
# 4 0.0000 0.0000 0.0000 36.0229 0.0000 -22.0730
# 5 -1.4611 -24.2736 -10.7479 0.0000 38.5895 0.0000
# 6 0.0000 0.0000 0.0000 -22.0730 0.0000 35.0706
#
#
#
# Elastic Compliance Matrix: (Units=1/GPa)
#
#
# Indices 1 2 3 4 5 6 
#
# 1 0.014206 -0.001778 -0.011680 0.000000 -0.003834 0.000000
# 2 -0.001778 0.010298 -0.005764 0.000000 0.004805 0.000000
# 3 -0.011680 -0.005764 0.026453 0.000000 0.003300 0.000000
# 4 0.000000 0.000000 0.000000 0.045186 0.000000 0.028440
# 5 -0.003834 0.004805 0.003300 0.000000 0.029710 0.000000
# 6 0.000000 0.000000 0.000000 0.028440 0.000000 0.046413
#
#
# Mechanical properties :
#
#
# Convention : Reuss Voigt Hill
#
# Bulk Modulus (GPa) = 79.91801 91.44012 85.67907
# Shear Modulus (GPa) = 23.26852 33.56270 28.41561
#
# Velocity S-wave (km/s) = 3.21073 3.85610 3.54812
# Velocity P-wave (km/s) = 7.01083 7.76771 7.39895
#
# Compressibility (1/GPa) = 0.01251282
#
# Stress axis : x y z
#
# Youngs Moduli (GPa) = 70.39307 97.10239 37.80313
#
# Poissons Ratio (x) = 0.17263 0.44154
# Poissons Ratio (y) = 0.12514 0.21791
# Poissons Ratio (z) = 0.82220 0.55973
#
# Static dielectric constant tensor:
#      x y z
#    x 3.631000 0.000000 -0.501560 
#    y 0.000000 4.634860 0.000000 
#    z -0.501560 0.000000 3.831350 
# 
# 
# High freq. dielectric constant tensor:
#      x y z
#    x 1.877380 0.000000 -0.016950 
#    y 0.000000 1.920450 0.000000 
#    z -0.016950 0.000000 1.890610 
# 
# From -- ./inp_files/17600.got.cif
#   From: 2010.06.25/outbox.cif.g09.slc.cpg/sg10_9_cif.got.tgz:17600.got - 2010.06.27 22:07:45.
