data_PCOD8067867
_publ_section_title
;
Structure prediction by ZEFSAII (Michael W. Deem and Ramdas Pophale) SiO2 
 PCOD8067867
Probable space group: P 2/M
;
_chemical_formula_sum "Si O2"
_cell_formula_units_Z 28
_cell_length_a 13.988859
_cell_length_b 9.237182
_cell_length_c 14.142356
_cell_angle_alpha 90.000000
_cell_angle_beta 82.236848
_cell_angle_gamma 90.000000
_cell_volume 1810.693161
_symmetry_space_group_name_H-M "P 2/M"
_symmetry_group_IT_number 10
_symmetry_cell_setting 'monoclinic'
loop_
_space_group_symop_operation_xyz
x,y,z
-x,y,-z
-x,-y,-z
x,-y,z
loop_
_atom_site_type_symbol
_atom_site_label
_atom_site_fract_x
_atom_site_fract_y
_atom_site_fract_z
Si Si1 0.969501 0.826420 0.276817
Si Si2 0.107418 0.841510 0.524426
Si Si3 0.527758 0.336521 0.105398
Si Si4 0.827115 0.173284 0.676727
Si Si5 0.654415 0.831102 0.828430
Si Si6 0.291131 0.168612 0.965019
Si Si7 0.084305 0.827631 0.921605
O O1 0.900390 0.763966 0.371321
O O2 0.931135 0.766652 0.182188
O O3 0.079495 0.772568 0.277013
O O4 0.966693 0.000000 0.280495
O O5 0.169620 0.763814 0.432357
O O6 0.000000 0.858771 0.500000
O O7 0.153113 0.000000 0.534492
O O8 0.537393 0.500000 0.141615
O O9 0.444544 0.255374 0.175391
O O10 0.629017 0.254786 0.105907
O O11 0.500000 0.332034 0.000000
O O12 0.730760 0.227817 0.741331
O O13 0.829181 0.000000 0.673116
O O14 0.631968 0.000000 0.818348
O O15 0.699283 0.800691 0.925140
O O16 0.186942 0.226381 0.946605
O O17 0.304889 0.000000 0.940413
O O18 0.079963 0.000000 0.922311
O O19 0.000000 0.765412 0.000000
#
# Coordination Sequence:
#
# PCOD8067867 Si02
#       7
#     4   4   4   4   4   4   4
#     4   8  12  18  28  45  73 104 127 147 174 211
#     4   7  10  16  26  42  68 100 125 144 174 216
#     4   9  17  28  40  53  71  96 124 153 186 223
#     4   8  12  18  30  50  75  99 120 145 181 220
#     4   9  15  23  37  56  76  96 119 151 188 220
#     4   9  16  25  37  54  76 100 124 149 178 214
#     4   9  15  21  31  50  75 101 127 151 174 206
#
# _framework density 15.463691000000001
#
# number of rings (size 3 to 8) (size 9 to 14) (size 15 to 20)
#    0.000    3.571    0.000    3.000    0.000    5.143 
#    0.000    0.000    0.000    0.429    0.000    2.000 
#    0.000   14.286    0.000    0.000    0.000    0.000 
#
# Total GULP energy -346866.272128 kJ/mol
# GULP energy per Si atom -12388.081147 kJ/mol
# Density = 1.542849 g / cm^3
# Si number density = 15.463691 Si / 1000 Ang^3
#
#
#
# Elastic Constant Matrix: (Units=GPa)
#
#
# Indices 1 2 3 4 5 6 
#
# 1 119.1713 31.3970 65.4857 0.0000 -23.3492 0.0000
# 2 31.3970 29.5653 23.2854 0.0000 -8.9485 0.0000
# 3 65.4857 23.2854 121.1154 0.0000 -20.5456 0.0000
# 4 0.0000 0.0000 0.0000 3.2871 0.0000 1.2402
# 5 -23.3492 -8.9485 -20.5456 0.0000 26.3402 0.0000
# 6 0.0000 0.0000 0.0000 1.2402 0.0000 2.5416
#
#
#
# Elastic Compliance Matrix: (Units=1/GPa)
#
#
# Indices 1 2 3 4 5 6 
#
# 1 0.015068 -0.010129 -0.005207 0.000000 0.005855 0.000000
# 2 -0.010129 0.048483 -0.002966 0.000000 0.005179 0.000000
# 3 -0.005207 -0.002966 0.012318 0.000000 0.003985 0.000000
# 4 0.000000 0.000000 0.000000 0.372871 0.000000 -0.181953
# 5 0.005855 0.005179 0.003985 0.000000 0.048022 0.000000
# 6 0.000000 0.000000 0.000000 -0.181953 0.000000 0.482242
#
#
# Mechanical properties :
#
#
# Convention : Reuss Voigt Hill
#
# Bulk Modulus (GPa) = 25.46724 56.68756 41.07740
# Shear Modulus (GPa) = 4.86052 16.41271 10.63662
#
# Velocity S-wave (km/s) = 1.77483 3.26140 2.62552
# Velocity P-wave (km/s) = 4.55025 7.13585 5.98436
#
# Compressibility (1/GPa) = 0.03926613
#
# Stress axis : x y z
#
# Youngs Moduli (GPa) = 66.36576 20.62560 81.18182
#
# Poissons Ratio (x) = 0.20891 0.42268
# Poissons Ratio (y) = 0.67221 0.24081
# Poissons Ratio (z) = 0.34554 0.06118
#
# Static dielectric constant tensor:
#      x y z
#    x 2.916970 0.000000 -0.209190 
#    y 0.000000 2.464200 0.000000 
#    z -0.209190 0.000000 3.270030 
# 
# 
# High freq. dielectric constant tensor:
#      x y z
#    x 1.574780 0.000000 -0.021580 
#    y 0.000000 1.532810 0.000000 
#    z -0.021580 0.000000 1.588080 
# 
# From -- ./inp_files/55001.got.cif
#   From: 2010.06.25/outbox.cif.g09.slc.cpg/sg10_28_cif.got.tgz:55001.got - 2010.06.27 22:07:45.
