data_PCOD8067221
_publ_section_title
;
Structure prediction by ZEFSAII (Michael W. Deem and Ramdas Pophale) SiO2 
 PCOD8067221
Probable space group: P 2/M
;
_chemical_formula_sum "Si O2"
_cell_formula_units_Z 28
_cell_length_a 21.332591
_cell_length_b 13.747619
_cell_length_c 8.910237
_cell_angle_alpha 90.000000
_cell_angle_beta 150.887559
_cell_angle_gamma 90.000000
_cell_volume 1271.351378
_symmetry_space_group_name_H-M "P 2/M"
_symmetry_group_IT_number 10
_symmetry_cell_setting 'monoclinic'
loop_
_space_group_symop_operation_xyz
x,y,z
-x,y,-z
-x,-y,-z
x,-y,z
loop_
_atom_site_type_symbol
_atom_site_label
_atom_site_fract_x
_atom_site_fract_y
_atom_site_fract_z
Si Si1 0.682365 0.832066 0.794430
Si Si2 0.554779 0.635130 0.463907
Si Si3 0.696581 0.386692 0.241144
Si Si4 0.414418 0.000000 0.600213
Si Si5 0.796132 0.820205 0.346469
Si Si6 0.301858 0.000000 0.678450
Si Si7 0.788833 0.396315 0.757380
Si Si8 0.054863 0.238006 0.771846
O O1 0.586521 0.743013 0.579516
O O2 0.599202 0.911469 0.539411
O O3 0.709863 0.854637 0.025786
O O4 0.817460 0.824019 0.989866
O O5 0.500000 0.581756 0.500000
O O6 0.689270 0.591450 0.687323
O O7 0.451978 0.625262 0.115379
O O8 0.741418 0.500000 0.296462
O O9 0.773686 0.296451 0.326159
O O10 0.708665 0.364893 0.443009
O O11 0.308043 0.000000 0.510707
O O12 0.555317 0.000000 0.961505
O O13 0.767981 0.898478 0.418888
O O14 0.948099 0.829442 0.627795
O O15 0.855699 0.500000 0.869449
O O16 0.907287 0.325560 0.038575
O O17 0.000000 0.280438 0.500000
#
# Coordination Sequence:
#
# PCOD8067221 Si02
#       8
#     4   4   4   2   4   2   4   4
#     4  10  22  43  66  93 129 177 214 277 336 391
#     4  11  21  39  63  97 131 173 224 274 331 397
#     4  11  24  40  63  97 138 177 218 275 337 401
#     4  11  25  44  67 100 136 166 219 267 348 398
#     4  11  23  45  67  98 132 174 231 271 326 393
#     4  11  27  42  69 104 132 173 212 279 331 403
#     4  10  23  41  62  92 132 180 221 275 341 387
#     4   9  22  43  66  91 128 173 223 274 329 392
#
# _framework density 22.023807999999999
#
# number of rings (size 3 to 8) (size 9 to 14) (size 15 to 20)
#    0.000    1.571    1.429    2.143    4.000    4.857 
#    0.000    4.286    0.000    0.000    0.000    0.000 
#    0.000    0.000    0.000    0.000    0.000    0.000 
#
# Total GULP energy -346891.501322 kJ/mol
# GULP energy per Si atom -12388.982190 kJ/mol
# Density = 2.197368 g / cm^3
# Si number density = 22.023808 Si / 1000 Ang^3
#
#
#
# Elastic Constant Matrix: (Units=GPa)
#
#
# Indices 1 2 3 4 5 6 
#
# 1 96.3646 25.7603 25.4032 0.0000 -3.3678 0.0000
# 2 25.7603 68.5525 18.0374 0.0000 8.6270 0.0000
# 3 25.4032 18.0374 93.1920 0.0000 -6.5503 0.0000
# 4 0.0000 0.0000 0.0000 26.6212 0.0000 -5.8001
# 5 -3.3678 8.6270 -6.5503 0.0000 34.8408 0.0000
# 6 0.0000 0.0000 0.0000 -5.8001 0.0000 25.2631
#
#
#
# Elastic Compliance Matrix: (Units=1/GPa)
#
#
# Indices 1 2 3 4 5 6 
#
# 1 0.012184 -0.004171 -0.002390 0.000000 0.001761 0.000000
# 2 -0.004171 0.017502 -0.002618 0.000000 -0.005229 0.000000
# 3 -0.002390 -0.002618 0.012078 0.000000 0.002688 0.000000
# 4 0.000000 0.000000 0.000000 0.039542 0.000000 0.009078
# 5 0.001761 -0.005229 0.002688 0.000000 0.030672 0.000000
# 6 0.000000 0.000000 0.000000 0.009078 0.000000 0.041668
#
#
# Mechanical properties :
#
#
# Convention : Reuss Voigt Hill
#
# Bulk Modulus (GPa) = 42.72631 44.05676 43.39154
# Shear Modulus (GPa) = 27.80782 29.93888 28.87335
#
# Velocity S-wave (km/s) = 3.55720 3.69099 3.62471
# Velocity P-wave (km/s) = 6.02609 6.18159 6.10434
#
# Compressibility (1/GPa) = 0.02340478
#
# Stress axis : x y z
#
# Youngs Moduli (GPa) = 82.07547 57.13748 82.79723
#
# Poissons Ratio (x) = 0.23833 0.19789
# Poissons Ratio (y) = 0.34235 0.21676
# Poissons Ratio (z) = 0.19617 0.14959
#
# Static dielectric constant tensor:
#      x y z
#    x 4.076220 0.000000 -0.103070 
#    y 0.000000 3.934760 0.000000 
#    z -0.103070 0.000000 3.976380 
# 
# 
# High freq. dielectric constant tensor:
#      x y z
#    x 1.867960 0.000000 -0.004630 
#    y 0.000000 1.864420 0.000000 
#    z -0.004630 0.000000 1.869360 
# 
# From -- ./inp_files/35330.got.cif
#   From: 2010.06.25/outbox.cif.g09.slc.cpg/sg10_18_cif.got.tgz:35330.got - 2010.06.27 22:07:45.
