data_PCOD8067903
_publ_section_title
;
Structure prediction by ZEFSAII (Michael W. Deem and Ramdas Pophale) SiO2 
 PCOD8067903
Probable space group: P 2/M
;
_chemical_formula_sum "Si O2"
_cell_formula_units_Z 28
_cell_length_a 21.898278
_cell_length_b 9.122136
_cell_length_c 7.651521
_cell_angle_alpha 90.000000
_cell_angle_beta 90.000000
_cell_angle_gamma 90.000000
_cell_volume 1528.460720
_symmetry_space_group_name_H-M "P 2/M"
_symmetry_group_IT_number 10
_symmetry_cell_setting 'monoclinic'
loop_
_space_group_symop_operation_xyz
x,y,z
-x,y,-z
-x,-y,-z
x,-y,z
loop_
_atom_site_type_symbol
_atom_site_label
_atom_site_fract_x
_atom_site_fract_y
_atom_site_fract_z
Si Si1 0.068163 0.825661 0.305917
Si Si2 0.620734 0.172407 0.700364
Si Si3 0.931836 0.174339 0.305919
Si Si4 0.379267 0.827593 0.700367
Si Si5 0.710621 0.173460 0.999999
Si Si6 0.500000 0.335802 0.707015
Si Si7 0.152835 0.824508 1.000000
O O1 0.085812 0.770270 0.499999
O O2 0.117531 0.762985 0.169992
O O3 1.000000 0.770737 0.256033
O O4 0.068787 0.000000 0.300710
O O5 0.636387 0.215667 0.499998
O O6 0.676033 0.225303 0.824123
O O7 0.560141 0.251645 0.771714
O O8 0.609007 0.000000 0.716994
O O9 0.931214 0.000000 0.300712
O O10 0.882468 0.237014 0.169994
O O11 0.439860 0.748356 0.771715
O O12 0.390993 0.000000 0.716997
O O13 0.323968 0.774695 0.824126
O O14 0.778694 0.240640 1.000000
O O15 0.715176 0.000000 0.000002
O O16 0.500000 0.338455 0.500000
O O17 0.500000 0.500000 0.784546
O O18 0.153717 0.000000 0.000000
#
# Coordination Sequence:
#
# PCOD8067903 Si02
#       7
#     4   4   4   4   4   4   4
#     4   8  13  20  30  45  65  91 125 165 207 244
#     4   9  17  30  46  62  84 112 138 169 212 256
#     4   8  13  20  30  45  65  91 125 165 207 244
#     4   9  17  30  46  62  84 112 138 169 212 256
#     4   9  18  28  38  56  78 105 143 176 204 247
#     4   9  17  30  49  70  87 105 136 177 215 250
#     4   9  15  22  32  46  67  95 129 170 206 234
#
# _framework density 18.319085000000001
#
# number of rings (size 3 to 8) (size 9 to 14) (size 15 to 20)
#    0.000    3.286    0.000    1.714    0.000    5.143 
#    0.000    9.286    0.000    0.000    0.000    0.000 
#    0.000    0.000    0.000    0.000    0.000   11.429 
#
# Total GULP energy -347038.696007 kJ/mol
# GULP energy per Si atom -12394.239143 kJ/mol
# Density = 1.827739 g / cm^3
# Si number density = 18.319085 Si / 1000 Ang^3
#
#
#
# Elastic Constant Matrix: (Units=GPa)
#
#
# Indices 1 2 3 4 5 6 
#
# 1 191.8715 24.5405 103.9789 0.0000 0.0005 0.0000
# 2 24.5405 23.8068 17.0326 0.0000 0.0001 0.0000
# 3 103.9789 17.0326 133.6105 0.0000 0.0002 0.0000
# 4 0.0000 0.0000 0.0000 4.1707 0.0000 0.0000
# 5 0.0005 0.0001 0.0002 0.0000 28.8640 0.0000
# 6 0.0000 0.0000 0.0000 0.0000 0.0000 0.6636
#
#
#
# Elastic Compliance Matrix: (Units=1/GPa)
#
#
# Indices 1 2 3 4 5 6 
#
# 1 0.009518 -0.004965 -0.006774 0.000000 0.000000 0.000000
# 2 -0.004965 0.048810 -0.002359 0.000000 0.000000 0.000000
# 3 -0.006774 -0.002359 0.013057 0.000000 0.000000 0.000000
# 4 0.000000 0.000000 0.000000 0.239769 0.000000 -0.000011
# 5 0.000000 0.000000 0.000000 0.000000 0.034645 0.000000
# 6 0.000000 0.000000 0.000000 -0.000011 0.000000 1.506848
#
#
# Mechanical properties :
#
#
# Convention : Reuss Voigt Hill
#
# Bulk Modulus (GPa) = 23.15358 71.15474 47.15416
# Shear Modulus (GPa) = 2.63819 20.32212 11.48016
#
# Velocity S-wave (km/s) = 1.20136 3.33429 2.50607
# Velocity P-wave (km/s) = 3.81979 7.33141 5.84553
#
# Compressibility (1/GPa) = 0.04318986
#
# Stress axis : x y z
#
# Youngs Moduli (GPa) = 105.06612 20.48763 76.58781
#
# Poissons Ratio (x) = 0.10171 0.51881
# Poissons Ratio (y) = 0.52161 0.18065
# Poissons Ratio (z) = 0.71173 0.04832
#
# Static dielectric constant tensor:
#      x y z
#    x 3.654240 0.000000 0.000000 
#    y 0.000000 2.772820 0.000000 
#    z 0.000000 0.000000 3.589670 
# 
# 
# High freq. dielectric constant tensor:
#      x y z
#    x 1.711670 0.000000 0.000000 
#    y 0.000000 1.635240 0.000000 
#    z 0.000000 0.000000 1.718560 
# 
# From -- ./inp_files/33475.got.cif
#   From: 2010.06.25/outbox.cif.g09.slc.cpg/sg10_17_cif.got.tgz:33475.got - 2010.06.27 22:07:45.
