data_PCOD8067078
_publ_section_title
;
Structure prediction by ZEFSAII (Michael W. Deem and Ramdas Pophale) SiO2 
 PCOD8067078
Probable space group: P 2/M
;
_chemical_formula_sum "Si O2"
_cell_formula_units_Z 24
_cell_length_a 19.148464
_cell_length_b 11.346645
_cell_length_c 12.118551
_cell_angle_alpha 90.000000
_cell_angle_beta 149.358374
_cell_angle_gamma 90.000000
_cell_volume 1341.956059
_symmetry_space_group_name_H-M "P 2/M"
_symmetry_group_IT_number 10
_symmetry_cell_setting 'monoclinic'
loop_
_space_group_symop_operation_xyz
x,y,z
-x,y,-z
-x,-y,-z
x,-y,z
loop_
_atom_site_type_symbol
_atom_site_label
_atom_site_fract_x
_atom_site_fract_y
_atom_site_fract_z
Si Si1 0.780493 0.636905 0.172105
Si Si2 0.947277 0.753225 0.051118
Si Si3 0.452160 0.251486 0.270110
Si Si4 0.873092 0.000000 0.913243
Si Si5 0.043484 0.636647 0.384516
Si Si6 0.552927 0.000000 0.447332
Si Si7 0.674821 0.634777 0.692731
O O1 0.742821 0.500000 0.125588
O O2 0.892007 0.658351 0.227809
O O3 0.842060 0.679279 0.372814
O O4 0.641935 0.709218 0.960519
O O5 0.059682 0.712812 0.294347
O O6 0.887542 0.881252 0.006105
O O7 0.834908 0.650513 0.892333
O O8 0.000000 0.765687 0.000000
O O9 0.489316 0.114991 0.302566
O O10 0.370476 0.276456 0.272201
O O11 0.592378 0.328504 0.469385
O O12 0.718029 0.000000 0.653890
O O13 0.000000 0.000000 0.000000
O O14 0.065440 0.500000 0.387393
O O15 0.500000 0.000000 0.500000
O O16 0.644021 0.500000 0.683966
#
# Coordination Sequence:
#
# PCOD8067078 Si02
#       7
#     4   4   4   2   4   2   4
#     4   9  17  32  52  75 110 148 175 216 272 337
#     4  11  21  35  55  78 106 143 183 228 267 321
#     4  11  19  31  51  76 107 140 177 216 277 319
#     4  10  22  40  55  75 109 155 186 218 280 335
#     4   9  18  32  51  77 109 144 181 217 271 328
#     4  12  20  34  53  81 115 145 177 237 282 319
#     4  11  20  30  48  78 110 136 171 220 276 330
#
# _framework density 17.884342
#
# number of rings (size 3 to 8) (size 9 to 14) (size 15 to 20)
#    0.000    1.667    5.000    3.500    0.000    1.333 
#    0.000    0.833    0.000    3.000    0.000    5.833 
#    0.000    0.000    0.000    0.000    0.000    0.000 
#
# Total GULP energy -297411.969468 kJ/mol
# GULP energy per Si atom -12392.165395 kJ/mol
# Density = 1.784364 g / cm^3
# Si number density = 17.884342 Si / 1000 Ang^3
#
#
#
# Elastic Constant Matrix: (Units=GPa)
#
#
# Indices 1 2 3 4 5 6 
#
# 1 41.4941 25.7513 31.5220 0.0000 -4.9980 0.0000
# 2 25.7513 118.3412 60.1963 0.0000 -6.4901 0.0000
# 3 31.5220 60.1963 143.3460 0.0000 -11.3070 0.0000
# 4 0.0000 0.0000 0.0000 31.3326 0.0000 1.1547
# 5 -4.9980 -6.4901 -11.3070 0.0000 28.3998 0.0000
# 6 0.0000 0.0000 0.0000 1.1547 0.0000 14.2289
#
#
#
# Elastic Compliance Matrix: (Units=1/GPa)
#
#
# Indices 1 2 3 4 5 6 
#
# 1 0.030590 -0.004066 -0.004819 0.000000 0.002536 0.000000
# 2 -0.004066 0.011299 -0.003823 0.000000 0.000344 0.000000
# 3 -0.004819 -0.003823 0.009814 0.000000 0.002185 0.000000
# 4 0.000000 0.000000 0.000000 0.032011 0.000000 -0.002598
# 5 0.002536 0.000344 0.002185 0.000000 0.036606 0.000000
# 6 0.000000 0.000000 0.000000 -0.002598 0.000000 0.070491
#
#
# Mechanical properties :
#
#
# Convention : Reuss Voigt Hill
#
# Bulk Modulus (GPa) = 38.04477 59.79117 48.91797
# Shear Modulus (GPa) = 22.22328 27.17305 24.69816
#
# Velocity S-wave (km/s) = 3.52889 3.90215 3.72020
# Velocity P-wave (km/s) = 6.15816 7.33533 6.77237
#
# Compressibility (1/GPa) = 0.02628482
#
# Stress axis : x y z
#
# Youngs Moduli (GPa) = 32.69090 88.50622 101.89646
#
# Poissons Ratio (x) = 0.35986 0.49107
# Poissons Ratio (y) = 0.13292 0.38960
# Poissons Ratio (z) = 0.15755 0.33840
#
# Static dielectric constant tensor:
#      x y z
#    x 2.915650 0.000000 0.122580 
#    y 0.000000 3.561880 0.000000 
#    z 0.122580 0.000000 3.585200 
# 
# 
# High freq. dielectric constant tensor:
#      x y z
#    x 1.639450 0.000000 0.012290 
#    y 0.000000 1.696810 0.000000 
#    z 0.012290 0.000000 1.698740 
# 
# From -- ./inp_files/55755.got.cif
#   From: 2010.06.25/outbox.cif.g09.slc.cpg/sg10_28_cif.got.tgz:55755.got - 2010.06.27 22:07:45.
