data_PCOD8067750
_publ_section_title
;
Structure prediction by ZEFSAII (Michael W. Deem and Ramdas Pophale) SiO2 
 PCOD8067750
Probable space group: P 2/M
;
_chemical_formula_sum "Si O2"
_cell_formula_units_Z 14
_cell_length_a 8.555917
_cell_length_b 12.153990
_cell_length_c 8.631404
_cell_angle_alpha 90.000000
_cell_angle_beta 46.562311
_cell_angle_gamma 90.000000
_cell_volume 651.743646
_symmetry_space_group_name_H-M "P 2/M"
_symmetry_group_IT_number 10
_symmetry_cell_setting 'monoclinic'
loop_
_space_group_symop_operation_xyz
x,y,z
-x,y,-z
-x,-y,-z
x,-y,z
loop_
_atom_site_type_symbol
_atom_site_label
_atom_site_fract_x
_atom_site_fract_y
_atom_site_fract_z
Si Si1 0.000000 0.236988 0.500000
Si Si2 0.672606 0.699271 0.261086
Si Si3 0.935066 0.624238 0.828249
Si Si4 0.440940 0.128443 0.217248
O O1 0.112109 0.318813 0.301595
O O2 0.194921 0.160972 0.426312
O O3 0.500000 0.649944 0.500000
O O4 0.595732 0.814812 0.239376
O O5 0.893058 0.705803 0.207685
O O6 0.718705 0.619676 0.081833
O O7 0.022836 0.500000 0.748190
O O8 0.471991 0.000000 0.221953
O O9 0.500000 0.160985 0.000000
#
# Coordination Sequence:
#
# PCOD8067750 Si02
#       4
#     2   4   4   4
#     4  12  22  46  64  96 128 164 212 268 302 382
#     4  11  22  43  65  93 131 163 210 260 309 379
#     4  11  25  42  64  96 129 168 211 257 312 372
#     4  11  24  44  67  92 126 168 211 262 318 369
#
# _framework density 21.480837000000001
#
# number of rings (size 3 to 8) (size 9 to 14) (size 15 to 20)
#    0.000    0.857    5.714    2.571    0.000    2.857 
#    0.000    4.286    0.000    0.000    0.000    0.000 
#    0.000    0.000    0.000    0.000    0.000    0.000 
#
# Total GULP energy -173435.338716 kJ/mol
# GULP energy per Si atom -12388.238480 kJ/mol
# Density = 2.143195 g / cm^3
# Si number density = 21.480837 Si / 1000 Ang^3
#
#
#
# Elastic Constant Matrix: (Units=GPa)
#
#
# Indices 1 2 3 4 5 6 
#
# 1 70.3204 57.2343 11.5432 0.0000 -6.8423 0.0000
# 2 57.2343 106.9469 25.8855 0.0000 -12.3795 0.0000
# 3 11.5432 25.8855 140.3187 0.0000 -3.8145 0.0000
# 4 0.0000 0.0000 0.0000 20.5495 0.0000 -5.0437
# 5 -6.8423 -12.3795 -3.8145 0.0000 25.4079 0.0000
# 6 0.0000 0.0000 0.0000 -5.0437 0.0000 15.7677
#
#
#
# Elastic Compliance Matrix: (Units=1/GPa)
#
#
# Indices 1 2 3 4 5 6 
#
# 1 0.025222 -0.013575 0.000436 0.000000 0.000243 0.000000
# 2 -0.013575 0.017639 -0.002011 0.000000 0.004637 0.000000
# 3 0.000436 -0.002011 0.007469 0.000000 0.000259 0.000000
# 4 0.000000 0.000000 0.000000 0.052809 0.000000 0.016892
# 5 0.000243 0.004637 0.000259 0.000000 0.041721 0.000000
# 6 0.000000 0.000000 0.000000 0.016892 0.000000 0.068824
#
#
# Mechanical properties :
#
#
# Convention : Reuss Voigt Hill
#
# Bulk Modulus (GPa) = 49.92799 56.32356 53.12578
# Shear Modulus (GPa) = 19.94732 27.20656 23.57694
#
# Velocity S-wave (km/s) = 3.05062 3.56272 3.31657
# Velocity P-wave (km/s) = 5.97510 6.57277 6.28105
#
# Compressibility (1/GPa) = 0.02002885
#
# Stress axis : x y z
#
# Youngs Moduli (GPa) = 39.64853 56.69307 133.89018
#
# Poissons Ratio (x) = 0.76961 -0.05838
# Poissons Ratio (y) = 0.53823 0.26928
# Poissons Ratio (z) = -0.01729 0.11402
#
# Static dielectric constant tensor:
#      x y z
#    x 3.693780 0.000000 0.087530 
#    y 0.000000 3.553240 0.000000 
#    z 0.087530 0.000000 4.563130 
# 
# 
# High freq. dielectric constant tensor:
#      x y z
#    x 1.830720 0.000000 0.008830 
#    y 0.000000 1.820350 0.000000 
#    z 0.008830 0.000000 1.870370 
# 
# From -- ./inp_files/14058.got.cif
#   From: 2010.06.25/outbox.cif.g09.slc.cpg/sg10_8_cif.got.tgz:14058.got - 2010.06.27 22:07:45.
