data_PCOD8067469
_publ_section_title
;
Structure prediction by ZEFSAII (Michael W. Deem and Ramdas Pophale) SiO2 
 PCOD8067469
Probable space group: P 2/M
;
_chemical_formula_sum "Si O2"
_cell_formula_units_Z 28
_cell_length_a 9.995831
_cell_length_b 10.896042
_cell_length_c 14.774114
_cell_angle_alpha 90.000000
_cell_angle_beta 67.785370
_cell_angle_gamma 90.000000
_cell_volume 1489.683936
_symmetry_space_group_name_H-M "P 2/M"
_symmetry_group_IT_number 10
_symmetry_cell_setting 'monoclinic'
loop_
_space_group_symop_operation_xyz
x,y,z
-x,y,-z
-x,-y,-z
x,-y,z
loop_
_atom_site_type_symbol
_atom_site_label
_atom_site_fract_x
_atom_site_fract_y
_atom_site_fract_z
Si Si1 0.357108 0.753644 0.303868
Si Si2 0.922642 0.500000 0.375733
Si Si3 0.119437 0.241015 0.686103
Si Si4 0.147743 0.142332 0.000529
Si Si5 0.330488 0.856237 0.782137
Si Si6 0.772541 0.500000 0.604581
Si Si7 0.849749 0.139670 0.505029
Si Si8 0.186892 0.855768 0.190999
O O1 0.525983 0.778924 0.270788
O O2 0.324092 0.616858 0.345416
O O3 0.272408 0.849665 0.388360
O O4 0.308824 0.779107 0.213155
O O5 0.901631 0.386634 0.312996
O O6 0.809134 0.500000 0.488244
O O7 0.083615 0.500000 0.373160
O O8 0.207921 0.200739 0.750536
O O9 0.203926 0.203826 0.573026
O O10 0.967977 0.169036 0.724473
O O11 0.280116 0.162372 0.898344
O O12 0.114110 0.000000 0.025575
O O13 0.189100 0.197145 0.087879
O O14 0.000000 0.203886 0.000000
O O15 0.353191 0.000000 0.754372
O O16 0.000000 0.204089 0.500000
O O17 0.881816 0.000000 0.474416
O O18 0.223967 0.000000 0.186715
#
# Coordination Sequence:
#
# PCOD8067469 Si02
#       8
#     4   2   4   4   4   2   4   4
#     4  12  24  39  60  89 126 165 202 254 303 365
#     4  11  22  41  65  88 114 161 228 255 284 351
#     4  12  22  37  62  90 120 162 207 252 296 362
#     4   9  18  35  62  91 123 158 198 251 309 374
#     4  11  24  41  61  94 131 160 196 252 321 372
#     4  11  22  43  63  84 121 166 216 253 295 348
#     4  11  20  33  56  88 119 154 199 251 305 362
#     4  11  20  35  63  95 120 156 206 254 311 367
#
# _framework density 18.795933999999999
#
# number of rings (size 3 to 8) (size 9 to 14) (size 15 to 20)
#    0.000    1.000    5.714    2.571    0.000    1.714 
#    0.000    4.286    0.000    5.143    0.000    0.000 
#    0.000    0.000    0.000    0.000    0.000    0.000 
#
# Total GULP energy -347265.198154 kJ/mol
# GULP energy per Si atom -12402.328505 kJ/mol
# Density = 1.875315 g / cm^3
# Si number density = 18.795934 Si / 1000 Ang^3
#
#
#
# Elastic Constant Matrix: (Units=GPa)
#
#
# Indices 1 2 3 4 5 6 
#
# 1 55.0319 25.1424 5.7544 0.0000 -5.2485 0.0000
# 2 25.1424 95.4012 23.1420 0.0000 -1.2575 0.0000
# 3 5.7544 23.1420 77.8187 0.0000 8.4870 0.0000
# 4 0.0000 0.0000 0.0000 12.8755 0.0000 0.3704
# 5 -5.2485 -1.2575 8.4870 0.0000 33.9515 0.0000
# 6 0.0000 0.0000 0.0000 0.3704 0.0000 27.0100
#
#
#
# Elastic Compliance Matrix: (Units=1/GPa)
#
#
# Indices 1 2 3 4 5 6 
#
# 1 0.020973 -0.005419 -0.000279 0.000000 0.003111 0.000000
# 2 -0.005419 0.012753 -0.003446 0.000000 0.000496 0.000000
# 3 -0.000279 -0.003446 0.014304 0.000000 -0.003746 0.000000
# 4 0.000000 0.000000 0.000000 0.077698 0.000000 -0.001066
# 5 0.003111 0.000496 -0.003746 0.000000 0.030890 0.000000
# 6 0.000000 0.000000 0.000000 -0.001066 0.000000 0.037038
#
#
# Mechanical properties :
#
#
# Convention : Reuss Voigt Hill
#
# Bulk Modulus (GPa) = 33.62113 37.36995 35.49554
# Shear Modulus (GPa) = 22.53718 26.38159 24.45939
#
# Velocity S-wave (km/s) = 3.46648 3.75050 3.61128
# Velocity P-wave (km/s) = 5.82651 6.21933 6.02613
#
# Compressibility (1/GPa) = 0.02974320
#
# Stress axis : x y z
#
# Youngs Moduli (GPa) = 47.68098 78.41599 69.90900
#
# Poissons Ratio (x) = 0.42491 0.01949
# Poissons Ratio (y) = 0.25836 0.24089
# Poissons Ratio (z) = 0.01329 0.27021
#
# Static dielectric constant tensor:
#      x y z
#    x 3.352340 0.000000 0.160640 
#    y 0.000000 3.333780 0.000000 
#    z 0.160640 0.000000 3.551260 
# 
# 
# High freq. dielectric constant tensor:
#      x y z
#    x 1.718790 0.000000 0.009530 
#    y 0.000000 1.712130 0.000000 
#    z 0.009530 0.000000 1.737430 
# 
# From -- ./inp_files/28728.got.cif
#   From: 2010.06.25/outbox.cif.g09.slc.cpg/sg10_15_cif.got.tgz:28728.got - 2010.06.27 22:07:45.
