data_PCOD8067015
_publ_section_title
;
Structure prediction by ZEFSAII (Michael W. Deem and Ramdas Pophale) SiO2 
 PCOD8067015
Probable space group: P 2/M
;
_chemical_formula_sum "Si O2"
_cell_formula_units_Z 24
_cell_length_a 19.725213
_cell_length_b 12.686046
_cell_length_c 11.065796
_cell_angle_alpha 90.000000
_cell_angle_beta 27.828004
_cell_angle_gamma 90.000000
_cell_volume 1292.644509
_symmetry_space_group_name_H-M "P 2/M"
_symmetry_group_IT_number 10
_symmetry_cell_setting 'monoclinic'
loop_
_space_group_symop_operation_xyz
x,y,z
-x,y,-z
-x,-y,-z
x,-y,z
loop_
_atom_site_type_symbol
_atom_site_label
_atom_site_fract_x
_atom_site_fract_y
_atom_site_fract_z
Si Si1 0.313510 0.617731 0.681512
Si Si2 0.771535 0.818916 0.801232
Si Si3 0.170155 0.000000 0.684948
Si Si4 0.062057 0.120408 0.238978
Si Si5 0.858821 0.198088 0.147094
Si Si6 0.651483 0.618961 0.103263
Si Si7 0.654075 0.000000 0.827244
O O1 0.262673 0.500000 0.728940
O O2 0.232474 0.696537 0.720409
O O3 0.481899 0.631166 0.391218
O O4 0.273804 0.641448 0.884243
O O5 0.798620 0.863358 0.893839
O O6 0.664502 0.895875 0.894933
O O7 0.926699 0.806906 0.491150
O O8 0.703397 0.701973 0.920309
O O9 0.236864 0.108285 0.633197
O O10 0.207694 0.000000 0.483248
O O11 0.000000 0.000000 0.000000
O O12 0.009687 0.000000 0.332753
O O13 0.101131 0.147451 0.042573
O O14 0.000000 0.229255 0.000000
O O15 0.689422 0.500000 0.999677
O O16 0.500000 0.000000 0.000000
#
# Coordination Sequence:
#
# PCOD8067015 Si02
#       7
#     4   4   2   4   4   4   2
#     4   9  19  37  58  82 112 149 195 241 288 339
#     4  11  20  37  60  82 117 154 187 234 292 347
#     4  10  22  39  56  78 118 162 195 225 286 357
#     4  11  20  37  58  87 113 154 199 231 283 356
#     4  11  21  34  59  85 116 151 195 237 281 346
#     4   9  19  37  60  83 111 149 194 241 289 343
#     4  12  26  38  56  94 125 151 191 245 302 347
#
# _framework density 18.566589
#
# number of rings (size 3 to 8) (size 9 to 14) (size 15 to 20)
#    0.000    1.667    4.167    3.500    2.333    0.333 
#    0.000    2.500    0.000    7.500    0.000    0.000 
#    0.000    0.000    0.000    0.000    0.000    0.000 
#
# Total GULP energy -297463.950024 kJ/mol
# GULP energy per Si atom -12394.331251 kJ/mol
# Density = 1.852433 g / cm^3
# Si number density = 18.566589 Si / 1000 Ang^3
#
#
#
# Elastic Constant Matrix: (Units=GPa)
#
#
# Indices 1 2 3 4 5 6 
#
# 1 118.7769 62.7969 25.0630 0.0000 -2.3740 0.0000
# 2 62.7969 171.1304 45.3633 0.0000 1.3287 0.0000
# 3 25.0630 45.3633 49.4047 0.0000 8.7438 0.0000
# 4 0.0000 0.0000 0.0000 12.7522 0.0000 4.3793
# 5 -2.3740 1.3287 8.7438 0.0000 28.6812 0.0000
# 6 0.0000 0.0000 0.0000 4.3793 0.0000 34.3998
#
#
#
# Elastic Compliance Matrix: (Units=1/GPa)
#
#
# Indices 1 2 3 4 5 6 
#
# 1 0.010753 -0.003205 -0.002849 0.000000 0.001907 0.000000
# 2 -0.003205 0.008779 -0.006676 0.000000 0.001363 0.000000
# 3 -0.002849 -0.006676 0.029389 0.000000 -0.008886 0.000000
# 4 0.000000 0.000000 0.000000 0.082003 0.000000 -0.010440
# 5 0.001907 0.001363 -0.008886 0.000000 0.037670 0.000000
# 6 0.000000 0.000000 0.000000 -0.010440 0.000000 0.030399
#
#
# Mechanical properties :
#
#
# Convention : Reuss Voigt Hill
#
# Bulk Modulus (GPa) = 42.62652 67.30651 54.96651
# Shear Modulus (GPa) = 21.52629 28.90588 25.21609
#
# Velocity S-wave (km/s) = 3.40871 3.95001 3.68930
# Velocity P-wave (km/s) = 6.20491 7.55867 6.91500
#
# Compressibility (1/GPa) = 0.02345958
#
# Stress axis : x y z
#
# Youngs Moduli (GPa) = 92.99543 113.91101 34.02635
#
# Poissons Ratio (x) = 0.36513 0.09696
# Poissons Ratio (y) = 0.29809 0.22715
# Poissons Ratio (z) = 0.26499 0.76045
#
# Static dielectric constant tensor:
#      x y z
#    x 3.590060 0.000000 0.062630 
#    y 0.000000 3.663510 0.000000 
#    z 0.062630 0.000000 3.145410 
# 
# 
# High freq. dielectric constant tensor:
#      x y z
#    x 1.720110 0.000000 0.006070 
#    y 0.000000 1.726080 0.000000 
#    z 0.006070 0.000000 1.697100 
# 
# From -- ./inp_files/55636.got.cif
#   From: 2010.06.25/outbox.cif.g09.slc.cpg/sg10_28_cif.got.tgz:55636.got - 2010.06.27 22:07:45.
