data_PCOD8067560
_publ_section_title
;
Structure prediction by ZEFSAII (Michael W. Deem and Ramdas Pophale) SiO2 
 PCOD8067560
Probable space group: P 2/M
;
_chemical_formula_sum "Si O2"
_cell_formula_units_Z 28
_cell_length_a 15.528105
_cell_length_b 8.549123
_cell_length_c 19.297615
_cell_angle_alpha 90.000000
_cell_angle_beta 142.463631
_cell_angle_gamma 90.000000
_cell_volume 1560.809203
_symmetry_space_group_name_H-M "P 2/M"
_symmetry_group_IT_number 10
_symmetry_cell_setting 'monoclinic'
loop_
_space_group_symop_operation_xyz
x,y,z
-x,y,-z
-x,-y,-z
x,-y,z
loop_
_atom_site_type_symbol
_atom_site_label
_atom_site_fract_x
_atom_site_fract_y
_atom_site_fract_z
Si Si1 0.409590 0.317808 0.754884
Si Si2 0.823815 0.812578 0.644550
Si Si3 0.099736 0.316192 0.761863
Si Si4 0.577817 0.184903 0.388086
Si Si5 0.872284 0.181554 0.368215
Si Si6 0.406419 0.685074 0.002653
Si Si7 0.627272 0.829472 0.634394
O O1 0.423858 0.500000 0.748169
O O2 0.425161 0.226776 0.693624
O O3 0.260293 0.286860 0.695860
O O4 0.532598 0.256247 0.884828
O O5 0.723728 0.758002 0.516700
O O6 0.756447 0.748654 0.674574
O O7 0.973841 0.728604 0.733150
O O8 0.840637 0.000000 0.656067
O O9 0.101173 0.500000 0.746667
O O10 0.078731 0.221105 0.677845
O O11 0.244618 0.261971 0.891228
O O12 0.439312 0.257873 0.340198
O O13 0.568921 0.000000 0.391691
O O14 0.000000 0.225123 0.500000
O O15 0.831309 0.000000 0.348511
O O16 0.421415 0.500000 0.009514
O O17 0.500000 0.758062 0.000000
O O18 0.500000 0.850445 0.500000
O O19 0.682828 0.000000 0.692855
#
# Coordination Sequence:
#
# PCOD8067560 Si02
#       7
#     4   4   4   4   4   4   4
#     4  11  21  34  53  73  96 128 167 207 247 291
#     4   9  17  31  51  76 105 133 162 198 243 294
#     4  11  21  34  53  73  96 128 167 207 247 291
#     4   9  17  31  51  76 105 133 162 198 243 294
#     4  11  23  36  49  70 102 133 158 193 244 297
#     4   9  18  36  54  67  90 129 171 208 246 286
#     4   7  12  26  49  72  97 134 168 191 230 293
#
# _framework density 17.939412000000001
#
# number of rings (size 3 to 8) (size 9 to 14) (size 15 to 20)
#    0.000    2.429    1.429    3.857    0.000    5.143 
#    0.000    4.286    0.000    3.429    0.000    6.000 
#    0.000    0.000    0.000    0.000    0.000    0.000 
#
# Total GULP energy -346997.834237 kJ/mol
# GULP energy per Si atom -12392.779794 kJ/mol
# Density = 1.789858 g / cm^3
# Si number density = 17.939412 Si / 1000 Ang^3
#
#
#
# Elastic Constant Matrix: (Units=GPa)
#
#
# Indices 1 2 3 4 5 6 
#
# 1 128.6151 5.4008 44.0864 0.0000 22.5469 0.0000
# 2 5.4008 18.9398 18.1551 0.0000 2.9172 0.0000
# 3 44.0864 18.1551 96.6944 0.0000 23.3921 0.0000
# 4 0.0000 0.0000 0.0000 -20.6357 0.0000 -14.5112
# 5 22.5469 2.9172 23.3921 0.0000 14.5103 0.0000
# 6 0.0000 0.0000 0.0000 -14.5112 0.0000 3.8592
#
#
#
# Elastic Compliance Matrix: (Units=1/GPa)
#
#
# Indices 1 2 3 4 5 6 
#
# 1 0.010809 0.000634 -0.001563 0.000000 -0.014404 0.000000
# 2 0.000634 0.065460 -0.015012 0.000000 0.010055 0.000000
# 3 -0.001563 -0.015012 0.020583 0.000000 -0.027735 0.000000
# 4 0.000000 0.000000 0.000000 -0.013298 0.000000 -0.050002
# 5 -0.014404 0.010055 -0.027735 0.000000 0.133988 0.000000
# 6 0.000000 0.000000 0.000000 -0.050002 0.000000 0.071105
#
#
# Mechanical properties :
#
#
# Convention : Reuss Voigt Hill
#
# Bulk Modulus (GPa) = 15.39171 42.17044 28.78107
# Shear Modulus (GPa) = 14.61195 11.32055 12.96625
#
# Velocity S-wave (km/s) = 2.85707 2.51478 2.69137
# Velocity P-wave (km/s) = 4.41387 5.65600 5.07310
#
# Compressibility (1/GPa) = 0.06497006
#
# Stress axis : x y z
#
# Youngs Moduli (GPa) = 92.51268 15.27655 48.58462
#
# Poissons Ratio (x) = -0.00969 0.07593
# Poissons Ratio (y) = -0.05869 0.72937
# Poissons Ratio (z) = 0.14458 0.22934
#
# Static dielectric constant tensor:
#      x y z
#    x 3.657910 0.000000 0.015640 
#    y 0.000000 2.990850 0.000000 
#    z 0.015640 0.000000 3.280650 
# 
# 
# High freq. dielectric constant tensor:
#      x y z
#    x 1.708470 0.000000 0.002330 
#    y 0.000000 1.666500 0.000000 
#    z 0.002330 0.000000 1.672060 
# 
# From -- ./inp_files/54963.got.cif
#   From: 2010.06.25/outbox.cif.g09.slc.cpg/sg10_28_cif.got.tgz:54963.got - 2010.06.27 22:07:45.
