data_PCOD8067164
_publ_section_title
;
Structure prediction by ZEFSAII (Michael W. Deem and Ramdas Pophale) SiO2 
 PCOD8067164
Probable space group: P 2/M
;
_chemical_formula_sum "Si O2"
_cell_formula_units_Z 28
_cell_length_a 10.928189
_cell_length_b 9.533859
_cell_length_c 15.034241
_cell_angle_alpha 90.000000
_cell_angle_beta 121.060520
_cell_angle_gamma 90.000000
_cell_volume 1341.800842
_symmetry_space_group_name_H-M "P 2/M"
_symmetry_group_IT_number 10
_symmetry_cell_setting 'monoclinic'
loop_
_space_group_symop_operation_xyz
x,y,z
-x,y,-z
-x,-y,-z
x,-y,z
loop_
_atom_site_type_symbol
_atom_site_label
_atom_site_fract_x
_atom_site_fract_y
_atom_site_fract_z
Si Si1 0.307222 0.344568 0.346095
Si Si2 0.377007 0.655758 0.572650
Si Si3 0.648115 0.842028 0.277804
Si Si4 0.108815 0.661922 0.959457
Si Si5 0.967375 0.157956 0.392549
Si Si6 0.055865 0.832973 0.238581
Si Si7 0.444939 0.337843 0.078088
O O1 0.237576 0.500000 0.314466
O O2 0.453439 0.344852 0.346923
O O3 0.338931 0.301446 0.458955
O O4 0.205196 0.231390 0.259792
O O5 0.317180 0.500000 0.573006
O O6 0.315678 0.774924 0.612891
O O7 0.805341 0.841302 0.294760
O O8 0.536409 0.753144 0.180339
O O9 0.588751 0.000000 0.265681
O O10 0.087560 0.500000 0.923973
O O11 0.071847 0.764783 0.864746
O O12 0.277809 0.690929 0.037943
O O13 0.000000 0.697895 0.000000
O O14 0.000000 0.236494 0.500000
O O15 0.051066 0.221791 0.339584
O O16 0.022801 0.000000 0.426248
O O17 0.050486 0.000000 0.226252
O O18 0.481091 0.500000 0.108665
O O19 0.500000 0.295590 0.000000
#
# Coordination Sequence:
#
# PCOD8067164 Si02
#       7
#     4   4   4   4   4   4   4
#     4   9  19  36  57  80 112 153 191 230 281 344
#     4   9  19  36  56  80 112 151 192 232 279 339
#     4  11  22  35  58  87 116 150 191 238 294 350
#     4  10  23  42  62  84 114 158 204 246 303 367
#     4   9  19  36  56  83 122 162 192 226 285 356
#     4  11  22  36  59  87 117 151 192 243 295 347
#     4  10  22  41  63  85 113 153 203 254 299 353
#
# _framework density 20.867477999999998
#
# number of rings (size 3 to 8) (size 9 to 14) (size 15 to 20)
#    0.000    2.143    0.000    3.429    2.000    3.429 
#    0.000    3.571    0.000    5.143    0.000    0.000 
#    0.000    0.000    0.000    0.000    0.000    0.000 
#
# Total GULP energy -346951.014731 kJ/mol
# GULP energy per Si atom -12391.107669 kJ/mol
# Density = 2.081998 g / cm^3
# Si number density = 20.867478 Si / 1000 Ang^3
#
#
#
# Elastic Constant Matrix: (Units=GPa)
#
#
# Indices 1 2 3 4 5 6 
#
# 1 80.1469 21.5031 15.4614 0.0000 6.1460 0.0000
# 2 21.5031 85.8034 35.5290 0.0000 6.6437 0.0000
# 3 15.4614 35.5290 64.5266 0.0000 8.1963 0.0000
# 4 0.0000 0.0000 0.0000 31.9954 0.0000 4.4005
# 5 6.1460 6.6437 8.1963 0.0000 34.8871 0.0000
# 6 0.0000 0.0000 0.0000 4.4005 0.0000 22.3733
#
#
#
# Elastic Compliance Matrix: (Units=1/GPa)
#
#
# Indices 1 2 3 4 5 6 
#
# 1 0.013610 -0.002620 -0.001626 0.000000 -0.001517 0.000000
# 2 -0.002620 0.015631 -0.007895 0.000000 -0.000660 0.000000
# 3 -0.001626 -0.007895 0.020622 0.000000 -0.003055 0.000000
# 4 0.000000 0.000000 0.000000 0.032123 0.000000 -0.006318
# 5 -0.001517 -0.000660 -0.003055 0.000000 0.029775 0.000000
# 6 0.000000 0.000000 0.000000 -0.006318 0.000000 0.045939
#
#
# Mechanical properties :
#
#
# Convention : Reuss Voigt Hill
#
# Bulk Modulus (GPa) = 39.09069 41.71823 40.40446
# Shear Modulus (GPa) = 26.24536 28.38341 27.31438
#
# Velocity S-wave (km/s) = 3.55028 3.69206 3.62186
# Velocity P-wave (km/s) = 5.96485 6.18146 6.07412
#
# Compressibility (1/GPa) = 0.02558154
#
# Stress axis : x y z
#
# Youngs Moduli (GPa) = 73.47537 63.97344 48.49130
#
# Poissons Ratio (x) = 0.16762 0.07884
# Poissons Ratio (y) = 0.19252 0.38285
# Poissons Ratio (z) = 0.11946 0.50508
#
# Static dielectric constant tensor:
#      x y z
#    x 3.944620 0.000000 -0.037570 
#    y 0.000000 3.617640 0.000000 
#    z -0.037570 0.000000 3.669570 
# 
# 
# High freq. dielectric constant tensor:
#      x y z
#    x 1.822340 0.000000 0.006420 
#    y 0.000000 1.801330 0.000000 
#    z 0.006420 0.000000 1.816930 
# 
# From -- ./inp_files/63925.got.cif
#   From: 2010.06.25/outbox.cif.g09.slc.cpg/sg10_32_cif.got.tgz:63925.got - 2010.06.27 22:07:45.
