data_PCOD8067582
_publ_section_title
;
Structure prediction by ZEFSAII (Michael W. Deem and Ramdas Pophale) SiO2 
 PCOD8067582
Probable space group: P 2/M
;
_chemical_formula_sum "Si O2"
_cell_formula_units_Z 16
_cell_length_a 20.171211
_cell_length_b 8.429597
_cell_length_c 10.244246
_cell_angle_alpha 90.000000
_cell_angle_beta 28.391254
_cell_angle_gamma 90.000000
_cell_volume 828.247447
_symmetry_space_group_name_H-M "P 2/M"
_symmetry_group_IT_number 10
_symmetry_cell_setting 'monoclinic'
loop_
_space_group_symop_operation_xyz
x,y,z
-x,y,-z
-x,-y,-z
x,-y,z
loop_
_atom_site_type_symbol
_atom_site_label
_atom_site_fract_x
_atom_site_fract_y
_atom_site_fract_z
Si Si1 0.655005 0.813750 0.875681
Si Si2 0.639071 0.315337 0.619147
Si Si3 0.096942 0.815594 0.949846
Si Si4 0.938925 0.683979 0.465449
O O1 0.676273 0.780879 0.685558
O O2 0.777082 0.731589 0.746318
O O3 0.657650 0.000000 0.896445
O O4 0.509584 0.741507 0.178922
O O5 0.632565 0.500000 0.664552
O O6 0.757176 0.279411 0.307397
O O7 0.129527 0.000000 0.876927
O O8 0.000000 0.753446 0.000000
O O9 0.022765 0.786030 0.215134
O O10 0.955974 0.500000 0.401185
O O11 0.000000 0.726049 0.500000
#
# Coordination Sequence:
#
# PCOD8067582 Si02
#       4
#     4   4   4   4
#     4  11  21  36  58  86 120 155 195 241 293 350
#     4  11  21  35  59  88 119 153 194 245 295 343
#     4  11  22  37  60  90 120 153 196 246 293 345
#     4  11  24  41  61  87 120 158 198 241 293 353
#
# _framework density 19.317898
#
# number of rings (size 3 to 8) (size 9 to 14) (size 15 to 20)
#    0.000    1.000    2.500    7.500    0.000    3.000 
#    0.000    1.250    0.000    7.500    0.000    0.000 
#    0.000    0.000    0.000    0.000    0.000    0.000 
#
# Total GULP energy -198512.473280 kJ/mol
# GULP energy per Si atom -12407.029580 kJ/mol
# Density = 1.927393 g / cm^3
# Si number density = 19.317898 Si / 1000 Ang^3
#
#
#
# Elastic Constant Matrix: (Units=GPa)
#
#
# Indices 1 2 3 4 5 6 
#
# 1 109.0377 28.7696 58.1559 0.0000 -19.9677 0.0000
# 2 28.7696 56.3679 21.8659 0.0000 -0.3151 0.0000
# 3 58.1559 21.8659 129.7778 0.0000 -21.1054 0.0000
# 4 0.0000 0.0000 0.0000 35.9128 0.0000 -4.9927
# 5 -19.9677 -0.3151 -21.1054 0.0000 31.2260 0.0000
# 6 0.0000 0.0000 0.0000 -4.9927 0.0000 21.5961
#
#
#
# Elastic Compliance Matrix: (Units=1/GPa)
#
#
# Indices 1 2 3 4 5 6 
#
# 1 0.014044 -0.005423 -0.004413 0.000000 0.005943 0.000000
# 2 -0.005423 0.021212 -0.001880 0.000000 -0.004524 0.000000
# 3 -0.004413 -0.001880 0.010716 0.000000 0.004402 0.000000
# 4 0.000000 0.000000 0.000000 0.028770 0.000000 0.006651
# 5 0.005943 -0.004524 0.004402 0.000000 0.038754 0.000000
# 6 0.000000 0.000000 0.000000 0.006651 0.000000 0.047842
#
#
# Mechanical properties :
#
#
# Convention : Reuss Voigt Hill
#
# Bulk Modulus (GPa) = 44.36451 56.97401 50.66926
# Shear Modulus (GPa) = 26.00330 30.17311 28.08820
#
# Velocity S-wave (km/s) = 3.67287 3.95641 3.81727
# Velocity P-wave (km/s) = 6.40328 7.10125 6.76128
#
# Compressibility (1/GPa) = 0.02254054
#
# Stress axis : x y z
#
# Youngs Moduli (GPa) = 71.20428 47.14273 93.32135
#
# Poissons Ratio (x) = 0.25564 0.41185
# Poissons Ratio (y) = 0.38612 0.17541
# Poissons Ratio (z) = 0.31424 0.08861
#
# Static dielectric constant tensor:
#      x y z
#    x 3.369840 0.000000 -0.321540 
#    y 0.000000 3.560000 0.000000 
#    z -0.321540 0.000000 3.644460 
# 
# 
# High freq. dielectric constant tensor:
#      x y z
#    x 1.722220 0.000000 -0.023250 
#    y 0.000000 1.769760 0.000000 
#    z -0.023250 0.000000 1.761740 
# 
# From -- ./inp_files/16561.got.cif
#   From: 2010.06.25/outbox.cif.g09.slc.cpg/sg10_9_cif.got.tgz:16561.got - 2010.06.27 22:07:45.
