data_PCOD8067262
_publ_section_title
;
Structure prediction by ZEFSAII (Michael W. Deem and Ramdas Pophale) SiO2 
 PCOD8067262
Probable space group: P 2/M
;
_chemical_formula_sum "Si O2"
_cell_formula_units_Z 28
_cell_length_a 21.459557
_cell_length_b 8.771273
_cell_length_c 14.431043
_cell_angle_alpha 90.000000
_cell_angle_beta 30.286989
_cell_angle_gamma 90.000000
_cell_volume 1369.926404
_symmetry_space_group_name_H-M "P 2/M"
_symmetry_group_IT_number 10
_symmetry_cell_setting 'monoclinic'
loop_
_space_group_symop_operation_xyz
x,y,z
-x,y,-z
-x,-y,-z
x,-y,z
loop_
_atom_site_type_symbol
_atom_site_label
_atom_site_fract_x
_atom_site_fract_y
_atom_site_fract_z
Si Si1 0.657667 0.321795 0.386029
Si Si2 0.378044 0.679030 0.774217
Si Si3 0.813973 0.177065 0.493330
Si Si4 0.329570 0.821785 0.020871
Si Si5 0.450876 0.676399 0.165230
Si Si6 0.119047 0.176293 0.796525
Si Si7 0.115821 0.679620 0.413230
O O1 0.668798 0.500000 0.386329
O O2 0.683751 0.280250 0.245093
O O3 0.520700 0.268418 0.589886
O O4 0.754262 0.244087 0.329102
O O5 0.366847 0.500000 0.809677
O O6 0.304698 0.773108 0.946678
O O7 0.689939 0.274292 0.647517
O O8 0.891581 0.204330 0.299865
O O9 0.897191 0.236126 0.471534
O O10 0.780826 0.000000 0.549836
O O11 0.241233 0.728922 0.202456
O O12 0.305843 0.000000 0.064401
O O13 0.469978 0.777219 0.865144
O O14 0.462499 0.500000 0.178808
O O15 0.500000 0.707294 0.000000
O O16 0.123526 0.000000 0.815723
O O17 0.000000 0.251709 0.000000
O O18 0.119274 0.500000 0.426143
O O19 0.000000 0.729769 0.500000
#
# Coordination Sequence:
#
# PCOD8067262 Si02
#       7
#     4   4   4   4   4   4   4
#     4   9  19  37  61  88 116 153 199 246 293 348
#     4   9  19  37  60  87 122 155 190 242 301 354
#     4  11  23  40  64  92 122 157 200 251 302 355
#     4  12  24  37  59  91 123 156 198 244 296 359
#     4  11  22  37  61  89 122 160 196 242 301 357
#     4  10  23  41  59  84 121 160 197 244 299 352
#     4  11  25  44  63  84 116 158 201 245 295 354
#
# _framework density 20.439053000000001
#
# number of rings (size 3 to 8) (size 9 to 14) (size 15 to 20)
#    0.000    1.571    1.429    4.286    0.000    7.714 
#    0.000    4.286    0.000    0.000    0.000    0.000 
#    0.000    0.000    0.000    0.000    0.000    0.000 
#
# Total GULP energy -347312.938004 kJ/mol
# GULP energy per Si atom -12404.033500 kJ/mol
# Density = 2.039253 g / cm^3
# Si number density = 20.439053 Si / 1000 Ang^3
#
#
#
# Elastic Constant Matrix: (Units=GPa)
#
#
# Indices 1 2 3 4 5 6 
#
# 1 123.7369 31.9827 34.4219 0.0000 10.9863 0.0000
# 2 31.9827 53.0170 19.7627 0.0000 9.9253 0.0000
# 3 34.4219 19.7627 69.9835 0.0000 11.4579 0.0000
# 4 0.0000 0.0000 0.0000 4.2007 0.0000 18.4031
# 5 10.9863 9.9253 11.4579 0.0000 35.2214 0.0000
# 6 0.0000 0.0000 0.0000 18.4031 0.0000 15.7007
#
#
#
# Elastic Compliance Matrix: (Units=1/GPa)
#
#
# Indices 1 2 3 4 5 6 
#
# 1 0.010394 -0.004778 -0.003647 0.000000 -0.000709 0.000000
# 2 -0.004778 0.023891 -0.003737 0.000000 -0.004026 0.000000
# 3 -0.003647 -0.003737 0.017724 0.000000 -0.003575 0.000000
# 4 0.000000 0.000000 0.000000 -0.057571 0.000000 0.067480
# 5 -0.000709 -0.004026 -0.003575 0.000000 0.030911 0.000000
# 6 0.000000 0.000000 0.000000 0.067480 0.000000 -0.015403
#
#
# Mechanical properties :
#
#
# Convention : Reuss Voigt Hill
#
# Bulk Modulus (GPa) = 36.12187 46.56356 41.34271
# Shear Modulus (GPa) = 114.94554 21.72925 68.33740
#
# Velocity S-wave (km/s) = 7.50735 3.26410 5.78855
# Velocity P-wave (km/s) = 9.63630 6.08579 8.05901
#
# Compressibility (1/GPa) = 0.02768406
#
# Stress axis : x y z
#
# Youngs Moduli (GPa) = 96.20749 41.85651 56.42200
#
# Poissons Ratio (x) = 0.19999 0.20577
# Poissons Ratio (y) = 0.45969 0.21087
# Poissons Ratio (z) = 0.35087 0.15643
#
# Static dielectric constant tensor:
#      x y z
#    x 4.015280 0.000000 0.085260 
#    y 0.000000 3.595210 0.000000 
#    z 0.085260 0.000000 3.909420 
# 
# 
# High freq. dielectric constant tensor:
#      x y z
#    x 1.812130 0.000000 0.013900 
#    y 0.000000 1.794430 0.000000 
#    z 0.013900 0.000000 1.792020 
# 
# From -- ./inp_files/69913.got.cif
#   From: 2010.06.25/outbox.cif.g09.slc.cpg/sg10_35_cif.got.tgz:69913.got - 2010.06.27 22:07:45.
