data_PCOD8067965
_publ_section_title
;
Structure prediction by ZEFSAII (Michael W. Deem and Ramdas Pophale) SiO2 
 PCOD8067965
Probable space group: P 2/M
;
_chemical_formula_sum "Si O2"
_cell_formula_units_Z 24
_cell_length_a 18.284654
_cell_length_b 9.779600
_cell_length_c 24.918108
_cell_angle_alpha 90.000000
_cell_angle_beta 19.357887
_cell_angle_gamma 90.000000
_cell_volume 1476.944584
_symmetry_space_group_name_H-M "P 2/M"
_symmetry_group_IT_number 10
_symmetry_cell_setting 'monoclinic'
loop_
_space_group_symop_operation_xyz
x,y,z
-x,y,-z
-x,-y,-z
x,-y,z
loop_
_atom_site_type_symbol
_atom_site_label
_atom_site_fract_x
_atom_site_fract_y
_atom_site_fract_z
Si Si1 0.645954 0.153173 0.758246
Si Si2 0.461640 0.662365 0.442560
Si Si3 0.844835 0.337640 0.250929
Si Si4 0.029035 0.846822 0.566719
Si Si5 0.340641 0.659392 0.909430
Si Si6 0.340173 0.659394 0.409715
O O1 0.782758 0.194033 0.717213
O O2 0.449335 0.260159 0.884140
O O3 0.810369 0.157882 0.594808
O O4 0.548651 0.000000 0.831836
O O5 0.468199 0.500000 0.436984
O O6 0.261213 0.712317 0.619416
O O7 0.694235 0.716970 0.305744
O O8 0.427013 0.717438 0.406399
O O9 0.847422 0.500000 0.247349
O O10 0.093374 0.282560 0.073157
O O11 0.115255 0.739854 0.551214
O O12 0.026555 0.000000 0.592899
O O13 0.344279 0.500000 0.922045
O O14 0.467950 0.688044 0.765998
O O15 0.278809 0.500000 0.454825
#
# Coordination Sequence:
#
# PCOD8067965 Si02
#       6
#     4   4   4   4   4   4
#     4   8  14  25  40  57  79 108 136 158 188 236
#     4   8  14  25  40  57  79 108 136 158 188 236
#     4   8  14  25  40  57  79 108 136 158 188 236
#     4   8  14  25  40  57  79 108 136 158 188 236
#     4   9  16  24  38  63  86 100 124 167 206 226
#     4   9  16  24  38  63  86 100 124 167 206 226
#
# _framework density 16.249763000000002
#
# number of rings (size 3 to 8) (size 9 to 14) (size 15 to 20)
#    0.000    3.667    0.000    2.000    0.000    1.333 
#    0.000    6.667    0.000    3.000    0.000   14.000 
#    0.000    0.000    0.000    0.000    0.000    0.000 
#
# Total GULP energy -297388.469537 kJ/mol
# GULP energy per Si atom -12391.186231 kJ/mol
# Density = 1.621278 g / cm^3
# Si number density = 16.249763 Si / 1000 Ang^3
#
#
#
# Elastic Constant Matrix: (Units=GPa)
#
#
# Indices 1 2 3 4 5 6 
#
# 1 128.4897 52.9299 73.8852 0.0000 -34.0490 0.0000
# 2 52.9299 48.1675 35.3731 0.0000 -15.4495 0.0000
# 3 73.8852 35.3731 66.9579 0.0000 -20.1097 0.0000
# 4 0.0000 0.0000 0.0000 6.9797 0.0000 -0.5136
# 5 -34.0490 -15.4495 -20.1097 0.0000 20.2233 0.0000
# 6 0.0000 0.0000 0.0000 -0.5136 0.0000 7.5350
#
#
#
# Elastic Compliance Matrix: (Units=1/GPa)
#
#
# Indices 1 2 3 4 5 6 
#
# 1 0.029805 -0.010559 -0.020905 0.000000 0.021327 0.000000
# 2 -0.010559 0.039662 -0.007900 0.000000 0.004666 0.000000
# 3 -0.020905 -0.007900 0.042479 0.000000 0.001008 0.000000
# 4 0.000000 0.000000 0.000000 0.143995 0.000000 0.009814
# 5 0.021327 0.004666 0.001008 0.000000 0.089922 0.000000
# 6 0.000000 0.000000 0.000000 0.009814 0.000000 0.133382
#
#
# Mechanical properties :
#
#
# Convention : Reuss Voigt Hill
#
# Bulk Modulus (GPa) = 30.10461 63.11017 46.60739
# Shear Modulus (GPa) = 8.78662 12.37608 10.58135
#
# Velocity S-wave (km/s) = 2.32787 2.76273 2.55457
# Velocity P-wave (km/s) = 5.07855 7.00706 6.11925
#
# Compressibility (1/GPa) = 0.03321750
#
# Stress axis : x y z
#
# Youngs Moduli (GPa) = 33.55142 25.21287 23.54106
#
# Poissons Ratio (x) = 0.26623 0.49213
# Poissons Ratio (y) = 0.35427 0.18598
# Poissons Ratio (z) = 0.70140 0.19919
#
# Static dielectric constant tensor:
#      x y z
#    x 3.421860 0.000000 -0.333610 
#    y 0.000000 2.851220 0.000000 
#    z -0.333610 0.000000 3.043980 
# 
# 
# High freq. dielectric constant tensor:
#      x y z
#    x 1.625970 0.000000 -0.022210 
#    y 0.000000 1.587950 0.000000 
#    z -0.022210 0.000000 1.600780 
# 
# From -- ./inp_files/35909.got.cif
#   From: 2010.06.25/outbox.cif.g09.slc.cpg/sg10_18_cif.got.tgz:35909.got - 2010.06.27 22:07:45.
