data_PCOD8067312
_publ_section_title
;
Structure prediction by ZEFSAII (Michael W. Deem and Ramdas Pophale) SiO2 
 PCOD8067312
Probable space group: P 2/M
;
_chemical_formula_sum "Si O2"
_cell_formula_units_Z 28
_cell_length_a 11.071511
_cell_length_b 8.712781
_cell_length_c 15.025203
_cell_angle_alpha 90.000000
_cell_angle_beta 112.849818
_cell_angle_gamma 90.000000
_cell_volume 1335.646623
_symmetry_space_group_name_H-M "P 2/M"
_symmetry_group_IT_number 10
_symmetry_cell_setting 'monoclinic'
loop_
_space_group_symop_operation_xyz
x,y,z
-x,y,-z
-x,-y,-z
x,-y,z
loop_
_atom_site_type_symbol
_atom_site_label
_atom_site_fract_x
_atom_site_fract_y
_atom_site_fract_z
Si Si1 0.562056 0.327327 0.378638
Si Si2 0.703625 0.674023 0.592320
Si Si3 0.049372 0.824783 0.277889
Si Si4 0.334451 0.176068 0.746335
Si Si5 0.649701 0.319081 0.059432
Si Si6 0.089886 0.676981 0.606001
Si Si7 0.908556 0.178568 0.054386
O O1 0.586430 0.500000 0.352006
O O2 0.429736 0.313956 0.393503
O O3 0.679337 0.281841 0.481473
O O4 0.546102 0.222673 0.284637
O O5 0.759480 0.500000 0.612941
O O6 0.796199 0.795296 0.669005
O O7 0.985454 0.700520 0.323785
O O8 0.997256 0.789346 0.165231
O O9 0.014852 0.000000 0.294610
O O10 0.316925 0.274570 0.830091
O O11 0.216779 0.215851 0.645250
O O12 0.339862 0.000000 0.776613
O O13 0.653379 0.500000 0.048384
O O14 0.762145 0.252552 0.024691
O O15 0.500000 0.257560 0.000000
O O16 0.129648 0.500000 0.605691
O O17 0.000000 0.735060 0.500000
O O18 0.881566 0.000000 0.029987
O O19 0.000000 0.245073 0.000000
#
# Coordination Sequence:
#
# PCOD8067312 Si02
#       7
#     4   4   4   4   4   4   4
#     4   9  19  37  58  83 119 164 211 254 301 368
#     4   9  19  36  58  83 118 165 209 253 307 366
#     4  11  22  36  58  89 122 157 201 253 308 371
#     4  12  24  38  60  90 123 160 201 253 317 376
#     4  11  25  45  69  96 125 163 216 274 327 390
#     4  11  23  38  59  87 122 164 204 247 303 365
#     4  10  23  44  67  93 128 168 210 264 331 396
#
# _framework density 20.963628
#
# number of rings (size 3 to 8) (size 9 to 14) (size 15 to 20)
#    0.000    1.571    1.429    4.286    0.000    8.857 
#    0.000    4.286    0.000    0.000    0.000    0.000 
#    0.000    0.000    0.000    0.000    0.000    0.000 
#
# Total GULP energy -346987.893349 kJ/mol
# GULP energy per Si atom -12392.424762 kJ/mol
# Density = 2.091591 g / cm^3
# Si number density = 20.963628 Si / 1000 Ang^3
#
#
#
# Elastic Constant Matrix: (Units=GPa)
#
#
# Indices 1 2 3 4 5 6 
#
# 1 111.0928 32.3861 45.6298 0.0000 -11.5850 0.0000
# 2 32.3861 55.3645 25.9247 0.0000 0.7351 0.0000
# 3 45.6298 25.9247 81.2956 0.0000 -10.5612 0.0000
# 4 0.0000 0.0000 0.0000 12.2641 0.0000 -3.0752
# 5 -11.5850 0.7351 -10.5612 0.0000 37.1626 0.0000
# 6 0.0000 0.0000 0.0000 -3.0752 0.0000 33.5919
#
#
#
# Elastic Compliance Matrix: (Units=1/GPa)
#
#
# Indices 1 2 3 4 5 6 
#
# 1 0.012943 -0.005131 -0.005286 0.000000 0.002634 0.000000
# 2 -0.005131 0.023481 -0.005063 0.000000 -0.003503 0.000000
# 3 -0.005286 -0.005063 0.017321 0.000000 0.003375 0.000000
# 4 0.000000 0.000000 0.000000 0.083454 0.000000 0.007640
# 5 0.002634 -0.003503 0.003375 0.000000 0.028758 0.000000
# 6 0.000000 0.000000 0.000000 0.007640 0.000000 0.030469
#
#
# Mechanical properties :
#
#
# Convention : Reuss Voigt Hill
#
# Bulk Modulus (GPa) = 43.88998 50.62602 47.25800
# Shear Modulus (GPa) = 21.27826 26.19121 23.73474
#
# Velocity S-wave (km/s) = 3.18938 3.53847 3.36845
# Velocity P-wave (km/s) = 5.87746 6.39502 6.14169
#
# Compressibility (1/GPa) = 0.02278424
#
# Stress axis : x y z
#
# Youngs Moduli (GPa) = 77.26025 42.58797 57.73357
#
# Poissons Ratio (x) = 0.21851 0.30520
# Poissons Ratio (y) = 0.39641 0.29231
# Poissons Ratio (z) = 0.40843 0.21563
#
# Static dielectric constant tensor:
#      x y z
#    x 3.755710 0.000000 -0.309570 
#    y 0.000000 3.702620 0.000000 
#    z -0.309570 0.000000 3.587980 
# 
# 
# High freq. dielectric constant tensor:
#      x y z
#    x 1.838910 0.000000 -0.005880 
#    y 0.000000 1.806220 0.000000 
#    z -0.005880 0.000000 1.816970 
# 
# From -- ./inp_files/63889.got.cif
#   From: 2010.06.25/outbox.cif.g09.slc.cpg/sg10_32_cif.got.tgz:63889.got - 2010.06.27 22:07:45.
