data_PCOD8067075
_publ_section_title
;
Structure prediction by ZEFSAII (Michael W. Deem and Ramdas Pophale) SiO2 
 PCOD8067075
Probable space group: P 2/M
;
_chemical_formula_sum "Si O2"
_cell_formula_units_Z 32
_cell_length_a 14.576916
_cell_length_b 16.122479
_cell_length_c 12.285166
_cell_angle_alpha 90.000000
_cell_angle_beta 31.043356
_cell_angle_gamma 90.000000
_cell_volume 1488.895800
_symmetry_space_group_name_H-M "P 2/M"
_symmetry_group_IT_number 10
_symmetry_cell_setting 'monoclinic'
loop_
_space_group_symop_operation_xyz
x,y,z
-x,y,-z
-x,-y,-z
x,-y,z
loop_
_atom_site_type_symbol
_atom_site_label
_atom_site_fract_x
_atom_site_fract_y
_atom_site_fract_z
Si Si1 0.238526 0.909695 0.046382
Si Si2 0.727975 0.405868 0.518339
Si Si3 0.560860 0.320834 0.322065
Si Si4 0.534084 0.130422 0.584529
Si Si5 0.052794 0.863490 0.830980
Si Si6 0.041624 0.691300 0.133853
Si Si7 0.870287 0.752058 0.727981
Si Si8 0.291441 0.408119 0.214096
O O1 0.250798 0.833496 0.121038
O O2 0.066964 0.900707 0.142945
O O3 0.221976 0.000000 0.122029
O O4 0.418905 0.914960 0.792898
O O5 0.678643 0.500000 0.546628
O O6 0.554861 0.354618 0.659840
O O7 0.775279 0.389250 0.596243
O O8 0.897643 0.382090 0.271670
O O9 0.500000 0.359118 0.500000
O O10 0.542010 0.222906 0.342365
O O11 0.765250 0.344680 0.091565
O O12 0.500000 0.090490 0.500000
O O13 0.740312 0.122211 0.407320
O O14 0.015848 0.765544 0.886758
O O15 0.000000 0.905818 0.000000
O O16 0.022487 0.730025 0.273397
O O17 0.765581 0.667740 0.804323
O O18 0.000000 0.779742 0.500000
O O19 0.217404 0.500000 0.251727
O O20 0.500000 0.413386 0.000000
#
# Coordination Sequence:
#
# PCOD8067075 Si02
#       8
#     4   4   4   4   4   4   4   4
#     4  11  26  43  62  97 133 170 222 267 316 392
#     4  11  24  39  60  95 131 166 216 274 323 387
#     4  11  22  39  65  92 128 175 218 260 315 388
#     4  11  20  38  66  95 125 171 215 266 323 379
#     4  11  20  38  66  94 125 168 218 264 320 382
#     4  11  22  38  63  93 124 169 216 264 320 388
#     4  11  22  42  67  91 124 174 210 266 340 383
#     4  10  22  39  65  99 128 161 214 278 332 383
#
# _framework density 21.492436999999999
#
# number of rings (size 3 to 8) (size 9 to 14) (size 15 to 20)
#    0.000    1.125    6.250    1.500    0.000    2.750 
#    0.000    0.625    0.000    0.375    0.000    0.000 
#    0.000    0.000    0.000    0.000    0.000    0.000 
#
# Total GULP energy -396648.940970 kJ/mol
# GULP energy per Si atom -12395.279405 kJ/mol
# Density = 2.144352 g / cm^3
# Si number density = 21.492437 Si / 1000 Ang^3
#
#
#
# Elastic Constant Matrix: (Units=GPa)
#
#
# Indices 1 2 3 4 5 6 
#
# 1 65.9337 34.4649 33.5113 0.0000 -4.5280 0.0000
# 2 34.4649 125.6965 31.0657 0.0000 11.5862 0.0000
# 3 33.5113 31.0657 152.4500 0.0000 -16.7209 0.0000
# 4 0.0000 0.0000 0.0000 14.3055 0.0000 1.2661
# 5 -4.5280 11.5862 -16.7209 0.0000 40.7291 0.0000
# 6 0.0000 0.0000 0.0000 1.2661 0.0000 7.8362
#
#
#
# Elastic Compliance Matrix: (Units=1/GPa)
#
#
# Indices 1 2 3 4 5 6 
#
# 1 0.019356 -0.004765 -0.003036 0.000000 0.002261 0.000000
# 2 -0.004765 0.009977 -0.001419 0.000000 -0.003950 0.000000
# 3 -0.003036 -0.001419 0.007878 0.000000 0.003300 0.000000
# 4 0.000000 0.000000 0.000000 0.070917 0.000000 -0.011458
# 5 0.002261 -0.003950 0.003300 0.000000 0.027283 0.000000
# 6 0.000000 0.000000 0.000000 -0.011458 0.000000 0.129464
#
#
# Mechanical properties :
#
#
# Convention : Reuss Voigt Hill
#
# Bulk Modulus (GPa) = 53.27350 60.24045 56.75698
# Shear Modulus (GPa) = 17.26690 28.91005 23.08847
#
# Velocity S-wave (km/s) = 2.83750 3.67158 3.28115
# Velocity P-wave (km/s) = 5.96457 6.78701 6.38904
#
# Compressibility (1/GPa) = 0.01877106
#
# Stress axis : x y z
#
# Youngs Moduli (GPa) = 51.66378 100.22942 126.93661
#
# Poissons Ratio (x) = 0.47763 0.38534
# Poissons Ratio (y) = 0.24620 0.18011
# Poissons Ratio (z) = 0.15684 0.14221
#
# Static dielectric constant tensor:
#      x y z
#    x -0.033980 0.000000 -2.033810 
#    y 0.000000 4.000620 0.000000 
#    z -2.033810 0.000000 2.814930 
# 
# 
# High freq. dielectric constant tensor:
#      x y z
#    x 1.824480 0.000000 -0.001850 
#    y 0.000000 1.838910 0.000000 
#    z -0.001850 0.000000 1.854000 
# 
# From -- ./inp_files/51922.got.cif
#   From: 2010.06.25/outbox.cif.g09.slc.cpg/sg10_26_cif.got.tgz:51922.got - 2010.06.27 22:07:45.
