data_PCOD8067021
_publ_section_title
;
Structure prediction by ZEFSAII (Michael W. Deem and Ramdas Pophale) SiO2 
 PCOD8067021
Probable space group: P 2/M
;
_chemical_formula_sum "Si O2"
_cell_formula_units_Z 28
_cell_length_a 8.486904
_cell_length_b 22.980784
_cell_length_c 13.634167
_cell_angle_alpha 90.000000
_cell_angle_beta 31.026632
_cell_angle_gamma 90.000000
_cell_volume 1370.622517
_symmetry_space_group_name_H-M "P 2/M"
_symmetry_group_IT_number 10
_symmetry_cell_setting 'monoclinic'
loop_
_space_group_symop_operation_xyz
x,y,z
-x,y,-z
-x,-y,-z
x,-y,z
loop_
_atom_site_type_symbol
_atom_site_label
_atom_site_fract_x
_atom_site_fract_y
_atom_site_fract_z
Si Si1 0.738032 0.150179 0.952706
Si Si2 0.676346 0.858009 0.636867
Si Si3 0.176777 0.652628 0.505925
Si Si4 0.352318 0.435497 0.797396
Si Si5 0.805943 0.064363 0.200785
Si Si6 0.704593 0.563802 0.810339
Si Si7 0.800900 0.228534 0.401192
O O1 0.003196 0.102107 0.823035
O O2 0.902819 0.207797 0.820311
O O3 0.500000 0.125663 0.000000
O O4 0.554805 0.162183 0.152155
O O5 0.516569 0.905684 0.652608
O O6 0.766619 0.802541 0.524355
O O7 0.000000 0.885088 0.500000
O O8 0.516589 0.624758 0.318923
O O9 0.166511 0.704059 0.590265
O O10 0.000000 0.671746 0.500000
O O11 0.015048 0.597529 0.637903
O O12 0.393912 0.500000 0.722895
O O13 0.525791 0.440644 0.805993
O O14 0.000000 0.422239 0.000000
O O15 0.743414 0.000000 0.278099
O O16 0.000000 0.058455 0.000000
O O17 0.794605 0.500000 0.801573
O O18 0.500000 0.596584 0.000000
O O19 0.500000 0.215861 0.500000
#
# Coordination Sequence:
#
# PCOD8067021 Si02
#       7
#     4   4   4   4   4   4   4
#     4  11  23  41  68  92 126 172 208 259 314 370
#     4  11  22  42  67  92 129 167 210 256 314 375
#     4  10  22  39  57  86 119 156 203 257 303 367
#     4   9  18  36  60  86 118 156 195 243 315 377
#     4   9  20  40  66  98 132 165 207 260 313 373
#     4   9  18  35  59  84 114 152 194 245 304 368
#     4  12  25  43  62  90 123 166 220 258 311 373
#
# _framework density 20.428674000000001
#
# number of rings (size 3 to 8) (size 9 to 14) (size 15 to 20)
#    0.000    1.857    2.857    0.857    0.000    4.000 
#    5.143    1.429    0.000    4.286    0.000    0.000 
#    0.000    0.000    0.000    0.000    0.000    0.000 
#
# Total GULP energy -346912.774313 kJ/mol
# GULP energy per Si atom -12389.741940 kJ/mol
# Density = 2.038218 g / cm^3
# Si number density = 20.428674 Si / 1000 Ang^3
#
#
#
# Elastic Constant Matrix: (Units=GPa)
#
#
# Indices 1 2 3 4 5 6 
#
# 1 76.6524 47.8193 41.8749 0.0000 -24.4728 0.0000
# 2 47.8193 121.3727 56.9396 0.0000 -11.9735 0.0000
# 3 41.8749 56.9396 119.6055 0.0000 -11.5768 0.0000
# 4 0.0000 0.0000 0.0000-3141.4516 0.0000 2255.0849
# 5 -24.4728 -11.9735 -11.5768 0.0000 43.9974 0.0000
# 6 0.0000 0.0000 0.0000 2255.0849 0.0000-1584.4035
#
#
#
# Elastic Compliance Matrix: (Units=1/GPa)
#
#
# Indices 1 2 3 4 5 6 
#
# 1 0.021896 -0.005822 -0.003970 0.000000 0.009550 0.000000
# 2 -0.005822 0.012267 -0.003891 0.000000 -0.000924 0.000000
# 3 -0.003970 -0.003891 0.011582 0.000000 -0.000220 0.000000
# 4 0.000000 0.000000 0.000000 0.014659 0.000000 0.020865
# 5 0.009550 -0.000924 -0.000220 0.000000 0.027732 0.000000
# 6 0.000000 0.000000 0.000000 0.020865 0.000000 0.029066
#
#
# Mechanical properties :
#
#
# Convention : Reuss Voigt Hill
#
# Bulk Modulus (GPa) = 54.41036 67.87756 61.14396
# Shear Modulus (GPa) = 33.17989 -924.97177 -445.89594
#
# Velocity S-wave (km/s) = 4.03449 -21.30174 -14.78998
# Velocity P-wave (km/s) = 6.95664 23.91067 16.17599
#
# Compressibility (1/GPa) = 0.01837885
#
# Stress axis : x y z
#
# Youngs Moduli (GPa) = 45.67078 81.51829 86.34257
#
# Poissons Ratio (x) = 0.47462 0.34276
# Poissons Ratio (y) = 0.26590 0.33596
# Poissons Ratio (z) = 0.18130 0.31718
#
# Static dielectric constant tensor:
#      x y z
#    x 3.720500 0.000000 -0.051600 
#    y 0.000000 3.955420 0.000000 
#    z -0.051600 0.000000 3.880410 
# 
# 
# High freq. dielectric constant tensor:
#      x y z
#    x 1.797720 0.000000 -0.010120 
#    y 0.000000 1.787350 0.000000 
#    z -0.010120 0.000000 1.805040 
# 
# From -- ./inp_files/30477.got.cif
#   From: 2010.06.25/outbox.cif.g09.slc.cpg/sg10_16_cif.got.tgz:30477.got - 2010.06.27 22:07:45.
