data_PCOD8067814
_publ_section_title
;
Structure prediction by ZEFSAII (Michael W. Deem and Ramdas Pophale) SiO2 
 PCOD8067814
Probable space group: P 2/M
;
_chemical_formula_sum "Si O2"
_cell_formula_units_Z 28
_cell_length_a 22.846348
_cell_length_b 9.114785
_cell_length_c 18.616528
_cell_angle_alpha 90.000000
_cell_angle_beta 156.627520
_cell_angle_gamma 90.000000
_cell_volume 1537.913133
_symmetry_space_group_name_H-M "P 2/M"
_symmetry_group_IT_number 10
_symmetry_cell_setting 'monoclinic'
loop_
_space_group_symop_operation_xyz
x,y,z
-x,y,-z
-x,-y,-z
x,-y,z
loop_
_atom_site_type_symbol
_atom_site_label
_atom_site_fract_x
_atom_site_fract_y
_atom_site_fract_z
Si Si1 0.730143 0.170095 0.857173
Si Si2 0.396909 0.170100 0.523940
Si Si3 0.488542 0.174186 0.782058
Si Si4 0.195010 0.825817 0.901498
Si Si5 0.375629 0.175061 0.805575
Si Si6 0.164117 0.672986 0.164120
Si Si7 0.945674 0.175066 0.515729
O O1 0.555619 0.198611 0.666837
O O2 0.798066 0.266615 0.871342
O O3 0.760026 0.000000 0.873907
O O4 0.811967 0.219345 0.022744
O O5 0.398826 0.219336 0.609605
O O6 0.275214 0.266591 0.348487
O O7 0.353884 0.000000 0.467773
O O8 0.408968 0.236711 0.763328
O O9 0.497679 0.000000 0.795958
O O10 0.655280 0.236971 0.965823
O O11 0.054594 0.763291 0.700237
O O12 0.199398 0.000000 0.901121
O O13 0.217532 0.236540 0.652588
O O14 0.374807 0.000000 0.804489
O O15 0.500000 0.234325 0.000000
O O16 0.179981 0.500000 0.179986
O O17 0.000000 0.723111 0.000000
O O18 0.000000 0.234309 0.500000
O O19 0.945123 0.000000 0.515440
#
# Coordination Sequence:
#
# PCOD8067814 Si02
#       7
#     4   4   4   4   4   4   4
#     4   9  18  33  53  74  94 120 157 198 239 285
#     4   9  18  33  53  74  94 120 157 198 239 285
#     4   8  14  25  40  59  84 112 144 185 229 272
#     4   8  14  25  40  59  84 112 144 185 229 272
#     4   9  15  21  31  50  79 116 153 185 220 264
#     4  11  24  37  48  68  98 127 156 193 236 282
#     4   9  15  21  31  50  79 116 153 185 220 264
#
# _framework density 18.206489999999999
#
# number of rings (size 3 to 8) (size 9 to 14) (size 15 to 20)
#    0.000    3.000    0.000    3.429    0.000    8.000 
#    0.000    2.857    0.000    0.000    0.000    0.000 
#    0.000    1.143    0.000    3.714    0.000    8.286 
#
# Total GULP energy -347100.467002 kJ/mol
# GULP energy per Si atom -12396.445250 kJ/mol
# Density = 1.816505 g / cm^3
# Si number density = 18.206490 Si / 1000 Ang^3
#
#
#
# Elastic Constant Matrix: (Units=GPa)
#
#
# Indices 1 2 3 4 5 6 
#
# 1 177.3744 30.1750 99.8143 0.0000 -2.1217 0.0000
# 2 30.1750 26.1143 30.4935 0.0000 0.2970 0.0000
# 3 99.8143 30.4935 163.9020 0.0000 -10.7118 0.0000
# 4 0.0000 0.0000 0.0000 10.5185 0.0000 7.7276
# 5 -2.1217 0.2970 -10.7118 0.0000 29.4973 0.0000
# 6 0.0000 0.0000 0.0000 7.7276 0.0000 2.3955
#
#
#
# Elastic Compliance Matrix: (Units=1/GPa)
#
#
# Indices 1 2 3 4 5 6 
#
# 1 0.009119 -0.005066 -0.004676 0.000000 -0.000991 0.000000
# 2 -0.005066 0.052175 -0.006842 0.000000 -0.003375 0.000000
# 3 -0.004676 -0.006842 0.010452 0.000000 0.003528 0.000000
# 4 0.000000 0.000000 0.000000 -0.069396 0.000000 0.223864
# 5 -0.000991 -0.003375 0.003528 0.000000 0.035145 0.000000
# 6 0.000000 0.000000 0.000000 0.223864 0.000000 -0.304714
#
#
# Mechanical properties :
#
#
# Convention : Reuss Voigt Hill
#
# Bulk Modulus (GPa) = 25.92131 76.48405 51.20268
# Shear Modulus (GPa) = -22.60489 22.27612 -0.16439
#
# Velocity S-wave (km/s) = -3.52744 3.50169 -0.30081
# Velocity P-wave (km/s) = 1.52384 7.64523 5.29752
#
# Compressibility (1/GPa) = 0.03857830
#
# Stress axis : x y z
#
# Youngs Moduli (GPa) = 109.66330 19.16619 95.67413
#
# Poissons Ratio (x) = 0.09709 0.44733
# Poissons Ratio (y) = 0.55555 0.65465
# Poissons Ratio (z) = 0.51273 0.13114
#
# Static dielectric constant tensor:
#      x y z
#    x 3.636110 0.000000 -0.043190 
#    y 0.000000 2.672880 0.000000 
#    z -0.043190 0.000000 3.590720 
# 
# 
# High freq. dielectric constant tensor:
#      x y z
#    x 1.721430 0.000000 -0.006890 
#    y 0.000000 1.631490 0.000000 
#    z -0.006890 0.000000 1.714190 
# 
# From -- ./inp_files/86533.got.cif
#   From: 2010.06.25/outbox.cif.g09.slc.cpg/sg10_44_cif.got.tgz:86533.got - 2010.06.27 22:07:45.
