data_PCOD8067099
_publ_section_title
;
Structure prediction by ZEFSAII (Michael W. Deem and Ramdas Pophale) SiO2 
 PCOD8067099
Probable space group: P 2/M
;
_chemical_formula_sum "Si O2"
_cell_formula_units_Z 28
_cell_length_a 9.000075
_cell_length_b 8.984492
_cell_length_c 25.282256
_cell_angle_alpha 90.000000
_cell_angle_beta 44.032896
_cell_angle_gamma 90.000000
_cell_volume 1420.969679
_symmetry_space_group_name_H-M "P 2/M"
_symmetry_group_IT_number 10
_symmetry_cell_setting 'monoclinic'
loop_
_space_group_symop_operation_xyz
x,y,z
-x,y,-z
-x,-y,-z
x,-y,z
loop_
_atom_site_type_symbol
_atom_site_label
_atom_site_fract_x
_atom_site_fract_y
_atom_site_fract_z
Si Si1 0.905555 0.324168 0.713011
Si Si2 0.346180 0.828077 0.406579
Si Si3 0.020598 0.827432 0.580346
Si Si4 0.786742 0.675703 0.273311
Si Si5 0.664927 0.170590 0.003041
Si Si6 0.897167 0.676105 0.127983
Si Si7 0.534936 0.827889 0.154123
O O1 0.875146 0.500000 0.720774
O O2 0.675480 0.248502 0.769447
O O3 0.037632 0.274489 0.627671
O O4 0.033128 0.267810 0.731970
O O5 0.228862 0.794457 0.491860
O O6 0.557528 0.731731 0.350180
O O7 0.191685 0.784302 0.397840
O O8 0.409636 0.000000 0.386499
O O9 0.013344 0.000000 0.598631
O O10 0.778438 0.500000 0.275793
O O11 0.845860 0.735276 0.200037
O O12 0.544126 0.194574 0.089050
O O13 0.742440 0.000000 0.976827
O O14 0.500000 0.216777 0.000000
O O15 0.864152 0.280123 0.948746
O O16 0.870688 0.500000 0.130462
O O17 0.741002 0.753286 0.126813
O O18 0.530607 0.000000 0.171378
#
# Coordination Sequence:
#
# PCOD8067099 Si02
#       7
#     4   4   4   4   4   4   4
#     4  11  23  38  56  81 113 148 186 229 278 331
#     4   9  19  36  59  83 109 144 186 230 275 329
#     4   9  19  37  58  83 112 143 184 231 278 329
#     4  10  23  39  54  79 115 149 184 228 278 331
#     4  10  22  40  61  86 116 149 186 229 278 330
#     4  11  23  39  60  85 114 150 189 229 276 330
#     4  11  23  39  60  85 113 146 186 232 278 327
#
# _framework density 19.704851999999999
#
# number of rings (size 3 to 8) (size 9 to 14) (size 15 to 20)
#    0.000    1.857    0.000    4.286    0.000    9.429 
#    0.000    4.286    0.000    0.000    0.000    0.000 
#    0.000    0.000    0.000    0.000    0.000    0.000 
#
# Total GULP energy -347348.785157 kJ/mol
# GULP energy per Si atom -12405.313756 kJ/mol
# Density = 1.966000 g / cm^3
# Si number density = 19.704852 Si / 1000 Ang^3
#
#
#
# Elastic Constant Matrix: (Units=GPa)
#
#
# Indices 1 2 3 4 5 6 
#
# 1 82.5944 25.5007 12.4432 0.0000 13.0388 0.0000
# 2 25.5007 50.9436 20.1681 0.0000 6.9126 0.0000
# 3 12.4432 20.1681 71.3976 0.0000 4.4254 0.0000
# 4 0.0000 0.0000 0.0000 41.9365 0.0000 -3.5217
# 5 13.0388 6.9126 4.4254 0.0000 34.5122 0.0000
# 6 0.0000 0.0000 0.0000 -3.5217 0.0000 32.5105
#
#
#
# Elastic Compliance Matrix: (Units=1/GPa)
#
#
# Indices 1 2 3 4 5 6 
#
# 1 0.014916 -0.006718 -0.000439 0.000000 -0.004233 0.000000
# 2 -0.006718 0.025594 -0.005946 0.000000 -0.001826 0.000000
# 3 -0.000439 -0.005946 0.015804 0.000000 -0.000670 0.000000
# 4 0.000000 0.000000 0.000000 0.024064 0.000000 0.002607
# 5 -0.004233 -0.001826 -0.000670 0.000000 0.031026 0.000000
# 6 0.000000 0.000000 0.000000 0.002607 0.000000 0.031042
#
#
# Mechanical properties :
#
#
# Convention : Reuss Voigt Hill
#
# Bulk Modulus (GPa) = 33.21461 35.68440 34.44950
# Shear Modulus (GPa) = 27.98168 31.58008 29.78088
#
# Velocity S-wave (km/s) = 3.77243 4.00766 3.89182
# Velocity P-wave (km/s) = 5.98896 6.28998 6.14132
#
# Compressibility (1/GPa) = 0.03010723
#
# Stress axis : x y z
#
# Youngs Moduli (GPa) = 67.04187 39.07161 63.27637
#
# Poissons Ratio (x) = 0.26249 0.02781
# Poissons Ratio (y) = 0.45039 0.37622
# Poissons Ratio (z) = 0.02946 0.23231
#
# Static dielectric constant tensor:
#      x y z
#    x 3.749580 0.000000 0.155170 
#    y 0.000000 3.499270 0.000000 
#    z 0.155170 0.000000 3.593880 
# 
# 
# High freq. dielectric constant tensor:
#      x y z
#    x 1.777240 0.000000 0.005610 
#    y 0.000000 1.764730 0.000000 
#    z 0.005610 0.000000 1.779170 
# 
# From -- ./inp_files/36996.got.cif
#   From: 2010.06.25/outbox.cif.g09.slc.cpg/sg10_19_cif.got.tgz:36996.got - 2010.06.27 22:07:45.
