data_PCOD8067097
_publ_section_title
;
Structure prediction by ZEFSAII (Michael W. Deem and Ramdas Pophale) SiO2 
 PCOD8067097
Probable space group: P 2/M
;
_chemical_formula_sum "Si O2"
_cell_formula_units_Z 24
_cell_length_a 14.772172
_cell_length_b 8.913762
_cell_length_c 14.309269
_cell_angle_alpha 90.000000
_cell_angle_beta 40.173333
_cell_angle_gamma 90.000000
_cell_volume 1215.489780
_symmetry_space_group_name_H-M "P 2/M"
_symmetry_group_IT_number 10
_symmetry_cell_setting 'monoclinic'
loop_
_space_group_symop_operation_xyz
x,y,z
-x,y,-z
-x,-y,-z
x,-y,z
loop_
_atom_site_type_symbol
_atom_site_label
_atom_site_fract_x
_atom_site_fract_y
_atom_site_fract_z
Si Si1 0.298924 0.822733 0.312835
Si Si2 0.746564 0.674961 0.841825
Si Si3 0.930652 0.324415 0.386128
Si Si4 0.214063 0.826312 0.881287
Si Si5 0.427966 0.675642 0.837984
Si Si6 0.921608 0.173655 0.203378
O O1 0.319714 0.767896 0.190562
O O2 0.152612 0.760125 0.467083
O O3 0.424859 0.761435 0.277152
O O4 0.297524 0.000000 0.317676
O O5 0.729563 0.500000 0.832183
O O6 0.907504 0.719875 0.730014
O O7 0.662201 0.720923 0.000469
O O8 0.904967 0.500000 0.417972
O O9 0.877157 0.273156 0.326643
O O10 0.343794 0.725929 0.812328
O O11 0.191546 0.797535 0.788962
O O12 0.247113 0.000000 0.874434
O O13 0.074816 0.777384 0.046844
O O14 0.457604 0.500000 0.809773
O O15 0.921984 0.000000 0.232582
#
# Coordination Sequence:
#
# PCOD8067097 Si02
#       6
#     4   4   4   4   4   4
#     4  12  26  40  57  84 117 156 196 240 291 344
#     4  10  22  40  61  86 115 151 194 240 289 341
#     4  11  22  39  61  87 118 154 193 238 289 343
#     4   9  18  34  58  88 120 152 188 234 285 338
#     4  11  22  39  61  87 118 154 193 238 289 343
#     4   9  18  34  58  88 120 152 188 234 285 338
#
# _framework density 19.745125999999999
#
# number of rings (size 3 to 8) (size 9 to 14) (size 15 to 20)
#    0.000    1.667    1.667    4.500    0.000    7.333 
#    0.000    2.500    0.000    5.000    0.000    0.000 
#    0.000    0.000    0.000    0.000    0.000    0.000 
#
# Total GULP energy -297745.992257 kJ/mol
# GULP energy per Si atom -12406.083011 kJ/mol
# Density = 1.970019 g / cm^3
# Si number density = 19.745126 Si / 1000 Ang^3
#
#
#
# Elastic Constant Matrix: (Units=GPa)
#
#
# Indices 1 2 3 4 5 6 
#
# 1 94.5693 34.9388 6.2151 0.0000 -3.0862 0.0000
# 2 34.9388 81.7470 17.6382 0.0000 -6.6426 0.0000
# 3 6.2151 17.6382 40.0838 0.0000 -9.9349 0.0000
# 4 0.0000 0.0000 0.0000 26.5019 0.0000 4.1616
# 5 -3.0862 -6.6426 -9.9349 0.0000 28.4042 0.0000
# 6 0.0000 0.0000 0.0000 4.1616 0.0000 39.7872
#
#
#
# Elastic Compliance Matrix: (Units=1/GPa)
#
#
# Indices 1 2 3 4 5 6 
#
# 1 0.012567 -0.005462 0.000522 0.000000 0.000271 0.000000
# 2 -0.005462 0.015926 -0.005896 0.000000 0.001069 0.000000
# 3 0.000522 -0.005896 0.029709 0.000000 0.009069 0.000000
# 4 0.000000 0.000000 0.000000 0.038363 0.000000 -0.004013
# 5 0.000271 0.001069 0.009069 0.000000 0.038658 0.000000
# 6 0.000000 0.000000 0.000000 -0.004013 0.000000 0.025553
#
#
# Mechanical properties :
#
#
# Convention : Reuss Voigt Hill
#
# Bulk Modulus (GPa) = 27.37476 37.10936 32.24206
# Shear Modulus (GPa) = 25.69042 29.44586 27.56814
#
# Velocity S-wave (km/s) = 3.61099 3.86592 3.74063
# Velocity P-wave (km/s) = 5.59284 6.22592 5.91785
#
# Compressibility (1/GPa) = 0.03653000
#
# Stress axis : x y z
#
# Youngs Moduli (GPa) = 79.57615 62.78954 33.65953
#
# Poissons Ratio (x) = 0.34293 -0.01757
# Poissons Ratio (y) = 0.43461 0.19847
# Poissons Ratio (z) = -0.04153 0.37023
#
# Static dielectric constant tensor:
#      x y z
#    x 3.658480 0.000000 -0.004400 
#    y 0.000000 3.480780 0.000000 
#    z -0.004400 0.000000 3.466890 
# 
# 
# High freq. dielectric constant tensor:
#      x y z
#    x 1.780140 0.000000 0.001060 
#    y 0.000000 1.767770 0.000000 
#    z 0.001060 0.000000 1.755780 
# 
# From -- ./inp_files/27015.got.cif
#   From: 2010.06.25/outbox.cif.g09.slc.cpg/sg10_14_cif.got.tgz:27015.got - 2010.06.27 22:07:45.
