data_PCOD8067620
_publ_section_title
;
Structure prediction by ZEFSAII (Michael W. Deem and Ramdas Pophale) SiO2 
 PCOD8067620
Probable space group: P 2/M
;
_chemical_formula_sum "Si O2"
_cell_formula_units_Z 14
_cell_length_a 7.517730
_cell_length_b 16.229582
_cell_length_c 9.535138
_cell_angle_alpha 90.000000
_cell_angle_beta 147.861355
_cell_angle_gamma 90.000000
_cell_volume 618.882271
_symmetry_space_group_name_H-M "P 2/M"
_symmetry_group_IT_number 10
_symmetry_cell_setting 'monoclinic'
loop_
_space_group_symop_operation_xyz
x,y,z
-x,y,-z
-x,-y,-z
x,-y,z
loop_
_atom_site_type_symbol
_atom_site_label
_atom_site_fract_x
_atom_site_fract_y
_atom_site_fract_z
Si Si1 0.709212 0.906763 0.497145
Si Si2 0.893576 0.500000 0.269665
Si Si3 0.891770 0.351613 0.775400
Si Si4 0.198860 0.178599 0.992981
O O1 0.500000 0.898095 0.500000
O O2 0.083304 0.877393 0.784974
O O3 0.709358 0.000000 0.440539
O O4 0.578921 0.845726 0.286200
O O5 0.000000 0.500000 0.500000
O O6 0.045139 0.419697 0.298719
O O7 0.500000 0.500000 0.000000
O O8 0.500000 0.325118 0.500000
O O9 0.135594 0.273874 0.910871
O O10 0.000000 0.387269 0.000000
O O11 0.000000 0.154681 0.000000
#
# Coordination Sequence:
#
# PCOD8067620 Si02
#       4
#     4   2   4   4
#     4   9  15  23  37  63 103 143 172 208 265 318
#     4  12  26  42  60  86 116 142 180 234 288 336
#     4  11  21  38  61  83 111 149 190 226 272 334
#     4   9  16  26  43  69 100 138 180 217 256 315
#
# _framework density 22.621427000000001
#
# number of rings (size 3 to 8) (size 9 to 14) (size 15 to 20)
#    0.000    2.000    0.000    7.714    0.000    3.429 
#    0.000    0.000    0.000    0.000    0.000    0.000 
#    0.000   22.857    0.000    0.000    0.000    2.571 
#
# Total GULP energy -173485.862682 kJ/mol
# GULP energy per Si atom -12391.847334 kJ/mol
# Density = 2.256994 g / cm^3
# Si number density = 22.621427 Si / 1000 Ang^3
#
#
#
# Elastic Constant Matrix: (Units=GPa)
#
#
# Indices 1 2 3 4 5 6 
#
# 1 31.6761 30.5116 20.5686 0.0000 -15.9000 0.0000
# 2 30.5116 185.1410 92.1198 0.0000 -13.6976 0.0000
# 3 20.5686 92.1198 188.7429 0.0000 -16.2169 0.0000
# 4 0.0000 0.0000 0.0000 42.2639 0.0000 4.6075
# 5 -15.9000 -13.6976 -16.2169 0.0000 19.1017 0.0000
# 6 0.0000 0.0000 0.0000 4.6075 0.0000 -16.7177
#
#
#
# Elastic Compliance Matrix: (Units=1/GPa)
#
#
# Indices 1 2 3 4 5 6 
#
# 1 0.061210 -0.007019 0.000756 0.000000 0.046559 0.000000
# 2 -0.007019 0.008036 -0.003413 0.000000 -0.002978 0.000000
# 3 0.000756 -0.003413 0.007255 0.000000 0.004340 0.000000
# 4 0.000000 0.000000 0.000000 0.022971 0.000000 0.006331
# 5 0.046559 -0.002978 0.004340 0.000000 0.092657 0.000000
# 6 0.000000 0.000000 0.000000 0.006331 0.000000 -0.058072
#
#
# Mechanical properties :
#
#
# Convention : Reuss Voigt Hill
#
# Bulk Modulus (GPa) = 17.49834 76.88446 47.19140
# Shear Modulus (GPa) = 28.99251 26.42024 27.70637
#
# Velocity S-wave (km/s) = 3.58388 3.42121 3.50349
# Velocity P-wave (km/s) = 4.98776 7.04751 6.10513
#
# Compressibility (1/GPa) = 0.05714827
#
# Stress axis : x y z
#
# Youngs Moduli (GPa) = 16.33709 124.44110 137.84341
#
# Poissons Ratio (x) = 0.87343 -0.10415
# Poissons Ratio (y) = 0.11467 0.47046
# Poissons Ratio (z) = -0.01234 0.42472
#
# Static dielectric constant tensor:
#      x y z
#    x 3.446910 0.000000 0.003250 
#    y 0.000000 3.963710 0.000000 
#    z 0.003250 0.000000 4.751030 
# 
# 
# High freq. dielectric constant tensor:
#      x y z
#    x 1.831100 0.000000 -0.006290 
#    y 0.000000 1.894130 0.000000 
#    z -0.006290 0.000000 1.927210 
# 
# From -- ./inp_files/14233.got.cif
#   From: 2010.06.25/outbox.cif.g09.slc.cpg/sg10_8_cif.got.tgz:14233.got - 2010.06.27 22:07:45.
