data_PCOD8067498
_publ_section_title
;
Structure prediction by ZEFSAII (Michael W. Deem and Ramdas Pophale) SiO2 
 PCOD8067498
Probable space group: P 2/M
;
_chemical_formula_sum "Si O2"
_cell_formula_units_Z 24
_cell_length_a 15.007356
_cell_length_b 12.217491
_cell_length_c 15.223347
_cell_angle_alpha 90.000000
_cell_angle_beta 152.214218
_cell_angle_gamma 90.000000
_cell_volume 1301.181843
_symmetry_space_group_name_H-M "P 2/M"
_symmetry_group_IT_number 10
_symmetry_cell_setting 'monoclinic'
loop_
_space_group_symop_operation_xyz
x,y,z
-x,y,-z
-x,-y,-z
x,-y,z
loop_
_atom_site_type_symbol
_atom_site_label
_atom_site_fract_x
_atom_site_fract_y
_atom_site_fract_z
Si Si1 0.233104 0.500000 0.801938
Si Si2 0.634795 0.733920 0.034864
Si Si3 0.784469 0.500000 0.408589
Si Si4 0.343504 0.272851 0.632148
Si Si5 0.262764 0.000000 0.155691
Si Si6 0.439672 0.175971 0.545589
Si Si7 0.141957 0.000000 0.247294
Si Si8 0.998429 0.128980 0.395204
O O1 0.296559 0.608142 0.908355
O O2 0.319749 0.500000 0.778057
O O3 0.008780 0.500000 0.593783
O O4 0.810278 0.817315 0.190223
O O5 0.500000 0.757293 0.000000
O O6 0.524384 0.758981 0.849068
O O7 0.725146 0.394199 0.409804
O O8 0.401149 0.274917 0.579125
O O9 0.181605 0.183356 0.510325
O O10 0.393337 0.107001 0.261692
O O11 0.169613 0.000000 0.168725
O O12 0.087074 0.000000 0.931867
O O13 0.500000 0.215234 0.500000
O O14 0.243270 0.107621 0.373266
O O15 0.000000 0.153849 0.500000
O O16 0.000623 0.000000 0.376570
#
# Coordination Sequence:
#
# PCOD8067498 Si02
#       8
#     2   4   2   4   2   4   2   4
#     4  11  20  39  66  88 113 144 196 267 295 328
#     4  12  22  38  62  89 117 152 197 247 294 342
#     4  11  21  38  66  86 113 150 198 246 304 348
#     4  12  24  39  61  89 117 157 198 244 295 350
#     4   8  15  33  60  87 105 151 199 248 291 330
#     4   9  20  37  56  85 120 152 197 245 285 344
#     4   8  15  33  62  81 113 149 197 248 293 326
#     4  11  24  40  56  83 126 166 192 227 293 366
#
# _framework density 18.444769999999998
#
# number of rings (size 3 to 8) (size 9 to 14) (size 15 to 20)
#    0.000    1.500    5.000    1.750    2.333    2.333 
#    0.000    0.417    0.000    0.000    0.000    1.167 
#    0.000    0.000    0.000    0.000    0.000    0.000 
#
# Total GULP energy -297532.759987 kJ/mol
# GULP energy per Si atom -12397.198333 kJ/mol
# Density = 1.840279 g / cm^3
# Si number density = 18.444770 Si / 1000 Ang^3
#
#
#
# Elastic Constant Matrix: (Units=GPa)
#
#
# Indices 1 2 3 4 5 6 
#
# 1 103.5793 54.6424 42.4834 0.0000 -15.1564 0.0000
# 2 54.6424 113.1308 46.9591 0.0000 1.8977 0.0000
# 3 42.4834 46.9591 133.0293 0.0000 9.7566 0.0000
# 4 0.0000 0.0000 0.0000 12.1258 0.0000 8.7388
# 5 -15.1564 1.8977 9.7566 0.0000 24.1355 0.0000
# 6 0.0000 0.0000 0.0000 8.7388 0.0000 34.8492
#
#
#
# Elastic Compliance Matrix: (Units=1/GPa)
#
#
# Indices 1 2 3 4 5 6 
#
# 1 0.016546 -0.006594 -0.003871 0.000000 0.012474 0.000000
# 2 -0.006594 0.012996 -0.002167 0.000000 -0.004287 0.000000
# 3 -0.003871 -0.002167 0.009980 0.000000 -0.006295 0.000000
# 4 0.000000 0.000000 0.000000 0.100660 0.000000 -0.025242
# 5 0.012474 -0.004287 -0.006295 0.000000 0.052148 0.000000
# 6 0.000000 0.000000 0.000000 -0.025242 0.000000 0.035025
#
#
# Mechanical properties :
#
#
# Convention : Reuss Voigt Hill
#
# Bulk Modulus (GPa) = 70.14151 70.87882 70.51016
# Shear Modulus (GPa) = 19.42709 27.93239 23.67974
#
# Velocity S-wave (km/s) = 3.24891 3.89573 3.58693
# Velocity P-wave (km/s) = 7.22387 7.66463 7.44751
#
# Compressibility (1/GPa) = 0.01425689
#
# Stress axis : x y z
#
# Youngs Moduli (GPa) = 60.43672 76.94771 100.19893
#
# Poissons Ratio (x) = 0.50741 0.38789
# Poissons Ratio (y) = 0.39853 0.21715
# Poissons Ratio (z) = 0.23396 0.16676
#
# Static dielectric constant tensor:
#      x y z
#    x 3.270450 0.000000 0.199530 
#    y 0.000000 3.236530 0.000000 
#    z 0.199530 0.000000 4.720290 
# 
# 
# High freq. dielectric constant tensor:
#      x y z
#    x 1.701590 0.000000 0.009270 
#    y 0.000000 1.698620 0.000000 
#    z 0.009270 0.000000 1.736710 
# 
# From -- ./inp_files/67454.got.cif
#   From: 2010.06.25/outbox.cif.g09.slc.cpg/sg10_34_cif.got.tgz:67454.got - 2010.06.27 22:07:45.
