data_PCOD8067096
_publ_section_title
;
Structure prediction by ZEFSAII (Michael W. Deem and Ramdas Pophale) SiO2 
 PCOD8067096
Probable space group: P 2/M
;
_chemical_formula_sum "Si O2"
_cell_formula_units_Z 28
_cell_length_a 18.602029
_cell_length_b 13.490823
_cell_length_c 8.883138
_cell_angle_alpha 90.000000
_cell_angle_beta 42.887812
_cell_angle_gamma 90.000000
_cell_volume 1517.171926
_symmetry_space_group_name_H-M "P 2/M"
_symmetry_group_IT_number 10
_symmetry_cell_setting 'monoclinic'
loop_
_space_group_symop_operation_xyz
x,y,z
-x,y,-z
-x,-y,-z
x,-y,z
loop_
_atom_site_type_symbol
_atom_site_label
_atom_site_fract_x
_atom_site_fract_y
_atom_site_fract_z
Si Si1 0.489779 0.386011 0.690688
Si Si2 0.103411 0.614704 0.263249
Si Si3 0.703960 0.297655 0.854866
Si Si4 0.166235 0.887075 0.325472
Si Si5 0.708918 0.385625 0.519944
Si Si6 0.901206 0.301237 0.054768
Si Si7 0.946866 0.112633 0.812736
O O1 0.500000 0.360652 0.500000
O O2 0.452189 0.500000 0.771204
O O3 0.600218 0.366903 0.601380
O O4 0.406975 0.309827 0.890214
O O5 0.105356 0.500000 0.296236
O O6 0.206970 0.659676 0.174820
O O7 0.000000 0.663684 0.500000
O O8 0.101017 0.632067 0.089890
O O9 0.734082 0.182090 0.783517
O O10 0.696400 0.356772 0.711895
O O11 0.124309 0.862351 0.222920
O O12 0.070258 0.869582 0.588558
O O13 0.206082 0.000000 0.273205
O O14 0.743874 0.500000 0.454287
O O15 0.795514 0.315835 0.311516
O O16 0.911448 0.184759 0.000890
O O17 0.000000 0.338359 0.000000
O O18 0.927822 0.000000 0.894537
#
# Coordination Sequence:
#
# PCOD8067096 Si02
#       7
#     4   4   4   4   4   4   4
#     4  10  22  40  61  85 112 149 196 240 282 335
#     4  11  22  34  51  78 112 150 190 230 280 342
#     4  12  21  37  63  83 110 150 196 238 286 346
#     4   9  18  34  60  88 113 145 189 242 291 340
#     4  11  24  39  56  84 120 155 193 237 284 337
#     4  12  23  35  54  82 119 155 189 234 289 342
#     4   9  18  35  57  83 115 150 192 238 286 341
#
# _framework density 18.455390000000001
#
# number of rings (size 3 to 8) (size 9 to 14) (size 15 to 20)
#    0.000    1.429    1.429    6.429    0.000    4.857 
#    0.000    0.714    0.000    3.000    0.000    0.000 
#    0.000    0.000    0.000    0.000    0.000    0.000 
#
# Total GULP energy -347295.083277 kJ/mol
# GULP energy per Si atom -12403.395831 kJ/mol
# Density = 1.841338 g / cm^3
# Si number density = 18.455390 Si / 1000 Ang^3
#
#
#
# Elastic Constant Matrix: (Units=GPa)
#
#
# Indices 1 2 3 4 5 6 
#
# 1 105.3903 41.7445 46.4721 0.0000 0.6084 0.0000
# 2 41.7445 97.8409 52.6682 0.0000 -10.5918 0.0000
# 3 46.4721 52.6682 126.5222 0.0000 -4.0919 0.0000
# 4 0.0000 0.0000 0.0000 32.4049 0.0000 2.8673
# 5 0.6084 -10.5918 -4.0919 0.0000 26.9703 0.0000
# 6 0.0000 0.0000 0.0000 2.8673 0.0000 34.3874
#
#
#
# Elastic Compliance Matrix: (Units=1/GPa)
#
#
# Indices 1 2 3 4 5 6 
#
# 1 0.012370 -0.003915 -0.002987 0.000000 -0.002270 0.000000
# 2 -0.003915 0.014943 -0.004612 0.000000 0.005257 0.000000
# 3 -0.002987 -0.004612 0.010918 0.000000 -0.000088 0.000000
# 4 0.000000 0.000000 0.000000 0.031089 0.000000 -0.002592
# 5 -0.002270 0.005257 -0.000088 0.000000 0.039180 0.000000
# 6 0.000000 0.000000 0.000000 -0.002592 0.000000 0.029297
#
#
# Mechanical properties :
#
#
# Convention : Reuss Voigt Hill
#
# Bulk Modulus (GPa) = 65.78313 67.94702 66.86507
# Shear Modulus (GPa) = 30.13991 31.34377 30.74184
#
# Velocity S-wave (km/s) = 4.04557 4.12558 4.08577
# Velocity P-wave (km/s) = 7.58578 7.71950 7.65293
#
# Compressibility (1/GPa) = 0.01520147
#
# Stress axis : x y z
#
# Youngs Moduli (GPa) = 80.84331 66.92031 91.59170
#
# Poissons Ratio (x) = 0.26202 0.27358
# Poissons Ratio (y) = 0.31654 0.42245
# Poissons Ratio (z) = 0.24147 0.30866
#
# Static dielectric constant tensor:
#      x y z
#    x 3.441830 0.000000 0.037420 
#    y 0.000000 3.496240 0.000000 
#    z 0.037420 0.000000 3.334400 
# 
# 
# High freq. dielectric constant tensor:
#      x y z
#    x 1.719170 0.000000 0.009150 
#    y 0.000000 1.714960 0.000000 
#    z 0.009150 0.000000 1.709310 
# 
# From -- ./inp_files/24936.got.cif
#   From: 2010.06.25/outbox.cif.g09.slc.cpg/sg10_13_cif.got.tgz:24936.got - 2010.06.27 22:07:45.
