data_PCOD8067883
_publ_section_title
;
Structure prediction by ZEFSAII (Michael W. Deem and Ramdas Pophale) SiO2 
 PCOD8067883
Probable space group: P 2/M
;
_chemical_formula_sum "Si O2"
_cell_formula_units_Z 28
_cell_length_a 13.800763
_cell_length_b 14.549660
_cell_length_c 13.800743
_cell_angle_alpha 90.000000
_cell_angle_beta 140.475823
_cell_angle_gamma 90.000000
_cell_volume 1763.563700
_symmetry_space_group_name_H-M "P 2/M"
_symmetry_group_IT_number 10
_symmetry_cell_setting 'monoclinic'
loop_
_space_group_symop_operation_xyz
x,y,z
-x,y,-z
-x,-y,-z
x,-y,z
loop_
_atom_site_type_symbol
_atom_site_label
_atom_site_fract_x
_atom_site_fract_y
_atom_site_fract_z
Si Si1 0.269992 0.788864 0.071275
Si Si2 0.071274 0.211136 0.269991
Si Si3 0.771616 0.399692 0.887795
Si Si4 0.112204 0.399692 0.228383
Si Si5 0.967992 0.106290 0.366349
Si Si6 0.633650 0.893710 0.032006
Si Si7 0.829131 0.103573 0.829131
O O1 0.380675 0.833057 0.076483
O O2 0.099260 0.794124 0.900741
O O3 0.320163 0.683056 0.130977
O O4 0.281232 0.845770 0.179735
O O5 0.130975 0.316944 0.320163
O O6 0.179734 0.154230 0.281232
O O7 0.076482 0.166943 0.380674
O O8 0.698030 0.500000 0.854982
O O9 0.773081 0.383698 0.773080
O O10 0.943053 0.397855 0.056946
O O11 0.145017 0.500000 0.301970
O O12 0.791539 0.123972 0.208460
O O13 0.000000 0.138030 0.500000
O O14 0.011335 0.000000 0.383559
O O15 0.616439 0.000000 0.988663
O O16 0.500000 0.861970 0.000000
O O17 0.770330 0.000000 0.770329
O O18 0.000000 0.105091 0.000000
#
# Coordination Sequence:
#
# PCOD8067883 Si02
#       7
#     4   4   4   4   4   4   4
#     4   9  14  21  33  51  75 100 124 155 194 232
#     4   9  14  21  33  51  75 100 124 155 194 232
#     4   8  12  18  29  47  73 102 126 148 184 236
#     4   8  12  18  29  47  73 102 126 148 184 236
#     4   9  17  28  41  57  77 103 135 165 191 224
#     4   9  17  28  41  57  77 103 135 165 191 224
#     4   9  14  18  27  47  74  98 117 146 194 240
#
# _framework density 15.876943000000001
#
# number of rings (size 3 to 8) (size 9 to 14) (size 15 to 20)
#    0.000    3.286    1.429    1.714    0.000    3.429 
#    0.000    0.000    0.000    0.857    0.000    1.000 
#    0.000    5.714    0.000    3.143    0.000    2.857 
#
# Total GULP energy -346959.465442 kJ/mol
# GULP energy per Si atom -12391.409480 kJ/mol
# Density = 1.584081 g / cm^3
# Si number density = 15.876943 Si / 1000 Ang^3
#
#
#
# Elastic Constant Matrix: (Units=GPa)
#
#
# Indices 1 2 3 4 5 6 
#
# 1 87.8233 65.1402 30.7317 0.0000 -35.8643 0.0000
# 2 65.1402 151.5621 38.9312 0.0000 -36.0042 0.0000
# 3 30.7317 38.9312 41.6394 0.0000 -27.5811 0.0000
# 4 0.0000 0.0000 0.0000 12.3826 0.0000 -9.7862
# 5 -35.8643 -36.0042 -27.5811 0.0000 26.8707 0.0000
# 6 0.0000 0.0000 0.0000 -9.7862 0.0000 19.5064
#
#
#
# Elastic Compliance Matrix: (Units=1/GPa)
#
#
# Indices 1 2 3 4 5 6 
#
# 1 0.029376 -0.005129 0.014162 0.000000 0.046873 0.000000
# 2 -0.005129 0.010602 -0.003911 0.000000 0.003346 0.000000
# 3 0.014162 -0.003911 0.082065 0.000000 0.097896 0.000000
# 4 0.000000 0.000000 0.000000 0.133817 0.000000 0.067135
# 5 0.046873 0.003346 0.097896 0.000000 0.204744 0.000000
# 6 0.000000 0.000000 0.000000 0.067135 0.000000 0.084947
#
#
# Mechanical properties :
#
#
# Convention : Reuss Voigt Hill
#
# Bulk Modulus (GPa) = 7.55928 61.18121 34.37025
# Shear Modulus (GPa) = 8.62960 21.50005 15.06482
#
# Velocity S-wave (km/s) = 2.33390 3.68389 3.08368
# Velocity P-wave (km/s) = 3.46905 7.53081 5.86291
#
# Compressibility (1/GPa) = 0.13228769
#
# Stress axis : x y z
#
# Youngs Moduli (GPa) = 34.04103 94.32614 12.18552
#
# Poissons Ratio (x) = 0.48375 -0.17257
# Poissons Ratio (y) = 0.17458 0.04765
# Poissons Ratio (z) = -0.48208 0.36887
#
# Static dielectric constant tensor:
#      x y z
#    x 2.821980 0.000000 -0.342050 
#    y 0.000000 3.442050 0.000000 
#    z -0.342050 0.000000 2.572980 
# 
# 
# High freq. dielectric constant tensor:
#      x y z
#    x 1.576240 0.000000 -0.031860 
#    y 0.000000 1.621430 0.000000 
#    z -0.031860 0.000000 1.553050 
# 
# From -- ./inp_files/47196.got.cif
#   From: 2010.06.25/outbox.cif.g09.slc.cpg/sg10_24_cif.got.tgz:47196.got - 2010.06.27 22:07:45.
