data_PCOD8067346
_publ_section_title
;
Structure prediction by ZEFSAII (Michael W. Deem and Ramdas Pophale) SiO2 
 PCOD8067346
Probable space group: P 2/M
;
_chemical_formula_sum "Si O2"
_cell_formula_units_Z 20
_cell_length_a 27.860164
_cell_length_b 7.862150
_cell_length_c 9.637108
_cell_angle_alpha 90.000000
_cell_angle_beta 27.269950
_cell_angle_gamma 90.000000
_cell_volume 967.188459
_symmetry_space_group_name_H-M "P 2/M"
_symmetry_group_IT_number 10
_symmetry_cell_setting 'monoclinic'
loop_
_space_group_symop_operation_xyz
x,y,z
-x,y,-z
-x,-y,-z
x,-y,z
loop_
_atom_site_type_symbol
_atom_site_label
_atom_site_fract_x
_atom_site_fract_y
_atom_site_fract_z
Si Si1 0.669624 0.805452 0.413967
Si Si2 0.179891 0.500000 0.043700
Si Si3 0.932846 0.816358 0.037606
Si Si4 0.299527 0.695375 0.366947
Si Si5 0.475816 0.800714 0.717552
Si Si6 0.008468 0.500000 0.679601
O O1 0.648431 0.789712 0.633660
O O2 0.568478 0.753818 0.585034
O O3 0.702772 0.000000 0.294415
O O4 0.759377 0.674476 0.140045
O O5 0.075730 0.500000 0.223508
O O6 0.131800 0.500000 0.321730
O O7 0.813484 0.768998 0.379815
O O8 0.931362 0.000000 0.962074
O O9 0.992210 0.672528 0.802914
O O10 0.000000 0.841603 0.000000
O O11 0.286050 0.500000 0.444447
O O12 0.371647 0.713693 0.045669
O O13 0.500000 0.730444 0.500000
O O14 0.455055 0.000000 0.763627
#
# Coordination Sequence:
#
# PCOD8067346 Si02
#       6
#     4   2   4   4   4   2
#     4  11  22  42  68  93 126 171 213 258 315 373
#     4  11  24  40  63  95 126 162 213 263 310 379
#     4  11  23  41  66  93 125 169 214 256 313 375
#     4  12  23  40  67  95 127 166 215 263 310 377
#     4  10  24  43  63  94 132 165 209 261 316 383
#     4  11  23  42  61  92 132 162 207 267 317 361
#
# _framework density 20.678491999999999
#
# number of rings (size 3 to 8) (size 9 to 14) (size 15 to 20)
#    0.000    1.000    4.000    2.700    1.400    5.200 
#    0.000    6.000    0.000    0.000    0.000    0.000 
#    0.000    0.000    0.000    0.000    0.000    0.000 
#
# Total GULP energy -247929.387821 kJ/mol
# GULP energy per Si atom -12396.469391 kJ/mol
# Density = 2.063143 g / cm^3
# Si number density = 20.678492 Si / 1000 Ang^3
#
#
#
# Elastic Constant Matrix: (Units=GPa)
#
#
# Indices 1 2 3 4 5 6 
#
# 1 106.7431 16.8454 42.4132 0.0000 1.4860 0.0000
# 2 16.8454 142.6847 52.5097 0.0000 9.0337 0.0000
# 3 42.4132 52.5097 128.3129 0.0000 24.1878 0.0000
# 4 0.0000 0.0000 0.0000 21.6699 0.0000 1.3052
# 5 1.4860 9.0337 24.1878 0.0000 20.6841 0.0000
# 6 0.0000 0.0000 0.0000 1.3052 0.0000 35.5802
#
#
#
# Elastic Compliance Matrix: (Units=1/GPa)
#
#
# Indices 1 2 3 4 5 6 
#
# 1 0.011100 0.000079 -0.004547 0.000000 0.004485 0.000000
# 2 0.000079 0.008255 -0.003494 0.000000 0.000475 0.000000
# 3 -0.004547 -0.003494 0.013311 0.000000 -0.013713 0.000000
# 4 0.000000 0.000000 0.000000 0.046249 0.000000 -0.001697
# 5 0.004485 0.000475 -0.013713 0.000000 0.063853 0.000000
# 6 0.000000 0.000000 0.000000 -0.001697 0.000000 0.028168
#
#
# Mechanical properties :
#
#
# Convention : Reuss Voigt Hill
#
# Bulk Modulus (GPa) = 59.72717 66.80859 63.26788
# Shear Modulus (GPa) = 25.98211 33.31834 29.65023
#
# Velocity S-wave (km/s) = 3.54853 4.01840 3.79075
# Velocity P-wave (km/s) = 6.76283 7.34224 7.05848
#
# Compressibility (1/GPa) = 0.01674280
#
# Stress axis : x y z
#
# Youngs Moduli (GPa) = 90.08988 121.14149 75.12495
#
# Poissons Ratio (x) = -0.00955 0.34158
# Poissons Ratio (y) = -0.00710 0.26246
# Poissons Ratio (z) = 0.40962 0.42323
#
# Static dielectric constant tensor:
#      x y z
#    x 3.342510 0.000000 -0.663780 
#    y 0.000000 3.632740 0.000000 
#    z -0.663780 0.000000 3.033220 
# 
# 
# High freq. dielectric constant tensor:
#      x y z
#    x 1.809900 0.000000 -0.007830 
#    y 0.000000 1.827890 0.000000 
#    z -0.007830 0.000000 1.805620 
# 
# From -- ./inp_files/36630.got.cif
#   From: 2010.06.25/outbox.cif.g09.slc.cpg/sg10_19_cif.got.tgz:36630.got - 2010.06.27 22:07:45.
