data_PCOD8067866
_publ_section_title
;
Structure prediction by ZEFSAII (Michael W. Deem and Ramdas Pophale) SiO2 
 PCOD8067866
Probable space group: P 2/M
;
_chemical_formula_sum "Si O2"
_cell_formula_units_Z 24
_cell_length_a 11.633144
_cell_length_b 14.211281
_cell_length_c 13.774522
_cell_angle_alpha 90.000000
_cell_angle_beta 148.758803
_cell_angle_gamma 90.000000
_cell_volume 1181.066821
_symmetry_space_group_name_H-M "P 2/M"
_symmetry_group_IT_number 10
_symmetry_cell_setting 'monoclinic'
loop_
_space_group_symop_operation_xyz
x,y,z
-x,y,-z
-x,-y,-z
x,-y,z
loop_
_atom_site_type_symbol
_atom_site_label
_atom_site_fract_x
_atom_site_fract_y
_atom_site_fract_z
Si Si1 0.698425 0.610497 0.206920
Si Si2 0.179440 0.389030 0.494285
Si Si3 0.284340 0.890187 0.797005
Si Si4 0.666262 0.765229 0.534058
Si Si5 0.060485 0.892696 0.824397
Si Si6 0.464006 0.108499 0.734713
O O1 0.702996 0.500000 0.195543
O O2 0.673093 0.633579 0.303134
O O3 0.930919 0.649357 0.334234
O O4 0.500000 0.655759 0.000000
O O5 0.183291 0.500000 0.474030
O O6 0.273522 0.334767 0.469600
O O7 0.076008 0.872982 0.717980
O O8 0.274891 0.856075 0.677253
O O9 0.334254 0.000000 0.823851
O O10 0.500000 0.841354 0.000000
O O11 0.500000 0.742072 0.500000
O O12 0.549103 0.831671 0.371408
O O13 0.879117 0.819417 0.732822
O O14 0.981167 0.000000 0.784849
O O15 0.293737 0.875950 0.044453
O O16 0.426516 0.000000 0.678985
#
# Coordination Sequence:
#
# PCOD8067866 Si02
#       6
#     4   4   4   4   4   4
#     4   8  15  33  63  92 113 133 164 217 285 347
#     4   9  20  38  58  84 115 144 177 220 275 330
#     4   7  12  27  52  80 106 131 162 205 267 336
#     4  12  26  38  51  76 108 149 201 235 254 305
#     4   9  19  37  59  82 110 141 175 226 287 336
#     4   9  19  37  59  82 110 141 175 226 287 336
#
# _framework density 20.320612000000001
#
# number of rings (size 3 to 8) (size 9 to 14) (size 15 to 20)
#    0.000    3.000    0.000    3.500    0.000    7.000 
#    0.000    5.833    0.000    0.000    0.000    7.000 
#    0.000    0.000    0.000    0.000    0.000    0.000 
#
# Total GULP energy -297339.010052 kJ/mol
# GULP energy per Si atom -12389.125419 kJ/mol
# Density = 2.027436 g / cm^3
# Si number density = 20.320612 Si / 1000 Ang^3
#
#
#
# Elastic Constant Matrix: (Units=GPa)
#
#
# Indices 1 2 3 4 5 6 
#
# 1 116.0980 34.1502 6.3730 0.0000 5.9805 0.0000
# 2 34.1502 76.4155 9.9396 0.0000 2.5648 0.0000
# 3 6.3730 9.9396 51.0414 0.0000 -6.4294 0.0000
# 4 0.0000 0.0000 0.0000 59.2111 0.0000 -12.7391
# 5 5.9805 2.5648 -6.4294 0.0000 22.9118 0.0000
# 6 0.0000 0.0000 0.0000 -12.7391 0.0000 34.0671
#
#
#
# Elastic Compliance Matrix: (Units=1/GPa)
#
#
# Indices 1 2 3 4 5 6 
#
# 1 0.010043 -0.004318 -0.000707 0.000000 -0.002337 0.000000
# 2 -0.004318 0.015403 -0.002628 0.000000 -0.001335 0.000000
# 3 -0.000707 -0.002628 0.020995 0.000000 0.006370 0.000000
# 4 0.000000 0.000000 0.000000 0.018366 0.000000 0.006868
# 5 -0.002337 -0.001335 0.006370 0.000000 0.046193 0.000000
# 6 0.000000 0.000000 0.000000 0.006868 0.000000 0.031922
#
#
# Mechanical properties :
#
#
# Convention : Reuss Voigt Hill
#
# Bulk Modulus (GPa) = 32.12058 38.27562 35.19810
# Shear Modulus (GPa) = 29.65503 36.11080 32.88291
#
# Velocity S-wave (km/s) = 3.82430 4.22008 4.02706
# Velocity P-wave (km/s) = 5.94488 6.52857 6.24355
#
# Compressibility (1/GPa) = 0.03113269
#
# Stress axis : x y z
#
# Youngs Moduli (GPa) = 99.57544 64.92412 47.63132
#
# Poissons Ratio (x) = 0.28032 0.03370
# Poissons Ratio (y) = 0.42993 0.12520
# Poissons Ratio (z) = 0.07044 0.17065
#
# Static dielectric constant tensor:
#      x y z
#    x 3.500500 0.000000 -0.045790 
#    y 0.000000 3.455770 0.000000 
#    z -0.045790 0.000000 3.875940 
# 
# 
# High freq. dielectric constant tensor:
#      x y z
#    x 1.764540 0.000000 -0.006090 
#    y 0.000000 1.784020 0.000000 
#    z -0.006090 0.000000 1.794910 
# 
# From -- ./inp_files/65149.got.cif
#   From: 2010.06.25/outbox.cif.g09.slc.cpg/sg10_33_cif.got.tgz:65149.got - 2010.06.27 22:07:45.
