data_PCOD8067567
_publ_section_title
;
Structure prediction by ZEFSAII (Michael W. Deem and Ramdas Pophale) SiO2 
 PCOD8067567
Probable space group: P 2/M
;
_chemical_formula_sum "Si O2"
_cell_formula_units_Z 28
_cell_length_a 24.390183
_cell_length_b 8.653322
_cell_length_c 19.312591
_cell_angle_alpha 90.000000
_cell_angle_beta 158.405517
_cell_angle_gamma 90.000000
_cell_volume 1500.125576
_symmetry_space_group_name_H-M "P 2/M"
_symmetry_group_IT_number 10
_symmetry_cell_setting 'monoclinic'
loop_
_space_group_symop_operation_xyz
x,y,z
-x,y,-z
-x,-y,-z
x,-y,z
loop_
_atom_site_type_symbol
_atom_site_label
_atom_site_fract_x
_atom_site_fract_y
_atom_site_fract_z
Si Si1 0.444623 0.679135 0.086984
Si Si2 0.820627 0.183647 0.720563
Si Si3 0.836428 0.317056 0.329517
Si Si4 0.645047 0.175551 0.217018
Si Si5 0.471996 0.679425 0.662185
Si Si6 0.131665 0.681155 0.075984
Si Si7 0.609783 0.179378 0.690601
O O1 0.458170 0.500000 0.085206
O O2 0.594778 0.755645 0.231904
O O3 0.440457 0.710725 0.163902
O O4 0.288659 0.743218 0.872137
O O5 0.697644 0.264437 0.528000
O O6 0.800442 0.242090 0.775374
O O7 0.804651 0.000000 0.700177
O O8 0.978030 0.237103 0.875343
O O9 0.844458 0.500000 0.339992
O O10 0.786340 0.260768 0.347392
O O11 0.000000 0.250720 0.500000
O O12 0.693516 0.000000 0.284421
O O13 0.500000 0.195864 0.000000
O O14 0.477889 0.500000 0.648064
O O15 0.542908 0.784887 0.686500
O O16 0.107002 0.500000 0.058636
O O17 0.243116 0.715847 0.144140
O O18 0.500000 0.227752 0.500000
O O19 0.651635 0.000000 0.735085
#
# Coordination Sequence:
#
# PCOD8067567 Si02
#       7
#     4   4   4   4   4   4   4
#     4   9  19  35  54  78 108 142 181 223 267 320
#     4  11  21  35  54  77 105 136 172 219 275 329
#     4   9  17  32  56  83 110 143 180 218 264 316
#     4   9  17  30  51  78 106 138 177 217 258 310
#     4  11  22  36  55  79 107 142 185 231 279 330
#     4  11  21  35  56  79 103 133 176 225 270 321
#     4  11  22  36  55  79 107 142 184 230 280 333
#
# _framework density 18.665106000000002
#
# number of rings (size 3 to 8) (size 9 to 14) (size 15 to 20)
#    0.000    1.857    1.429    4.714    0.000    3.714 
#    0.000    1.429    0.000    6.857    0.000    0.000 
#    0.000    0.000    0.000    0.000    0.000    0.000 
#
# Total GULP energy -347185.238793 kJ/mol
# GULP energy per Si atom -12399.472814 kJ/mol
# Density = 1.862262 g / cm^3
# Si number density = 18.665106 Si / 1000 Ang^3
#
#
#
# Elastic Constant Matrix: (Units=GPa)
#
#
# Indices 1 2 3 4 5 6 
#
# 1 102.3646 24.4615 46.2736 0.0000 16.0660 0.0000
# 2 24.4615 58.4227 19.6488 0.0000 -0.8212 0.0000
# 3 46.2736 19.6488 84.8099 0.0000 12.0724 0.0000
# 4 0.0000 0.0000 0.0000 23.2059 0.0000 6.5607
# 5 16.0660 -0.8212 12.0724 0.0000 26.9798 0.0000
# 6 0.0000 0.0000 0.0000 6.5607 0.0000 23.0853
#
#
#
# Elastic Compliance Matrix: (Units=1/GPa)
#
#
# Indices 1 2 3 4 5 6 
#
# 1 0.014433 -0.004084 -0.006074 0.000000 -0.006001 0.000000
# 2 -0.004084 0.019899 -0.003006 0.000000 0.004383 0.000000
# 3 -0.006074 -0.003006 0.016341 0.000000 -0.003786 0.000000
# 4 0.000000 0.000000 0.000000 0.046857 0.000000 -0.013316
# 5 -0.006001 0.004383 -0.003786 0.000000 0.042466 0.000000
# 6 0.000000 0.000000 0.000000 -0.013316 0.000000 0.047102
#
#
# Mechanical properties :
#
#
# Convention : Reuss Voigt Hill
#
# Bulk Modulus (GPa) = 41.07799 47.37392 44.22595
# Shear Modulus (GPa) = 22.56924 25.00177 23.78551
#
# Velocity S-wave (km/s) = 3.48108 3.66388 3.57365
# Velocity P-wave (km/s) = 6.18166 6.58292 6.38544
#
# Compressibility (1/GPa) = 0.02434394
#
# Stress axis : x y z
#
# Youngs Moduli (GPa) = 69.28725 50.25317 61.19746
#
# Poissons Ratio (x) = 0.20525 0.37173
# Poissons Ratio (y) = 0.28300 0.18394
# Poissons Ratio (z) = 0.42087 0.15104
#
# Static dielectric constant tensor:
#      x y z
#    x 3.384720 0.000000 0.194240 
#    y 0.000000 3.403740 0.000000 
#    z 0.194240 0.000000 3.513750 
# 
# 
# High freq. dielectric constant tensor:
#      x y z
#    x 1.716880 0.000000 0.020050 
#    y 0.000000 1.731350 0.000000 
#    z 0.020050 0.000000 1.706680 
# 
# From -- ./inp_files/86695.got.cif
#   From: 2010.06.25/outbox.cif.g09.slc.cpg/sg10_44_cif.got.tgz:86695.got - 2010.06.27 22:07:45.
