data_PCOD8067721
_publ_section_title
;
Structure prediction by ZEFSAII (Michael W. Deem and Ramdas Pophale) SiO2 
 PCOD8067721
Probable space group: P 2/M
;
_chemical_formula_sum "Si O2"
_cell_formula_units_Z 24
_cell_length_a 9.518236
_cell_length_b 19.093797
_cell_length_c 8.811807
_cell_angle_alpha 90.000000
_cell_angle_beta 130.706731
_cell_angle_gamma 90.000000
_cell_volume 1213.992554
_symmetry_space_group_name_H-M "P 2/M"
_symmetry_group_IT_number 10
_symmetry_cell_setting 'monoclinic'
loop_
_space_group_symop_operation_xyz
x,y,z
-x,y,-z
-x,-y,-z
x,-y,z
loop_
_atom_site_type_symbol
_atom_site_label
_atom_site_fract_x
_atom_site_fract_y
_atom_site_fract_z
Si Si1 0.503129 0.149507 0.331272
Si Si2 0.100120 0.863750 0.919173
Si Si3 0.797592 0.000000 0.168630
Si Si4 0.310323 0.500000 0.792397
Si Si5 0.014009 0.500000 0.190212
Si Si6 0.431627 0.000000 0.714238
Si Si7 0.839060 0.386113 0.508697
Si Si8 0.139460 0.771159 0.459899
O O1 0.500000 0.179929 0.500000
O O2 0.556389 0.067924 0.382451
O O3 0.673574 0.186817 0.365159
O O4 0.310658 0.162002 0.104651
O O5 0.093065 0.929304 0.798705
O O6 0.974692 0.800876 0.764600
O O7 0.000000 0.890590 0.000000
O O8 0.759613 0.000000 0.322816
O O9 0.603287 0.000000 0.947741
O O10 0.313455 0.430679 0.689179
O O11 0.165657 0.500000 0.828785
O O12 0.500000 0.500000 0.000000
O O13 0.118828 0.428401 0.307365
O O14 0.000000 0.500000 0.000000
O O15 0.787922 0.307515 0.522211
O O16 0.000000 0.382936 0.500000
O O17 0.000000 0.775282 0.500000
#
# Coordination Sequence:
#
# PCOD8067721 Si02
#       8
#     4   4   2   2   2   2   4   4
#     4  11  22  40  59  85 119 158 198 246 308 363
#     4  11  22  39  61  82 121 159 196 249 312 357
#     4   9  19  35  57  88 109 148 206 256 294 358
#     4   9  17  37  64  88 120 153 195 227 284 345
#     4   9  17  35  62  88 112 153 191 233 282 333
#     4   9  19  35  59  82 115 148 200 258 298 344
#     4   8  18  38  58  83 122 155 188 236 282 350
#     4  11  23  40  60  88 120 155 201 244 294 357
#
# _framework density 19.769479
#
# number of rings (size 3 to 8) (size 9 to 14) (size 15 to 20)
#    0.000    2.167    1.667    2.500    0.000    3.333 
#    9.000    3.333    0.000    0.000    0.000    0.000 
#    0.000    0.000    0.000    0.000    0.000    0.000 
#
# Total GULP energy -297371.515396 kJ/mol
# GULP energy per Si atom -12390.479808 kJ/mol
# Density = 1.972448 g / cm^3
# Si number density = 19.769479 Si / 1000 Ang^3
#
#
#
# Elastic Constant Matrix: (Units=GPa)
#
#
# Indices 1 2 3 4 5 6 
#
# 1 77.0313 28.8199 31.5139 0.0000 2.5570 0.0000
# 2 28.8199 141.9686 53.4953 0.0000 13.9345 0.0000
# 3 31.5139 53.4953 109.4436 0.0000 10.0033 0.0000
# 4 0.0000 0.0000 0.0000 20.8039 0.0000 -4.0731
# 5 2.5570 13.9345 10.0033 0.0000 38.2231 0.0000
# 6 0.0000 0.0000 0.0000 -4.0731 0.0000 17.8028
#
#
#
# Elastic Compliance Matrix: (Units=1/GPa)
#
#
# Indices 1 2 3 4 5 6 
#
# 1 0.015071 -0.001790 -0.003516 0.000000 0.000565 0.000000
# 2 -0.001790 0.009013 -0.003689 0.000000 -0.002201 0.000000
# 3 -0.003516 -0.003689 0.012098 0.000000 -0.001586 0.000000
# 4 0.000000 0.000000 0.000000 0.050322 0.000000 0.011513
# 5 0.000565 -0.002201 -0.001586 0.000000 0.027342 0.000000
# 6 0.000000 0.000000 0.000000 0.011513 0.000000 0.058805
#
#
# Mechanical properties :
#
#
# Convention : Reuss Voigt Hill
#
# Bulk Modulus (GPa) = 54.97064 61.78908 58.37986
# Shear Modulus (GPa) = 25.41865 29.67358 27.54612
#
# Velocity S-wave (km/s) = 3.58963 3.87845 3.73683
# Velocity P-wave (km/s) = 6.71169 7.16792 6.94355
#
# Compressibility (1/GPa) = 0.01819153
#
# Stress axis : x y z
#
# Youngs Moduli (GPa) = 66.35159 110.94784 82.65943
#
# Poissons Ratio (x) = 0.19858 0.29067
# Poissons Ratio (y) = 0.11876 0.30494
# Poissons Ratio (z) = 0.23332 0.40930
#
# Static dielectric constant tensor:
#      x y z
#    x 3.535850 0.000000 -0.003870 
#    y 0.000000 3.923330 0.000000 
#    z -0.003870 0.000000 3.502150 
# 
# 
# High freq. dielectric constant tensor:
#      x y z
#    x 1.766310 0.000000 -0.002830 
#    y 0.000000 1.767460 0.000000 
#    z -0.002830 0.000000 1.763580 
# 
# From -- ./inp_files/20199.got.cif
#   From: 2010.06.25/outbox.cif.g09.slc.cpg/sg10_11_cif.got.tgz:20199.got - 2010.06.27 22:07:45.
