data_PCOD8067178
_publ_section_title
;
Structure prediction by ZEFSAII (Michael W. Deem and Ramdas Pophale) SiO2 
 PCOD8067178
Probable space group: P 2/M
;
_chemical_formula_sum "Si O2"
_cell_formula_units_Z 28
_cell_length_a 9.727505
_cell_length_b 11.133272
_cell_length_c 13.874872
_cell_angle_alpha 90.000000
_cell_angle_beta 108.295947
_cell_angle_gamma 90.000000
_cell_volume 1426.672560
_symmetry_space_group_name_H-M "P 2/M"
_symmetry_group_IT_number 10
_symmetry_cell_setting 'monoclinic'
loop_
_space_group_symop_operation_xyz
x,y,z
-x,y,-z
-x,-y,-z
x,-y,z
loop_
_atom_site_type_symbol
_atom_site_label
_atom_site_fract_x
_atom_site_fract_y
_atom_site_fract_z
Si Si1 0.866637 0.859927 0.901183
Si Si2 0.404002 0.000000 0.571323
Si Si3 0.548594 0.141249 0.905242
Si Si4 0.392464 0.636178 0.389367
Si Si5 0.911354 0.000000 0.577599
Si Si6 0.899490 0.361282 0.386621
Si Si7 0.103109 0.767344 0.303694
Si Si8 0.404150 0.764278 0.694011
O O1 0.715409 0.823111 0.918836
O O2 0.891224 0.784244 0.809651
O O3 0.864607 0.000000 0.873340
O O4 0.000000 0.828880 0.000000
O O5 0.500000 0.000000 0.500000
O O6 0.248199 0.000000 0.493717
O O7 0.438029 0.115786 0.642415
O O8 0.434594 0.209391 0.812200
O O9 0.527187 0.000000 0.887944
O O10 0.500000 0.183555 0.000000
O O11 0.500000 0.660839 0.500000
O O12 0.334482 0.500000 0.374759
O O13 0.259475 0.725675 0.375125
O O14 0.480779 0.662738 0.311570
O O15 0.946972 0.113726 0.651806
O O16 0.000000 0.000000 0.500000
O O17 0.852710 0.500000 0.378793
O O18 0.757963 0.279269 0.360094
O O19 0.000000 0.327977 0.500000
O O20 0.985800 0.334119 0.306652
#
# Coordination Sequence:
#
# PCOD8067178 Si02
#       8
#     4   2   4   4   2   4   4   4
#     4  10  22  41  64  95 127 163 207 255 317 385
#     4  12  24  34  59  92 132 162 191 250 325 376
#     4  10  22  41  64  94 129 163 205 255 317 387
#     4  11  23  39  63  91 121 167 219 255 297 368
#     4  12  24  38  55  92 132 164 199 248 317 382
#     4  11  25  43  62  88 128 175 219 255 298 368
#     4  12  22  40  64  90 127 165 205 261 316 370
#     4  12  22  40  63  92 127 166 206 257 316 374
#
# _framework density 19.626087999999999
#
# number of rings (size 3 to 8) (size 9 to 14) (size 15 to 20)
#    0.000    0.857    2.857    6.000    2.000    2.286 
#    0.000    0.000    0.000    5.143    0.000    0.000 
#    0.000    0.000    0.000    0.000    0.000    0.000 
#
# Total GULP energy -347284.585284 kJ/mol
# GULP energy per Si atom -12403.020903 kJ/mol
# Density = 1.958142 g / cm^3
# Si number density = 19.626088 Si / 1000 Ang^3
#
#
#
# Elastic Constant Matrix: (Units=GPa)
#
#
# Indices 1 2 3 4 5 6 
#
# 1 145.8503 47.0813 59.6631 0.0000 -12.2477 0.0000
# 2 47.0813 79.5432 59.9195 0.0000 0.0247 0.0000
# 3 59.6631 59.9195 124.0684 0.0000 -14.9595 0.0000
# 4 0.0000 0.0000 0.0000 21.4503 0.0000 -2.2975
# 5 -12.2477 0.0247 -14.9595 0.0000 39.7304 0.0000
# 6 0.0000 0.0000 0.0000 -2.2975 0.0000 20.4428
#
#
#
# Elastic Compliance Matrix: (Units=1/GPa)
#
#
# Indices 1 2 3 4 5 6 
#
# 1 0.009177 -0.003586 -0.002451 0.000000 0.001908 0.000000
# 2 -0.003586 0.021719 -0.009323 0.000000 -0.004629 0.000000
# 3 -0.002451 -0.009323 0.014300 0.000000 0.004635 0.000000
# 4 0.000000 0.000000 0.000000 0.047187 0.000000 0.005303
# 5 0.001908 -0.004629 0.004635 0.000000 0.027506 0.000000
# 6 0.000000 0.000000 0.000000 0.005303 0.000000 0.049513
#
#
# Mechanical properties :
#
#
# Convention : Reuss Voigt Hill
#
# Bulk Modulus (GPa) = 69.08093 75.86552 72.47322
# Shear Modulus (GPa) = 24.39657 28.51122 26.45389
#
# Velocity S-wave (km/s) = 3.52954 3.81559 3.67535
# Velocity P-wave (km/s) = 7.20314 7.62568 7.41742
#
# Compressibility (1/GPa) = 0.01447578
#
# Stress axis : x y z
#
# Youngs Moduli (GPa) = 108.97019 46.04355 69.92964
#
# Poissons Ratio (x) = 0.16511 0.17140
# Poissons Ratio (y) = 0.39076 0.65194
# Poissons Ratio (z) = 0.26710 0.42926
#
# Static dielectric constant tensor:
#      x y z
#    x 3.737140 0.000000 -0.093950 
#    y 0.000000 3.560290 0.000000 
#    z -0.093950 0.000000 3.538060 
# 
# 
# High freq. dielectric constant tensor:
#      x y z
#    x 1.783560 0.000000 -0.004850 
#    y 0.000000 1.755960 0.000000 
#    z -0.004850 0.000000 1.757160 
# 
# From -- ./inp_files/61043.got.cif
#   From: 2010.06.25/outbox.cif.g09.slc.cpg/sg10_31_cif.got.tgz:61043.got - 2010.06.27 22:07:45.
