data_PCOD8067605
_publ_section_title
;
Structure prediction by ZEFSAII (Michael W. Deem and Ramdas Pophale) SiO2 
 PCOD8067605
Probable space group: P 2/M
;
_chemical_formula_sum "Si O2"
_cell_formula_units_Z 28
_cell_length_a 9.916814
_cell_length_b 20.186240
_cell_length_c 12.153295
_cell_angle_alpha 90.000000
_cell_angle_beta 142.182223
_cell_angle_gamma 90.000000
_cell_volume 1491.728952
_symmetry_space_group_name_H-M "P 2/M"
_symmetry_group_IT_number 10
_symmetry_cell_setting 'monoclinic'
loop_
_space_group_symop_operation_xyz
x,y,z
-x,y,-z
-x,-y,-z
x,-y,z
loop_
_atom_site_type_symbol
_atom_site_label
_atom_site_fract_x
_atom_site_fract_y
_atom_site_fract_z
Si Si1 0.164019 0.251048 0.502384
Si Si2 0.024345 0.347413 0.798439
Si Si3 0.319244 0.425748 0.290758
Si Si4 0.552351 0.000000 0.212774
Si Si5 0.529707 0.656651 0.812877
Si Si6 0.145003 0.000000 0.805523
Si Si7 0.815679 0.424280 0.292814
Si Si8 0.150848 0.899361 0.490867
O O1 0.401770 0.279260 0.687081
O O2 0.199457 0.175663 0.487245
O O3 0.000000 0.258105 0.500000
O O4 0.079376 0.289748 0.341273
O O5 0.084817 0.410916 0.762985
O O6 0.870628 0.374698 0.796435
O O7 0.240524 0.316501 0.993123
O O8 0.500000 0.429188 0.500000
O O9 0.226419 0.500000 0.208490
O O10 0.437429 0.398759 0.258731
O O11 0.689641 0.000000 0.189592
O O12 0.619304 0.064081 0.329737
O O13 0.291284 0.000000 0.012583
O O14 0.395746 0.621366 0.824408
O O15 0.983744 0.064128 0.694249
O O16 0.744586 0.500000 0.257264
O O17 0.000000 0.404266 0.500000
O O18 0.000000 0.901318 0.500000
#
# Coordination Sequence:
#
# PCOD8067605 Si02
#       8
#     4   4   4   2   4   2   4   4
#     4  11  21  37  51  76 113 148 185 219 265 324
#     4  12  23  37  56  78 105 138 179 226 275 330
#     4  11  23  41  61  78 101 135 178 234 291 333
#     4   8  13  25  44  71 101 136 181 218 252 298
#     4  12  23  37  56  78 105 138 179 226 275 330
#     4   8  13  25  44  71 101 136 181 218 252 298
#     4  11  21  37  57  76 103 137 174 222 277 329
#     4   8  16  27  45  68 103 144 177 217 256 300
#
# _framework density 18.770164999999999
#
# number of rings (size 3 to 8) (size 9 to 14) (size 15 to 20)
#    0.000    1.571    4.286    2.571    0.000    6.857 
#    0.000    2.857    0.000    0.000    0.000    0.000 
#    0.000    9.143    0.000   16.000    0.000    4.000 
#
# Total GULP energy -347164.053405 kJ/mol
# GULP energy per Si atom -12398.716193 kJ/mol
# Density = 1.872744 g / cm^3
# Si number density = 18.770165 Si / 1000 Ang^3
#
#
#
# Elastic Constant Matrix: (Units=GPa)
#
#
# Indices 1 2 3 4 5 6 
#
# 1 47.5138 24.3662 9.6019 0.0000 3.0244 0.0000
# 2 24.3662 145.2508 60.4837 0.0000 10.1706 0.0000
# 3 9.6019 60.4837 139.7313 0.0000 13.4165 0.0000
# 4 0.0000 0.0000 0.0000 -0.2374 0.0000 8.4595
# 5 3.0244 10.1706 13.4165 0.0000 21.6479 0.0000
# 6 0.0000 0.0000 0.0000 8.4595 0.0000 14.0942
#
#
#
# Elastic Compliance Matrix: (Units=1/GPa)
#
#
# Indices 1 2 3 4 5 6 
#
# 1 0.023078 -0.003860 0.000234 0.000000 -0.001556 0.000000
# 2 -0.003860 0.009111 -0.003529 0.000000 -0.001554 0.000000
# 3 0.000234 -0.003529 0.009051 0.000000 -0.003984 0.000000
# 4 0.000000 0.000000 0.000000 -0.188151 0.000000 0.112930
# 5 -0.001556 -0.001554 -0.003984 0.000000 0.049610 0.000000
# 6 0.000000 0.000000 0.000000 0.112930 0.000000 0.003170
#
#
# Mechanical properties :
#
#
# Convention : Reuss Voigt Hill
#
# Bulk Modulus (GPa) = 37.13419 57.93328 47.53373
# Shear Modulus (GPa) = -70.57510 22.97054 -23.80228
#
# Velocity S-wave (km/s) = -6.13850 3.50205 -3.56489
# Velocity P-wave (km/s) = 5.51499 6.87634 2.90422
#
# Compressibility (1/GPa) = 0.02692936
#
# Stress axis : x y z
#
# Youngs Moduli (GPa) = 43.33191 109.76317 110.48988
#
# Poissons Ratio (x) = 0.42369 -0.02590
# Poissons Ratio (y) = 0.16726 0.38993
# Poissons Ratio (z) = -0.01016 0.38737
#
# Static dielectric constant tensor:
#      x y z
#    x 2.674560 0.000000 0.141520 
#    y 0.000000 3.550440 0.000000 
#    z 0.141520 0.000000 3.658670 
# 
# 
# High freq. dielectric constant tensor:
#      x y z
#    x 1.692100 0.000000 0.000790 
#    y 0.000000 1.716610 0.000000 
#    z 0.000790 0.000000 1.744440 
# 
# From -- ./inp_files/43671.got.cif
#   From: 2010.06.25/outbox.cif.g09.slc.cpg/sg10_22_cif.got.tgz:43671.got - 2010.06.27 22:07:45.
