data_PCOD8067723
_publ_section_title
;
Structure prediction by ZEFSAII (Michael W. Deem and Ramdas Pophale) SiO2 
 PCOD8067723
Probable space group: P 2/M
;
_chemical_formula_sum "Si O2"
_cell_formula_units_Z 28
_cell_length_a 9.058851
_cell_length_b 19.705459
_cell_length_c 15.277185
_cell_angle_alpha 90.000000
_cell_angle_beta 149.929949
_cell_angle_gamma 90.000000
_cell_volume 1366.442613
_symmetry_space_group_name_H-M "P 2/M"
_symmetry_group_IT_number 10
_symmetry_cell_setting 'monoclinic'
loop_
_space_group_symop_operation_xyz
x,y,z
-x,y,-z
-x,-y,-z
x,-y,z
loop_
_atom_site_type_symbol
_atom_site_label
_atom_site_fract_x
_atom_site_fract_y
_atom_site_fract_z
Si Si1 0.827551 0.856565 0.328904
Si Si2 0.863763 0.000000 0.097967
Si Si3 0.176315 0.000000 0.729245
Si Si4 0.184561 0.198587 0.352883
Si Si5 0.824226 0.577982 0.166960
Si Si6 0.812129 0.421945 0.819704
Si Si7 0.129247 0.853436 0.971654
Si Si8 0.323691 0.651821 0.489959
O O1 0.899683 0.936092 0.369542
O O2 0.000000 0.822768 0.500000
O O3 0.959379 0.834609 0.304177
O O4 0.480416 0.841090 0.153870
O O5 0.964554 0.068963 0.100279
O O6 0.994073 0.000000 0.264059
O O7 0.517095 0.000000 0.927130
O O8 0.500000 0.160098 0.500000
O O9 0.275997 0.269722 0.444029
O O10 0.013650 0.199022 0.172004
O O11 0.810296 0.500000 0.186817
O O12 0.968246 0.591459 0.147462
O O13 0.006303 0.616495 0.336306
O O14 0.500000 0.610127 0.000000
O O15 0.698186 0.500000 0.761827
O O16 0.534437 0.368914 0.679394
O O17 0.000000 0.404081 0.000000
O O18 0.000000 0.835473 0.000000
O O19 0.500000 0.616375 0.500000
#
# Coordination Sequence:
#
# PCOD8067723 Si02
#       8
#     4   2   2   4   4   4   4   4
#     4  11  22  39  61  86 117 154 196 243 298 353
#     4   9  17  34  60  91 114 146 186 241 310 361
#     4   9  17  34  60  87 116 148 188 241 300 359
#     4  11  23  40  57  81 116 155 204 243 288 350
#     4   9  17  31  53  82 113 144 183 229 278 333
#     4   9  17  33  59  88 115 146 186 234 290 342
#     4  11  22  39  63  87 117 151 192 248 304 361
#     4   9  19  36  56  79 110 153 193 233 276 340
#
# _framework density 20.491163
#
# number of rings (size 3 to 8) (size 9 to 14) (size 15 to 20)
#    0.000    2.143    1.429    2.143    0.000    2.857 
#    0.000   15.714    0.000    3.429    0.000    0.000 
#    0.000    0.000    0.000    0.000    0.000    0.000 
#
# Total GULP energy -346895.967345 kJ/mol
# GULP energy per Si atom -12389.141691 kJ/mol
# Density = 2.044452 g / cm^3
# Si number density = 20.491163 Si / 1000 Ang^3
#
#
#
# Elastic Constant Matrix: (Units=GPa)
#
#
# Indices 1 2 3 4 5 6 
#
# 1 105.3898 19.4849 58.6688 0.0000 5.8938 0.0000
# 2 19.4849 73.4907 52.0674 0.0000 4.2374 0.0000
# 3 58.6688 52.0674 161.3036 0.0000 4.5855 0.0000
# 4 0.0000 0.0000 0.0000 119.0694 0.0000 -0.9515
# 5 5.8938 4.2374 4.5855 0.0000 38.8440 0.0000
# 6 0.0000 0.0000 0.0000 -0.9515 0.0000 14.1684
#
#
#
# Elastic Compliance Matrix: (Units=1/GPa)
#
#
# Indices 1 2 3 4 5 6 
#
# 1 0.011963 -0.000052 -0.004297 0.000000 -0.001302 0.000000
# 2 -0.000052 0.017703 -0.005660 0.000000 -0.001255 0.000000
# 3 -0.004297 -0.005660 0.009586 0.000000 0.000138 0.000000
# 4 0.000000 0.000000 0.000000 0.008403 0.000000 0.000564
# 5 -0.001302 -0.001255 0.000138 0.000000 0.026062 0.000000
# 6 0.000000 0.000000 0.000000 0.000564 0.000000 0.070617
#
#
# Mechanical properties :
#
#
# Convention : Reuss Voigt Hill
#
# Bulk Modulus (GPa) = 51.99281 66.73626 59.36454
# Shear Modulus (GPa) = 29.28005 48.41390 38.84698
#
# Velocity S-wave (km/s) = 3.78420 4.86601 4.35879
# Velocity P-wave (km/s) = 6.67247 8.01310 7.37332
#
# Compressibility (1/GPa) = 0.01923343
#
# Stress axis : x y z
#
# Youngs Moduli (GPa) = 83.58863 56.48669 104.32362
#
# Poissons Ratio (x) = 0.00294 0.44832
# Poissons Ratio (y) = 0.00436 0.59045
# Poissons Ratio (z) = 0.35922 0.31970
#
# Static dielectric constant tensor:
#      x y z
#    x 3.657650 0.000000 0.169640 
#    y 0.000000 3.645510 0.000000 
#    z 0.169640 0.000000 4.029410 
# 
# 
# High freq. dielectric constant tensor:
#      x y z
#    x 1.784720 0.000000 0.001860 
#    y 0.000000 1.782040 0.000000 
#    z 0.001860 0.000000 1.813070 
# 
# From -- ./inp_files/30455.got.cif
#   From: 2010.06.25/outbox.cif.g09.slc.cpg/sg10_16_cif.got.tgz:30455.got - 2010.06.27 22:07:45.
