data_PCOD8067083
_publ_section_title
;
Structure prediction by ZEFSAII (Michael W. Deem and Ramdas Pophale) SiO2 
 PCOD8067083
Probable space group: P 2/M
;
_chemical_formula_sum "Si O2"
_cell_formula_units_Z 28
_cell_length_a 29.390929
_cell_length_b 8.852884
_cell_length_c 9.292297
_cell_angle_alpha 90.000000
_cell_angle_beta 37.839917
_cell_angle_gamma 90.000000
_cell_volume 1483.220003
_symmetry_space_group_name_H-M "P 2/M"
_symmetry_group_IT_number 10
_symmetry_cell_setting 'monoclinic'
loop_
_space_group_symop_operation_xyz
x,y,z
-x,y,-z
-x,-y,-z
x,-y,z
loop_
_atom_site_type_symbol
_atom_site_label
_atom_site_fract_x
_atom_site_fract_y
_atom_site_fract_z
Si Si1 0.566027 0.677911 0.242594
Si Si2 0.858703 0.175866 0.701927
Si Si3 0.997406 0.175401 0.839613
Si Si4 0.731970 0.677137 0.840092
Si Si5 0.568090 0.319855 0.919143
Si Si6 0.132404 0.321277 0.011545
Si Si7 0.268927 0.320755 0.485187
O O1 0.500000 0.753165 0.500000
O O2 0.553962 0.500000 0.264004
O O3 0.647698 0.712237 0.101125
O O4 0.559061 0.745763 0.101153
O O5 0.782698 0.233951 0.824365
O O6 0.876036 0.254673 0.809200
O O7 0.923559 0.213046 0.427511
O O8 0.852098 0.000000 0.749421
O O9 0.937089 0.276583 0.911421
O O10 0.976316 0.000000 0.873510
O O11 0.000000 0.221899 0.000000
O O12 0.749712 0.500000 0.807070
O O13 0.744551 0.736186 0.645052
O O14 0.563700 0.500000 0.927843
O O15 0.649862 0.269045 0.658928
O O16 0.500000 0.248761 0.000000
O O17 0.136061 0.500000 0.015776
O O18 0.206460 0.256568 0.748606
O O19 0.265867 0.500000 0.487429
#
# Coordination Sequence:
#
# PCOD8067083 Si02
#       7
#     4   4   4   4   4   4   4
#     4   8  14  24  41  69 101 130 161 201 249 296
#     4  11  23  37  53  75 104 134 166 207 253 301
#     4  10  22  40  59  77 100 133 170 206 248 301
#     4   9  17  32  53  75 102 134 170 211 251 297
#     4   8  13  22  38  62  96 133 162 193 239 294
#     4  11  22  35  54  79 106 134 166 208 254 298
#     4   8  16  30  47  72 103 132 165 206 250 294
#
# _framework density 18.877846000000002
#
# number of rings (size 3 to 8) (size 9 to 14) (size 15 to 20)
#    0.000    2.714    0.000    3.857    0.000    4.286 
#    0.000    5.000    0.000    0.429    0.000    0.000 
#    0.000    6.857    0.000    0.000    0.000    0.000 
#
# Total GULP energy -347077.467280 kJ/mol
# GULP energy per Si atom -12395.623831 kJ/mol
# Density = 1.883488 g / cm^3
# Si number density = 18.877846 Si / 1000 Ang^3
#
#
#
# Elastic Constant Matrix: (Units=GPa)
#
#
# Indices 1 2 3 4 5 6 
#
# 1 141.2321 36.7587 63.2573 0.0000 -8.3218 0.0000
# 2 36.7587 41.2606 37.1835 0.0000 -1.8392 0.0000
# 3 63.2573 37.1835 138.3577 0.0000 -1.3440 0.0000
# 4 0.0000 0.0000 0.0000 9.2220 0.0000 9.1186
# 5 -8.3218 -1.8392 -1.3440 0.0000 31.4314 0.0000
# 6 0.0000 0.0000 0.0000 9.1186 0.0000 12.7743
#
#
#
# Elastic Compliance Matrix: (Units=1/GPa)
#
#
# Indices 1 2 3 4 5 6 
#
# 1 0.010167 -0.006321 -0.002928 0.000000 0.002197 0.000000
# 2 -0.006321 0.035983 -0.006779 0.000000 0.000142 0.000000
# 3 -0.002928 -0.006779 0.010381 0.000000 -0.000728 0.000000
# 4 0.000000 0.000000 0.000000 0.368614 0.000000 -0.263127
# 5 0.002197 0.000142 -0.000728 0.000000 0.032374 0.000000
# 6 0.000000 0.000000 0.000000 -0.263127 0.000000 0.266109
#
#
# Mechanical properties :
#
#
# Convention : Reuss Voigt Hill
#
# Bulk Modulus (GPa) = 40.85845 66.13883 53.49864
# Shear Modulus (GPa) = 6.54585 22.92891 14.73738
#
# Velocity S-wave (km/s) = 1.86414 3.48888 2.79708
# Velocity P-wave (km/s) = 5.13068 7.16526 6.23157
#
# Compressibility (1/GPa) = 0.02447474
#
# Stress axis : x y z
#
# Youngs Moduli (GPa) = 98.36174 27.79105 96.32750
#
# Poissons Ratio (x) = 0.17565 0.28206
# Poissons Ratio (y) = 0.62170 0.65303
# Poissons Ratio (z) = 0.28802 0.18840
#
# Static dielectric constant tensor:
#      x y z
#    x 3.559800 0.000000 -0.037710 
#    y 0.000000 2.990640 0.000000 
#    z -0.037710 0.000000 3.947450 
# 
# 
# High freq. dielectric constant tensor:
#      x y z
#    x 1.740080 0.000000 -0.007130 
#    y 0.000000 1.684750 0.000000 
#    z -0.007130 0.000000 1.748010 
# 
# From -- ./inp_files/37084.got.cif
#   From: 2010.06.25/outbox.cif.g09.slc.cpg/sg10_19_cif.got.tgz:37084.got - 2010.06.27 22:07:45.
