data_PCOD8067331
_publ_section_title
;
Structure prediction by ZEFSAII (Michael W. Deem and Ramdas Pophale) SiO2 
 PCOD8067331
Probable space group: P 2/M
;
_chemical_formula_sum "Si O2"
_cell_formula_units_Z 18
_cell_length_a 8.808826
_cell_length_b 20.620223
_cell_length_c 4.824011
_cell_angle_alpha 90.000000
_cell_angle_beta 123.518483
_cell_angle_gamma 90.000000
_cell_volume 730.522349
_symmetry_space_group_name_H-M "P 2/M"
_symmetry_group_IT_number 10
_symmetry_cell_setting 'monoclinic'
loop_
_space_group_symop_operation_xyz
x,y,z
-x,y,-z
-x,-y,-z
x,-y,z
loop_
_atom_site_type_symbol
_atom_site_label
_atom_site_fract_x
_atom_site_fract_y
_atom_site_fract_z
Si Si1 0.500000 0.745322 0.500000
Si Si2 0.708406 0.073531 0.296731
Si Si3 0.649850 0.378457 0.453113
Si Si4 0.195235 0.845194 0.094645
Si Si5 0.158769 0.424061 0.856414
O O1 0.400635 0.698147 0.624454
O O2 0.341372 0.787782 0.200085
O O3 0.724916 0.100545 0.621365
O O4 0.780418 0.000000 0.360853
O O5 0.500000 0.078087 0.000000
O O6 0.832104 0.118374 0.223903
O O7 0.500000 0.415082 0.500000
O O8 0.662983 0.406991 0.154781
O O9 0.832091 0.391091 0.828238
O O10 0.000000 0.817706 0.000000
O O11 0.132538 0.500000 0.874610
O O12 0.000000 0.394562 0.500000
#
# Coordination Sequence:
#
# PCOD8067331 Si02
#       5
#     2   4   4   4   4
#     4  10  26  48  64  96 136 170 232 274 308 394
#     4  11  23  43  70 100 135 172 213 275 337 391
#     4  10  24  41  66  90 127 174 208 267 320 378
#     4  12  25  43  71  96 132 178 218 272 329 388
#     4  11  23  41  66  99 131 162 212 272 329 392
#
# _framework density 24.639901999999999
#
# number of rings (size 3 to 8) (size 9 to 14) (size 15 to 20)
#    0.667    0.444    2.222    3.333    0.000   14.222 
#    0.000    0.000    0.000    0.000    0.000    0.000 
#    0.000    0.000    0.000    0.000    0.000    0.000 
#
# Total GULP energy -223102.760166 kJ/mol
# GULP energy per Si atom -12394.597787 kJ/mol
# Density = 2.458382 g / cm^3
# Si number density = 24.639902 Si / 1000 Ang^3
#
#
#
# Elastic Constant Matrix: (Units=GPa)
#
#
# Indices 1 2 3 4 5 6 
#
# 1 56.5083 25.3438 13.2657 0.0000 -7.0118 0.0000
# 2 25.3438 118.4436 33.3674 0.0000 3.5929 0.0000
# 3 13.2657 33.3674 88.0055 0.0000 -15.8242 0.0000
# 4 0.0000 0.0000 0.0000 25.2738 0.0000 21.7971
# 5 -7.0118 3.5929 -15.8242 0.0000 55.9084 0.0000
# 6 0.0000 0.0000 0.0000 21.7971 0.0000 8.3873
#
#
#
# Elastic Compliance Matrix: (Units=1/GPa)
#
#
# Indices 1 2 3 4 5 6 
#
# 1 0.020078 -0.004081 -0.001032 0.000000 0.002488 0.000000
# 2 -0.004081 0.010439 -0.003746 0.000000 -0.002243 0.000000
# 3 -0.001032 -0.003746 0.013654 0.000000 0.003976 0.000000
# 4 0.000000 0.000000 0.000000 -0.031875 0.000000 0.082837
# 5 0.002488 -0.002243 0.003976 0.000000 0.019468 0.000000
# 6 0.000000 0.000000 0.000000 0.082837 0.000000 -0.096050
#
#
# Mechanical properties :
#
#
# Convention : Reuss Voigt Hill
#
# Bulk Modulus (GPa) = 37.80285 45.21235 41.50760
# Shear Modulus (GPa) = -132.44822 30.64595 -50.90113
#
# Velocity S-wave (km/s) = -7.33963 3.53051 -4.55004
# Velocity P-wave (km/s) = 7.51343 5.91679 3.27438
#
# Compressibility (1/GPa) = 0.02645303
#
# Stress axis : x y z
#
# Youngs Moduli (GPa) = 49.80630 95.79008 73.23980
#
# Poissons Ratio (x) = 0.39091 0.07556
# Poissons Ratio (y) = 0.20326 0.27438
# Poissons Ratio (z) = 0.05139 0.35886
#
# Static dielectric constant tensor:
#      x y z
#    x 4.656250 0.000000 0.095760 
#    y 0.000000 4.109070 0.000000 
#    z 0.095760 0.000000 4.764780 
# 
# 
# High freq. dielectric constant tensor:
#      x y z
#    x 1.995220 0.000000 0.009320 
#    y 0.000000 1.948960 0.000000 
#    z 0.009320 0.000000 1.999390 
# 
# From -- ./inp_files/4891.got.cif
#   From: 2010.06.25/outbox.cif.g09.slc.cpg/sg10_3_cif.got.tgz:4891.got - 2010.06.27 22:07:45.
