data_PCOD8067360
_publ_section_title
;
Structure prediction by ZEFSAII (Michael W. Deem and Ramdas Pophale) SiO2 
 PCOD8067360
Probable space group: P 2/M
;
_chemical_formula_sum "Si O2"
_cell_formula_units_Z 24
_cell_length_a 14.222105
_cell_length_b 11.499242
_cell_length_c 14.683408
_cell_angle_alpha 90.000000
_cell_angle_beta 150.581339
_cell_angle_gamma 90.000000
_cell_volume 1179.525265
_symmetry_space_group_name_H-M "P 2/M"
_symmetry_group_IT_number 10
_symmetry_cell_setting 'monoclinic'
loop_
_space_group_symop_operation_xyz
x,y,z
-x,y,-z
-x,-y,-z
x,-y,z
loop_
_atom_site_type_symbol
_atom_site_label
_atom_site_fract_x
_atom_site_fract_y
_atom_site_fract_z
Si Si1 0.871840 0.863786 0.803767
Si Si2 0.541981 0.500000 0.401314
Si Si3 0.484414 0.257194 0.091180
Si Si4 0.896200 0.271390 0.506252
Si Si5 0.632524 0.500000 0.945421
Si Si6 0.934418 0.500000 0.657030
Si Si7 0.112777 0.135263 0.832910
Si Si8 0.500000 0.703114 0.500000
O O1 0.682605 0.786148 0.646013
O O2 0.994148 0.821601 0.820158
O O3 0.814692 0.000000 0.748412
O O4 0.000000 0.840201 0.000000
O O5 0.469444 0.500000 0.237426
O O6 0.773525 0.500000 0.599635
O O7 0.469773 0.618279 0.388017
O O8 0.680045 0.230719 0.308499
O O9 0.433461 0.392626 0.049020
O O10 0.500000 0.214488 0.000000
O O11 0.322398 0.190725 0.010824
O O12 0.906878 0.387734 0.572530
O O13 0.000000 0.297928 0.500000
O O14 0.001419 0.167383 0.647007
O O15 0.860140 0.500000 0.121301
O O16 0.144522 0.000000 0.863907
#
# Coordination Sequence:
#
# PCOD8067360 Si02
#       8
#     4   2   4   4   2   2   4   2
#     4  10  24  45  71  97 125 170 224 274 324 381
#     4  11  26  40  60 103 126 172 210 259 338 407
#     4  12  24  43  67  99 133 175 221 268 323 382
#     4  12  23  41  65  97 133 177 218 268 324 384
#     4  12  24  40  70  93 133 171 223 265 323 392
#     4  12  22  40  66  94 131 169 220 271 321 383
#     4  11  26  44  66  99 132 174 225 267 326 393
#     4  11  25  42  66  94 139 159 214 270 332 399
#
# _framework density 20.347169000000001
#
# number of rings (size 3 to 8) (size 9 to 14) (size 15 to 20)
#    0.000    0.667    5.000    1.750    2.333    1.333 
#    0.000    5.000    0.000    0.000    0.000    0.000 
#    0.000    0.000    0.000    0.000    0.000    0.000 
#
# Total GULP energy -297716.001616 kJ/mol
# GULP energy per Si atom -12404.833401 kJ/mol
# Density = 2.030086 g / cm^3
# Si number density = 20.347169 Si / 1000 Ang^3
#
#
#
# Elastic Constant Matrix: (Units=GPa)
#
#
# Indices 1 2 3 4 5 6 
#
# 1 110.7262 47.3274 22.0334 0.0000 23.5762 0.0000
# 2 47.3274 84.0960 31.7546 0.0000 17.9056 0.0000
# 3 22.0334 31.7546 114.6045 0.0000 32.6708 0.0000
# 4 0.0000 0.0000 0.0000 25.5187 0.0000 -3.2226
# 5 23.5762 17.9056 32.6708 0.0000 40.1502 0.0000
# 6 0.0000 0.0000 0.0000 -3.2226 0.0000 39.9345
#
#
#
# Elastic Compliance Matrix: (Units=1/GPa)
#
#
# Indices 1 2 3 4 5 6 
#
# 1 0.012703 -0.006330 0.000825 0.000000 -0.005307 0.000000
# 2 -0.006330 0.016899 -0.003094 0.000000 -0.001301 0.000000
# 3 0.000825 -0.003094 0.011939 0.000000 -0.008819 0.000000
# 4 0.000000 0.000000 0.000000 0.039590 0.000000 0.003195
# 5 -0.005307 -0.001301 -0.008819 0.000000 0.035779 0.000000
# 6 0.000000 0.000000 0.000000 0.003195 0.000000 0.025299
#
#
# Mechanical properties :
#
#
# Convention : Reuss Voigt Hill
#
# Bulk Modulus (GPa) = 41.08355 56.85082 48.96719
# Shear Modulus (GPa) = 29.84667 35.00810 32.42738
#
# Velocity S-wave (km/s) = 3.83413 4.15244 3.99645
# Velocity P-wave (km/s) = 6.31157 7.14083 6.73896
#
# Compressibility (1/GPa) = 0.02434064
#
# Stress axis : x y z
#
# Youngs Moduli (GPa) = 78.72182 59.17405 83.76246
#
# Poissons Ratio (x) = 0.37459 -0.06908
# Poissons Ratio (y) = 0.49834 0.25920
# Poissons Ratio (z) = -0.06492 0.18311
#
# Static dielectric constant tensor:
#      x y z
#    x 3.978600 0.000000 0.189900 
#    y 0.000000 3.656650 0.000000 
#    z 0.189900 0.000000 3.894580 
# 
# 
# High freq. dielectric constant tensor:
#      x y z
#    x 1.809600 0.000000 0.008820 
#    y 0.000000 1.798860 0.000000 
#    z 0.008820 0.000000 1.803790 
# 
# From -- ./inp_files/67447.got.cif
#   From: 2010.06.25/outbox.cif.g09.slc.cpg/sg10_34_cif.got.tgz:67447.got - 2010.06.27 22:07:45.
