data_PCOD8067322
_publ_section_title
;
Structure prediction by ZEFSAII (Michael W. Deem and Ramdas Pophale) SiO2 
 PCOD8067322
Probable space group: P 2/M
;
_chemical_formula_sum "Si O2"
_cell_formula_units_Z 28
_cell_length_a 19.200150
_cell_length_b 8.758823
_cell_length_c 14.295660
_cell_angle_alpha 90.000000
_cell_angle_beta 146.904670
_cell_angle_gamma 90.000000
_cell_volume 1312.725777
_symmetry_space_group_name_H-M "P 2/M"
_symmetry_group_IT_number 10
_symmetry_cell_setting 'monoclinic'
loop_
_space_group_symop_operation_xyz
x,y,z
-x,y,-z
-x,-y,-z
x,-y,z
loop_
_atom_site_type_symbol
_atom_site_label
_atom_site_fract_x
_atom_site_fract_y
_atom_site_fract_z
Si Si1 0.798471 0.179843 0.514691
Si Si2 0.482221 0.179921 0.374744
Si Si3 0.267193 0.679986 0.374497
Si Si4 0.890697 0.824095 0.953403
Si Si5 0.324826 0.677642 0.050771
Si Si6 0.476280 0.178503 0.865962
Si Si7 0.048477 0.323330 0.782429
O O1 0.821024 0.258924 0.640865
O O2 0.667405 0.235928 0.318967
O O3 0.926077 0.232113 0.601883
O O4 0.799348 0.000000 0.528782
O O5 0.500000 0.238429 0.500000
O O6 0.591422 0.264617 0.437100
O O7 0.498535 0.000000 0.384655
O O8 0.351664 0.233828 0.179142
O O9 0.254992 0.500000 0.351186
O O10 0.235863 0.759566 0.239868
O O11 0.867992 0.000000 0.955847
O O12 0.921008 0.726425 0.077915
O O13 0.000000 0.803320 0.000000
O O14 0.351722 0.500000 0.096554
O O15 0.174610 0.707234 0.860513
O O16 0.413326 0.737546 0.067166
O O17 0.488685 0.000000 0.857792
O O18 0.500000 0.217185 0.000000
O O19 0.012411 0.500000 0.741727
#
# Coordination Sequence:
#
# PCOD8067322 Si02
#       7
#     4   4   4   4   4   4   4
#     4  11  22  39  64  92 122 159 206 256 312 377
#     4  11  23  38  58  85 122 168 215 261 311 370
#     4  12  23  35  56  84 120 162 209 261 312 365
#     4  11  22  35  54  82 120 168 220 264 308 366
#     4  11  24  41  63  94 129 167 210 262 322 383
#     4  10  23  45  73 100 125 159 208 266 326 389
#     4  11  24  40  60  90 129 170 213 259 316 377
#
# _framework density 21.329664000000001
#
# number of rings (size 3 to 8) (size 9 to 14) (size 15 to 20)
#    0.000    1.000    2.857    4.286    0.000    7.143 
#    0.000    0.714    0.000    4.286    0.000    0.000 
#    0.000    0.000    0.000    0.000    0.000    0.000 
#
# Total GULP energy -347192.769958 kJ/mol
# GULP energy per Si atom -12399.741784 kJ/mol
# Density = 2.128112 g / cm^3
# Si number density = 21.329664 Si / 1000 Ang^3
#
#
#
# Elastic Constant Matrix: (Units=GPa)
#
#
# Indices 1 2 3 4 5 6 
#
# 1 85.2017 38.1085 55.1403 0.0000 14.7916 0.0000
# 2 38.1085 71.4349 28.6399 0.0000 8.8958 0.0000
# 3 55.1403 28.6399 111.9345 0.0000 20.1492 0.0000
# 4 0.0000 0.0000 0.0000 28.8401 0.0000 9.5885
# 5 14.7916 8.8958 20.1492 0.0000 35.0942 0.0000
# 6 0.0000 0.0000 0.0000 9.5885 0.0000 24.6820
#
#
#
# Elastic Compliance Matrix: (Units=1/GPa)
#
#
# Indices 1 2 3 4 5 6 
#
# 1 0.020547 -0.007559 -0.007777 0.000000 -0.002279 0.000000
# 2 -0.007559 0.018489 -0.000822 0.000000 -0.001029 0.000000
# 3 -0.007777 -0.000822 0.013771 0.000000 -0.004420 0.000000
# 4 0.000000 0.000000 0.000000 0.039817 0.000000 -0.015468
# 5 -0.002279 -0.001029 -0.004420 0.000000 0.032254 0.000000
# 6 0.000000 0.000000 0.000000 -0.015468 0.000000 0.046524
#
#
# Mechanical properties :
#
#
# Convention : Reuss Voigt Hill
#
# Bulk Modulus (GPa) = 48.80380 56.92761 52.86571
# Shear Modulus (GPa) = 23.74758 27.50208 25.62483
#
# Velocity S-wave (km/s) = 3.34032 3.59469 3.46984
# Velocity P-wave (km/s) = 6.14877 6.63147 6.39468
#
# Compressibility (1/GPa) = 0.02049021
#
# Stress axis : x y z
#
# Youngs Moduli (GPa) = 48.66950 54.08630 72.61698
#
# Poissons Ratio (x) = 0.40885 0.56476
# Poissons Ratio (y) = 0.36791 0.05967
# Poissons Ratio (z) = 0.37852 0.04444
#
# Static dielectric constant tensor:
#      x y z
#    x 3.828730 0.000000 0.382930 
#    y 0.000000 3.752460 0.000000 
#    z 0.382930 0.000000 4.082380 
# 
# 
# High freq. dielectric constant tensor:
#      x y z
#    x 1.824930 0.000000 0.032300 
#    y 0.000000 1.838180 0.000000 
#    z 0.032300 0.000000 1.839360 
# 
# From -- ./inp_files/70286.got.cif
#   From: 2010.06.25/outbox.cif.g09.slc.cpg/sg10_36_cif.got.tgz:70286.got - 2010.06.27 22:07:45.
