data_PCOD8067010
_publ_section_title
;
Structure prediction by ZEFSAII (Michael W. Deem and Ramdas Pophale) SiO2 
 PCOD8067010
Probable space group: P 2/M
;
_chemical_formula_sum "Si O2"
_cell_formula_units_Z 24
_cell_length_a 8.754203
_cell_length_b 17.777349
_cell_length_c 15.318714
_cell_angle_alpha 90.000000
_cell_angle_beta 152.809557
_cell_angle_gamma 90.000000
_cell_volume 1089.366932
_symmetry_space_group_name_H-M "P 2/M"
_symmetry_group_IT_number 10
_symmetry_cell_setting 'monoclinic'
loop_
_space_group_symop_operation_xyz
x,y,z
-x,y,-z
-x,-y,-z
x,-y,z
loop_
_atom_site_type_symbol
_atom_site_label
_atom_site_fract_x
_atom_site_fract_y
_atom_site_fract_z
Si Si1 0.256325 0.416978 0.708891
Si Si2 0.080856 0.083628 0.944010
Si Si3 0.759070 0.139740 0.305674
Si Si4 0.900543 0.191003 0.201647
Si Si5 0.394881 0.713933 0.199410
Si Si6 0.252247 0.332742 0.441857
O O1 0.406476 0.500000 0.804826
O O2 0.553668 0.359839 0.835217
O O3 0.000000 0.421542 0.500000
O O4 0.047871 0.388510 0.686386
O O5 0.957939 0.142362 0.808018
O O6 0.930100 0.000000 0.851735
O O7 0.481167 0.078080 0.141612
O O8 0.000000 0.114214 0.000000
O O9 0.989849 0.150552 0.338002
O O10 0.589240 0.218039 0.250902
O O11 0.000000 0.104829 0.500000
O O12 0.097932 0.268449 0.300977
O O13 0.500000 0.203241 0.000000
O O14 0.556392 0.700566 0.376379
O O15 0.000000 0.730945 0.000000
O O16 0.500000 0.375314 0.500000
#
# Coordination Sequence:
#
# PCOD8067010 Si02
#       6
#     4   4   4   4   4   4
#     4   9  19  40  63  87 128 171 209 259 319 377
#     4  10  24  43  63  92 128 166 208 263 324 384
#     4  11  20  38  64  93 126 163 212 264 313 380
#     4  10  22  38  64  90 125 168 209 263 310 377
#     4  11  22  38  63  95 127 166 217 263 318 376
#     4  11  23  36  60  98 128 166 215 263 310 378
#
# _framework density 22.031143
#
# number of rings (size 3 to 8) (size 9 to 14) (size 15 to 20)
#    0.000    1.667    3.333    1.000    7.000    4.000 
#    0.000    0.000    0.000    6.000    0.000    0.000 
#    0.000    0.667    0.000    0.000    0.000    0.000 
#
# Total GULP energy -297434.229650 kJ/mol
# GULP energy per Si atom -12393.092902 kJ/mol
# Density = 2.198100 g / cm^3
# Si number density = 22.031143 Si / 1000 Ang^3
#
#
#
# Elastic Constant Matrix: (Units=GPa)
#
#
# Indices 1 2 3 4 5 6 
#
# 1 150.5503 45.3048 9.3059 0.0000 -15.2887 0.0000
# 2 45.3048 96.5905 15.3512 0.0000 -7.9178 0.0000
# 3 9.3059 15.3512 55.6293 0.0000 -10.8058 0.0000
# 4 0.0000 0.0000 0.0000 9.7784 0.0000 -3.4929
# 5 -15.2887 -7.9178 -10.8058 0.0000 30.1391 0.0000
# 6 0.0000 0.0000 0.0000 -3.4929 0.0000 21.4281
#
#
#
# Elastic Compliance Matrix: (Units=1/GPa)
#
#
# Indices 1 2 3 4 5 6 
#
# 1 0.008019 -0.003538 0.000263 0.000000 0.003233 0.000000
# 2 -0.003538 0.012492 -0.002759 0.000000 0.000498 0.000000
# 3 0.000263 -0.002759 0.019969 0.000000 0.006568 0.000000
# 4 0.000000 0.000000 0.000000 0.108589 0.000000 0.017700
# 5 0.003233 0.000498 0.006568 0.000000 0.037305 0.000000
# 6 0.000000 0.000000 0.000000 0.017700 0.000000 0.049553
#
#
# Mechanical properties :
#
#
# Convention : Reuss Voigt Hill
#
# Bulk Modulus (GPa) = 35.19591 49.18822 42.19206
# Shear Modulus (GPa) = 19.42007 27.78965 23.60486
#
# Velocity S-wave (km/s) = 2.97220 3.55544 3.27682
# Velocity P-wave (km/s) = 5.27151 6.26339 5.78873
#
# Compressibility (1/GPa) = 0.02841239
#
# Stress axis : x y z
#
# Youngs Moduli (GPa) = 124.70350 80.05321 50.07696
#
# Poissons Ratio (x) = 0.28323 -0.01316
# Poissons Ratio (y) = 0.44120 0.13814
# Poissons Ratio (z) = -0.03277 0.22083
#
# Static dielectric constant tensor:
#      x y z
#    x 4.300810 0.000000 -0.129530 
#    y 0.000000 3.953040 0.000000 
#    z -0.129530 0.000000 3.910620 
# 
# 
# High freq. dielectric constant tensor:
#      x y z
#    x 1.884830 0.000000 -0.007360 
#    y 0.000000 1.847620 0.000000 
#    z -0.007360 0.000000 1.847330 
# 
# From -- ./inp_files/62419.got.cif
#   From: 2010.06.25/outbox.cif.g09.slc.cpg/sg10_32_cif.got.tgz:62419.got - 2010.06.27 22:07:45.
