data_PCOD8067861
_publ_section_title
;
Structure prediction by ZEFSAII (Michael W. Deem and Ramdas Pophale) SiO2 
 PCOD8067861
Probable space group: P 2/M
;
_chemical_formula_sum "Si O2"
_cell_formula_units_Z 20
_cell_length_a 9.589462
_cell_length_b 9.068799
_cell_length_c 27.228220
_cell_angle_alpha 90.000000
_cell_angle_beta 151.699472
_cell_angle_gamma 90.000000
_cell_volume 1122.612456
_symmetry_space_group_name_H-M "P 2/M"
_symmetry_group_IT_number 10
_symmetry_cell_setting 'monoclinic'
loop_
_space_group_symop_operation_xyz
x,y,z
-x,y,-z
-x,-y,-z
x,-y,z
loop_
_atom_site_type_symbol
_atom_site_label
_atom_site_fract_x
_atom_site_fract_y
_atom_site_fract_z
Si Si1 0.347828 0.826076 0.339131
Si Si2 0.084904 0.671127 0.724739
Si Si3 0.710273 0.324520 0.884109
Si Si4 0.116281 0.332644 0.446512
Si Si5 0.538795 0.671126 0.724740
O O1 0.645285 0.777437 0.458113
O O2 0.332479 0.766922 0.279169
O O3 0.063368 0.766916 0.279168
O O4 0.336526 0.000000 0.334612
O O5 0.074299 0.500000 0.736464
O O6 0.420394 0.727968 0.823445
O O7 0.914078 0.695611 0.620757
O O8 0.712421 0.500000 0.884970
O O9 0.696849 0.272039 0.823450
O O10 0.000000 0.258253 0.000000
O O11 0.222878 0.500000 0.489151
O O12 0.810287 0.304389 0.379238
O O13 0.608017 0.500000 0.736460
#
# Coordination Sequence:
#
# PCOD8067861 Si02
#       5
#     4   4   4   4   4
#     4  12  23  31  44  71 106 138 166 199 236 280
#     4   9  18  33  53  75  99 128 161 200 247 294
#     4   8  15  32  59  83  95 112 157 214 254 288
#     4   9  18  33  52  72  96 131 170 201 238 291
#     4   9  18  33  53  75  99 128 161 200 247 294
#
# _framework density 17.815587000000001
#
# number of rings (size 3 to 8) (size 9 to 14) (size 15 to 20)
#    0.000    2.600    0.000    5.400    0.000    6.400 
#    0.000    4.000    0.000    8.400    0.000    0.000 
#    0.000    0.000    0.000    0.000    0.000    0.000 
#
# Total GULP energy -248000.033330 kJ/mol
# GULP energy per Si atom -12400.001667 kJ/mol
# Density = 1.777504 g / cm^3
# Si number density = 17.815587 Si / 1000 Ang^3
#
#
#
# Elastic Constant Matrix: (Units=GPa)
#
#
# Indices 1 2 3 4 5 6 
#
# 1 158.8990 74.0258 70.0510 0.0000 2.4153 0.0000
# 2 74.0258 95.7008 48.8346 0.0000 0.8680 0.0000
# 3 70.0510 48.8346 130.8857 0.0000 -1.4520 0.0000
# 4 0.0000 0.0000 0.0000 0.3290 0.0000 -0.1495
# 5 2.4153 0.8680 -1.4520 0.0000 9.5356 0.0000
# 6 0.0000 0.0000 0.0000 -0.1495 0.0000 -3.9917
#
#
#
# Elastic Compliance Matrix: (Units=1/GPa)
#
#
# Indices 1 2 3 4 5 6 
#
# 1 0.010960 -0.006725 -0.003386 0.000000 -0.002680 0.000000
# 2 -0.006725 0.017068 -0.002772 0.000000 -0.000272 0.000000
# 3 -0.003386 -0.002772 0.010517 0.000000 0.002711 0.000000
# 4 0.000000 0.000000 0.000000 2.988872 0.000000 -0.111963
# 5 -0.002680 -0.000272 0.002711 0.000000 0.105987 0.000000
# 6 0.000000 0.000000 0.000000 -0.111963 0.000000 -0.246328
#
#
# Mechanical properties :
#
#
# Convention : Reuss Voigt Hill
#
# Bulk Modulus (GPa) = 78.25897 85.70093 81.97995
# Shear Modulus (GPa) = 1.71403 14.01286 7.86344
#
# Velocity S-wave (km/s) = 0.98193 2.80759 2.10318
# Velocity P-wave (km/s) = 6.73114 7.66283 7.21205
#
# Compressibility (1/GPa) = 0.01277809
#
# Stress axis : x y z
#
# Youngs Moduli (GPa) = 91.24025 58.58787 95.08494
#
# Poissons Ratio (x) = 0.39403 0.32199
# Poissons Ratio (y) = 0.61363 0.26356
# Poissons Ratio (z) = 0.30897 0.16240
#
# Static dielectric constant tensor:
#      x y z
#    x 3.389810 0.000000 -0.001060 
#    y 0.000000 2.949740 0.000000 
#    z -0.001060 0.000000 3.420390 
# 
# 
# High freq. dielectric constant tensor:
#      x y z
#    x 1.700080 0.000000 0.000770 
#    y 0.000000 1.656530 0.000000 
#    z 0.000770 0.000000 1.677890 
# 
# From -- ./inp_files/26745.got.cif
#   From: 2010.06.25/outbox.cif.g09.slc.cpg/sg10_14_cif.got.tgz:26745.got - 2010.06.27 22:07:45.
