data_PCOD8067541
_publ_section_title
;
Structure prediction by ZEFSAII (Michael W. Deem and Ramdas Pophale) SiO2 
 PCOD8067541
Probable space group: P 2/M
;
_chemical_formula_sum "Si O2"
_cell_formula_units_Z 24
_cell_length_a 18.707258
_cell_length_b 8.924593
_cell_length_c 24.628994
_cell_angle_alpha 90.000000
_cell_angle_beta 19.049961
_cell_angle_gamma 90.000000
_cell_volume 1342.101647
_symmetry_space_group_name_H-M "P 2/M"
_symmetry_group_IT_number 10
_symmetry_cell_setting 'monoclinic'
loop_
_space_group_symop_operation_xyz
x,y,z
-x,y,-z
-x,-y,-z
x,-y,z
loop_
_atom_site_type_symbol
_atom_site_label
_atom_site_fract_x
_atom_site_fract_y
_atom_site_fract_z
Si Si1 0.159387 0.676347 0.005650
Si Si2 0.906979 0.664813 0.506616
Si Si3 0.372093 0.676461 0.145336
Si Si4 0.252620 0.835187 0.833787
Si Si5 0.500799 0.823654 0.164235
Si Si6 0.697628 0.176465 0.319796
O O1 0.162802 0.500000 0.009562
O O2 0.911196 0.733050 0.184189
O O3 0.287620 0.720269 0.857972
O O4 0.279518 0.749992 0.970479
O O5 0.821598 0.500000 0.549947
O O6 0.705248 0.779751 0.649176
O O7 0.000000 0.655189 0.500000
O O8 0.114037 0.716020 0.321098
O O9 0.398913 0.500000 0.138164
O O10 0.470418 0.766933 0.124981
O O11 0.500000 0.727266 0.000000
O O12 0.373535 0.783987 0.691341
O O13 0.335451 0.000000 0.793007
O O14 0.000000 0.844764 0.000000
O O15 0.526710 0.000000 0.145661
O O16 0.500000 0.227235 0.500000
O O17 0.749404 0.000000 0.287662
#
# Coordination Sequence:
#
# PCOD8067541 Si02
#       6
#     4   4   4   4   4   4
#     4  11  21  33  51  74 101 132 170 212 252 295
#     4   8  15  30  51  73  97 126 161 199 242 293
#     4   9  18  34  55  77 103 134 165 201 250 305
#     4   8  15  30  51  73  97 126 161 199 242 293
#     4  11  21  33  51  74 101 132 170 212 252 295
#     4   9  18  34  55  77 103 134 165 201 250 305
#
# _framework density 17.882401000000002
#
# number of rings (size 3 to 8) (size 9 to 14) (size 15 to 20)
#    0.000    2.667    0.000    5.000    0.000    6.667 
#    0.000    1.667    0.000    0.000    0.000    0.000 
#    0.000    0.000    0.000    0.000    0.000    0.000 
#
# Total GULP energy -297477.095596 kJ/mol
# GULP energy per Si atom -12394.878983 kJ/mol
# Density = 1.784170 g / cm^3
# Si number density = 17.882401 Si / 1000 Ang^3
#
#
#
# Elastic Constant Matrix: (Units=GPa)
#
#
# Indices 1 2 3 4 5 6 
#
# 1 79.0468 56.4962 54.4362 0.0000 5.4421 0.0000
# 2 56.4962 124.4296 52.0950 0.0000 -3.8546 0.0000
# 3 54.4362 52.0950 110.8054 0.0000 22.5426 0.0000
# 4 0.0000 0.0000 0.0000 8.7242 0.0000 -11.1866
# 5 5.4421 -3.8546 22.5426 0.0000 30.4109 0.0000
# 6 0.0000 0.0000 0.0000 -11.1866 0.0000 21.4756
#
#
#
# Elastic Compliance Matrix: (Units=1/GPa)
#
#
# Indices 1 2 3 4 5 6 
#
# 1 0.023424 -0.007077 -0.008414 0.000000 0.001148 0.000000
# 2 -0.007077 0.013026 -0.003816 0.000000 0.005746 0.000000
# 3 -0.008414 -0.003816 0.017363 0.000000 -0.011849 0.000000
# 4 0.000000 0.000000 0.000000 0.345165 0.000000 0.179795
# 5 0.001148 0.005746 -0.011849 0.000000 0.042189 0.000000
# 6 0.000000 0.000000 0.000000 0.179795 0.000000 0.140219
#
#
# Mechanical properties :
#
#
# Convention : Reuss Voigt Hill
#
# Bulk Modulus (GPa) = 65.79719 71.14850 68.47285
# Shear Modulus (GPa) = 7.99915 22.20579 15.10247
#
# Velocity S-wave (km/s) = 2.11729 3.52770 2.90926
# Velocity P-wave (km/s) = 6.54610 7.51439 7.04690
#
# Compressibility (1/GPa) = 0.01519822
#
# Stress axis : x y z
#
# Youngs Moduli (GPa) = 42.69055 76.77058 57.59327
#
# Poissons Ratio (x) = 0.54333 0.48459
# Poissons Ratio (y) = 0.30214 0.21979
# Poissons Ratio (z) = 0.35920 0.29297
#
# Static dielectric constant tensor:
#      x y z
#    x 3.311900 0.000000 0.274130 
#    y 0.000000 3.225820 0.000000 
#    z 0.274130 0.000000 3.623160 
# 
# 
# High freq. dielectric constant tensor:
#      x y z
#    x 1.674270 0.000000 0.008820 
#    y 0.000000 1.686910 0.000000 
#    z 0.008820 0.000000 1.684250 
# 
# From -- ./inp_files/90015.got.cif
#   From: 2010.06.25/outbox.cif.g09.slc.cpg/sg10_46_cif.got.tgz:90015.got - 2010.06.27 22:07:45.
