data_PCOD8067546
_publ_section_title
;
Structure prediction by ZEFSAII (Michael W. Deem and Ramdas Pophale) SiO2 
 PCOD8067546
Probable space group: P 2/M
;
_chemical_formula_sum "Si O2"
_cell_formula_units_Z 28
_cell_length_a 19.612577
_cell_length_b 8.312751
_cell_length_c 11.664167
_cell_angle_alpha 90.000000
_cell_angle_beta 52.943085
_cell_angle_gamma 90.000000
_cell_volume 1517.596630
_symmetry_space_group_name_H-M "P 2/M"
_symmetry_group_IT_number 10
_symmetry_cell_setting 'monoclinic'
loop_
_space_group_symop_operation_xyz
x,y,z
-x,y,-z
-x,-y,-z
x,-y,z
loop_
_atom_site_type_symbol
_atom_site_label
_atom_site_fract_x
_atom_site_fract_y
_atom_site_fract_z
Si Si1 0.011870 0.685959 0.357843
Si Si2 0.097310 0.313821 0.892918
Si Si3 0.314273 0.807897 0.308594
Si Si4 0.503192 0.176077 0.860792
Si Si5 0.680134 0.192566 0.954014
Si Si6 0.161614 0.186431 0.060778
Si Si7 0.851462 0.186868 0.392242
O O1 0.038948 0.500000 0.323537
O O2 0.085675 0.793770 0.228492
O O3 0.000000 0.743730 0.500000
O O4 0.924897 0.709410 0.376708
O O5 0.098392 0.500000 0.857578
O O6 0.146501 0.213194 0.746105
O O7 0.144976 0.289305 0.964381
O O8 0.000000 0.250547 0.000000
O O9 0.406224 0.736515 0.261139
O O10 0.295300 0.746006 0.198595
O O11 0.239093 0.748996 0.468199
O O12 0.321661 0.000000 0.300646
O O13 0.504091 0.000000 0.801930
O O14 0.500000 0.157018 0.000000
O O15 0.413994 0.262464 0.913167
O O16 0.751048 0.253333 0.971554
O O17 0.676764 0.000000 0.956052
O O18 0.168885 0.000000 0.020076
O O19 0.864523 0.000000 0.408844
#
# Coordination Sequence:
#
# PCOD8067546 Si02
#       7
#     4   4   4   4   4   4   4
#     4  11  23  36  49  70 103 139 167 193 240 303
#     4  11  23  39  55  68  92 131 175 212 250 304
#     4   8  14  25  44  74 107 133 157 192 243 297
#     4   7  10  20  40  67 103 138 158 181 232 299
#     4   8  14  25  44  74 107 133 157 192 243 297
#     4  11  21  33  53  77 100 126 166 215 254 288
#     4  11  21  33  53  77 100 126 166 215 254 288
#
# _framework density 18.450225
#
# number of rings (size 3 to 8) (size 9 to 14) (size 15 to 20)
#    0.000    2.429    1.429    4.286    0.000    2.857 
#    0.000    0.000    0.000    0.857    0.000   10.000 
#    0.000   16.000    0.000    0.000    0.000    0.000 
#
# Total GULP energy -347024.525763 kJ/mol
# GULP energy per Si atom -12393.733063 kJ/mol
# Density = 1.840823 g / cm^3
# Si number density = 18.450225 Si / 1000 Ang^3
#
#
#
# Elastic Constant Matrix: (Units=GPa)
#
#
# Indices 1 2 3 4 5 6 
#
# 1 147.7335 5.3181 78.9244 0.0000 -19.8330 0.0000
# 2 5.3181 23.2728 6.4871 0.0000 -1.3111 0.0000
# 3 78.9244 6.4871 79.0555 0.0000 -8.0908 0.0000
# 4 0.0000 0.0000 0.0000 8.0061 0.0000 8.1151
# 5 -19.8330 -1.3111 -8.0908 0.0000 36.1047 0.0000
# 6 0.0000 0.0000 0.0000 8.1151 0.0000 10.4628
#
#
#
# Elastic Compliance Matrix: (Units=1/GPa)
#
#
# Indices 1 2 3 4 5 6 
#
# 1 0.015399 0.000931 -0.014923 0.000000 0.005149 0.000000
# 2 0.000931 0.044054 -0.004430 0.000000 0.001118 0.000000
# 3 -0.014923 -0.004430 0.027691 0.000000 -0.002153 0.000000
# 4 0.000000 0.000000 0.000000 0.584147 0.000000 -0.453074
# 5 0.005149 0.001118 -0.002153 0.000000 0.030084 0.000000
# 6 0.000000 0.000000 0.000000 -0.453074 0.000000 0.446988
#
#
# Mechanical properties :
#
#
# Convention : Reuss Voigt Hill
#
# Bulk Modulus (GPa) = 19.88082 47.94675 33.91379
# Shear Modulus (GPa) = 4.15983 21.53687 12.84835
#
# Velocity S-wave (km/s) = 1.50317 3.42028 2.64176
# Velocity P-wave (km/s) = 3.71638 6.45300 5.26558
#
# Compressibility (1/GPa) = 0.05029974
#
# Stress axis : x y z
#
# Youngs Moduli (GPa) = 64.93952 22.69953 36.11332
#
# Poissons Ratio (x) = -0.02113 0.53891
# Poissons Ratio (y) = -0.06045 0.15997
# Poissons Ratio (z) = 0.96908 0.10055
#
# Static dielectric constant tensor:
#      x y z
#    x 3.689300 0.000000 -0.352400 
#    y 0.000000 2.947870 0.000000 
#    z -0.352400 0.000000 3.528940 
# 
# 
# High freq. dielectric constant tensor:
#      x y z
#    x 1.716550 0.000000 -0.018340 
#    y 0.000000 1.679560 0.000000 
#    z -0.018340 0.000000 1.702490 
# 
# From -- ./inp_files/54640.got.cif
#   From: 2010.06.25/outbox.cif.g09.slc.cpg/sg10_28_cif.got.tgz:54640.got - 2010.06.27 22:07:45.
