data_PCOD8067512
_publ_section_title
;
Structure prediction by ZEFSAII (Michael W. Deem and Ramdas Pophale) SiO2 
 PCOD8067512
Probable space group: P 2/M
;
_chemical_formula_sum "Si O2"
_cell_formula_units_Z 20
_cell_length_a 26.955090
_cell_length_b 8.952031
_cell_length_c 15.808455
_cell_angle_alpha 90.000000
_cell_angle_beta 162.830205
_cell_angle_gamma 90.000000
_cell_volume 1126.093962
_symmetry_space_group_name_H-M "P 2/M"
_symmetry_group_IT_number 10
_symmetry_cell_setting 'monoclinic'
loop_
_space_group_symop_operation_xyz
x,y,z
-x,y,-z
-x,-y,-z
x,-y,z
loop_
_atom_site_type_symbol
_atom_site_label
_atom_site_fract_x
_atom_site_fract_y
_atom_site_fract_z
Si Si1 0.637519 0.164655 0.796843
Si Si2 0.399085 0.324085 0.524086
Si Si3 0.439409 0.176719 0.767499
Si Si4 0.128134 0.177615 0.963552
Si Si5 0.243887 0.176112 0.613503
O O1 0.500000 0.155690 0.500000
O O2 0.577103 0.276536 0.771637
O O3 0.662193 0.000000 0.877764
O O4 0.808405 0.218635 0.028313
O O5 0.383732 0.500000 0.495543
O O6 0.392431 0.268315 0.608587
O O7 0.241973 0.253692 0.219829
O O8 0.301116 0.220903 0.612516
O O9 0.437209 0.000000 0.745023
O O10 0.621599 0.231467 0.097834
O O11 0.939958 0.242545 0.666271
O O12 0.138546 0.000000 0.994865
O O13 0.237299 0.000000 0.609225
#
# Coordination Sequence:
#
# PCOD8067512 Si02
#       5
#     4   4   4   4   4
#     4   8  15  29  49  70  93 123 158 197 239 279
#     4  11  21  31  46  71 101 131 161 192 232 283
#     4   9  17  33  54  73  95 124 159 197 238 283
#     4   9  17  32  53  75  96 120 157 202 242 279
#     4   8  16  32  55  76  92 119 160 202 241 281
#
# _framework density 17.760508000000002
#
# number of rings (size 3 to 8) (size 9 to 14) (size 15 to 20)
#    0.000    3.000    0.000    4.200    0.000    4.400 
#    0.000    9.000    0.000    6.000    0.000    0.000 
#    0.000    0.000    0.000    0.000    0.000    0.000 
#
# Total GULP energy -247882.695342 kJ/mol
# GULP energy per Si atom -12394.134767 kJ/mol
# Density = 1.772008 g / cm^3
# Si number density = 17.760508 Si / 1000 Ang^3
#
#
#
# Elastic Constant Matrix: (Units=GPa)
#
#
# Indices 1 2 3 4 5 6 
#
# 1 40.8837 14.5196 40.9685 0.0000 22.5775 0.0000
# 2 14.5196 52.1867 25.2718 0.0000 5.2021 0.0000
# 3 40.9685 25.2718 107.6945 0.0000 33.2797 0.0000
# 4 0.0000 0.0000 0.0000 1.9784 0.0000 3.5621
# 5 22.5775 5.2021 33.2797 0.0000 28.7115 0.0000
# 6 0.0000 0.0000 0.0000 3.5621 0.0000 -5.8093
#
#
#
# Elastic Compliance Matrix: (Units=1/GPa)
#
#
# Indices 1 2 3 4 5 6 
#
# 1 0.052373 -0.007201 -0.009209 0.000000 -0.029205 0.000000
# 2 -0.007201 0.022782 -0.004801 0.000000 0.007099 0.000000
# 3 -0.009209 -0.004801 0.017776 0.000000 -0.012493 0.000000
# 4 0.000000 0.000000 0.000000 0.240236 0.000000 0.147304
# 5 -0.029205 0.007099 -0.012493 0.000000 0.070989 0.000000
# 6 0.000000 0.000000 0.000000 0.147304 0.000000 -0.081815
#
#
# Mechanical properties :
#
#
# Convention : Reuss Voigt Hill
#
# Bulk Modulus (GPa) = 19.79768 40.25384 30.02576
# Shear Modulus (GPa) = 13.10278 12.97647 13.03962
#
# Velocity S-wave (km/s) = 2.71910 2.70596 2.71254
# Velocity P-wave (km/s) = 4.58576 5.69886 5.17234
#
# Compressibility (1/GPa) = 0.05051096
#
# Stress axis : x y z
#
# Youngs Moduli (GPa) = 19.09389 43.89336 56.25674
#
# Poissons Ratio (x) = 0.31607 0.51805
# Poissons Ratio (y) = 0.13749 0.27007
# Poissons Ratio (z) = 0.17583 0.21072
#
# Static dielectric constant tensor:
#      x y z
#    x 3.524710 0.000000 0.524820 
#    y 0.000000 2.971200 0.000000 
#    z 0.524820 0.000000 3.781140 
# 
# 
# High freq. dielectric constant tensor:
#      x y z
#    x 1.691770 0.000000 0.018230 
#    y 0.000000 1.654690 0.000000 
#    z 0.018230 0.000000 1.674950 
# 
# From -- ./inp_files/22283.got.cif
#   From: 2010.06.25/outbox.cif.g09.slc.cpg/sg10_12_cif.got.tgz:22283.got - 2010.06.27 22:07:45.
