data_PCOD8067438
_publ_section_title
;
Structure prediction by ZEFSAII (Michael W. Deem and Ramdas Pophale) SiO2 
 PCOD8067438
Probable space group: P 2/M
;
_chemical_formula_sum "Si O2"
_cell_formula_units_Z 32
_cell_length_a 31.964493
_cell_length_b 14.267673
_cell_length_c 9.079700
_cell_angle_alpha 90.000000
_cell_angle_beta 28.540410
_cell_angle_gamma 90.000000
_cell_volume 1978.422459
_symmetry_space_group_name_H-M "P 2/M"
_symmetry_group_IT_number 10
_symmetry_cell_setting 'monoclinic'
loop_
_space_group_symop_operation_xyz
x,y,z
-x,y,-z
-x,-y,-z
x,-y,z
loop_
_atom_site_type_symbol
_atom_site_label
_atom_site_fract_x
_atom_site_fract_y
_atom_site_fract_z
Si Si1 0.462373 0.602488 0.846000
Si Si2 0.677999 0.206618 0.106053
Si Si3 0.637226 0.110970 0.930159
Si Si4 0.986505 0.897878 0.714401
Si Si5 0.640868 0.397827 0.115065
Si Si6 0.494077 0.794188 0.182211
Si Si7 0.198570 0.111936 0.765188
Si Si8 0.825128 0.112157 0.830544
O O1 0.455826 0.500000 0.945538
O O2 0.378461 0.615941 0.998845
O O3 0.548872 0.607067 0.481396
O O4 0.465553 0.688581 0.950047
O O5 0.701471 0.313935 0.988257
O O6 0.606490 0.203931 0.456625
O O7 0.638571 0.153274 0.088225
O O8 0.766376 0.158102 0.886480
O O9 0.719793 0.149189 0.580899
O O10 0.639142 0.000000 0.936855
O O11 0.548396 0.141428 0.125483
O O12 0.074854 0.849299 0.504980
O O13 0.000000 0.911261 0.500000
O O14 0.980358 0.000000 0.808802
O O15 0.892132 0.846159 0.027034
O O16 0.685449 0.500000 0.004315
O O17 0.500000 0.836657 0.000000
O O18 0.191882 0.000000 0.782371
O O19 0.208896 0.144275 0.903008
O O20 0.821493 0.000000 0.826998
#
# Coordination Sequence:
#
# PCOD8067438 Si02
#       8
#     4   4   4   4   4   4   4   4
#     4   8  14  28  48  66  82 103 137 181 226 262
#     4  11  20  31  45  64  89 116 148 183 215 257
#     4  11  22  33  44  60  86 121 156 185 213 248
#     4   7  11  23  44  65  85 112 144 177 216 259
#     4   8  14  27  47  64  81 109 141 175 218 265
#     4  11  22  33  45  63  87 117 151 183 216 256
#     4   8  15  29  46  63  86 117 150 183 218 253
#     4   9  16  27  45  68  92 118 146 176 213 257
#
# _framework density 16.174503000000001
#
# number of rings (size 3 to 8) (size 9 to 14) (size 15 to 20)
#    0.000    2.875    1.250    3.750    0.000    2.000 
#    0.000    0.625    0.000    3.000    0.000    0.000 
#    0.000    7.500    0.000    0.000    0.000    0.000 
#
# Total GULP energy -396428.898184 kJ/mol
# GULP energy per Si atom -12388.403068 kJ/mol
# Density = 1.613769 g / cm^3
# Si number density = 16.174503 Si / 1000 Ang^3
#
#
#
# Elastic Constant Matrix: (Units=GPa)
#
#
# Indices 1 2 3 4 5 6 
#
# 1 87.6887 27.2590 16.2160 0.0000 -10.6245 0.0000
# 2 27.2590 63.2078 10.8202 0.0000 -7.5941 0.0000
# 3 16.2160 10.8202 33.1415 0.0000 -11.9008 0.0000
# 4 0.0000 0.0000 0.0000 2.5124 0.0000 1.9210
# 5 -10.6245 -7.5941 -11.9008 0.0000 22.5351 0.0000
# 6 0.0000 0.0000 0.0000 1.9210 0.0000 17.5580
#
#
#
# Elastic Compliance Matrix: (Units=1/GPa)
#
#
# Indices 1 2 3 4 5 6 
#
# 1 0.014082 -0.005016 -0.004289 0.000000 0.002684 0.000000
# 2 -0.005016 0.018758 -0.002776 0.000000 0.002491 0.000000
# 3 -0.004289 -0.002776 0.039632 0.000000 0.017972 0.000000
# 4 0.000000 0.000000 0.000000 0.434372 0.000000 -0.047524
# 5 0.002684 0.002491 0.017972 0.000000 0.055971 0.000000
# 6 0.000000 0.000000 0.000000 -0.047524 0.000000 0.062154
#
#
# Mechanical properties :
#
#
# Convention : Reuss Voigt Hill
#
# Bulk Modulus (GPa) = 20.69919 32.51428 26.60674
# Shear Modulus (GPa) = 7.51616 17.17060 12.34338
#
# Velocity S-wave (km/s) = 2.15801 3.26173 2.76549
# Velocity P-wave (km/s) = 4.36286 5.85927 5.16554
#
# Compressibility (1/GPa) = 0.04831106
#
# Stress axis : x y z
#
# Youngs Moduli (GPa) = 71.01485 53.30918 25.23221
#
# Poissons Ratio (x) = 0.26741 0.10821
# Poissons Ratio (y) = 0.35623 0.07003
# Poissons Ratio (z) = 0.30456 0.14796
#
# Static dielectric constant tensor:
#      x y z
#    x 2.999000 0.000000 -0.124000 
#    y 0.000000 3.072640 0.000000 
#    z -0.124000 0.000000 3.067120 
# 
# 
# High freq. dielectric constant tensor:
#      x y z
#    x 1.615780 0.000000 -0.003760 
#    y 0.000000 1.591570 0.000000 
#    z -0.003760 0.000000 1.598050 
# 
# From -- ./inp_files/38288.got.cif
#   From: 2010.06.25/outbox.cif.g09.slc.cpg/sg10_20_cif.got.tgz:38288.got - 2010.06.27 22:07:45.
