data_PCOD8067335
_publ_section_title
;
Structure prediction by ZEFSAII (Michael W. Deem and Ramdas Pophale) SiO2 
 PCOD8067335
Probable space group: P 2/M
;
_chemical_formula_sum "Si O2"
_cell_formula_units_Z 24
_cell_length_a 14.585085
_cell_length_b 8.947741
_cell_length_c 14.939730
_cell_angle_alpha 90.000000
_cell_angle_beta 40.261008
_cell_angle_gamma 90.000000
_cell_volume 1260.026040
_symmetry_space_group_name_H-M "P 2/M"
_symmetry_group_IT_number 10
_symmetry_cell_setting 'monoclinic'
loop_
_space_group_symop_operation_xyz
x,y,z
-x,y,-z
-x,-y,-z
x,-y,z
loop_
_atom_site_type_symbol
_atom_site_label
_atom_site_fract_x
_atom_site_fract_y
_atom_site_fract_z
Si Si1 0.620463 0.824841 0.570107
Si Si2 0.706884 0.172039 0.190907
Si Si3 0.892865 0.172460 0.882632
Si Si4 0.182171 0.676513 0.720872
Si Si5 0.796027 0.672377 0.584215
Si Si6 0.885457 0.327741 0.711534
O O1 0.456341 0.780326 0.689160
O O2 0.695553 0.742113 0.432677
O O3 0.681275 0.774643 0.620568
O O4 0.643995 0.000000 0.540902
O O5 0.792747 0.273177 0.196282
O O6 0.725142 0.000000 0.206455
O O7 0.770120 0.200520 0.045885
O O8 0.830836 0.224682 0.833153
O O9 0.029129 0.270176 0.803734
O O10 0.938328 0.000000 0.844675
O O11 0.187505 0.500000 0.709752
O O12 0.752117 0.500000 0.606575
O O13 0.800979 0.718359 0.684806
O O14 0.947803 0.699559 0.426018
O O15 0.855935 0.500000 0.756406
#
# Coordination Sequence:
#
# PCOD8067335 Si02
#       6
#     4   4   4   4   4   4
#     4  11  22  38  60  85 114 150 189 232 281 333
#     4  10  24  42  57  80 117 153 188 232 281 333
#     4  11  22  38  60  85 114 150 189 232 281 333
#     4  12  24  38  59  86 113 146 192 238 279 332
#     4   9  18  34  57  85 116 147 183 231 280 329
#     4   9  18  34  57  85 116 147 183 231 280 329
#
# _framework density 19.047225999999998
#
# number of rings (size 3 to 8) (size 9 to 14) (size 15 to 20)
#    0.000    1.667    1.667    4.500    0.000    7.333 
#    0.000    2.500    0.000    5.000    0.000    0.000 
#    0.000    0.000    0.000    0.000    0.000    0.000 
#
# Total GULP energy -297706.956225 kJ/mol
# GULP energy per Si atom -12404.456509 kJ/mol
# Density = 1.900387 g / cm^3
# Si number density = 19.047226 Si / 1000 Ang^3
#
#
#
# Elastic Constant Matrix: (Units=GPa)
#
#
# Indices 1 2 3 4 5 6 
#
# 1 75.3219 33.5924 27.3850 0.0000 28.4159 0.0000
# 2 33.5924 90.8571 43.7057 0.0000 15.3013 0.0000
# 3 27.3850 43.7057 93.3342 0.0000 10.7204 0.0000
# 4 0.0000 0.0000 0.0000 11.3043 0.0000 16.2819
# 5 28.4159 15.3013 10.7204 0.0000 23.6572 0.0000
# 6 0.0000 0.0000 0.0000 16.2819 0.0000 31.6108
#
#
#
# Elastic Compliance Matrix: (Units=1/GPa)
#
#
# Indices 1 2 3 4 5 6 
#
# 1 0.026648 -0.003726 -0.002821 0.000000 -0.028320 0.000000
# 2 -0.003726 0.015747 -0.005934 0.000000 -0.003021 0.000000
# 3 -0.002821 -0.005934 0.014231 0.000000 0.000777 0.000000
# 4 0.000000 0.000000 0.000000 0.342705 0.000000 -0.176518
# 5 -0.028320 -0.003021 0.000777 0.000000 0.077888 0.000000
# 6 0.000000 0.000000 0.000000 -0.176518 0.000000 0.122554
#
#
# Mechanical properties :
#
#
# Convention : Reuss Voigt Hill
#
# Bulk Modulus (GPa) = 31.58134 52.09770 41.83952
# Shear Modulus (GPa) = 7.87043 23.63647 15.75345
#
# Velocity S-wave (km/s) = 2.03495 3.52652 2.87901
# Velocity P-wave (km/s) = 4.70509 6.63272 5.75026
#
# Compressibility (1/GPa) = 0.03166427
#
# Stress axis : x y z
#
# Youngs Moduli (GPa) = 37.52687 63.50450 70.26838
#
# Poissons Ratio (x) = 0.23662 0.19823
# Poissons Ratio (y) = 0.13983 0.41695
# Poissons Ratio (z) = 0.10586 0.37681
#
# Static dielectric constant tensor:
#      x y z
#    x 3.633510 0.000000 0.198140 
#    y 0.000000 3.529660 0.000000 
#    z 0.198140 0.000000 3.468860 
# 
# 
# High freq. dielectric constant tensor:
#      x y z
#    x 1.747800 0.000000 0.016100 
#    y 0.000000 1.742390 0.000000 
#    z 0.016100 0.000000 1.732610 
# 
# From -- ./inp_files/66328.got.cif
#   From: 2010.06.25/outbox.cif.g09.slc.cpg/sg10_34_cif.got.tgz:66328.got - 2010.06.27 22:07:45.
