data_PCOD8067722
_publ_section_title
;
Structure prediction by ZEFSAII (Michael W. Deem and Ramdas Pophale) SiO2 
 PCOD8067722
Probable space group: P 2/M
;
_chemical_formula_sum "Si O2"
_cell_formula_units_Z 32
_cell_length_a 21.588132
_cell_length_b 8.775706
_cell_length_c 27.781283
_cell_angle_alpha 90.000000
_cell_angle_beta 161.397835
_cell_angle_gamma 90.000000
_cell_volume 1678.933406
_symmetry_space_group_name_H-M "P 2/M"
_symmetry_group_IT_number 10
_symmetry_cell_setting 'monoclinic'
loop_
_space_group_symop_operation_xyz
x,y,z
-x,y,-z
-x,-y,-z
x,-y,z
loop_
_atom_site_type_symbol
_atom_site_label
_atom_site_fract_x
_atom_site_fract_y
_atom_site_fract_z
Si Si1 0.282608 0.179997 0.340641
Si Si2 0.000729 0.324295 0.201625
Si Si3 0.434642 0.823562 0.859233
Si Si4 0.830998 0.678481 0.178190
Si Si5 0.693978 0.674666 0.895666
Si Si6 0.053667 0.176252 0.639855
Si Si7 0.677284 0.677674 0.322199
Si Si8 0.019057 0.819942 0.960186
O O1 0.500000 0.248666 0.500000
O O2 0.183777 0.227462 0.318043
O O3 0.155774 0.244794 0.202229
O O4 0.290549 0.000000 0.343329
O O5 0.057583 0.500000 0.239200
O O6 0.953798 0.278224 0.221443
O O7 0.811305 0.286108 0.030609
O O8 0.253656 0.791133 0.760253
O O9 0.381163 0.779334 0.765925
O O10 0.496589 0.000000 0.906456
O O11 0.607195 0.720744 0.006375
O O12 0.844796 0.500000 0.200288
O O13 0.926271 0.777064 0.290182
O O14 0.721080 0.500000 0.900821
O O15 0.469517 0.713118 0.741624
O O16 0.773158 0.773016 0.909255
O O17 0.892565 0.280569 0.496509
O O18 0.992434 0.000000 0.590916
O O19 0.664792 0.500000 0.298672
O O20 0.008636 0.000000 0.954436
O O21 0.000000 0.751751 0.000000
#
# Coordination Sequence:
#
# PCOD8067722 Si02
#       8
#     4   4   4   4   4   4   4   4
#     4   9  18  33  53  78 108 141 179 221 267 322
#     4   9  18  35  57  81 109 141 184 231 271 323
#     4  11  23  39  61  85 114 149 190 237 285 342
#     4  11  22  39  61  85 114 150 193 237 283 339
#     4   9  18  35  57  81 109 141 184 231 271 323
#     4  11  25  41  55  83 120 151 186 237 293 340
#     4  11  22  39  61  85 114 150 193 237 283 339
#     4   9  18  33  53  78 108 141 179 221 267 322
#
# _framework density 19.059718
#
# number of rings (size 3 to 8) (size 9 to 14) (size 15 to 20)
#    0.000    2.000    1.250    2.250    0.000    7.500 
#    2.250    0.000    0.000    0.000    0.000    0.000 
#    0.000    0.000    0.000    0.000    0.000    0.000 
#
# Total GULP energy -396879.251344 kJ/mol
# GULP energy per Si atom -12402.476605 kJ/mol
# Density = 1.901634 g / cm^3
# Si number density = 19.059718 Si / 1000 Ang^3
#
#
#
# Elastic Constant Matrix: (Units=GPa)
#
#
# Indices 1 2 3 4 5 6 
#
# 1 1789.4087 -405.1583 1195.3027 0.0000 -13.5680 0.0000
# 2 -405.1583 142.7154 -286.3901 0.0000 15.4071 0.0000
# 3 1195.3027 -286.3901 882.4148 0.0000 -5.5816 0.0000
# 4 0.0000 0.0000 0.0000 26.1453 0.0000 7.2203
# 5 -13.5680 15.4071 -5.5816 0.0000 26.7910 0.0000
# 6 0.0000 0.0000 0.0000 7.2203 0.0000 30.9937
#
#
#
# Elastic Compliance Matrix: (Units=1/GPa)
#
#
# Indices 1 2 3 4 5 6 
#
# 1 0.006089 0.002013 -0.007592 0.000000 0.000344 0.000000
# 2 0.002013 0.023998 0.004988 0.000000 -0.011742 0.000000
# 3 -0.007592 0.004988 0.013011 0.000000 -0.004003 0.000000
# 4 0.000000 0.000000 0.000000 0.040878 0.000000 -0.009523
# 5 0.000344 -0.011742 -0.004003 0.000000 0.043419 0.000000
# 6 0.000000 0.000000 0.000000 -0.009523 0.000000 0.034483
#
#
# Mechanical properties :
#
#
# Convention : Reuss Voigt Hill
#
# Bulk Modulus (GPa) = 23.85798 424.67193 224.26496
# Shear Modulus (GPa) = 28.24351 170.83832 99.54092
#
# Velocity S-wave (km/s) = 3.85365 9.47775 7.23458
# Velocity P-wave (km/s) = 5.68731 18.52202 13.70056
#
# Compressibility (1/GPa) = 0.04191470
#
# Stress axis : x y z
#
# Youngs Moduli (GPa) = 164.24215 41.67018 76.85845
#
# Poissons Ratio (x) = -0.08387 0.58352
# Poissons Ratio (y) = -0.33056 -0.38338
# Poissons Ratio (z) = 1.24694 -0.20785
#
# Static dielectric constant tensor:
#      x y z
#    x 3.501260 0.000000 0.289850 
#    y 0.000000 3.406610 0.000000 
#    z 0.289850 0.000000 3.099270 
# 
# 
# High freq. dielectric constant tensor:
#      x y z
#    x 1.747890 0.000000 0.008160 
#    y 0.000000 1.738310 0.000000 
#    z 0.008160 0.000000 1.733490 
# 
# From -- ./inp_files/93802.got.cif
#   From: 2010.06.25/outbox.cif.g09.slc.cpg/sg10_47_cif.got.tgz:93802.got - 2010.06.27 22:07:45.
