data_PCOD8067670
_publ_section_title
;
Structure prediction by ZEFSAII (Michael W. Deem and Ramdas Pophale) SiO2 
 PCOD8067670
Probable space group: P 2/M
;
_chemical_formula_sum "Si O2"
_cell_formula_units_Z 24
_cell_length_a 25.077875
_cell_length_b 9.169206
_cell_length_c 7.355025
_cell_angle_alpha 90.000000
_cell_angle_beta 53.583258
_cell_angle_gamma 90.000000
_cell_volume 1360.979577
_symmetry_space_group_name_H-M "P 2/M"
_symmetry_group_IT_number 10
_symmetry_cell_setting 'monoclinic'
loop_
_space_group_symop_operation_xyz
x,y,z
-x,y,-z
-x,-y,-z
x,-y,z
loop_
_atom_site_type_symbol
_atom_site_label
_atom_site_fract_x
_atom_site_fract_y
_atom_site_fract_z
Si Si1 0.604627 0.672598 0.287970
Si Si2 0.185546 0.664777 0.376806
Si Si3 0.741061 0.831441 0.058012
Si Si4 0.073946 0.334526 0.858265
Si Si5 0.500794 0.672382 0.793739
Si Si6 0.194375 0.168467 0.697608
O O1 0.617071 0.500000 0.267385
O O2 0.565169 0.723960 0.549086
O O3 0.564332 0.718125 0.188019
O O4 0.673255 0.756159 0.138995
O O5 0.212133 0.500000 0.301951
O O6 0.198094 0.754367 0.168635
O O7 0.107067 0.666990 0.588147
O O8 0.225045 0.744263 0.463160
O O9 0.738533 0.000000 0.008585
O O10 0.754370 0.809790 0.243495
O O11 0.071770 0.500000 0.939419
O O12 0.121248 0.236364 0.892751
O O13 0.000000 0.268488 0.000000
O O14 0.503197 0.500000 0.803844
O O15 0.500000 0.740998 0.000000
O O16 0.184827 0.000000 0.667037
#
# Coordination Sequence:
#
# PCOD8067670 Si02
#       6
#     4   4   4   4   4   4
#     4   9  18  31  51  76 100 130 172 215 253 301
#     4   9  19  34  54  76 101 135 175 219 263 308
#     4  11  22  35  51  75 111 145 174 213 260 311
#     4   8  16  33  55  78 103 133 173 221 267 308
#     4   8  15  31  52  75 101 128 165 214 258 300
#     4   9  19  34  51  74 105 140 174 211 259 313
#
# _framework density 17.634357000000001
#
# number of rings (size 3 to 8) (size 9 to 14) (size 15 to 20)
#    1.000    2.000    0.000    2.000    0.000    4.333 
#    0.000    4.167    0.000    6.000    0.000    0.000 
#    0.000    0.000    0.000    0.000    0.000    0.000 
#
# Total GULP energy -297331.387731 kJ/mol
# GULP energy per Si atom -12388.807822 kJ/mol
# Density = 1.759422 g / cm^3
# Si number density = 17.634357 Si / 1000 Ang^3
#
#
#
# Elastic Constant Matrix: (Units=GPa)
#
#
# Indices 1 2 3 4 5 6 
#
# 1 62.2543 25.9292 20.9551 0.0000 0.7661 0.0000
# 2 25.9292 81.3133 20.5658 0.0000 1.4849 0.0000
# 3 20.9551 20.5658 65.3582 0.0000 5.7263 0.0000
# 4 0.0000 0.0000 0.0000 18.1708 0.0000 2.2641
# 5 0.7661 1.4849 5.7263 0.0000 31.1856 0.0000
# 6 0.0000 0.0000 0.0000 2.2641 0.0000 22.5088
#
#
#
# Elastic Compliance Matrix: (Units=1/GPa)
#
#
# Indices 1 2 3 4 5 6 
#
# 1 0.019799 -0.005112 -0.004795 0.000000 0.000637 0.000000
# 2 -0.005112 0.014682 -0.002978 0.000000 -0.000027 0.000000
# 3 -0.004795 -0.002978 0.018042 0.000000 -0.003053 0.000000
# 4 0.000000 0.000000 0.000000 0.055732 0.000000 -0.005606
# 5 0.000637 -0.000027 -0.003053 0.000000 0.032612 0.000000
# 6 0.000000 0.000000 0.000000 -0.005606 0.000000 0.044991
#
#
# Mechanical properties :
#
#
# Convention : Reuss Voigt Hill
#
# Bulk Modulus (GPa) = 37.38100 38.20290 37.79195
# Shear Modulus (GPa) = 22.67088 23.80473 23.23780
#
# Velocity S-wave (km/s) = 3.58943 3.67809 3.63403
# Velocity P-wave (km/s) = 6.19859 6.30466 6.25185
#
# Compressibility (1/GPa) = 0.02675156
#
# Stress axis : x y z
#
# Youngs Moduli (GPa) = 50.50855 68.11006 55.42496
#
# Poissons Ratio (x) = 0.34820 0.26576
# Poissons Ratio (y) = 0.25821 0.16508
# Poissons Ratio (z) = 0.24219 0.20287
#
# Static dielectric constant tensor:
#      x y z
#    x 3.126810 0.000000 0.121360 
#    y 0.000000 3.142860 0.000000 
#    z 0.121360 0.000000 3.299410 
# 
# 
# High freq. dielectric constant tensor:
#      x y z
#    x 1.662500 0.000000 0.000670 
#    y 0.000000 1.671580 0.000000 
#    z 0.000670 0.000000 1.674880 
# 
# From -- ./inp_files/35637.got.cif
#   From: 2010.06.25/outbox.cif.g09.slc.cpg/sg10_18_cif.got.tgz:35637.got - 2010.06.27 22:07:45.
