data_PCOD8067320
_publ_section_title
;
Structure prediction by ZEFSAII (Michael W. Deem and Ramdas Pophale) SiO2 
 PCOD8067320
Probable space group: P 2/M
;
_chemical_formula_sum "Si O2"
_cell_formula_units_Z 28
_cell_length_a 11.836123
_cell_length_b 8.482665
_cell_length_c 15.013580
_cell_angle_alpha 90.000000
_cell_angle_beta 60.870058
_cell_angle_gamma 90.000000
_cell_volume 1316.733493
_symmetry_space_group_name_H-M "P 2/M"
_symmetry_group_IT_number 10
_symmetry_cell_setting 'monoclinic'
loop_
_space_group_symop_operation_xyz
x,y,z
-x,y,-z
-x,-y,-z
x,-y,z
loop_
_atom_site_type_symbol
_atom_site_label
_atom_site_fract_x
_atom_site_fract_y
_atom_site_fract_z
Si Si1 0.125727 0.682097 0.197582
Si Si2 0.492378 0.816781 0.278896
Si Si3 0.245016 0.683048 0.802669
Si Si4 0.136466 0.181910 0.674702
Si Si5 0.873396 0.822311 0.989948
Si Si6 0.582955 0.687010 0.881712
Si Si7 0.380352 0.315863 0.484888
O O1 0.110704 0.500000 0.226608
O O2 0.108466 0.707822 0.099536
O O3 0.268347 0.743725 0.168054
O O4 0.011616 0.773361 0.294875
O O5 0.606859 0.713959 0.280211
O O6 0.469477 0.768308 0.186371
O O7 0.375624 0.775472 0.391417
O O8 0.526754 0.000000 0.268671
O O9 0.208697 0.500000 0.809451
O O10 0.150552 0.782011 0.774582
O O11 0.238480 0.748423 0.905908
O O12 0.241707 0.285341 0.583020
O O13 0.160770 0.000000 0.644772
O O14 0.838172 0.000000 0.972689
O O15 0.000000 0.819089 0.000000
O O16 0.572303 0.500000 0.875924
O O17 0.500000 0.742738 0.000000
O O18 0.500000 0.254231 0.500000
O O19 0.394046 0.500000 0.461689
#
# Coordination Sequence:
#
# PCOD8067320 Si02
#       7
#     4   4   4   4   4   4   4
#     4  11  23  40  64  92 127 172 216 264 322 386
#     4  12  25  41  66  97 130 168 212 267 327 383
#     4  12  23  37  59  88 125 167 212 259 315 384
#     4  12  24  39  61  92 130 166 208 264 322 382
#     4  11  22  35  55  87 125 162 204 260 320 379
#     4  10  23  45  70  96 128 171 222 269 315 379
#     4  11  23  41  67  96 129 171 215 266 323 387
#
# _framework density 21.264742999999999
#
# number of rings (size 3 to 8) (size 9 to 14) (size 15 to 20)
#    0.000    0.714    2.857    6.000    0.000    3.714 
#    0.000    0.714    0.000    4.286    0.000    0.000 
#    0.000    0.000    0.000    0.000    0.000    0.000 
#
# Total GULP energy -347240.351297 kJ/mol
# GULP energy per Si atom -12401.441118 kJ/mol
# Density = 2.121634 g / cm^3
# Si number density = 21.264743 Si / 1000 Ang^3
#
#
#
# Elastic Constant Matrix: (Units=GPa)
#
#
# Indices 1 2 3 4 5 6 
#
# 1 93.4376 34.0162 31.8684 0.0000 -18.5306 0.0000
# 2 34.0162 81.6248 15.4882 0.0000 2.3298 0.0000
# 3 31.8684 15.4882 103.1051 0.0000 -5.9393 0.0000
# 4 0.0000 0.0000 0.0000 32.0206 0.0000 -1.9649
# 5 -18.5306 2.3298 -5.9393 0.0000 34.0537 0.0000
# 6 0.0000 0.0000 0.0000 -1.9649 0.0000 23.7674
#
#
#
# Elastic Compliance Matrix: (Units=1/GPa)
#
#
# Indices 1 2 3 4 5 6 
#
# 1 0.015800 -0.006166 -0.003473 0.000000 0.008414 0.000000
# 2 -0.006166 0.015066 -0.000616 0.000000 -0.004493 0.000000
# 3 -0.003473 -0.000616 0.010868 0.000000 0.000048 0.000000
# 4 0.000000 0.000000 0.000000 0.031389 0.000000 0.002595
# 5 0.008414 -0.004493 0.000048 0.000000 0.034260 0.000000
# 6 0.000000 0.000000 0.000000 0.002595 0.000000 0.042289
#
#
# Mechanical properties :
#
#
# Convention : Reuss Voigt Hill
#
# Bulk Modulus (GPa) = 47.11625 48.99036 48.05331
# Shear Modulus (GPa) = 28.20791 31.08798 29.64795
#
# Velocity S-wave (km/s) = 3.64608 3.82769 3.73799
# Velocity P-wave (km/s) = 6.31904 6.52865 6.42470
#
# Compressibility (1/GPa) = 0.02122410
#
# Stress axis : x y z
#
# Youngs Moduli (GPa) = 63.29091 66.37528 92.01719
#
# Poissons Ratio (x) = 0.40925 0.31955
# Poissons Ratio (y) = 0.39023 0.05671
# Poissons Ratio (z) = 0.21979 0.04090
#
# Static dielectric constant tensor:
#      x y z
#    x 3.877590 0.000000 -0.229210 
#    y 0.000000 3.787960 0.000000 
#    z -0.229210 0.000000 4.004870 
# 
# 
# High freq. dielectric constant tensor:
#      x y z
#    x 1.818350 0.000000 -0.020760 
#    y 0.000000 1.835390 0.000000 
#    z -0.020760 0.000000 1.841860 
# 
# From -- ./inp_files/63654.got.cif
#   From: 2010.06.25/outbox.cif.g09.slc.cpg/sg10_32_cif.got.tgz:63654.got - 2010.06.27 22:07:45.
