data_PCOD8067838
_publ_section_title
;
Structure prediction by ZEFSAII (Michael W. Deem and Ramdas Pophale) SiO2 
 PCOD8067838
Probable space group: P 2/M
;
_chemical_formula_sum "Si O2"
_cell_formula_units_Z 26
_cell_length_a 10.635604
_cell_length_b 19.570915
_cell_length_c 6.653020
_cell_angle_alpha 90.000000
_cell_angle_beta 119.612600
_cell_angle_gamma 90.000000
_cell_volume 1203.940164
_symmetry_space_group_name_H-M "P 2/M"
_symmetry_group_IT_number 10
_symmetry_cell_setting 'monoclinic'
loop_
_space_group_symop_operation_xyz
x,y,z
-x,y,-z
-x,-y,-z
x,-y,z
loop_
_atom_site_type_symbol
_atom_site_label
_atom_site_fract_x
_atom_site_fract_y
_atom_site_fract_z
Si Si1 0.359114 0.803052 0.761355
Si Si2 0.096914 0.236903 0.763544
Si Si3 0.647211 0.321486 0.519354
Si Si4 0.868375 0.368113 0.010659
Si Si5 0.143411 0.076775 0.482550
Si Si6 0.336002 0.422279 0.817899
Si Si7 0.000000 0.868124 0.000000
O O1 0.263165 0.755221 0.829606
O O2 0.384415 0.755921 0.584109
O O3 0.273349 0.872271 0.641951
O O4 0.500000 0.822559 0.000000
O O5 0.044110 0.311122 0.792516
O O6 0.094517 0.179530 0.931257
O O7 0.000000 0.212210 0.500000
O O8 0.500000 0.350750 0.500000
O O9 0.708497 0.372055 0.395977
O O10 0.768635 0.322714 0.785397
O O11 0.771377 0.416537 0.074729
O O12 0.000000 0.408751 0.000000
O O13 0.000000 0.090522 0.500000
O O14 0.200534 0.000000 0.563843
O O15 0.106050 0.085193 0.217101
O O16 0.326404 0.500000 0.732832
O O17 0.500000 0.402533 0.000000
#
# Coordination Sequence:
#
# PCOD8067838 Si02
#       7
#     4   4   4   4   4   4   2
#     4  12  23  41  66  97 137 170 216 281 340 390
#     4  12  22  40  66  98 130 174 219 272 336 398
#     4  12  24  44  70 100 130 181 233 274 335 414
#     4  12  25  39  69 104 136 172 226 292 342 392
#     4  11  24  43  67  96 132 178 226 273 332 407
#     4  11  25  46  69  95 139 186 225 272 338 416
#     4  12  19  40  70  94 121 176 228 270 317 398
#
# _framework density 21.595756999999999
#
# number of rings (size 3 to 8) (size 9 to 14) (size 15 to 20)
#    0.000    0.308    6.923    3.462    0.000    1.538 
#    0.000    0.769    0.000    1.385    0.000    0.000 
#    0.000    0.000    0.000    0.000    0.000    0.000 
#
# Total GULP energy -322315.317062 kJ/mol
# GULP energy per Si atom -12396.742964 kJ/mol
# Density = 2.154660 g / cm^3
# Si number density = 21.595757 Si / 1000 Ang^3
#
#
#
# Elastic Constant Matrix: (Units=GPa)
#
#
# Indices 1 2 3 4 5 6 
#
# 1 135.9277 18.9593 35.0830 0.0000 -5.8846 0.0000
# 2 18.9593 107.6001 36.6250 0.0000 -1.7484 0.0000
# 3 35.0830 36.6250 112.6221 0.0000 0.7509 0.0000
# 4 0.0000 0.0000 0.0000 19.9256 0.0000 2.0292
# 5 -5.8846 -1.7484 0.7509 0.0000 34.7733 0.0000
# 6 0.0000 0.0000 0.0000 2.0292 0.0000 25.0137
#
#
#
# Elastic Compliance Matrix: (Units=1/GPa)
#
#
# Indices 1 2 3 4 5 6 
#
# 1 0.008105 -0.000611 -0.002336 0.000000 0.001391 0.000000
# 2 -0.000611 0.010509 -0.003231 0.000000 0.000495 0.000000
# 3 -0.002336 -0.003231 0.010663 0.000000 -0.000788 0.000000
# 4 0.000000 0.000000 0.000000 0.050605 0.000000 -0.004105
# 5 0.001391 0.000495 -0.000788 0.000000 0.029035 0.000000
# 6 0.000000 0.000000 0.000000 -0.004105 0.000000 0.040311
#
#
# Mechanical properties :
#
#
# Convention : Reuss Voigt Hill
#
# Bulk Modulus (GPa) = 59.09047 59.72052 59.40549
# Shear Modulus (GPa) = 29.90035 33.64136 31.77086
#
# Velocity S-wave (km/s) = 3.72499 3.95115 3.83973
# Velocity P-wave (km/s) = 6.77659 6.96630 6.87210
#
# Compressibility (1/GPa) = 0.01692320
#
# Stress axis : x y z
#
# Youngs Moduli (GPa) = 123.37991 95.15712 93.78522
#
# Poissons Ratio (x) = 0.05810 0.21904
# Poissons Ratio (y) = 0.07533 0.30299
# Poissons Ratio (z) = 0.28816 0.30742
#
# Static dielectric constant tensor:
#      x y z
#    x 4.173510 0.000000 -0.250000 
#    y 0.000000 3.706320 0.000000 
#    z -0.250000 0.000000 4.077570 
# 
# 
# High freq. dielectric constant tensor:
#      x y z
#    x 1.850640 0.000000 -0.011700 
#    y 0.000000 1.838710 0.000000 
#    z -0.011700 0.000000 1.853120 
# 
# From -- ./inp_files/7777.got.cif
#   From: 2010.06.25/outbox.cif.g09.slc.cpg/sg10_4_cif.got.tgz:7777.got - 2010.06.27 22:07:45.
