data_PCOD8067110
_publ_section_title
;
Structure prediction by ZEFSAII (Michael W. Deem and Ramdas Pophale) SiO2 
 PCOD8067110
Probable space group: P 2/M
;
_chemical_formula_sum "Si O2"
_cell_formula_units_Z 28
_cell_length_a 11.783602
_cell_length_b 8.583723
_cell_length_c 15.508950
_cell_angle_alpha 90.000000
_cell_angle_beta 56.740260
_cell_angle_gamma 90.000000
_cell_volume 1311.724561
_symmetry_space_group_name_H-M "P 2/M"
_symmetry_group_IT_number 10
_symmetry_cell_setting 'monoclinic'
loop_
_space_group_symop_operation_xyz
x,y,z
-x,y,-z
-x,-y,-z
x,-y,z
loop_
_atom_site_type_symbol
_atom_site_label
_atom_site_fract_x
_atom_site_fract_y
_atom_site_fract_z
Si Si1 0.853218 0.819066 0.826082
Si Si2 0.394628 0.819552 0.614752
Si Si3 0.136874 0.681437 0.991491
Si Si4 0.147180 0.318153 0.455132
Si Si5 0.134032 0.680243 0.654066
Si Si6 0.602123 0.820197 0.192049
Si Si7 0.657576 0.316243 0.772631
O O1 0.850023 0.780941 0.927751
O O2 0.732189 0.724879 0.830419
O O3 0.998071 0.776392 0.725628
O O4 0.826056 0.000000 0.823093
O O5 0.500000 0.751769 0.500000
O O6 0.251812 0.729838 0.670001
O O7 0.450890 0.792969 0.687849
O O8 0.366548 0.000000 0.606718
O O9 0.133790 0.500000 0.016699
O O10 0.262785 0.719379 0.877340
O O11 0.000000 0.731600 0.000000
O O12 0.137289 0.500000 0.438000
O O13 0.191629 0.285775 0.534441
O O14 0.255210 0.246628 0.343688
O O15 0.000000 0.241192 0.500000
O O16 0.097073 0.500000 0.682972
O O17 0.488528 0.765593 0.171565
O O18 0.636912 0.000000 0.161074
O O19 0.635135 0.500000 0.775916
#
# Coordination Sequence:
#
# PCOD8067110 Si02
#       7
#     4   4   4   4   4   4   4
#     4  12  25  41  63  93 127 162 204 254 315 378
#     4  10  22  40  61  89 129 170 207 252 309 373
#     4  11  25  46  71  96 121 156 208 262 311 368
#     4   9  17  33  57  87 124 164 206 254 306 356
#     4  11  21  36  61  91 124 164 213 263 309 364
#     4  11  24  42  64  92 129 168 206 253 313 373
#     4  11  22  40  65  92 127 167 212 260 308 365
#
# _framework density 21.345945
#
# number of rings (size 3 to 8) (size 9 to 14) (size 15 to 20)
#    0.000    1.286    1.429    4.714    0.000    5.429 
#    0.000    5.714    0.000    0.000    0.000    0.000 
#    0.000    0.000    0.000    0.000    0.000    0.000 
#
# Total GULP energy -347341.349412 kJ/mol
# GULP energy per Si atom -12405.048193 kJ/mol
# Density = 2.129736 g / cm^3
# Si number density = 21.345945 Si / 1000 Ang^3
#
#
#
# Elastic Constant Matrix: (Units=GPa)
#
#
# Indices 1 2 3 4 5 6 
#
# 1 141.0758 19.5704 34.3834 0.0000 -5.2869 0.0000
# 2 19.5704 51.2752 19.8664 0.0000 1.5036 0.0000
# 3 34.3834 19.8664 91.3270 0.0000 -0.5840 0.0000
# 4 0.0000 0.0000 0.0000 29.5743 0.0000 -0.2327
# 5 -5.2869 1.5036 -0.5840 0.0000 36.1139 0.0000
# 6 0.0000 0.0000 0.0000 -0.2327 0.0000 31.0505
#
#
#
# Elastic Compliance Matrix: (Units=1/GPa)
#
#
# Indices 1 2 3 4 5 6 
#
# 1 0.008053 -0.002116 -0.002564 0.000000 0.001226 0.000000
# 2 -0.002116 0.021887 -0.003973 0.000000 -0.001285 0.000000
# 3 -0.002564 -0.003973 0.012779 0.000000 -0.000003 0.000000
# 4 0.000000 0.000000 0.000000 0.033815 0.000000 0.000253
# 5 0.001226 -0.001285 -0.000003 0.000000 0.027923 0.000000
# 6 0.000000 0.000000 0.000000 0.000253 0.000000 0.032208
#
#
# Mechanical properties :
#
#
# Convention : Reuss Voigt Hill
#
# Bulk Modulus (GPa) = 39.34829 47.92426 43.63628
# Shear Modulus (GPa) = 30.78049 33.33826 32.05937
#
# Velocity S-wave (km/s) = 3.80146 3.95626 3.87963
# Velocity P-wave (km/s) = 6.14344 6.58554 6.36832
#
# Compressibility (1/GPa) = 0.02541407
#
# Stress axis : x y z
#
# Youngs Moduli (GPa) = 124.18226 45.68885 78.25368
#
# Poissons Ratio (x) = 0.09669 0.20061
# Poissons Ratio (y) = 0.26279 0.31087
# Poissons Ratio (z) = 0.31835 0.18150
#
# Static dielectric constant tensor:
#      x y z
#    x 3.836230 0.000000 0.000780 
#    y 0.000000 3.648300 0.000000 
#    z 0.000780 0.000000 3.875560 
# 
# 
# High freq. dielectric constant tensor:
#      x y z
#    x 1.847100 0.000000 0.002820 
#    y 0.000000 1.825390 0.000000 
#    z 0.002820 0.000000 1.839620 
# 
# From -- ./inp_files/50023.got.cif
#   From: 2010.06.25/outbox.cif.g09.slc.cpg/sg10_26_cif.got.tgz:50023.got - 2010.06.27 22:07:45.
