data_PCOD8067144
_publ_section_title
;
Structure prediction by ZEFSAII (Michael W. Deem and Ramdas Pophale) SiO2 
 PCOD8067144
Probable space group: P 2/M
;
_chemical_formula_sum "Si O2"
_cell_formula_units_Z 28
_cell_length_a 19.278866
_cell_length_b 8.668928
_cell_length_c 16.240057
_cell_angle_alpha 90.000000
_cell_angle_beta 149.014119
_cell_angle_gamma 90.000000
_cell_volume 1397.319130
_symmetry_space_group_name_H-M "P 2/M"
_symmetry_group_IT_number 10
_symmetry_cell_setting 'monoclinic'
loop_
_space_group_symop_operation_xyz
x,y,z
-x,y,-z
-x,-y,-z
x,-y,z
loop_
_atom_site_type_symbol
_atom_site_label
_atom_site_fract_x
_atom_site_fract_y
_atom_site_fract_z
Si Si1 0.281277 0.817550 0.589190
Si Si2 0.550264 0.320404 0.790628
Si Si3 0.910555 0.178846 0.984992
Si Si4 0.786727 0.182355 0.134038
Si Si5 0.601959 0.175721 0.676994
Si Si6 0.651460 0.182688 0.161227
Si Si7 0.990312 0.318465 0.744823
O O1 0.417018 0.756509 0.688608
O O2 0.278653 0.767439 0.682432
O O3 0.160847 0.742322 0.416035
O O4 0.274225 0.000000 0.572253
O O5 0.555314 0.500000 0.818312
O O6 0.558624 0.297123 0.701808
O O7 0.676000 0.231247 0.955932
O O8 0.945463 0.268443 0.103646
O O9 0.942645 0.000000 0.033629
O O10 0.754774 0.206690 0.803044
O O11 0.000000 0.241748 0.000000
O O12 0.744134 0.244908 0.180950
O O13 0.928238 0.254146 0.250795
O O14 0.802693 0.000000 0.150125
O O15 0.500000 0.207173 0.500000
O O16 0.588311 0.000000 0.695810
O O17 0.639803 0.000000 0.142902
O O18 0.500000 0.252587 0.000000
O O19 0.991385 0.500000 0.741585
#
# Coordination Sequence:
#
# PCOD8067144 Si02
#       7
#     4   4   4   4   4   4   4
#     4  11  23  42  67  92 123 166 215 261 307 369
#     4  12  24  39  61  95 132 166 204 254 315 371
#     4  10  22  41  65  92 122 162 211 256 305 367
#     4  11  21  40  68  92 121 167 216 257 305 369
#     4  10  22  40  64  94 124 160 209 258 304 364
#     4   9  18  36  64  96 121 154 212 269 307 354
#     4  12  26  43  61  92 133 167 205 255 317 376
#
# _framework density 20.038371999999999
#
# number of rings (size 3 to 8) (size 9 to 14) (size 15 to 20)
#    0.000    1.286    2.857    3.429    2.000    1.143 
#    0.000    6.429    0.000    0.000    0.000    0.000 
#    0.000    0.000    0.000    0.000    0.000    0.000 
#
# Total GULP energy -347297.976885 kJ/mol
# GULP energy per Si atom -12403.499174 kJ/mol
# Density = 1.999276 g / cm^3
# Si number density = 20.038372 Si / 1000 Ang^3
#
#
#
# Elastic Constant Matrix: (Units=GPa)
#
#
# Indices 1 2 3 4 5 6 
#
# 1 159.0416 31.7893 69.7587 0.0000 29.5383 0.0000
# 2 31.7893 87.7568 22.2529 0.0000 -1.6412 0.0000
# 3 69.7587 22.2529 161.2052 0.0000 37.0360 0.0000
# 4 0.0000 0.0000 0.0000 19.9092 0.0000 14.0321
# 5 29.5383 -1.6412 37.0360 0.0000 52.7983 0.0000
# 6 0.0000 0.0000 0.0000 14.0321 0.0000 15.7377
#
#
#
# Elastic Compliance Matrix: (Units=1/GPa)
#
#
# Indices 1 2 3 4 5 6 
#
# 1 0.008495 -0.002459 -0.002655 0.000000 -0.002967 0.000000
# 2 -0.002459 0.012666 -0.001300 0.000000 0.002682 0.000000
# 3 -0.002655 -0.001300 0.008583 0.000000 -0.004576 0.000000
# 4 0.000000 0.000000 0.000000 0.135174 0.000000 -0.120524
# 5 -0.002967 0.002682 -0.004576 0.000000 0.023893 0.000000
# 6 0.000000 0.000000 0.000000 -0.120524 0.000000 0.171003
#
#
# Mechanical properties :
#
#
# Convention : Reuss Voigt Hill
#
# Bulk Modulus (GPa) = 59.12141 72.84504 65.98322
# Shear Modulus (GPa) = 13.21772 36.63587 24.92679
#
# Velocity S-wave (km/s) = 2.57109 4.28048 3.53080
# Velocity P-wave (km/s) = 6.19534 7.80139 7.04429
#
# Compressibility (1/GPa) = 0.01691435
#
# Stress axis : x y z
#
# Youngs Moduli (GPa) = 117.72042 78.95209 116.51141
#
# Poissons Ratio (x) = 0.19418 0.30932
# Poissons Ratio (y) = 0.28952 0.15150
# Poissons Ratio (z) = 0.31253 0.10266
#
# Static dielectric constant tensor:
#      x y z
#    x 3.930110 0.000000 0.030330 
#    y 0.000000 3.490420 0.000000 
#    z 0.030330 0.000000 3.742730 
# 
# 
# High freq. dielectric constant tensor:
#      x y z
#    x 1.796150 0.000000 0.004750 
#    y 0.000000 1.767480 0.000000 
#    z 0.004750 0.000000 1.787470 
# 
# From -- ./inp_files/79297.got.cif
#   From: 2010.06.25/outbox.cif.g09.slc.cpg/sg10_40_cif.got.tgz:79297.got - 2010.06.27 22:07:45.
