data_PCOD8067778
_publ_section_title
;
Structure prediction by ZEFSAII (Michael W. Deem and Ramdas Pophale) SiO2 
 PCOD8067778
Probable space group: P 2/M
;
_chemical_formula_sum "Si O2"
_cell_formula_units_Z 28
_cell_length_a 9.969861
_cell_length_b 7.738851
_cell_length_c 28.483704
_cell_angle_alpha 90.000000
_cell_angle_beta 142.578938
_cell_angle_gamma 90.000000
_cell_volume 1335.452038
_symmetry_space_group_name_H-M "P 2/M"
_symmetry_group_IT_number 10
_symmetry_cell_setting 'monoclinic'
loop_
_space_group_symop_operation_xyz
x,y,z
-x,y,-z
-x,-y,-z
x,-y,z
loop_
_atom_site_type_symbol
_atom_site_label
_atom_site_fract_x
_atom_site_fract_y
_atom_site_fract_z
Si Si1 0.738431 0.000000 0.044103
Si Si2 0.126563 0.805412 0.676529
Si Si3 0.613677 0.196404 0.676183
Si Si4 0.154903 0.696067 0.583524
Si Si5 0.400736 0.306276 0.166873
Si Si6 0.664113 0.302017 0.585671
Si Si7 0.929354 0.698498 0.841053
Si Si8 0.743538 0.000000 0.936549
O O1 0.866179 0.826682 0.094910
O O2 0.500000 0.000000 0.000000
O O3 0.690515 0.000000 0.976011
O O4 0.108127 0.813582 0.615362
O O5 0.341695 0.696106 0.749362
O O6 0.915694 0.712806 0.639682
O O7 0.145191 0.000000 0.701300
O O8 0.406530 0.304438 0.636672
O O9 0.633400 0.200880 0.625575
O O10 0.830823 0.274800 0.761509
O O11 0.584264 0.000000 0.684337
O O12 0.086610 0.500000 0.576779
O O13 0.000000 0.773226 0.500000
O O14 0.338694 0.500000 0.132930
O O15 0.258832 0.254487 0.173139
O O16 0.356981 0.173454 0.113092
O O17 0.500000 0.225043 0.500000
O O18 0.601776 0.500000 0.577624
O O19 0.009772 0.500000 0.868810
O O20 0.000000 0.000000 0.000000
#
# Coordination Sequence:
#
# PCOD8067778 Si02
#       8
#     2   4   4   4   4   4   4   2
#     4  12  28  48  72 106 145 174 216 270 333 406
#     4  12  24  40  65  94 131 172 226 284 331 391
#     4  12  24  40  67  95 130 177 230 277 335 404
#     4  11  23  38  59  92 130 172 225 281 334 391
#     4  11  23  42  72 105 135 174 227 279 333 395
#     4  11  25  44  63  90 133 182 230 284 343 401
#     4  11  23  44  73 102 136 178 223 274 334 399
#     4  12  24  44  74 102 139 174 218 272 333 410
#
# _framework density 20.966684999999998
#
# number of rings (size 3 to 8) (size 9 to 14) (size 15 to 20)
#    0.000    0.571    4.286    4.286    0.000    8.000 
#    0.000    1.429    0.000    0.000    0.000    0.000 
#    0.000    0.000    0.000    0.000    0.000    0.000 
#
# Total GULP energy -347364.356122 kJ/mol
# GULP energy per Si atom -12405.869862 kJ/mol
# Density = 2.091896 g / cm^3
# Si number density = 20.966685 Si / 1000 Ang^3
#
#
#
# Elastic Constant Matrix: (Units=GPa)
#
#
# Indices 1 2 3 4 5 6 
#
# 1 91.7167 15.7255 13.3067 0.0000 -3.1744 0.0000
# 2 15.7255 117.5817 39.3101 0.0000 -4.2482 0.0000
# 3 13.3067 39.3101 65.5758 0.0000 -12.3572 0.0000
# 4 0.0000 0.0000 0.0000 38.3940 0.0000 14.6846
# 5 -3.1744 -4.2482 -12.3572 0.0000 43.8118 0.0000
# 6 0.0000 0.0000 0.0000 14.6846 0.0000 10.2843
#
#
#
# Elastic Compliance Matrix: (Units=1/GPa)
#
#
# Indices 1 2 3 4 5 6 
#
# 1 0.011318 -0.000941 -0.001685 0.000000 0.000254 0.000000
# 2 -0.000941 0.010742 -0.006405 0.000000 -0.000833 0.000000
# 3 -0.001685 -0.006405 0.020374 0.000000 0.005003 0.000000
# 4 0.000000 0.000000 0.000000 0.057385 0.000000 -0.081937
# 5 0.000254 -0.000833 0.005003 0.000000 0.024174 0.000000
# 6 0.000000 0.000000 0.000000 -0.081937 0.000000 0.214231
#
#
# Mechanical properties :
#
#
# Convention : Reuss Voigt Hill
#
# Bulk Modulus (GPa) = 41.03203 45.72875 43.38039
# Shear Modulus (GPa) = 13.72083 32.26683 22.99383
#
# Velocity S-wave (km/s) = 2.56092 3.92721 3.31521
# Velocity P-wave (km/s) = 5.32513 6.51318 5.94889
#
# Compressibility (1/GPa) = 0.02437120
#
# Stress axis : x y z
#
# Youngs Moduli (GPa) = 88.35711 93.09281 49.08222
#
# Poissons Ratio (x) = 0.08763 0.08268
# Poissons Ratio (y) = 0.08317 0.31439
# Poissons Ratio (z) = 0.14884 0.59630
#
# Static dielectric constant tensor:
#      x y z
#    x 3.784530 0.000000 -0.010370 
#    y 0.000000 3.709450 0.000000 
#    z -0.010370 0.000000 3.889710 
# 
# 
# High freq. dielectric constant tensor:
#      x y z
#    x 1.813280 0.000000 -0.002910 
#    y 0.000000 1.834220 0.000000 
#    z -0.002910 0.000000 1.824960 
# 
# From -- ./inp_files/92119.got.cif
#   From: 2010.06.25/outbox.cif.g09.slc.cpg/sg10_47_cif.got.tgz:92119.got - 2010.06.27 22:07:45.
