data_PCOD8067246
_publ_section_title
;
Structure prediction by ZEFSAII (Michael W. Deem and Ramdas Pophale) SiO2 
 PCOD8067246
Probable space group: P 2/M
;
_chemical_formula_sum "Si O2"
_cell_formula_units_Z 28
_cell_length_a 10.252192
_cell_length_b 8.503887
_cell_length_c 30.871126
_cell_angle_alpha 90.000000
_cell_angle_beta 32.579872
_cell_angle_gamma 90.000000
_cell_volume 1449.279216
_symmetry_space_group_name_H-M "P 2/M"
_symmetry_group_IT_number 10
_symmetry_cell_setting 'monoclinic'
loop_
_space_group_symop_operation_xyz
x,y,z
-x,y,-z
-x,-y,-z
x,-y,z
loop_
_atom_site_type_symbol
_atom_site_label
_atom_site_fract_x
_atom_site_fract_y
_atom_site_fract_z
Si Si1 0.370955 0.314945 0.743879
Si Si2 0.307931 0.684191 0.663731
Si Si3 0.646522 0.816721 0.501421
Si Si4 0.440623 0.813976 0.082785
Si Si5 0.839716 0.684137 0.662822
Si Si6 0.119022 0.186010 0.094367
Si Si7 0.172140 0.815583 0.241411
O O1 0.377939 0.500000 0.742373
O O2 0.346923 0.252524 0.701554
O O3 0.618630 0.251764 0.695577
O O4 0.146096 0.259233 0.836140
O O5 0.244343 0.500000 0.680607
O O6 0.552758 0.717006 0.568543
O O7 0.095905 0.784094 0.701196
O O8 0.500000 0.761878 0.500000
O O9 0.927978 0.782549 0.416298
O O10 0.606364 0.000000 0.521696
O O11 0.245188 0.748369 0.102900
O O12 0.369480 0.757079 0.150701
O O13 0.424545 0.000000 0.084487
O O14 0.712599 0.760424 0.993499
O O15 0.889214 0.500000 0.642146
O O16 0.774721 0.715626 0.730887
O O17 0.092776 0.000000 0.102917
O O18 0.196206 0.000000 0.244940
#
# Coordination Sequence:
#
# PCOD8067246 Si02
#       7
#     4   4   4   4   4   4   4
#     4  10  23  40  56  83 119 152 188 230 278 336
#     4  11  22  37  60  85 113 149 187 228 281 337
#     4  11  23  39  60  87 115 142 185 238 280 327
#     4   8  16  30  54  86 115 143 185 237 282 326
#     4  11  24  41  59  80 115 156 188 226 282 341
#     4   9  16  32  57  83 112 150 188 230 283 332
#     4  11  20  35  58  87 115 144 189 240 279 326
#
# _framework density 19.319946999999999
#
# number of rings (size 3 to 8) (size 9 to 14) (size 15 to 20)
#    0.000    1.857    2.857    2.571    0.000    2.857 
#    0.000    6.429    0.000    4.286    0.000    0.000 
#    0.000    0.000    0.000    0.000    0.000    0.000 
#
# Total GULP energy -347227.776387 kJ/mol
# GULP energy per Si atom -12400.992014 kJ/mol
# Density = 1.927597 g / cm^3
# Si number density = 19.319947 Si / 1000 Ang^3
#
#
#
# Elastic Constant Matrix: (Units=GPa)
#
#
# Indices 1 2 3 4 5 6 
#
# 1 100.3377 16.1933 46.6744 0.0000 -7.9578 0.0000
# 2 16.1933 23.0593 10.2200 0.0000 -1.7746 0.0000
# 3 46.6744 10.2200 137.1450 0.0000 -1.9893 0.0000
# 4 0.0000 0.0000 0.0000 22.5969 0.0000 -3.5604
# 5 -7.9578 -1.7746 -1.9893 0.0000 32.7480 0.0000
# 6 0.0000 0.0000 0.0000 -3.5604 0.0000 18.9278
#
#
#
# Elastic Compliance Matrix: (Units=1/GPa)
#
#
# Indices 1 2 3 4 5 6 
#
# 1 0.013164 -0.007320 -0.003897 0.000000 0.002565 0.000000
# 2 -0.007320 0.049081 -0.001155 0.000000 0.000811 0.000000
# 3 -0.003897 -0.001155 0.008697 0.000000 -0.000481 0.000000
# 4 0.000000 0.000000 0.000000 0.045605 0.000000 0.008579
# 5 0.002565 0.000811 -0.000481 0.000000 0.031174 0.000000
# 6 0.000000 0.000000 0.000000 0.008579 0.000000 0.054446
#
#
# Mechanical properties :
#
#
# Convention : Reuss Voigt Hill
#
# Bulk Modulus (GPa) = 21.64577 45.19083 33.41830
# Shear Modulus (GPa) = 20.63468 27.35150 23.99309
#
# Velocity S-wave (km/s) = 3.27165 3.76668 3.52786
# Velocity P-wave (km/s) = 5.04973 6.50836 5.82488
#
# Compressibility (1/GPa) = 0.04619841
#
# Stress axis : x y z
#
# Youngs Moduli (GPa) = 75.96421 20.37460 114.98181
#
# Poissons Ratio (x) = 0.14913 0.44814
# Poissons Ratio (y) = 0.55603 0.13276
# Poissons Ratio (z) = 0.29607 0.02353
#
# Static dielectric constant tensor:
#      x y z
#    x 3.611150 0.000000 0.147430 
#    y 0.000000 3.259060 0.000000 
#    z 0.147430 0.000000 3.935250 
# 
# 
# High freq. dielectric constant tensor:
#      x y z
#    x 1.731420 0.000000 0.004250 
#    y 0.000000 1.737770 0.000000 
#    z 0.004250 0.000000 1.769380 
# 
# From -- ./inp_files/91939.got.cif
#   From: 2010.06.25/outbox.cif.g09.slc.cpg/sg10_46_cif.got.tgz:91939.got - 2010.06.27 22:07:45.
