data_PCOD8067518
_publ_section_title
;
Structure prediction by ZEFSAII (Michael W. Deem and Ramdas Pophale) SiO2 
 PCOD8067518
Probable space group: P 2/M
;
_chemical_formula_sum "Si O2"
_cell_formula_units_Z 24
_cell_length_a 26.179328
_cell_length_b 9.112020
_cell_length_c 12.334924
_cell_angle_alpha 90.000000
_cell_angle_beta 27.469010
_cell_angle_gamma 90.000000
_cell_volume 1357.262029
_symmetry_space_group_name_H-M "P 2/M"
_symmetry_group_IT_number 10
_symmetry_cell_setting 'monoclinic'
loop_
_space_group_symop_operation_xyz
x,y,z
-x,y,-z
-x,-y,-z
x,-y,z
loop_
_atom_site_type_symbol
_atom_site_label
_atom_site_fract_x
_atom_site_fract_y
_atom_site_fract_z
Si Si1 0.296155 0.330297 0.902664
Si Si2 0.448542 0.834147 0.757732
Si Si3 0.840443 0.826489 0.221488
Si Si4 0.207582 0.165679 0.252863
Si Si5 0.662970 0.329616 0.416149
Si Si6 0.921561 0.173433 0.299590
O O1 0.308975 0.500000 0.908220
O O2 0.411786 0.247674 0.715069
O O3 0.274546 0.305700 0.816249
O O4 0.195635 0.260680 0.163839
O O5 0.543834 0.747399 0.640758
O O6 0.487675 0.000000 0.658172
O O7 0.337917 0.834780 0.042145
O O8 0.735512 0.741419 0.373461
O O9 0.858530 0.771372 0.310558
O O10 0.819096 0.000000 0.255381
O O11 0.949405 0.782670 0.946987
O O12 0.135562 0.239275 0.484788
O O13 0.166973 0.000000 0.304730
O O14 0.645111 0.500000 0.474808
O O15 0.909130 0.000000 0.324953
#
# Coordination Sequence:
#
# PCOD8067518 Si02
#       6
#     4   4   4   4   4   4
#     4   9  18  31  47  70  99 134 162 190 238 286
#     4   9  18  30  50  75  97 127 162 197 237 286
#     4   9  18  32  56  76  92 124 163 203 242 286
#     4   8  16  30  51  74  96 124 160 200 239 286
#     4  11  21  32  46  70 106 133 158 197 238 284
#     4   8  15  34  56  75  94 119 161 207 248 283
#
# _framework density 17.682656999999999
#
# number of rings (size 3 to 8) (size 9 to 14) (size 15 to 20)
#    1.000    2.000    0.000    2.500    0.000    4.667 
#    0.000    5.000    0.000   10.000    0.000    0.000 
#    0.000    0.000    0.000    0.000    0.000    0.000 
#
# Total GULP energy -297353.680331 kJ/mol
# GULP energy per Si atom -12389.736680 kJ/mol
# Density = 1.764241 g / cm^3
# Si number density = 17.682657 Si / 1000 Ang^3
#
#
#
# Elastic Constant Matrix: (Units=GPa)
#
#
# Indices 1 2 3 4 5 6 
#
# 1 28.0353 8.5543 -16.6002 0.0000 -12.5906 0.0000
# 2 8.5543 74.9300 4.3643 0.0000 -1.6150 0.0000
# 3 -16.6002 4.3643 35.0608 0.0000 16.0739 0.0000
# 4 0.0000 0.0000 0.0000 9.9756 0.0000 0.0143
# 5 -12.5906 -1.6150 16.0739 0.0000 20.2971 0.0000
# 6 0.0000 0.0000 0.0000 0.0143 0.0000 20.1231
#
#
#
# Elastic Compliance Matrix: (Units=1/GPa)
#
#
# Indices 1 2 3 4 5 6 
#
# 1 0.058491 -0.007356 0.019223 0.000000 0.020475 0.000000
# 2 -0.007356 0.014554 -0.005861 0.000000 0.001237 0.000000
# 3 0.019223 -0.005861 0.051968 0.000000 -0.029697 0.000000
# 4 0.000000 0.000000 0.000000 0.100245 0.000000 -0.000071
# 5 0.020475 0.001237 -0.029697 0.000000 0.085585 0.000000
# 6 0.000000 0.000000 0.000000 -0.000071 0.000000 0.049694
#
#
# Mechanical properties :
#
#
# Convention : Reuss Voigt Hill
#
# Bulk Modulus (GPa) = 7.29806 14.51811 10.90808
# Shear Modulus (GPa) = 12.68390 19.52634 16.10512
#
# Velocity S-wave (km/s) = 2.68117 3.32665 3.02120
# Velocity P-wave (km/s) = 3.70420 4.79413 4.28397
#
# Compressibility (1/GPa) = 0.13702268
#
# Stress axis : x y z
#
# Youngs Moduli (GPa) = 17.09662 68.71143 19.24275
#
# Poissons Ratio (x) = 0.50543 -0.36989
# Poissons Ratio (y) = 0.12576 0.11279
# Poissons Ratio (z) = -0.32864 0.40275
#
# Static dielectric constant tensor:
#      x y z
#    x 3.031330 0.000000 0.173720 
#    y 0.000000 3.131740 0.000000 
#    z 0.173720 0.000000 3.381500 
# 
# 
# High freq. dielectric constant tensor:
#      x y z
#    x 1.657730 0.000000 0.004330 
#    y 0.000000 1.672880 0.000000 
#    z 0.004330 0.000000 1.675590 
# 
# From -- ./inp_files/57226.got.cif
#   From: 2010.06.25/outbox.cif.g09.slc.cpg/sg10_29_cif.got.tgz:57226.got - 2010.06.27 22:07:45.
