data_PCOD8067526
_publ_section_title
;
Structure prediction by ZEFSAII (Michael W. Deem and Ramdas Pophale) SiO2 
 PCOD8067526
Probable space group: P 2/M
;
_chemical_formula_sum "Si O2"
_cell_formula_units_Z 28
_cell_length_a 13.783455
_cell_length_b 9.208388
_cell_length_c 16.125740
_cell_angle_alpha 90.000000
_cell_angle_beta 48.894506
_cell_angle_gamma 90.000000
_cell_volume 1542.214624
_symmetry_space_group_name_H-M "P 2/M"
_symmetry_group_IT_number 10
_symmetry_cell_setting 'monoclinic'
loop_
_space_group_symop_operation_xyz
x,y,z
-x,y,-z
-x,-y,-z
x,-y,z
loop_
_atom_site_type_symbol
_atom_site_label
_atom_site_fract_x
_atom_site_fract_y
_atom_site_fract_z
Si Si1 0.937317 0.827544 0.617507
Si Si2 0.494498 0.671822 0.373276
Si Si3 0.451835 0.672394 0.840529
Si Si4 0.965770 0.171170 0.262717
Si Si5 0.707244 0.328117 0.381676
Si Si6 0.660716 0.167341 0.824128
Si Si7 0.243090 0.833518 0.045971
O O1 0.788283 0.782223 0.703449
O O2 0.000000 0.758574 0.500000
O O3 0.012904 0.770108 0.655661
O O4 0.946618 0.000000 0.612542
O O5 0.496789 0.500000 0.371634
O O6 0.501741 0.731658 0.275416
O O7 0.362962 0.722306 0.493130
O O8 0.618772 0.724865 0.355006
O O9 0.448953 0.500000 0.844935
O O10 0.545968 0.731463 0.858404
O O11 0.308649 0.732182 0.939791
O O12 0.843911 0.251668 0.292927
O O13 0.092938 0.209312 0.137936
O O14 0.940847 0.000000 0.276082
O O15 0.728206 0.500000 0.368865
O O16 0.683296 0.189716 0.908681
O O17 0.626037 0.000000 0.824708
O O18 0.255987 0.000000 0.010727
#
# Coordination Sequence:
#
# PCOD8067526 Si02
#       7
#     4   4   4   4   4   4   4
#     4   8  15  28  46  70 100 131 161 192 234 294
#     4   8  18  35  52  73 100 130 163 201 247 302
#     4  11  21  32  50  75 101 127 167 215 247 278
#     4   9  18  32  52  76 100 126 161 208 248 284
#     4   9  17  35  58  72  94 133 166 195 248 310
#     4   9  18  32  50  71  98 136 170 196 238 296
#     4   9  19  36  51  69 102 139 168 195 240 300
#
# _framework density 18.155708000000001
#
# number of rings (size 3 to 8) (size 9 to 14) (size 15 to 20)
#    0.000    3.000    0.000    3.429    2.000    2.857 
#    0.000    6.429    0.000    5.143    0.000    0.000 
#    0.000    0.000    0.000    0.000    0.000    0.000 
#
# Total GULP energy -347094.639785 kJ/mol
# GULP energy per Si atom -12396.237135 kJ/mol
# Density = 1.811438 g / cm^3
# Si number density = 18.155708 Si / 1000 Ang^3
#
#
#
# Elastic Constant Matrix: (Units=GPa)
#
#
# Indices 1 2 3 4 5 6 
#
# 1 85.9325 32.0021 35.3808 0.0000 -22.0846 0.0000
# 2 32.0021 47.6618 34.3186 0.0000 -7.8849 0.0000
# 3 35.3808 34.3186 94.6269 0.0000 -11.8042 0.0000
# 4 0.0000 0.0000 0.0000 -153.6200 0.0000 69.4514
# 5 -22.0846 -7.8849 -11.8042 0.0000 23.4268 0.0000
# 6 0.0000 0.0000 0.0000 69.4514 0.0000 -3.6149
#
#
#
# Elastic Compliance Matrix: (Units=1/GPa)
#
#
# Indices 1 2 3 4 5 6 
#
# 1 0.019671 -0.009244 -0.002217 0.000000 0.014316 0.000000
# 2 -0.009244 0.033225 -0.008842 0.000000 -0.001986 0.000000
# 3 -0.002217 -0.008842 0.014908 0.000000 0.002446 0.000000
# 4 0.000000 0.000000 0.000000 0.000847 0.000000 0.016272
# 5 0.014316 -0.001986 0.002446 0.000000 0.056746 0.000000
# 6 0.000000 0.000000 0.000000 0.016272 0.000000 0.035992
#
#
# Mechanical properties :
#
#
# Convention : Reuss Voigt Hill
#
# Bulk Modulus (GPa) = 36.76289 47.95823 42.36056
# Shear Modulus (GPa) = 23.68976 -18.32698 2.68139
#
# Velocity S-wave (km/s) = 3.61614 -3.18060 1.21659
# Velocity P-wave (km/s) = 6.14230 3.60333 5.03547
#
# Compressibility (1/GPa) = 0.02720134
#
# Stress axis : x y z
#
# Youngs Moduli (GPa) = 50.83518 30.09739 67.07606
#
# Poissons Ratio (x) = 0.27821 0.14870
# Poissons Ratio (y) = 0.46990 0.59306
# Poissons Ratio (z) = 0.11269 0.26611
#
# Static dielectric constant tensor:
#      x y z
#    x 3.271290 0.000000 0.012600 
#    y 0.000000 2.956750 0.000000 
#    z 0.012600 0.000000 3.792160 
# 
# 
# High freq. dielectric constant tensor:
#      x y z
#    x 1.693770 0.000000 -0.011590 
#    y 0.000000 1.669030 0.000000 
#    z -0.011590 0.000000 1.712790 
# 
# From -- ./inp_files/63660.got.cif
#   From: 2010.06.25/outbox.cif.g09.slc.cpg/sg10_32_cif.got.tgz:63660.got - 2010.06.27 22:07:45.
