data_PCOD8067914
_publ_section_title
;
Structure prediction by ZEFSAII (Michael W. Deem and Ramdas Pophale) SiO2 
 PCOD8067914
Probable space group: P 2/M
;
_chemical_formula_sum "Si O2"
_cell_formula_units_Z 28
_cell_length_a 23.602873
_cell_length_b 9.274049
_cell_length_c 18.906841
_cell_angle_alpha 90.000000
_cell_angle_beta 24.092652
_cell_angle_gamma 90.000000
_cell_volume 1689.431054
_symmetry_space_group_name_H-M "P 2/M"
_symmetry_group_IT_number 10
_symmetry_cell_setting 'monoclinic'
loop_
_space_group_symop_operation_xyz
x,y,z
-x,y,-z
-x,-y,-z
x,-y,z
loop_
_atom_site_type_symbol
_atom_site_label
_atom_site_fract_x
_atom_site_fract_y
_atom_site_fract_z
Si Si1 0.910462 0.337564 0.949219
Si Si2 0.770123 0.337571 0.370205
Si Si3 0.929774 0.171959 0.509512
Si Si4 0.840482 0.836840 0.159523
Si Si5 0.702106 0.839477 0.575420
Si Si6 0.979595 0.160518 0.742888
Si Si7 0.630949 0.171950 0.808343
O O1 0.852029 0.500000 0.013560
O O2 0.070248 0.337949 0.789266
O O3 0.891706 0.266878 0.893094
O O4 0.821936 0.245698 0.106403
O O5 0.717597 0.500000 0.416822
O O6 0.750264 0.245686 0.321413
O O7 0.676505 0.266855 0.538706
O O8 0.021022 0.219084 0.337201
O O9 0.772626 0.232123 0.682131
O O10 0.000000 0.236704 0.500000
O O11 0.925284 0.000000 0.517214
O O12 0.784928 0.000000 0.215081
O O13 0.000000 0.838119 0.000000
O O14 0.863335 0.847558 0.410023
O O15 0.620773 0.780914 0.737459
O O16 0.650212 0.000000 0.613803
O O17 0.914183 0.000000 0.821814
O O18 0.632233 0.000000 0.810275
O O19 0.500000 0.236729 0.000000
#
# Coordination Sequence:
#
# PCOD8067914 Si02
#       7
#     4   4   4   4   4   4   4
#     4   9  15  21  29  42  61  85 114 147 180 214
#     4   9  15  21  29  42  61  85 114 147 180 214
#     4   8  13  21  34  52  72  94 122 156 191 225
#     4   9  15  21  29  41  59  85 116 147 178 213
#     4   8  13  21  32  45  62  86 116 147 179 217
#     4   8  13  21  32  45  62  86 116 147 179 217
#     4   8  13  21  34  52  72  94 122 156 191 225
#
# _framework density 16.573626999999998
#
# number of rings (size 3 to 8) (size 9 to 14) (size 15 to 20)
#    0.000    3.571    0.000    3.000    0.000    5.143 
#    0.000    0.000    0.000    0.857    0.000    0.000 
#    0.000    0.000    0.000    1.286    0.000   31.714 
#
# Total GULP energy -346977.520017 kJ/mol
# GULP energy per Si atom -12392.054286 kJ/mol
# Density = 1.653590 g / cm^3
# Si number density = 16.573627 Si / 1000 Ang^3
#
#
#
# Elastic Constant Matrix: (Units=GPa)
#
#
# Indices 1 2 3 4 5 6 
#
# 1 101.2968 52.0333 52.4963 0.0000 44.3540 0.0000
# 2 52.0333 103.3629 38.2427 0.0000 30.2314 0.0000
# 3 52.4963 38.2427 64.9207 0.0000 35.3551 0.0000
# 4 0.0000 0.0000 0.0000 6.2558 0.0000 3.8535
# 5 44.3540 30.2314 35.3551 0.0000 33.9799 0.0000
# 6 0.0000 0.0000 0.0000 3.8535 0.0000 7.9996
#
#
#
# Elastic Compliance Matrix: (Units=1/GPa)
#
#
# Indices 1 2 3 4 5 6 
#
# 1 0.024789 -0.003658 -0.004710 0.000000 -0.024202 0.000000
# 2 -0.003658 0.013903 -0.002529 0.000000 -0.004964 0.000000
# 3 -0.004710 -0.002529 0.037216 0.000000 -0.030324 0.000000
# 4 0.000000 0.000000 0.000000 0.227294 0.000000 -0.109489
# 5 -0.024202 -0.004964 -0.030324 0.000000 0.096988 0.000000
# 6 0.000000 0.000000 0.000000 -0.109489 0.000000 0.177747
#
#
# Mechanical properties :
#
#
# Convention : Reuss Voigt Hill
#
# Bulk Modulus (GPa) = 18.47926 61.68055 40.07991
# Shear Modulus (GPa) = 8.09363 18.10096 13.09729
#
# Velocity S-wave (km/s) = 2.21225 3.30836 2.81419
# Velocity P-wave (km/s) = 4.20706 7.20351 5.89873
#
# Compressibility (1/GPa) = 0.05411472
#
# Stress axis : x y z
#
# Youngs Moduli (GPa) = 40.34051 71.92443 26.87020
#
# Poissons Ratio (x) = 0.26307 0.12656
# Poissons Ratio (y) = 0.14755 0.06796
# Poissons Ratio (z) = 0.19001 0.18191
#
# Static dielectric constant tensor:
#      x y z
#    x 3.140110 0.000000 0.517930 
#    y 0.000000 3.060240 0.000000 
#    z 0.517930 0.000000 2.903820 
# 
# 
# High freq. dielectric constant tensor:
#      x y z
#    x 1.615450 0.000000 0.056710 
#    y 0.000000 1.616000 0.000000 
#    z 0.056710 0.000000 1.589550 
# 
# From -- ./inp_files/54460.got.cif
#   From: 2010.06.25/outbox.cif.g09.slc.cpg/sg10_28_cif.got.tgz:54460.got - 2010.06.27 22:07:45.
