data_PCOD8067085
_publ_section_title
;
Structure prediction by ZEFSAII (Michael W. Deem and Ramdas Pophale) SiO2 
 PCOD8067085
Probable space group: P 2/M
;
_chemical_formula_sum "Si O2"
_cell_formula_units_Z 20
_cell_length_a 22.276445
_cell_length_b 8.953905
_cell_length_c 15.643517
_cell_angle_alpha 90.000000
_cell_angle_beta 160.899266
_cell_angle_gamma 90.000000
_cell_volume 1021.047353
_symmetry_space_group_name_H-M "P 2/M"
_symmetry_group_IT_number 10
_symmetry_cell_setting 'monoclinic'
loop_
_space_group_symop_operation_xyz
x,y,z
-x,y,-z
-x,-y,-z
x,-y,z
loop_
_atom_site_type_symbol
_atom_site_label
_atom_site_fract_x
_atom_site_fract_y
_atom_site_fract_z
Si Si1 0.576813 0.323320 0.970273
Si Si2 0.168460 0.676970 0.994660
Si Si3 0.431152 0.172035 0.216544
Si Si4 0.777098 0.323534 0.407662
Si Si5 0.823495 0.171510 0.815869
O O1 0.576157 0.500000 0.953306
O O2 0.632184 0.242040 0.957973
O O3 0.378496 0.265097 0.736211
O O4 0.728316 0.277551 0.244935
O O5 0.176531 0.500000 0.997265
O O6 0.331883 0.746032 0.160409
O O7 0.195868 0.722418 0.129113
O O8 0.974449 0.742012 0.699145
O O9 0.648422 0.194185 0.519694
O O10 0.374092 0.000000 0.141549
O O11 0.777389 0.500000 0.414881
O O12 0.840777 0.000000 0.869773
O O13 0.000000 0.222727 0.000000
#
# Coordination Sequence:
#
# PCOD8067085 Si02
#       5
#     4   4   4   4   4
#     4   9  17  35  60  81 105 139 180 221 264 313
#     4  11  22  36  56  82 110 140 178 220 263 314
#     4  11  23  37  53  78 112 144 176 217 267 318
#     4   8  17  34  57  83 108 137 175 223 270 310
#     4  10  22  40  59  78 105 141 177 218 270 320
#
# _framework density 19.587731999999999
#
# number of rings (size 3 to 8) (size 9 to 14) (size 15 to 20)
#    0.000    2.200    0.000    4.200    0.000    5.200 
#    0.000    9.000    0.000    0.000    0.000    0.000 
#    0.000    0.000    0.000    0.000    0.000    0.000 
#
# Total GULP energy -248052.272367 kJ/mol
# GULP energy per Si atom -12402.613618 kJ/mol
# Density = 1.954315 g / cm^3
# Si number density = 19.587732 Si / 1000 Ang^3
#
#
#
# Elastic Constant Matrix: (Units=GPa)
#
#
# Indices 1 2 3 4 5 6 
#
# 1 127.2178 42.4770 17.3314 0.0000 -5.6160 0.0000
# 2 42.4770 68.4862 16.8023 0.0000 -4.4210 0.0000
# 3 17.3314 16.8023 52.5646 0.0000 -5.0104 0.0000
# 4 0.0000 0.0000 0.0000 4.5160 0.0000 18.6253
# 5 -5.6160 -4.4210 -5.0104 0.0000 31.3738 0.0000
# 6 0.0000 0.0000 0.0000 18.6253 0.0000 10.8388
#
#
#
# Elastic Compliance Matrix: (Units=1/GPa)
#
#
# Indices 1 2 3 4 5 6 
#
# 1 0.010029 -0.005835 -0.001369 0.000000 0.000754 0.000000
# 2 -0.005835 0.019304 -0.004150 0.000000 0.001013 0.000000
# 3 -0.001369 -0.004150 0.021044 0.000000 0.002531 0.000000
# 4 0.000000 0.000000 0.000000 -0.036378 0.000000 0.062511
# 5 0.000754 0.001013 0.002531 0.000000 0.032556 0.000000
# 6 0.000000 0.000000 0.000000 0.062511 0.000000 -0.015157
#
#
# Mechanical properties :
#
#
# Convention : Reuss Voigt Hill
#
# Bulk Modulus (GPa) = 36.14451 44.61003 40.37727
# Shear Modulus (GPa) = 78.95125 20.78957 49.87041
#
# Velocity S-wave (km/s) = 6.35563 3.26138 5.05127
# Velocity P-wave (km/s) = 8.50596 6.08326 7.39450
#
# Compressibility (1/GPa) = 0.02766672
#
# Stress axis : x y z
#
# Youngs Moduli (GPa) = 99.71269 51.80177 47.52056
#
# Poissons Ratio (x) = 0.30229 0.06508
# Poissons Ratio (y) = 0.58187 0.19721
# Poissons Ratio (z) = 0.13655 0.21498
#
# Static dielectric constant tensor:
#      x y z
#    x 3.509650 0.000000 0.044880 
#    y 0.000000 3.333320 0.000000 
#    z 0.044880 0.000000 3.922180 
# 
# 
# High freq. dielectric constant tensor:
#      x y z
#    x 1.770090 0.000000 -0.002470 
#    y 0.000000 1.742550 0.000000 
#    z -0.002470 0.000000 1.772170 
# 
# From -- ./inp_files/22121.got.cif
#   From: 2010.06.25/outbox.cif.g09.slc.cpg/sg10_12_cif.got.tgz:22121.got - 2010.06.27 22:07:45.
