data_PCOD8067648
_publ_section_title
;
Structure prediction by ZEFSAII (Michael W. Deem and Ramdas Pophale) SiO2 
 PCOD8067648
Probable space group: P 2/M
;
_chemical_formula_sum "Si O2"
_cell_formula_units_Z 20
_cell_length_a 11.140938
_cell_length_b 11.439453
_cell_length_c 14.256513
_cell_angle_alpha 90.000000
_cell_angle_beta 149.668954
_cell_angle_gamma 90.000000
_cell_volume 917.545774
_symmetry_space_group_name_H-M "P 2/M"
_symmetry_group_IT_number 10
_symmetry_cell_setting 'monoclinic'
loop_
_space_group_symop_operation_xyz
x,y,z
-x,y,-z
-x,-y,-z
x,-y,z
loop_
_atom_site_type_symbol
_atom_site_label
_atom_site_fract_x
_atom_site_fract_y
_atom_site_fract_z
Si Si1 0.758436 0.631716 0.282284
Si Si2 0.453538 0.862959 0.576800
Si Si3 0.347935 0.259606 0.113700
Si Si4 0.003032 0.272111 0.270638
Si Si5 0.757044 0.500000 0.891528
Si Si6 0.319014 0.500000 0.461279
O O1 0.646828 0.500000 0.196457
O O2 0.600288 0.724778 0.232837
O O3 0.000000 0.617365 0.500000
O O4 0.807727 0.689209 0.214867
O O5 0.500000 0.822500 0.500000
O O6 0.635385 0.802246 0.773320
O O7 0.189653 0.825928 0.430677
O O8 0.489010 0.000000 0.611789
O O9 0.229726 0.386342 0.037605
O O10 0.146291 0.202861 0.911101
O O11 0.157291 0.385492 0.346724
O O12 0.491939 0.500000 0.667330
O O13 0.000000 0.500000 0.000000
O O14 0.500000 0.500000 0.500000
#
# Coordination Sequence:
#
# PCOD8067648 Si02
#       6
#     4   4   4   4   2   2
#     4  11  21  40  66 101 145 184 217 264 335 416
#     4  11  27  50  71  93 130 181 236 290 340 397
#     4  12  25  42  68 104 139 178 226 274 340 410
#     4  12  24  41  69 102 139 178 222 278 335 408
#     4  12  24  37  62 102 141 179 214 268 336 414
#     4  12  22  39  60  98 144 178 216 269 340 402
#
# _framework density 21.797277000000001
#
# number of rings (size 3 to 8) (size 9 to 14) (size 15 to 20)
#    0.000    0.400    6.000    3.000    2.800    1.600 
#    0.000    4.000    0.000    2.400    0.000    0.000 
#    0.000    0.000    0.000    0.000    0.000    0.000 
#
# Total GULP energy -247809.262964 kJ/mol
# GULP energy per Si atom -12390.463148 kJ/mol
# Density = 2.174767 g / cm^3
# Si number density = 21.797277 Si / 1000 Ang^3
#
#
#
# Elastic Constant Matrix: (Units=GPa)
#
#
# Indices 1 2 3 4 5 6 
#
# 1 115.1014 31.3918 18.6155 0.0000 -2.9557 0.0000
# 2 31.3918 75.6272 22.0186 0.0000 -5.9095 0.0000
# 3 18.6155 22.0186 129.7906 0.0000 -18.3835 0.0000
# 4 0.0000 0.0000 0.0000 -8.9426 0.0000 -35.9130
# 5 -2.9557 -5.9095 -18.3835 0.0000 43.4244 0.0000
# 6 0.0000 0.0000 0.0000 -35.9130 0.0000 -48.9828
#
#
#
# Elastic Compliance Matrix: (Units=1/GPa)
#
#
# Indices 1 2 3 4 5 6 
#
# 1 0.009869 -0.003883 -0.000783 0.000000 -0.000188 0.000000
# 2 -0.003883 0.015475 -0.001923 0.000000 0.001028 0.000000
# 3 -0.000783 -0.001923 0.008615 0.000000 0.003332 0.000000
# 4 0.000000 0.000000 0.000000 0.057511 0.000000 -0.042166
# 5 -0.000188 0.001028 0.003332 0.000000 0.024566 0.000000
# 6 0.000000 0.000000 0.000000 -0.042166 0.000000 0.010500
#
#
# Mechanical properties :
#
#
# Convention : Reuss Voigt Hill
#
# Bulk Modulus (GPa) = 48.12233 51.61900 49.87066
# Shear Modulus (GPa) = 34.09687 13.66602 23.88144
#
# Velocity S-wave (km/s) = 3.95938 2.50663 3.31360
# Velocity P-wave (km/s) = 6.55953 5.66661 6.12935
#
# Compressibility (1/GPa) = 0.02078038
#
# Stress axis : x y z
#
# Youngs Moduli (GPa) = 101.32852 64.62177 116.07334
#
# Poissons Ratio (x) = 0.25093 0.09093
# Poissons Ratio (y) = 0.39347 0.22318
# Poissons Ratio (z) = 0.07938 0.12425
#
# Static dielectric constant tensor:
#      x y z
#    x 4.215390 0.000000 -0.106720 
#    y 0.000000 3.668660 0.000000 
#    z -0.106720 0.000000 4.123790 
# 
# 
# High freq. dielectric constant tensor:
#      x y z
#    x 1.863080 0.000000 -0.001450 
#    y 0.000000 1.818230 0.000000 
#    z -0.001450 0.000000 1.881630 
# 
# From -- ./inp_files/45793.got.cif
#   From: 2010.06.25/outbox.cif.g09.slc.cpg/sg10_23_cif.got.tgz:45793.got - 2010.06.27 22:07:45.
