data_PCOD8067130
_publ_section_title
;
Structure prediction by ZEFSAII (Michael W. Deem and Ramdas Pophale) SiO2 
 PCOD8067130
Probable space group: P 2/M
;
_chemical_formula_sum "Si O2"
_cell_formula_units_Z 32
_cell_length_a 16.397514
_cell_length_b 8.858051
_cell_length_c 11.711544
_cell_angle_alpha 90.000000
_cell_angle_beta 67.975552
_cell_angle_gamma 90.000000
_cell_volume 1576.962204
_symmetry_space_group_name_H-M "P 2/M"
_symmetry_group_IT_number 10
_symmetry_cell_setting 'monoclinic'
loop_
_space_group_symop_operation_xyz
x,y,z
-x,y,-z
-x,-y,-z
x,-y,z
loop_
_atom_site_type_symbol
_atom_site_label
_atom_site_fract_x
_atom_site_fract_y
_atom_site_fract_z
Si Si1 0.165346 0.822504 0.177905
Si Si2 0.754691 0.823903 0.215937
Si Si3 0.242865 0.326192 0.545235
Si Si4 0.100714 0.673792 0.435100
Si Si5 0.908721 0.677692 0.992407
Si Si6 0.651549 0.322070 0.928267
Si Si7 0.402786 0.676390 0.296755
Si Si8 0.577544 0.823405 0.179232
O O1 0.146811 0.775901 0.316703
O O2 0.258520 0.760783 0.086129
O O3 0.165551 0.000000 0.166483
O O4 0.092463 0.754286 0.131499
O O5 0.755766 0.783047 0.348140
O O6 0.828883 0.730157 0.113029
O O7 0.659556 0.780449 0.215965
O O8 0.774731 0.000000 0.189682
O O9 0.251372 0.500000 0.580025
O O10 0.150752 0.300936 0.527945
O O11 0.323030 0.279814 0.421216
O O12 0.108517 0.500000 0.391757
O O13 0.000000 0.724306 0.500000
O O14 0.902991 0.500000 0.979165
O O15 0.000000 0.728255 0.000000
O O16 0.665551 0.500000 0.929501
O O17 0.622654 0.273483 0.817482
O O18 0.580304 0.267121 0.057929
O O19 0.424051 0.500000 0.291624
O O20 0.489044 0.769130 0.289976
O O21 0.573641 0.000000 0.155583
#
# Coordination Sequence:
#
# PCOD8067130 Si02
#       8
#     4   4   4   4   4   4   4   4
#     4  12  24  39  64  97 132 165 201 254 319 370
#     4  11  25  43  62  90 128 165 203 257 318 370
#     4  10  22  42  64  90 122 163 215 259 303 366
#     4  10  22  42  67  93 125 166 211 257 302 364
#     4  11  25  44  68  94 122 165 214 256 304 366
#     4  11  21  39  65  92 125 164 207 255 308 367
#     4  10  22  40  63  91 122 160 209 260 308 363
#     4  11  24  40  60  91 127 163 205 255 315 375
#
# _framework density 20.292179999999998
#
# number of rings (size 3 to 8) (size 9 to 14) (size 15 to 20)
#    0.000    1.250    2.500    3.000    1.750    6.750 
#    0.000    2.500    0.000    0.000    0.000    0.000 
#    0.000    0.000    0.000    0.000    0.000    0.000 
#
# Total GULP energy -397015.696256 kJ/mol
# GULP energy per Si atom -12406.740508 kJ/mol
# Density = 2.024599 g / cm^3
# Si number density = 20.292180 Si / 1000 Ang^3
#
#
#
# Elastic Constant Matrix: (Units=GPa)
#
#
# Indices 1 2 3 4 5 6 
#
# 1 110.2815 37.2275 22.2461 0.0000 -6.1883 0.0000
# 2 37.2275 70.8785 14.6242 0.0000 3.8827 0.0000
# 3 22.2461 14.6242 68.2711 0.0000 8.2618 0.0000
# 4 0.0000 0.0000 0.0000 18.0792 0.0000 8.3089
# 5 -6.1883 3.8827 8.2618 0.0000 30.7840 0.0000
# 6 0.0000 0.0000 0.0000 8.3089 0.0000 21.3071
#
#
#
# Elastic Compliance Matrix: (Units=1/GPa)
#
#
# Indices 1 2 3 4 5 6 
#
# 1 0.011879 -0.005815 -0.003104 0.000000 0.003954 0.000000
# 2 -0.005815 0.017641 -0.001523 0.000000 -0.002985 0.000000
# 3 -0.003104 -0.001523 0.016576 0.000000 -0.004880 0.000000
# 4 0.000000 0.000000 0.000000 0.067390 0.000000 -0.026279
# 5 0.003954 -0.002985 -0.004880 0.000000 0.034966 0.000000
# 6 0.000000 0.000000 0.000000 -0.026279 0.000000 0.057181
#
#
# Mechanical properties :
#
#
# Convention : Reuss Voigt Hill
#
# Bulk Modulus (GPa) = 39.66350 44.18075 41.92212
# Shear Modulus (GPa) = 21.28404 25.72295 23.50350
#
# Velocity S-wave (km/s) = 3.24215 3.56424 3.40701
# Velocity P-wave (km/s) = 5.79690 6.22559 6.01507
#
# Compressibility (1/GPa) = 0.02521210
#
# Stress axis : x y z
#
# Youngs Moduli (GPa) = 84.18425 56.68700 60.32996
#
# Poissons Ratio (x) = 0.32965 0.18724
# Poissons Ratio (y) = 0.48956 0.09186
# Poissons Ratio (z) = 0.26127 0.08631
#
# Static dielectric constant tensor:
#      x y z
#    x 3.900930 0.000000 -0.013000 
#    y 0.000000 3.580880 0.000000 
#    z -0.013000 0.000000 3.649250 
# 
# 
# High freq. dielectric constant tensor:
#      x y z
#    x 1.806450 0.000000 -0.001010 
#    y 0.000000 1.791550 0.000000 
#    z -0.001010 0.000000 1.793230 
# 
# From -- ./inp_files/49727.got.cif
#   From: 2010.06.25/outbox.cif.g09.slc.cpg/sg10_25_cif.got.tgz:49727.got - 2010.06.27 22:07:45.
