data_PCOD8067421
_publ_section_title
;
Structure prediction by ZEFSAII (Michael W. Deem and Ramdas Pophale) SiO2 
 PCOD8067421
Probable space group: P 2/M
;
_chemical_formula_sum "Si O2"
_cell_formula_units_Z 32
_cell_length_a 20.246685
_cell_length_b 8.843401
_cell_length_c 28.933023
_cell_angle_alpha 90.000000
_cell_angle_beta 20.842448
_cell_angle_gamma 90.000000
_cell_volume 1843.199372
_symmetry_space_group_name_H-M "P 2/M"
_symmetry_group_IT_number 10
_symmetry_cell_setting 'monoclinic'
loop_
_space_group_symop_operation_xyz
x,y,z
-x,y,-z
-x,-y,-z
x,-y,z
loop_
_atom_site_type_symbol
_atom_site_label
_atom_site_fract_x
_atom_site_fract_y
_atom_site_fract_z
Si Si1 0.115669 0.676075 0.836871
Si Si2 0.558918 0.319687 0.312868
Si Si3 0.640889 0.821990 0.066742
Si Si4 0.027808 0.676018 0.793634
Si Si5 0.170150 0.679106 0.602614
Si Si6 0.211470 0.679083 0.185610
Si Si7 0.521263 0.321205 0.911620
Si Si8 0.702350 0.679406 0.120494
O O1 0.116378 0.500000 0.847608
O O2 0.281611 0.750412 0.758042
O O3 0.148369 0.707460 0.760951
O O4 0.914839 0.740204 0.983573
O O5 0.557240 0.500000 0.317912
O O6 0.360849 0.251126 0.458143
O O7 0.597677 0.268385 0.235174
O O8 0.483061 0.763617 0.134613
O O9 0.598332 0.752545 0.144909
O O10 0.632413 0.000000 0.076073
O O11 0.839948 0.770811 0.917408
O O12 0.969641 0.500000 0.828836
O O13 0.149829 0.724525 0.669772
O O14 0.176367 0.500000 0.593428
O O15 0.995419 0.744612 0.687610
O O16 0.208248 0.500000 0.184703
O O17 0.290590 0.727169 0.184094
O O18 0.346825 0.735222 0.056312
O O19 0.515018 0.500000 0.907257
O O20 0.700236 0.500000 0.115391
#
# Coordination Sequence:
#
# PCOD8067421 Si02
#       8
#     4   4   4   4   4   4   4   4
#     4   8  14  24  41  66  93 120 149 185 226 265
#     4   9  16  25  42  70  96 117 149 193 229 256
#     4  11  20  29  45  69  93 115 148 196 232 261
#     4   9  16  28  46  66  94 126 149 175 222 279
#     4   9  15  24  42  69  98 121 146 182 220 265
#     4   8  14  24  43  68  94 121 146 174 215 271
#     4   9  15  27  47  68  91 120 148 175 220 275
#     4   9  17  30  47  65  89 122 155 188 227 268
#
# _framework density 17.361117
#
# number of rings (size 3 to 8) (size 9 to 14) (size 15 to 20)
#    0.000    3.000    1.250    3.000    0.000    2.000 
#    0.000    3.750    0.000    7.500    0.000    8.750 
#    0.000    0.000    0.000    0.000    0.000    0.000 
#
# Total GULP energy -396597.793181 kJ/mol
# GULP energy per Si atom -12393.681037 kJ/mol
# Density = 1.732160 g / cm^3
# Si number density = 17.361117 Si / 1000 Ang^3
#
#
#
# Elastic Constant Matrix: (Units=GPa)
#
#
# Indices 1 2 3 4 5 6 
#
# 1 169.8571 31.9223 72.9175 0.0000 4.3788 0.0000
# 2 31.9223 33.2215 14.1615 0.0000 1.4167 0.0000
# 3 72.9175 14.1615 99.4684 0.0000 11.3839 0.0000
# 4 0.0000 0.0000 0.0000 4.8119 0.0000 0.5558
# 5 4.3788 1.4167 11.3839 0.0000 22.1589 0.0000
# 6 0.0000 0.0000 0.0000 0.5558 0.0000 3.4584
#
#
#
# Elastic Compliance Matrix: (Units=1/GPa)
#
#
# Indices 1 2 3 4 5 6 
#
# 1 0.009917 -0.006834 -0.006505 0.000000 0.001819 0.000000
# 2 -0.006834 0.036757 -0.000116 0.000000 -0.000940 0.000000
# 3 -0.006505 -0.000116 0.015609 0.000000 -0.006726 0.000000
# 4 0.000000 0.000000 0.000000 0.211750 0.000000 -0.034028
# 5 0.001819 -0.000940 -0.006726 0.000000 0.048285 0.000000
# 6 0.000000 0.000000 0.000000 -0.034028 0.000000 0.294623
#
#
# Mechanical properties :
#
#
# Convention : Reuss Voigt Hill
#
# Bulk Modulus (GPa) = 28.27030 60.06108 44.16569
# Shear Modulus (GPa) = 7.62610 18.32220 12.97415
#
# Velocity S-wave (km/s) = 2.09813 3.25215 2.73666
# Velocity P-wave (km/s) = 4.71048 6.98371 5.95655
#
# Compressibility (1/GPa) = 0.03537281
#
# Stress axis : x y z
#
# Youngs Moduli (GPa) = 100.83200 27.20551 64.06708
#
# Poissons Ratio (x) = 0.18593 0.41679
# Poissons Ratio (y) = 0.68910 0.00741
# Poissons Ratio (z) = 0.65596 0.00315
#
# Static dielectric constant tensor:
#      x y z
#    x 3.595010 0.000000 -0.152530 
#    y 0.000000 2.642750 0.000000 
#    z -0.152530 0.000000 3.290790 
# 
# 
# High freq. dielectric constant tensor:
#      x y z
#    x 1.689390 0.000000 -0.003940 
#    y 0.000000 1.609840 0.000000 
#    z -0.003940 0.000000 1.640760 
# 
# From -- ./inp_files/52798.got.cif
#   From: 2010.06.25/outbox.cif.g09.slc.cpg/sg10_27_cif.got.tgz:52798.got - 2010.06.27 22:07:45.
