data_PCOD8067149
_publ_section_title
;
Structure prediction by ZEFSAII (Michael W. Deem and Ramdas Pophale) SiO2 
 PCOD8067149
Probable space group: P 2/M
;
_chemical_formula_sum "Si O2"
_cell_formula_units_Z 16
_cell_length_a 16.277471
_cell_length_b 10.431171
_cell_length_c 8.488129
_cell_angle_alpha 90.000000
_cell_angle_beta 29.611603
_cell_angle_gamma 90.000000
_cell_volume 712.135420
_symmetry_space_group_name_H-M "P 2/M"
_symmetry_group_IT_number 10
_symmetry_cell_setting 'monoclinic'
loop_
_space_group_symop_operation_xyz
x,y,z
-x,y,-z
-x,-y,-z
x,-y,z
loop_
_atom_site_type_symbol
_atom_site_label
_atom_site_fract_x
_atom_site_fract_y
_atom_site_fract_z
Si Si1 0.186000 0.240940 0.751631
Si Si2 0.315762 0.000000 0.368685
Si Si3 0.815682 0.500000 0.377383
Si Si4 0.686397 0.248576 0.126586
Si Si5 0.187542 0.500000 0.244615
Si Si6 0.186799 0.000000 0.249513
O O1 0.271834 0.371308 0.542115
O O2 0.184210 0.245419 0.943890
O O3 0.295484 0.123068 0.512181
O O4 0.000000 0.224345 0.000000
O O5 0.184618 0.000000 0.443341
O O6 0.500000 0.000000 0.000000
O O7 0.813136 0.500000 0.567552
O O8 0.000000 0.500000 0.000000
O O9 0.500000 0.248230 0.500000
O O10 0.716485 0.375011 0.974631
O O11 0.715538 0.125227 0.970138
O O12 0.000000 0.500000 0.500000
O O13 0.000000 0.000000 0.500000
#
# Coordination Sequence:
#
# PCOD8067149 Si02
#       6
#     4   2   2   4   2   2
#     4  11  22  42  65  90 124 169 212 258 317 385
#     4  12  24  40  62  94 128 166 212 265 317 373
#     4  10  22  40  65  95 124 160 211 269 319 374
#     4  12  25  43  65  97 135 173 214 271 331 383
#     4  12  23  42  68  97 129 172 222 269 318 394
#     4  12  24  42  66  96 128 174 226 269 317 389
#
# _framework density 22.467635000000001
#
# number of rings (size 3 to 8) (size 9 to 14) (size 15 to 20)
#    0.000    0.500    0.000   10.875    0.000    0.000 
#    0.000    1.875    0.000    0.000    0.000    0.000 
#    0.000    0.000    0.000    0.000    0.000    0.000 
#
# Total GULP energy -198499.188163 kJ/mol
# GULP energy per Si atom -12406.199260 kJ/mol
# Density = 2.241650 g / cm^3
# Si number density = 22.467635 Si / 1000 Ang^3
#
#
#
# Elastic Constant Matrix: (Units=GPa)
#
#
# Indices 1 2 3 4 5 6 
#
# 1 91.1438 15.1367 3.0012 0.0000 30.9421 0.0000
# 2 15.1367 230.2064 56.8365 0.0000 27.8876 0.0000
# 3 3.0012 56.8365 101.4006 0.0000 8.6891 0.0000
# 4 0.0000 0.0000 0.0000 15.3007 0.0000 31.4538
# 5 30.9421 27.8876 8.6891 0.0000 52.1579 0.0000
# 6 0.0000 0.0000 0.0000 31.4538 0.0000 -15.6152
#
#
#
# Elastic Compliance Matrix: (Units=1/GPa)
#
#
# Indices 1 2 3 4 5 6 
#
# 1 0.013747 0.000021 0.000285 0.000000 -0.008214 0.000000
# 2 0.000021 0.005318 -0.002776 0.000000 -0.002393 0.000000
# 3 0.000285 -0.002776 0.011461 0.000000 -0.000594 0.000000
# 4 0.000000 0.000000 0.000000 0.012713 0.000000 0.025608
# 5 -0.008214 -0.002393 -0.000594 0.000000 0.025424 0.000000
# 6 0.000000 0.000000 0.000000 0.025608 0.000000 -0.012457
#
#
# Mechanical properties :
#
#
# Convention : Reuss Voigt Hill
#
# Bulk Modulus (GPa) = 39.08485 63.63328 51.35907
# Shear Modulus (GPa) = 71.76189 33.55377 52.65783
#
# Velocity S-wave (km/s) = 5.65769 3.86868 4.84645
# Velocity P-wave (km/s) = 7.75326 6.95264 7.36384
#
# Compressibility (1/GPa) = 0.02558536
#
# Stress axis : x y z
#
# Youngs Moduli (GPa) = 72.74093 188.04295 87.25614
#
# Poissons Ratio (x) = -0.00389 -0.02490
# Poissons Ratio (y) = -0.00150 0.24225
# Poissons Ratio (z) = -0.02076 0.52207
#
# Static dielectric constant tensor:
#      x y z
#    x 4.287820 0.000000 0.303610 
#    y 0.000000 4.818330 0.000000 
#    z 0.303610 0.000000 3.894810 
# 
# 
# High freq. dielectric constant tensor:
#      x y z
#    x 1.895930 0.000000 0.013220 
#    y 0.000000 1.914780 0.000000 
#    z 0.013220 0.000000 1.882080 
# 
# From -- ./inp_files/31415.got.cif
#   From: 2010.06.25/outbox.cif.g09.slc.cpg/sg10_16_cif.got.tgz:31415.got - 2010.06.27 22:07:45.
