data_PCOD8067727
_publ_section_title
;
Structure prediction by ZEFSAII (Michael W. Deem and Ramdas Pophale) SiO2 
 PCOD8067727
Probable space group: P 2/M
;
_chemical_formula_sum "Si O2"
_cell_formula_units_Z 18
_cell_length_a 8.015617
_cell_length_b 20.147379
_cell_length_c 9.348635
_cell_angle_alpha 90.000000
_cell_angle_beta 146.993414
_cell_angle_gamma 90.000000
_cell_volume 822.411821
_symmetry_space_group_name_H-M "P 2/M"
_symmetry_group_IT_number 10
_symmetry_cell_setting 'monoclinic'
loop_
_space_group_symop_operation_xyz
x,y,z
-x,y,-z
-x,-y,-z
x,-y,z
loop_
_atom_site_type_symbol
_atom_site_label
_atom_site_fract_x
_atom_site_fract_y
_atom_site_fract_z
Si Si1 0.397002 0.129382 0.084467
Si Si2 0.785271 0.425076 0.983973
Si Si3 0.238606 0.799173 0.429491
Si Si4 0.646176 0.000000 0.762113
Si Si5 0.285132 0.647430 0.480721
O O1 0.054327 0.159241 0.835553
O O2 0.500000 0.111228 0.000000
O O3 0.636002 0.180894 0.324456
O O4 0.444477 0.064621 0.214813
O O5 0.671659 0.500000 0.929023
O O6 0.987966 0.399749 0.262406
O O7 0.491167 0.376088 0.762720
O O8 0.000000 0.420948 0.000000
O O9 0.500000 0.811433 0.500000
O O10 0.158446 0.722228 0.392086
O O11 0.500000 0.000000 0.500000
O O12 0.000000 0.000000 0.000000
O O13 0.500000 0.636378 0.500000
#
# Coordination Sequence:
#
# PCOD8067727 Si02
#       5
#     4   4   4   2   4
#     4  12  25  42  63  92 125 156 196 248 300 347
#     4   9  15  24  40  67 107 149 185 231 296 355
#     4  11  22  39  62  87 120 162 205 246 296 359
#     4  12  25  44  69  94 121 158 201 238 289 356
#     4   9  17  28  45  72 106 147 192 237 287 348
#
# _framework density 21.886844
#
# number of rings (size 3 to 8) (size 9 to 14) (size 15 to 20)
#    0.000    1.556    0.000    7.000    0.000    6.222 
#    0.000    3.333    0.000    0.000    0.000    0.000 
#    0.000   62.222    0.000    0.000    0.000    0.000 
#
# Total GULP energy -223135.648276 kJ/mol
# GULP energy per Si atom -12396.424904 kJ/mol
# Density = 2.183703 g / cm^3
# Si number density = 21.886844 Si / 1000 Ang^3
#
#
#
# Elastic Constant Matrix: (Units=GPa)
#
#
# Indices 1 2 3 4 5 6 
#
# 1 54.0174 38.7636 31.1524 0.0000 -11.4335 0.0000
# 2 38.7636 138.5884 78.6806 0.0000 4.7137 0.0000
# 3 31.1524 78.6806 189.3603 0.0000 1.0056 0.0000
# 4 0.0000 0.0000 0.0000 45.2013 0.0000 -1.2948
# 5 -11.4335 4.7137 1.0056 0.0000 27.7065 0.0000
# 6 0.0000 0.0000 0.0000 -1.2948 0.0000 -2.1281
#
#
#
# Elastic Compliance Matrix: (Units=1/GPa)
#
#
# Indices 1 2 3 4 5 6 
#
# 1 0.027183 -0.007134 -0.001574 0.000000 0.012489 0.000000
# 2 -0.007134 0.011376 -0.003528 0.000000 -0.004751 0.000000
# 3 -0.001574 -0.003528 0.007007 0.000000 -0.000304 0.000000
# 4 0.000000 0.000000 0.000000 0.021744 0.000000 -0.013230
# 5 0.012489 -0.004751 -0.000304 0.000000 0.042066 0.000000
# 6 0.000000 0.000000 0.000000 -0.013230 0.000000 -0.461864
#
#
# Mechanical properties :
#
#
# Convention : Reuss Voigt Hill
#
# Bulk Modulus (GPa) = 47.40673 75.46213 61.43443
# Shear Modulus (GPa) = -15.57710 29.71391 7.06840
#
# Velocity S-wave (km/s) = -2.67068 3.68858 1.79904
# Velocity P-wave (km/s) = 3.49240 7.25906 5.69609
#
# Compressibility (1/GPa) = 0.02109405
#
# Stress axis : x y z
#
# Youngs Moduli (GPa) = 36.78705 87.90812 142.70929
#
# Poissons Ratio (x) = 0.62718 0.22462
# Poissons Ratio (y) = 0.26246 0.50343
# Poissons Ratio (z) = 0.05790 0.31011
#
# Static dielectric constant tensor:
#      x y z
#    x 3.515510 0.000000 0.055840 
#    y 0.000000 3.951930 0.000000 
#    z 0.055840 0.000000 4.289210 
# 
# 
# High freq. dielectric constant tensor:
#      x y z
#    x 1.816760 0.000000 0.005310 
#    y 0.000000 1.873790 0.000000 
#    z 0.005310 0.000000 1.883460 
# 
# From -- ./inp_files/20034.got.cif
#   From: 2010.06.25/outbox.cif.g09.slc.cpg/sg10_11_cif.got.tgz:20034.got - 2010.06.27 22:07:45.
