data_PCOD8067030
_publ_section_title
;
Structure prediction by ZEFSAII (Michael W. Deem and Ramdas Pophale) SiO2 
 PCOD8067030
Probable space group: P 2/M
;
_chemical_formula_sum "Si O2"
_cell_formula_units_Z 28
_cell_length_a 11.957378
_cell_length_b 8.504062
_cell_length_c 15.599016
_cell_angle_alpha 90.000000
_cell_angle_beta 119.762107
_cell_angle_gamma 90.000000
_cell_volume 1376.975791
_symmetry_space_group_name_H-M "P 2/M"
_symmetry_group_IT_number 10
_symmetry_cell_setting 'monoclinic'
loop_
_space_group_symop_operation_xyz
x,y,z
-x,y,-z
-x,-y,-z
x,-y,z
loop_
_atom_site_type_symbol
_atom_site_label
_atom_site_fract_x
_atom_site_fract_y
_atom_site_fract_z
Si Si1 0.813797 0.314467 0.977680
Si Si2 0.633405 0.183053 0.292352
Si Si3 0.121286 0.182867 0.351954
Si Si4 0.074211 0.685628 0.157470
Si Si5 0.460945 0.314112 0.077589
Si Si6 0.912124 0.318023 0.386469
Si Si7 0.392710 0.813287 0.525117
O O1 0.802813 0.500000 0.967293
O O2 0.850840 0.253407 0.897757
O O3 0.678059 0.238932 0.953450
O O4 0.923175 0.271376 0.088657
O O5 0.561700 0.275228 0.190173
O O6 0.785025 0.213360 0.341571
O O7 0.581687 0.239393 0.366562
O O8 0.606670 0.000000 0.270170
O O9 0.134411 0.212780 0.256236
O O10 0.251240 0.249355 0.445370
O O11 0.996127 0.278859 0.334849
O O12 0.102552 0.000000 0.365481
O O13 0.092930 0.500000 0.180769
O O14 0.450651 0.500000 0.066413
O O15 0.500000 0.243089 0.000000
O O16 0.871907 0.500000 0.370556
O O17 0.000000 0.271857 0.500000
O O18 0.500000 0.743384 0.500000
O O19 0.393350 0.000000 0.518039
#
# Coordination Sequence:
#
# PCOD8067030 Si02
#       7
#     4   4   4   4   4   4   4
#     4   8  17  36  58  80 112 154 198 243 293 347
#     4  11  23  40  63  88 119 157 198 247 297 349
#     4  11  22  36  59  89 120 152 192 240 294 351
#     4   9  18  35  59  83 111 152 198 242 291 345
#     4  10  22  39  59  84 117 157 201 245 295 351
#     4  11  23  40  62  85 115 151 194 240 289 351
#     4   9  20  38  58  83 121 164 196 228 288 359
#
# _framework density 20.334416999999998
#
# number of rings (size 3 to 8) (size 9 to 14) (size 15 to 20)
#    0.000    2.143    1.429    2.143    4.000    0.857 
#    0.000    2.143    0.000    3.429    0.000    0.000 
#    0.000    0.000    0.000    0.000    0.000    0.000 
#
# Total GULP energy -347189.508019 kJ/mol
# GULP energy per Si atom -12399.625286 kJ/mol
# Density = 2.028814 g / cm^3
# Si number density = 20.334417 Si / 1000 Ang^3
#
#
#
# Elastic Constant Matrix: (Units=GPa)
#
#
# Indices 1 2 3 4 5 6 
#
# 1 143.1168 8.1594 50.1845 0.0000 -2.6767 0.0000
# 2 8.1594 19.4248 8.7887 0.0000 -0.5962 0.0000
# 3 50.1845 8.7887 127.1091 0.0000 -11.3926 0.0000
# 4 0.0000 0.0000 0.0000 25.1596 0.0000 -5.0211
# 5 -2.6767 -0.5962 -11.3926 0.0000 30.3009 0.0000
# 6 0.0000 0.0000 0.0000 -5.0211 0.0000 14.5175
#
#
#
# Elastic Compliance Matrix: (Units=1/GPa)
#
#
# Indices 1 2 3 4 5 6 
#
# 1 0.008195 -0.002037 -0.003139 0.000000 -0.000496 0.000000
# 2 -0.002037 0.053653 -0.002925 0.000000 -0.000224 0.000000
# 3 -0.003139 -0.002925 0.009602 0.000000 0.003275 0.000000
# 4 0.000000 0.000000 0.000000 0.042693 0.000000 0.014766
# 5 -0.000496 -0.000224 0.003275 0.000000 0.034186 0.000000
# 6 0.000000 0.000000 0.000000 0.014766 0.000000 0.073990
#
#
# Mechanical properties :
#
#
# Convention : Reuss Voigt Hill
#
# Bulk Modulus (GPa) = 18.10064 47.10178 32.60121
# Shear Modulus (GPa) = 19.45996 28.83012 24.14504
#
# Velocity S-wave (km/s) = 3.09689 3.76945 3.44960
# Velocity P-wave (km/s) = 4.65923 6.49299 5.65099
#
# Compressibility (1/GPa) = 0.05524667
#
# Stress axis : x y z
#
# Youngs Moduli (GPa) = 122.02704 18.63831 104.13984
#
# Poissons Ratio (x) = 0.03797 0.32691
# Poissons Ratio (y) = 0.24860 0.30466
# Poissons Ratio (z) = 0.38306 0.05453
#
# Static dielectric constant tensor:
#      x y z
#    x 4.152570 0.000000 -0.057420 
#    y 0.000000 3.237410 0.000000 
#    z -0.057420 0.000000 3.712270 
# 
# 
# High freq. dielectric constant tensor:
#      x y z
#    x 1.805500 0.000000 -0.004340 
#    y 0.000000 1.758950 0.000000 
#    z -0.004340 0.000000 1.802300 
# 
# From -- ./inp_files/63926.got.cif
#   From: 2010.06.25/outbox.cif.g09.slc.cpg/sg10_32_cif.got.tgz:63926.got - 2010.06.27 22:07:45.
