data_PCOD8067545
_publ_section_title
;
Structure prediction by ZEFSAII (Michael W. Deem and Ramdas Pophale) SiO2 
 PCOD8067545
Probable space group: P 2/M
;
_chemical_formula_sum "Si O2"
_cell_formula_units_Z 24
_cell_length_a 14.277432
_cell_length_b 14.137015
_cell_length_c 11.813524
_cell_angle_alpha 90.000000
_cell_angle_beta 148.453589
_cell_angle_gamma 90.000000
_cell_volume 1247.515457
_symmetry_space_group_name_H-M "P 2/M"
_symmetry_group_IT_number 10
_symmetry_cell_setting 'monoclinic'
loop_
_space_group_symop_operation_xyz
x,y,z
-x,y,-z
-x,-y,-z
x,-y,z
loop_
_atom_site_type_symbol
_atom_site_label
_atom_site_fract_x
_atom_site_fract_y
_atom_site_fract_z
Si Si1 0.728185 0.103534 0.351052
Si Si2 0.790865 0.390107 0.284082
Si Si3 0.724202 0.705878 0.443299
Si Si4 0.304769 0.896369 0.935052
Si Si5 0.678532 0.706192 0.941031
Si Si6 0.031650 0.610897 0.902704
O O1 0.801949 0.186948 0.508074
O O2 0.789315 0.119694 0.283906
O O3 0.796509 0.000000 0.463438
O O4 0.515546 0.107705 0.135353
O O5 0.752168 0.500000 0.259597
O O6 0.695123 0.336652 0.288468
O O7 0.000000 0.366897 0.500000
O O8 0.706507 0.357146 0.080156
O O9 0.531834 0.705988 0.307682
O O10 0.862090 0.644418 0.656302
O O11 0.248010 0.000000 0.924764
O O12 0.247454 0.812802 0.960984
O O13 0.787512 0.663302 0.948574
O O14 0.056117 0.500000 0.906927
O O15 0.000000 0.635919 0.000000
#
# Coordination Sequence:
#
# PCOD8067545 Si02
#       6
#     4   4   4   4   4   4
#     4   8  14  27  50  83 120 151 179 214 264 333
#     4  11  21  33  52  82 120 154 179 220 285 346
#     4  11  21  36  60  86 114 149 186 230 282 338
#     4   8  14  27  50  83 120 151 179 214 264 333
#     4  11  21  36  60  86 114 149 186 230 282 338
#     4  11  26  45  60  77 106 147 197 248 288 328
#
# _framework density 19.238237000000002
#
# number of rings (size 3 to 8) (size 9 to 14) (size 15 to 20)
#    0.000    2.000    3.333    2.500    0.000    4.000 
#    0.000    2.500    0.000    5.000    0.000    4.667 
#    0.000    0.000    0.000    0.000    0.000    0.000 
#
# Total GULP energy -297525.787534 kJ/mol
# GULP energy per Si atom -12396.907814 kJ/mol
# Density = 1.919445 g / cm^3
# Si number density = 19.238237 Si / 1000 Ang^3
#
#
#
# Elastic Constant Matrix: (Units=GPa)
#
#
# Indices 1 2 3 4 5 6 
#
# 1 98.2261 65.6791 16.7654 0.0000 -0.3626 0.0000
# 2 65.6791 131.1735 7.8877 0.0000 3.7698 0.0000
# 3 16.7654 7.8877 14.5538 0.0000 7.7447 0.0000
# 4 0.0000 0.0000 0.0000 -40.4636 0.0000 -102.3940
# 5 -0.3626 3.7698 7.7447 0.0000 23.5352 0.0000
# 6 0.0000 0.0000 0.0000 -102.3940 0.0000 -175.2766
#
#
#
# Elastic Compliance Matrix: (Units=1/GPa)
#
#
# Indices 1 2 3 4 5 6 
#
# 1 0.020237 -0.008993 -0.023483 0.000000 0.009480 0.000000
# 2 -0.008993 0.011877 0.006072 0.000000 -0.004039 0.000000
# 3 -0.023483 0.006072 0.112962 0.000000 -0.038507 0.000000
# 4 0.000000 0.000000 0.000000 0.051670 0.000000 -0.030185
# 5 0.009480 -0.004039 -0.038507 0.000000 0.055954 0.000000
# 6 0.000000 0.000000 0.000000 -0.030185 0.000000 0.011928
#
#
# Mechanical properties :
#
#
# Convention : Reuss Voigt Hill
#
# Bulk Modulus (GPa) = 10.83795 47.17973 29.00884
# Shear Modulus (GPa) = 14.35988 -28.19959 -6.91985
#
# Velocity S-wave (km/s) = 2.73504 -3.83274 -1.89861
# Velocity P-wave (km/s) = 3.95218 2.23397 3.21017
#
# Compressibility (1/GPa) = 0.09226834
#
# Stress axis : x y z
#
# Youngs Moduli (GPa) = 49.41477 84.19405 8.85256
#
# Poissons Ratio (x) = 0.75716 0.20788
# Poissons Ratio (y) = 0.44439 -0.05375
# Poissons Ratio (z) = 1.16039 -0.51122
#
# Static dielectric constant tensor:
#      x y z
#    x 3.395200 0.000000 0.188060 
#    y 0.000000 4.100520 0.000000 
#    z 0.188060 0.000000 3.241710 
# 
# 
# High freq. dielectric constant tensor:
#      x y z
#    x 1.716540 0.000000 0.027640 
#    y 0.000000 1.772590 0.000000 
#    z 0.027640 0.000000 1.722770 
# 
# From -- ./inp_files/51677.got.cif
#   From: 2010.06.25/outbox.cif.g09.slc.cpg/sg10_26_cif.got.tgz:51677.got - 2010.06.27 22:07:45.
