data_PCOD8067224
_publ_section_title
;
Structure prediction by ZEFSAII (Michael W. Deem and Ramdas Pophale) SiO2 
 PCOD8067224
Probable space group: P 2/M
;
_chemical_formula_sum "Si O2"
_cell_formula_units_Z 32
_cell_length_a 22.509362
_cell_length_b 14.431345
_cell_length_c 14.868233
_cell_angle_alpha 90.000000
_cell_angle_beta 160.948680
_cell_angle_gamma 90.000000
_cell_volume 1576.519565
_symmetry_space_group_name_H-M "P 2/M"
_symmetry_group_IT_number 10
_symmetry_cell_setting 'monoclinic'
loop_
_space_group_symop_operation_xyz
x,y,z
-x,y,-z
-x,-y,-z
x,-y,z
loop_
_atom_site_type_symbol
_atom_site_label
_atom_site_fract_x
_atom_site_fract_y
_atom_site_fract_z
Si Si1 0.960282 0.100491 0.311749
Si Si2 0.427816 0.104695 0.301491
Si Si3 0.511920 0.721076 0.728220
Si Si4 0.914128 0.300115 0.289037
Si Si5 0.388440 0.286024 0.747373
Si Si6 0.051153 0.394458 0.310438
Si Si7 0.834896 0.393241 0.825848
Si Si8 0.699993 0.098580 0.327419
O O1 0.937276 0.189816 0.341950
O O2 0.153614 0.106993 0.541331
O O3 0.948150 0.000000 0.345875
O O4 0.790826 0.105108 0.000091
O O5 0.500000 0.141783 0.500000
O O6 0.495419 0.172637 0.317829
O O7 0.499000 0.000000 0.382473
O O8 0.515496 0.711212 0.841710
O O9 0.345412 0.665713 0.447546
O O10 0.702527 0.673952 0.971778
O O11 0.022612 0.329412 0.355473
O O12 0.000000 0.350040 0.500000
O O13 0.279480 0.188342 0.580572
O O14 0.241888 0.368480 0.535728
O O15 0.500000 0.292246 0.000000
O O16 0.063025 0.500000 0.360318
O O17 0.888509 0.381696 0.006803
O O18 0.793978 0.500000 0.743135
O O19 0.000000 0.356232 0.000000
O O20 0.728500 0.000000 0.420039
O O21 0.500000 0.100573 0.000000
#
# Coordination Sequence:
#
# PCOD8067224 Si02
#       8
#     4   4   4   4   4   4   4   4
#     4   9  18  35  58  87 120 164 208 245 298 360
#     4   9  20  38  60  88 127 167 206 252 306 368
#     4  11  24  37  66  95 120 163 208 258 309 365
#     4  11  24  41  61  92 130 164 206 255 302 368
#     4  11  22  39  61  90 127 166 205 249 307 377
#     4  11  24  43  65  88 121 163 203 255 316 373
#     4  10  22  43  68  93 119 150 202 263 314 370
#     4   9  18  32  56  85 118 158 201 248 291 343
#
# _framework density 20.297875999999999
#
# number of rings (size 3 to 8) (size 9 to 14) (size 15 to 20)
#    0.000    1.875    2.500    0.750    5.250    1.750 
#    0.000    2.500    0.000    0.375    0.000    0.000 
#    0.000    0.000    0.000    0.000    0.000    0.000 
#
# Total GULP energy -396513.344672 kJ/mol
# GULP energy per Si atom -12391.042021 kJ/mol
# Density = 2.025168 g / cm^3
# Si number density = 20.297876 Si / 1000 Ang^3
#
#
#
# Elastic Constant Matrix: (Units=GPa)
#
#
# Indices 1 2 3 4 5 6 
#
# 1 98.6429 28.9261 36.9349 0.0000 -3.2616 0.0000
# 2 28.9261 93.1078 44.2954 0.0000 -1.9977 0.0000
# 3 36.9349 44.2954 116.2389 0.0000 9.6622 0.0000
# 4 0.0000 0.0000 0.0000 23.3755 0.0000 6.5937
# 5 -3.2616 -1.9977 9.6622 0.0000 30.0145 0.0000
# 6 0.0000 0.0000 0.0000 6.5937 0.0000 10.9736
#
#
#
# Elastic Compliance Matrix: (Units=1/GPa)
#
#
# Indices 1 2 3 4 5 6 
#
# 1 0.012039 -0.002183 -0.003175 0.000000 0.002185 0.000000
# 2 -0.002183 0.013707 -0.004712 0.000000 0.002192 0.000000
# 3 -0.003175 -0.004712 0.011777 0.000000 -0.004450 0.000000
# 4 0.000000 0.000000 0.000000 0.051510 0.000000 -0.030951
# 5 0.002185 0.002192 -0.004450 0.000000 0.035133 0.000000
# 6 0.000000 0.000000 0.000000 -0.030951 0.000000 0.109726
#
#
# Mechanical properties :
#
#
# Convention : Reuss Voigt Hill
#
# Bulk Modulus (GPa) = 57.52597 58.70025 58.11311
# Shear Modulus (GPa) = 19.24360 26.06160 22.65260
#
# Velocity S-wave (km/s) = 3.08240 3.58712 3.34430
# Velocity P-wave (km/s) = 6.40864 6.79255 6.60339
#
# Compressibility (1/GPa) = 0.01738345
#
# Stress axis : x y z
#
# Youngs Moduli (GPa) = 83.06499 72.95496 84.90828
#
# Poissons Ratio (x) = 0.15924 0.26960
# Poissons Ratio (y) = 0.18130 0.40009
# Poissons Ratio (z) = 0.26375 0.34377
#
# Static dielectric constant tensor:
#      x y z
#    x 3.426840 0.000000 0.043380 
#    y 0.000000 4.023710 0.000000 
#    z 0.043380 0.000000 3.704520 
# 
# 
# High freq. dielectric constant tensor:
#      x y z
#    x 1.772780 0.000000 0.003410 
#    y 0.000000 1.798340 0.000000 
#    z 0.003410 0.000000 1.798930 
# 
# From -- ./inp_files/70784.got.cif
#   From: 2010.06.25/outbox.cif.g09.slc.cpg/sg10_36_cif.got.tgz:70784.got - 2010.06.27 22:07:45.
