data_PCOD8067100
_publ_section_title
;
Structure prediction by ZEFSAII (Michael W. Deem and Ramdas Pophale) SiO2 
 PCOD8067100
Probable space group: P 2/M
;
_chemical_formula_sum "Si O2"
_cell_formula_units_Z 24
_cell_length_a 17.272289
_cell_length_b 8.917875
_cell_length_c 14.874060
_cell_angle_alpha 90.000000
_cell_angle_beta 30.347942
_cell_angle_gamma 90.000000
_cell_volume 1157.569387
_symmetry_space_group_name_H-M "P 2/M"
_symmetry_group_IT_number 10
_symmetry_cell_setting 'monoclinic'
loop_
_space_group_symop_operation_xyz
x,y,z
-x,y,-z
-x,-y,-z
x,-y,z
loop_
_atom_site_type_symbol
_atom_site_label
_atom_site_fract_x
_atom_site_fract_y
_atom_site_fract_z
Si Si1 0.171357 0.823234 0.517922
Si Si2 0.653615 0.826425 0.164496
Si Si3 0.167383 0.327159 0.863528
Si Si4 0.671257 0.323617 0.804229
Si Si5 0.831286 0.173237 0.806316
Si Si6 0.332792 0.326902 0.514893
O O1 0.288719 0.753600 0.329492
O O2 0.213157 0.764253 0.574508
O O3 0.998608 0.773739 0.669839
O O4 0.191222 0.000000 0.496559
O O5 0.786251 0.776115 0.099588
O O6 0.504636 0.727791 0.329041
O O7 0.614929 0.000000 0.219654
O O8 0.710986 0.798559 0.006158
O O9 0.164305 0.500000 0.898001
O O10 0.289082 0.302645 0.662177
O O11 0.000000 0.275096 0.000000
O O12 0.685276 0.500000 0.778200
O O13 0.787351 0.271549 0.764869
O O14 0.500000 0.273039 0.000000
O O15 0.833793 0.000000 0.774341
O O16 0.322717 0.500000 0.497344
#
# Coordination Sequence:
#
# PCOD8067100 Si02
#       6
#     4   4   4   4   4   4
#     4  11  23  40  62  87 117 152 193 241 291 344
#     4  11  23  39  61  88 119 155 195 240 290 345
#     4  10  22  40  61  86 118 156 196 241 293 345
#     4  11  24  40  60  88 119 153 194 238 286 344
#     4  10  23  41  60  86 118 153 193 239 291 344
#     4  11  23  39  60  87 119 154 195 241 289 345
#
# _framework density 20.7331
#
# number of rings (size 3 to 8) (size 9 to 14) (size 15 to 20)
#    0.000    1.333    0.000    5.000    0.000   12.333 
#    0.000    0.000    0.000    0.000    0.000    0.000 
#    0.000    0.000    0.000    0.000    0.000    0.000 
#
# Total GULP energy -297801.276804 kJ/mol
# GULP energy per Si atom -12408.386534 kJ/mol
# Density = 2.068591 g / cm^3
# Si number density = 20.733100 Si / 1000 Ang^3
#
#
#
# Elastic Constant Matrix: (Units=GPa)
#
#
# Indices 1 2 3 4 5 6 
#
# 1 74.5546 16.3640 -9.8412 0.0000 -5.7699 0.0000
# 2 16.3640 56.4140 23.2630 0.0000 2.1664 0.0000
# 3 -9.8412 23.2630 68.0232 0.0000 -10.6548 0.0000
# 4 0.0000 0.0000 0.0000 -16.5523 0.0000 -4.4168
# 5 -5.7699 2.1664 -10.6548 0.0000 34.5853 0.0000
# 6 0.0000 0.0000 0.0000 -4.4168 0.0000 41.6512
#
#
#
# Elastic Compliance Matrix: (Units=1/GPa)
#
#
# Indices 1 2 3 4 5 6 
#
# 1 0.016079 -0.007126 0.005520 0.000000 0.004829 0.000000
# 2 -0.007126 0.024240 -0.010239 0.000000 -0.005861 0.000000
# 3 0.005520 -0.010239 0.020221 0.000000 0.007792 0.000000
# 4 0.000000 0.000000 0.000000 -0.058752 0.000000 -0.006230
# 5 0.004829 -0.005861 0.007792 0.000000 0.032487 0.000000
# 6 0.000000 0.000000 0.000000 -0.006230 0.000000 0.023348
#
#
# Mechanical properties :
#
#
# Convention : Reuss Voigt Hill
#
# Bulk Modulus (GPa) = 27.13618 28.72927 27.93273
# Shear Modulus (GPa) = 53.41979 23.21722 38.31850
#
# Velocity S-wave (km/s) = 5.08148 3.34999 4.30371
# Velocity P-wave (km/s) = 6.89531 5.37123 6.18043
#
# Compressibility (1/GPa) = 0.03685117
#
# Stress axis : x y z
#
# Youngs Moduli (GPa) = 62.19159 41.25372 49.45244
#
# Poissons Ratio (x) = 0.29396 -0.27296
# Poissons Ratio (y) = 0.44316 0.50634
# Poissons Ratio (z) = -0.34327 0.42239
#
# Static dielectric constant tensor:
#      x y z
#    x 3.817690 0.000000 -0.020410 
#    y 0.000000 3.745390 0.000000 
#    z -0.020410 0.000000 3.860780 
# 
# 
# High freq. dielectric constant tensor:
#      x y z
#    x 1.823100 0.000000 -0.002210 
#    y 0.000000 1.814630 0.000000 
#    z -0.002210 0.000000 1.826010 
# 
# From -- ./inp_files/27026.got.cif
#   From: 2010.06.25/outbox.cif.g09.slc.cpg/sg10_14_cif.got.tgz:27026.got - 2010.06.27 22:07:45.
