data_PCOD8067415
_publ_section_title
;
Structure prediction by ZEFSAII (Michael W. Deem and Ramdas Pophale) SiO2 
 PCOD8067415
Probable space group: P 2/M
;
_chemical_formula_sum "Si O2"
_cell_formula_units_Z 32
_cell_length_a 15.841337
_cell_length_b 9.069867
_cell_length_c 15.841338
_cell_angle_alpha 90.000000
_cell_angle_beta 108.520198
_cell_angle_gamma 90.000000
_cell_volume 2158.191312
_symmetry_space_group_name_H-M "P 2/M"
_symmetry_group_IT_number 10
_symmetry_cell_setting 'monoclinic'
loop_
_space_group_symop_operation_xyz
x,y,z
-x,y,-z
-x,-y,-z
x,-y,z
loop_
_atom_site_type_symbol
_atom_site_label
_atom_site_fract_x
_atom_site_fract_y
_atom_site_fract_z
Si Si1 0.981169 0.662728 0.592777
Si Si2 0.174444 0.673170 0.661620
Si Si3 0.661620 0.673170 0.174444
Si Si4 0.190090 0.173807 0.489402
Si Si5 0.489402 0.173807 0.190090
Si Si6 0.356824 0.669408 0.476837
Si Si7 0.592777 0.662728 0.981169
Si Si8 0.523163 0.669408 0.643176
O O1 0.954524 0.500000 0.617864
O O2 0.900805 0.774437 0.586053
O O3 0.000000 0.655598 0.500000
O O4 0.075170 0.715806 0.663582
O O5 0.178114 0.500000 0.640800
O O6 0.243145 0.716554 0.756855
O O7 0.200693 0.759066 0.585603
O O8 0.640800 0.500000 0.178114
O O9 0.585603 0.759067 0.200693
O O10 0.663582 0.715806 0.075170
O O11 0.272506 0.224714 0.458744
O O12 0.188524 0.000000 0.496228
O O13 0.413947 0.225563 0.099195
O O14 0.458744 0.224714 0.272506
O O15 0.496228 0.000000 0.188524
O O16 0.327048 0.500000 0.477985
O O17 0.429033 0.709955 0.570967
O O18 0.397757 0.696229 0.397757
O O19 0.617864 0.500000 0.954524
O O20 0.500000 0.655598 0.000000
O O21 0.522015 0.500000 0.672952
#
# Coordination Sequence:
#
# PCOD8067415 Si02
#       8
#     4   4   4   4   4   4   4   4
#     4   8  15  28  43  57  76 105 138 169 199 233
#     4   9  17  29  44  60  79 106 140 173 202 235
#     4   9  17  29  44  60  79 106 140 173 202 235
#     4  11  20  27  39  60  85 111 136 164 201 242
#     4  11  20  27  39  60  85 111 136 164 201 242
#     4   9  18  32  47  60  76 103 139 174 204 235
#     4   8  15  28  43  57  76 105 138 169 199 233
#     4   9  18  32  47  60  76 103 139 174 204 235
#
# _framework density 14.827230999999999
#
# number of rings (size 3 to 8) (size 9 to 14) (size 15 to 20)
#    0.000    2.750    0.000    5.250    0.000    9.000 
#    0.000    1.250    0.000    0.000    0.000    0.000 
#    0.000    1.000    0.000   11.500    0.000    3.250 
#
# Total GULP energy -396663.604191 kJ/mol
# GULP energy per Si atom -12395.737631 kJ/mol
# Density = 1.479348 g / cm^3
# Si number density = 14.827231 Si / 1000 Ang^3
#
#
#
# Elastic Constant Matrix: (Units=GPa)
#
#
# Indices 1 2 3 4 5 6 
#
# 1 86.7302 42.9632 43.6848 0.0000 15.1239 0.0000
# 2 42.9632 81.5268 44.3783 0.0000 4.0126 0.0000
# 3 43.6848 44.3783 97.0094 0.0000 14.0242 0.0000
# 4 0.0000 0.0000 0.0000 8.2548 0.0000 0.7725
# 5 15.1239 4.0126 14.0242 0.0000 21.0711 0.0000
# 6 0.0000 0.0000 0.0000 0.7725 0.0000 7.9823
#
#
#
# Elastic Compliance Matrix: (Units=1/GPa)
#
#
# Indices 1 2 3 4 5 6 
#
# 1 0.018706 -0.007397 -0.003654 0.000000 -0.009586 0.000000
# 2 -0.007397 0.019339 -0.006363 0.000000 0.005862 0.000000
# 3 -0.003654 -0.006363 0.015834 0.000000 -0.006704 0.000000
# 4 0.000000 0.000000 0.000000 0.122250 0.000000 -0.011831
# 5 -0.009586 0.005862 -0.006704 0.000000 0.057684 0.000000
# 6 0.000000 0.000000 0.000000 -0.011831 0.000000 0.126422
#
#
# Mechanical properties :
#
#
# Convention : Reuss Voigt Hill
#
# Bulk Modulus (GPa) = 52.49195 58.59100 55.54147
# Shear Modulus (GPa) = 12.45593 16.41096 14.43345
#
# Velocity S-wave (km/s) = 2.90154 3.33049 3.12339
# Velocity P-wave (km/s) = 6.83407 7.37503 7.10970
#
# Compressibility (1/GPa) = 0.01905054
#
# Stress axis : x y z
#
# Youngs Moduli (GPa) = 53.45775 51.70778 63.15521
#
# Poissons Ratio (x) = 0.38249 0.23077
# Poissons Ratio (y) = 0.39543 0.40189
# Poissons Ratio (z) = 0.19534 0.32904
#
# Static dielectric constant tensor:
#      x y z
#    x 2.909160 0.000000 0.346520 
#    y 0.000000 2.804270 0.000000 
#    z 0.346520 0.000000 3.031360 
# 
# 
# High freq. dielectric constant tensor:
#      x y z
#    x 1.543420 0.000000 0.017120 
#    y 0.000000 1.563350 0.000000 
#    z 0.017120 0.000000 1.549450 
# 
# From -- ./inp_files/66063.got.cif
#   From: 2010.06.25/outbox.cif.g09.slc.cpg/sg10_34_cif.got.tgz:66063.got - 2010.06.27 22:07:45.
