data_PCOD8067943
_publ_section_title
;
Structure prediction by ZEFSAII (Michael W. Deem and Ramdas Pophale) SiO2 
 PCOD8067943
Probable space group: P 2/M
;
_chemical_formula_sum "Si O2"
_cell_formula_units_Z 28
_cell_length_a 23.374536
_cell_length_b 9.175008
_cell_length_c 18.945890
_cell_angle_alpha 90.000000
_cell_angle_beta 23.770560
_cell_angle_gamma 90.000000
_cell_volume 1637.760706
_symmetry_space_group_name_H-M "P 2/M"
_symmetry_group_IT_number 10
_symmetry_cell_setting 'monoclinic'
loop_
_space_group_symop_operation_xyz
x,y,z
-x,y,-z
-x,-y,-z
x,-y,z
loop_
_atom_site_type_symbol
_atom_site_label
_atom_site_fract_x
_atom_site_fract_y
_atom_site_fract_z
Si Si1 0.069586 0.169454 0.490756
Si Si2 0.288229 0.671017 0.418982
Si Si3 0.375003 0.828460 0.194436
Si Si4 0.229982 0.338696 0.635218
Si Si5 0.004499 0.169721 0.274929
Si Si6 0.163065 0.163704 0.838609
Si Si7 0.905309 0.664754 0.953067
O O1 0.227657 0.230825 0.326912
O O2 0.963966 0.193608 0.677184
O O3 0.000000 0.244988 0.500000
O O4 0.089934 0.000000 0.452282
O O5 0.259006 0.500000 0.437085
O O6 0.404746 0.737701 0.233528
O O7 0.331808 0.692466 0.452504
O O8 0.151074 0.768435 0.560904
O O9 0.368762 0.000000 0.219188
O O10 0.500000 0.790253 0.000000
O O11 0.258090 0.500000 0.633768
O O12 0.258227 0.227245 0.667144
O O13 0.069375 0.328761 0.788821
O O14 0.115501 0.254195 0.098931
O O15 0.007209 0.000000 0.251176
O O16 0.213508 0.000000 0.796175
O O17 0.187911 0.256028 0.881626
O O18 0.000000 0.170383 0.000000
O O19 0.850481 0.500000 0.007477
#
# Coordination Sequence:
#
# PCOD8067943 Si02
#       7
#     4   4   4   4   4   4   4
#     4   8  14  25  41  59  78 102 131 162 198 238
#     4   9  16  25  37  52  71  97 127 157 192 236
#     4   9  17  28  42  60  80 102 131 167 201 232
#     4   8  14  22  30  42  62  89 120 152 186 225
#     4   9  15  23  36  52  70  93 125 162 194 229
#     4   9  15  20  28  43  62  87 121 157 190 224
#     4   9  15  22  31  43  64  93 123 155 191 231
#
# _framework density 17.096513000000002
#
# number of rings (size 3 to 8) (size 9 to 14) (size 15 to 20)
#    0.000    3.286    0.000    3.429    0.000    6.000 
#    0.000    0.000    0.000   10.714    0.000    0.000 
#    0.000    0.000    0.000    1.286    0.000   29.143 
#
# Total GULP energy -346875.229096 kJ/mol
# GULP energy per Si atom -12388.401039 kJ/mol
# Density = 1.705760 g / cm^3
# Si number density = 17.096513 Si / 1000 Ang^3
#
#
#
# Elastic Constant Matrix: (Units=GPa)
#
#
# Indices 1 2 3 4 5 6 
#
# 1 65.9392 45.1196 49.9512 0.0000 37.2508 0.0000
# 2 45.1196 116.1804 48.9117 0.0000 36.6151 0.0000
# 3 49.9512 48.9117 81.0551 0.0000 42.5924 0.0000
# 4 0.0000 0.0000 0.0000 22.6501 0.0000 15.3749
# 5 37.2508 36.6151 42.5924 0.0000 35.8855 0.0000
# 6 0.0000 0.0000 0.0000 15.3749 0.0000 14.8020
#
#
#
# Elastic Compliance Matrix: (Units=1/GPa)
#
#
# Indices 1 2 3 4 5 6 
#
# 1 0.038886 -0.003040 -0.006772 0.000000 -0.029226 0.000000
# 2 -0.003040 0.013084 -0.001767 0.000000 -0.008096 0.000000
# 3 -0.006772 -0.001767 0.034375 0.000000 -0.031966 0.000000
# 4 0.000000 0.000000 0.000000 0.149697 0.000000 -0.155491
# 5 -0.029226 -0.008096 -0.031966 0.000000 0.104406 0.000000
# 6 0.000000 0.000000 0.000000 -0.155491 0.000000 0.229067
#
#
# Mechanical properties :
#
#
# Convention : Reuss Voigt Hill
#
# Bulk Modulus (GPa) = 15.82629 61.23772 38.53201
# Shear Modulus (GPa) = 8.14683 22.61365 15.38024
#
# Velocity S-wave (km/s) = 2.18530 3.64085 3.00261
# Velocity P-wave (km/s) = 3.95532 7.31922 5.88283
#
# Compressibility (1/GPa) = 0.06318599
#
# Stress axis : x y z
#
# Youngs Moduli (GPa) = 25.71590 76.43195 29.09125
#
# Poissons Ratio (x) = 0.23235 0.19701
# Poissons Ratio (y) = 0.07817 0.05141
# Poissons Ratio (z) = 0.17415 0.13507
#
# Static dielectric constant tensor:
#      x y z
#    x 3.179290 0.000000 0.728830 
#    y 0.000000 3.253630 0.000000 
#    z 0.728830 0.000000 3.192070 
# 
# 
# High freq. dielectric constant tensor:
#      x y z
#    x 1.617900 0.000000 0.066940 
#    y 0.000000 1.659080 0.000000 
#    z 0.066940 0.000000 1.626380 
# 
# From -- ./inp_files/56307.got.cif
#   From: 2010.06.25/outbox.cif.g09.slc.cpg/sg10_29_cif.got.tgz:56307.got - 2010.06.27 22:07:45.
