data_PCOD8067906
_publ_section_title
;
Structure prediction by ZEFSAII (Michael W. Deem and Ramdas Pophale) SiO2 
 PCOD8067906
Probable space group: P 2/M
;
_chemical_formula_sum "Si O2"
_cell_formula_units_Z 28
_cell_length_a 9.972026
_cell_length_b 9.099232
_cell_length_c 30.770299
_cell_angle_alpha 90.000000
_cell_angle_beta 35.884635
_cell_angle_gamma 90.000000
_cell_volume 1636.561800
_symmetry_space_group_name_H-M "P 2/M"
_symmetry_group_IT_number 10
_symmetry_cell_setting 'monoclinic'
loop_
_space_group_symop_operation_xyz
x,y,z
-x,y,-z
-x,-y,-z
x,-y,z
loop_
_atom_site_type_symbol
_atom_site_label
_atom_site_fract_x
_atom_site_fract_y
_atom_site_fract_z
Si Si1 0.164686 0.174625 0.274061
Si Si2 0.947072 0.825106 0.561106
Si Si3 0.534990 0.825375 0.725939
Si Si4 0.978481 0.826783 0.146781
Si Si5 0.752599 0.174893 0.438894
Si Si6 0.340781 0.665407 1.000000
Si Si7 0.712388 0.173217 0.853219
O O1 0.365497 0.229756 0.253801
O O2 0.204955 0.235306 0.215027
O O3 0.918600 0.230505 0.356458
O O4 0.164001 0.000000 0.273343
O O5 0.700891 0.769495 0.643542
O O6 0.000000 0.755988 0.500000
O O7 0.145620 0.772531 0.541752
O O8 0.944491 0.000000 0.559125
O O9 0.280089 0.764694 0.784973
O O10 0.530716 0.000000 0.726657
O O11 0.093259 0.785902 0.162696
O O12 0.988459 0.000000 0.135742
O O13 0.106974 0.749298 0.072955
O O14 0.500000 0.244012 0.500000
O O15 0.740117 0.000000 0.440875
O O16 0.283833 0.500000 0.000000
O O17 0.471750 0.749297 0.927045
O O18 0.500000 0.666523 0.000000
O O19 0.667171 0.000000 0.864258
#
# Coordination Sequence:
#
# PCOD8067906 Si02
#       7
#     4   4   4   4   4   4   4
#     4   8  14  24  36  52  77 107 135 163 198 238
#     4   8  13  20  30  46  71 103 134 161 191 229
#     4   8  14  24  36  52  77 107 135 163 198 238
#     4   9  16  26  42  62  80 101 134 171 199 229
#     4   8  13  20  30  46  71 103 134 161 191 229
#     4   9  17  29  44  61  82 106 130 161 204 246
#     4   9  16  26  42  62  80 101 134 171 199 229
#
# _framework density 17.109038000000002
#
# number of rings (size 3 to 8) (size 9 to 14) (size 15 to 20)
#    0.000    3.571    0.000    2.143    0.000    2.857 
#    0.000    6.429    0.000    5.143    0.000    0.000 
#    0.000    1.143    0.000    2.571    0.000    5.143 
#
# Total GULP energy -346995.916721 kJ/mol
# GULP energy per Si atom -12392.711311 kJ/mol
# Density = 1.707010 g / cm^3
# Si number density = 17.109038 Si / 1000 Ang^3
#
#
#
# Elastic Constant Matrix: (Units=GPa)
#
#
# Indices 1 2 3 4 5 6 
#
# 1 98.9812 18.7540 102.2078 0.0000 1.0243 0.0000
# 2 18.7540 22.4989 28.1804 0.0000 0.1276 0.0000
# 3 102.2078 28.1804 185.2000 0.0000 0.1428 0.0000
# 4 0.0000 0.0000 0.0000 0.9691 0.0000 -0.0543
# 5 1.0243 0.1276 0.1428 0.0000 36.2067 0.0000
# 6 0.0000 0.0000 0.0000 -0.0543 0.0000 4.9838
#
#
#
# Elastic Compliance Matrix: (Units=1/GPa)
#
#
# Indices 1 2 3 4 5 6 
#
# 1 0.023816 -0.004184 -0.012507 0.000000 -0.000610 0.000000
# 2 -0.004184 0.055648 -0.006158 0.000000 -0.000053 0.000000
# 3 -0.012507 -0.006158 0.013238 0.000000 0.000323 0.000000
# 4 0.000000 0.000000 0.000000 1.032474 0.000000 0.011259
# 5 -0.000610 -0.000053 0.000323 0.000000 0.027635 0.000000
# 6 0.000000 0.000000 0.000000 0.011259 0.000000 0.200775
#
#
# Mechanical properties :
#
#
# Convention : Reuss Voigt Hill
#
# Bulk Modulus (GPa) = 21.27440 67.21826 44.24633
# Shear Modulus (GPa) = 3.53369 18.93446 11.23407
#
# Velocity S-wave (km/s) = 1.43871 3.33031 2.56523
# Velocity P-wave (km/s) = 3.90146 7.35944 5.88994
#
# Compressibility (1/GPa) = 0.04700485
#
# Stress axis : x y z
#
# Youngs Moduli (GPa) = 41.98833 17.97014 75.53741
#
# Poissons Ratio (x) = 0.07518 0.94471
# Poissons Ratio (y) = 0.17567 0.46520
# Poissons Ratio (z) = 0.52513 0.11067
#
# Static dielectric constant tensor:
#      x y z
#    x 3.276930 0.000000 0.004580 
#    y 0.000000 2.628570 0.000000 
#    z 0.004580 0.000000 3.615020 
# 
# 
# High freq. dielectric constant tensor:
#      x y z
#    x 1.646320 0.000000 0.000380 
#    y 0.000000 1.594580 0.000000 
#    z 0.000380 0.000000 1.674050 
# 
# From -- ./inp_files/67101.got.cif
#   From: 2010.06.25/outbox.cif.g09.slc.cpg/sg10_34_cif.got.tgz:67101.got - 2010.06.27 22:07:45.
