data_PCOD8067159
_publ_section_title
;
Structure prediction by ZEFSAII (Michael W. Deem and Ramdas Pophale) SiO2 
 PCOD8067159
Probable space group: P 2/M
;
_chemical_formula_sum "Si O2"
_cell_formula_units_Z 24
_cell_length_a 11.163431
_cell_length_b 8.243213
_cell_length_c 12.342628
_cell_angle_alpha 90.000000
_cell_angle_beta 78.546945
_cell_angle_gamma 90.000000
_cell_volume 1113.183614
_symmetry_space_group_name_H-M "P 2/M"
_symmetry_group_IT_number 10
_symmetry_cell_setting 'monoclinic'
loop_
_space_group_symop_operation_xyz
x,y,z
-x,y,-z
-x,-y,-z
x,-y,z
loop_
_atom_site_type_symbol
_atom_site_label
_atom_site_fract_x
_atom_site_fract_y
_atom_site_fract_z
Si Si1 0.487667 0.685875 0.626278
Si Si2 0.132051 0.692984 0.931276
Si Si3 0.231687 0.809006 0.698377
Si Si4 0.691010 0.185562 0.729261
Si Si5 0.638866 0.313100 0.966898
Si Si6 0.133783 0.193076 0.486563
O O1 0.500000 0.744772 0.500000
O O2 0.530521 0.500000 0.630926
O O3 0.352956 0.706293 0.697800
O O4 0.565096 0.804764 0.687056
O O5 0.134820 0.500000 0.930590
O O6 0.136083 0.764550 0.809374
O O7 0.252924 0.760236 0.975149
O O8 0.000000 0.753673 0.000000
O O9 0.185168 0.744810 0.591083
O O10 0.257862 0.000000 0.691284
O O11 0.688174 0.293673 0.836702
O O12 0.791981 0.259374 0.629882
O O13 0.717055 0.000000 0.757553
O O14 0.624719 0.500000 0.999841
O O15 0.500000 0.233968 0.000000
O O16 0.000000 0.266468 0.500000
O O17 0.134860 0.000000 0.483606
#
# Coordination Sequence:
#
# PCOD8067159 Si02
#       6
#     4   4   4   4   4   4
#     4  11  22  37  59  87 123 160 196 239 299 369
#     4  10  23  42  62  87 124 166 207 255 309 365
#     4  11  22  38  64  91 121 156 202 255 302 361
#     4  11  22  37  63  92 122 154 198 253 301 360
#     4  10  22  41  62  84 118 163 206 251 305 363
#     4   9  20  37  56  85 124 161 191 239 309 361
#
# _framework density 21.559785999999999
#
# number of rings (size 3 to 8) (size 9 to 14) (size 15 to 20)
#    0.000    1.667    1.667    2.500    2.333    3.333 
#    0.000    0.000    0.000    4.000    0.000    0.000 
#    0.000    0.000    0.000    0.000    0.000    0.000 
#
# Total GULP energy -297526.261073 kJ/mol
# GULP energy per Si atom -12396.927545 kJ/mol
# Density = 2.151071 g / cm^3
# Si number density = 21.559786 Si / 1000 Ang^3
#
#
#
# Elastic Constant Matrix: (Units=GPa)
#
#
# Indices 1 2 3 4 5 6 
#
# 1 145.6238 7.2712 48.4169 0.0000 -20.9422 0.0000
# 2 7.2712 21.5451 3.4908 0.0000 -3.4211 0.0000
# 3 48.4169 3.4908 145.3374 0.0000 -19.9858 0.0000
# 4 0.0000 0.0000 0.0000 24.6126 0.0000 -10.6990
# 5 -20.9422 -3.4211 -19.9858 0.0000 34.0323 0.0000
# 6 0.0000 0.0000 0.0000 -10.6990 0.0000 5.7197
#
#
#
# Elastic Compliance Matrix: (Units=1/GPa)
#
#
# Indices 1 2 3 4 5 6 
#
# 1 0.008203 -0.001845 -0.002197 0.000000 0.003572 0.000000
# 2 -0.001845 0.047619 -0.000029 0.000000 0.003634 0.000000
# 3 -0.002197 -0.000029 0.008079 0.000000 0.003390 0.000000
# 4 0.000000 0.000000 0.000000 0.217401 0.000000 0.406655
# 5 0.003572 0.003634 0.003390 0.000000 0.033938 0.000000
# 6 0.000000 0.000000 0.000000 0.406655 0.000000 0.935494
#
#
# Mechanical properties :
#
#
# Convention : Reuss Voigt Hill
#
# Bulk Modulus (GPa) = 17.93470 47.87378 32.90424
# Shear Modulus (GPa) = 3.91400 29.76142 16.83771
#
# Velocity S-wave (km/s) = 1.34884 3.71942 2.79763
# Velocity P-wave (km/s) = 3.28062 6.37956 5.07254
#
# Compressibility (1/GPa) = 0.05575783
#
# Stress axis : x y z
#
# Youngs Moduli (GPa) = 121.90034 21.00012 123.77231
#
# Poissons Ratio (x) = 0.03875 0.27196
# Poissons Ratio (y) = 0.22494 0.00362
# Poissons Ratio (z) = 0.26785 0.00061
#
# Static dielectric constant tensor:
#      x y z
#    x 4.230120 0.000000 -0.090870 
#    y 0.000000 3.414910 0.000000 
#    z -0.090870 0.000000 4.050600 
# 
# 
# High freq. dielectric constant tensor:
#      x y z
#    x 1.852550 0.000000 -0.004670 
#    y 0.000000 1.814680 0.000000 
#    z -0.004670 0.000000 1.860050 
# 
# From -- ./inp_files/45050.got.cif
#   From: 2010.06.25/outbox.cif.g09.slc.cpg/sg10_23_cif.got.tgz:45050.got - 2010.06.27 22:07:45.
