data_PCOD8067321
_publ_section_title
;
Structure prediction by ZEFSAII (Michael W. Deem and Ramdas Pophale) SiO2 
 PCOD8067321
Probable space group: P 2/M
;
_chemical_formula_sum "Si O2"
_cell_formula_units_Z 20
_cell_length_a 7.786922
_cell_length_b 8.598173
_cell_length_c 24.091679
_cell_angle_alpha 90.000000
_cell_angle_beta 36.449653
_cell_angle_gamma 90.000000
_cell_volume 958.319797
_symmetry_space_group_name_H-M "P 2/M"
_symmetry_group_IT_number 10
_symmetry_cell_setting 'monoclinic'
loop_
_space_group_symop_operation_xyz
x,y,z
-x,y,-z
-x,-y,-z
x,-y,z
loop_
_atom_site_type_symbol
_atom_site_label
_atom_site_fract_x
_atom_site_fract_y
_atom_site_fract_z
Si Si1 0.698728 0.681509 0.897733
Si Si2 0.710345 0.819178 0.284623
Si Si3 0.325692 0.180836 0.900968
Si Si4 0.382255 0.681481 0.276082
Si Si5 0.240619 0.681541 0.607441
O O1 0.772342 0.500000 0.882865
O O2 0.539643 0.714203 0.881458
O O3 0.994067 0.776659 0.823775
O O4 0.500000 0.738758 0.000000
O O5 0.447069 0.728633 0.322906
O O6 0.727434 0.774662 0.344258
O O7 0.650090 0.000000 0.294896
O O8 0.392525 0.221474 0.819990
O O9 0.383036 0.000000 0.898308
O O10 0.000000 0.228133 0.000000
O O11 0.436447 0.500000 0.252978
O O12 0.055125 0.728160 0.346344
O O13 0.500000 0.731043 0.500000
O O14 0.249242 0.500000 0.619691
#
# Coordination Sequence:
#
# PCOD8067321 Si02
#       5
#     4   4   4   4   4
#     4  11  23  39  61  90 126 170 220 266 315 382
#     4  12  25  41  65  95 133 171 212 270 328 386
#     4  11  23  38  59  91 131 170 211 262 323 383
#     4  11  23  41  67  94 128 171 217 267 318 384
#     4  10  23  45  71  97 127 168 219 272 326 386
#
# _framework density 20.869861
#
# number of rings (size 3 to 8) (size 9 to 14) (size 15 to 20)
#    0.000    1.000    2.000    4.800    0.000    8.400 
#    0.000    4.000    0.000    0.000    0.000    0.000 
#    0.000    0.000    0.000    0.000    0.000    0.000 
#
# Total GULP energy -248155.395400 kJ/mol
# GULP energy per Si atom -12407.769770 kJ/mol
# Density = 2.082236 g / cm^3
# Si number density = 20.869861 Si / 1000 Ang^3
#
#
#
# Elastic Constant Matrix: (Units=GPa)
#
#
# Indices 1 2 3 4 5 6 
#
# 1 141.5557 33.9969 47.6321 0.0000 -10.0733 0.0000
# 2 33.9969 67.8089 41.8901 0.0000 -4.6329 0.0000
# 3 47.6321 41.8901 130.3861 0.0000 -7.8878 0.0000
# 4 0.0000 0.0000 0.0000 18.3492 0.0000 0.7666
# 5 -10.0733 -4.6329 -7.8878 0.0000 26.5425 0.0000
# 6 0.0000 0.0000 0.0000 0.7666 0.0000 27.1264
#
#
#
# Elastic Compliance Matrix: (Units=1/GPa)
#
#
# Indices 1 2 3 4 5 6 
#
# 1 0.008612 -0.002879 -0.002091 0.000000 0.002144 0.000000
# 2 -0.002879 0.019419 -0.005141 0.000000 0.000769 0.000000
# 3 -0.002091 -0.005141 0.010166 0.000000 0.001330 0.000000
# 4 0.000000 0.000000 0.000000 0.054563 0.000000 -0.001542
# 5 0.002144 0.000769 0.001330 0.000000 0.039019 0.000000
# 6 0.000000 0.000000 0.000000 -0.001542 0.000000 0.036908
#
#
# Mechanical properties :
#
#
# Convention : Reuss Voigt Hill
#
# Bulk Modulus (GPa) = 55.63481 65.19878 60.41679
# Shear Modulus (GPa) = 25.65414 28.81906 27.23660
#
# Velocity S-wave (km/s) = 3.50986 3.72007 3.61649
# Velocity P-wave (km/s) = 6.56821 7.05410 6.81549
#
# Compressibility (1/GPa) = 0.01797436
#
# Stress axis : x y z
#
# Youngs Moduli (GPa) = 116.11434 51.49565 98.37157
#
# Poissons Ratio (x) = 0.14827 0.20573
# Poissons Ratio (y) = 0.33433 0.50568
# Poissons Ratio (z) = 0.24284 0.26471
#
# Static dielectric constant tensor:
#      x y z
#    x 3.896280 0.000000 -0.078590 
#    y 0.000000 3.647970 0.000000 
#    z -0.078590 0.000000 3.880590 
# 
# 
# High freq. dielectric constant tensor:
#      x y z
#    x 1.832470 0.000000 -0.001220 
#    y 0.000000 1.818290 0.000000 
#    z -0.001220 0.000000 1.814010 
# 
# From -- ./inp_files/60071.got.cif
#   From: 2010.06.25/outbox.cif.g09.slc.cpg/sg10_31_cif.got.tgz:60071.got - 2010.06.27 22:07:45.
