data_PCOD8067086
_publ_section_title
;
Structure prediction by ZEFSAII (Michael W. Deem and Ramdas Pophale) SiO2 
 PCOD8067086
Probable space group: P 2/M
;
_chemical_formula_sum "Si O2"
_cell_formula_units_Z 24
_cell_length_a 12.997310
_cell_length_b 14.408918
_cell_length_c 8.827897
_cell_angle_alpha 90.000000
_cell_angle_beta 48.551967
_cell_angle_gamma 90.000000
_cell_volume 1239.214324
_symmetry_space_group_name_H-M "P 2/M"
_symmetry_group_IT_number 10
_symmetry_cell_setting 'monoclinic'
loop_
_space_group_symop_operation_xyz
x,y,z
-x,y,-z
-x,-y,-z
x,-y,z
loop_
_atom_site_type_symbol
_atom_site_label
_atom_site_fract_x
_atom_site_fract_y
_atom_site_fract_z
Si Si1 0.485762 0.208287 0.848079
Si Si2 0.723212 0.601196 0.233113
Si Si3 0.982392 0.893194 0.344834
Si Si4 0.210152 0.209912 0.942167
Si Si5 0.555850 0.601426 0.680473
Si Si6 0.706286 0.893108 0.442762
O O1 0.327283 0.206491 0.955510
O O2 0.548676 0.312709 0.803148
O O3 0.568175 0.151663 0.641644
O O4 0.500000 0.161824 0.000000
O O5 0.792984 0.500000 0.137068
O O6 0.820630 0.683548 0.077925
O O7 0.689981 0.614158 0.443585
O O8 0.579121 0.606519 0.289094
O O9 0.825092 0.880154 0.451266
O O10 0.000000 0.859125 0.500000
O O11 0.030017 0.000000 0.281551
O O12 0.071788 0.830794 0.145629
O O13 0.254766 0.152464 0.753170
O O14 0.564364 0.500000 0.754204
O O15 0.676495 0.000000 0.439173
#
# Coordination Sequence:
#
# PCOD8067086 Si02
#       6
#     4   4   4   4   4   4
#     4  11  22  34  52  83 116 143 175 220 276 318
#     4   8  14  27  51  79 105 136 175 219 263 309
#     4  10  22  40  59  79 106 142 180 219 270 326
#     4  11  20  35  59  82 106 141 183 227 262 313
#     4   8  14  28  49  75 108 141 175 215 260 313
#     4  11  23  38  56  79 107 141 183 225 265 317
#
# _framework density 19.367108999999999
#
# number of rings (size 3 to 8) (size 9 to 14) (size 15 to 20)
#    0.000    2.167    1.667    3.500    0.000    4.000 
#    0.000    0.000    0.000    3.500    0.000    0.000 
#    0.000    0.000    0.000    0.000    0.000    0.000 
#
# Total GULP energy -297527.211806 kJ/mol
# GULP energy per Si atom -12396.967159 kJ/mol
# Density = 1.932303 g / cm^3
# Si number density = 19.367109 Si / 1000 Ang^3
#
#
#
# Elastic Constant Matrix: (Units=GPa)
#
#
# Indices 1 2 3 4 5 6 
#
# 1 37.9009 1.8529 -7.1981 0.0000 9.0205 0.0000
# 2 1.8529 110.4998 25.7259 0.0000 -2.3114 0.0000
# 3 -7.1981 25.7259 66.2397 0.0000 5.8275 0.0000
# 4 0.0000 0.0000 0.0000 15.6744 0.0000 -31.4423
# 5 9.0205 -2.3114 5.8275 0.0000 28.1182 0.0000
# 6 0.0000 0.0000 0.0000 -31.4423 0.0000 -38.4000
#
#
#
# Elastic Compliance Matrix: (Units=1/GPa)
#
#
# Indices 1 2 3 4 5 6 
#
# 1 0.029984 -0.001878 0.004938 0.000000 -0.010797 0.000000
# 2 -0.001878 0.010143 -0.004349 0.000000 0.002338 0.000000
# 3 0.004938 -0.004349 0.017818 0.000000 -0.005634 0.000000
# 4 0.000000 0.000000 0.000000 0.024143 0.000000 -0.019769
# 5 -0.010797 0.002338 -0.005634 0.000000 0.040388 0.000000
# 6 0.000000 0.000000 0.000000 -0.019769 0.000000 -0.009855
#
#
# Mechanical properties :
#
#
# Convention : Reuss Voigt Hill
#
# Bulk Modulus (GPa) = 18.06186 28.37798 23.21992
# Shear Modulus (GPa) = 37.40995 14.02918 25.71956
#
# Velocity S-wave (km/s) = 4.39979 2.69435 3.64813
# Velocity P-wave (km/s) = 5.92935 4.93598 5.45532
#
# Compressibility (1/GPa) = 0.05536528
#
# Stress axis : x y z
#
# Youngs Moduli (GPa) = 33.35139 98.59337 56.12325
#
# Poissons Ratio (x) = 0.18517 -0.27711
# Poissons Ratio (y) = 0.06264 0.24408
# Poissons Ratio (z) = -0.16467 0.42877
#
# Static dielectric constant tensor:
#      x y z
#    x 3.260140 0.000000 0.081720 
#    y 0.000000 3.995780 0.000000 
#    z 0.081720 0.000000 3.356590 
# 
# 
# High freq. dielectric constant tensor:
#      x y z
#    x 1.727850 0.000000 0.011390 
#    y 0.000000 1.766700 0.000000 
#    z 0.011390 0.000000 1.739750 
# 
# From -- ./inp_files/18855.got.cif
#   From: 2010.06.25/outbox.cif.g09.slc.cpg/sg10_10_cif.got.tgz:18855.got - 2010.06.27 22:07:45.
