data_PCOD8067677
_publ_section_title
;
Structure prediction by ZEFSAII (Michael W. Deem and Ramdas Pophale) SiO2 
 PCOD8067677
Probable space group: P 2/M
;
_chemical_formula_sum "Si O2"
_cell_formula_units_Z 32
_cell_length_a 15.343586
_cell_length_b 8.605423
_cell_length_c 22.908390
_cell_angle_alpha 90.000000
_cell_angle_beta 148.193786
_cell_angle_gamma 90.000000
_cell_volume 1594.203674
_symmetry_space_group_name_H-M "P 2/M"
_symmetry_group_IT_number 10
_symmetry_cell_setting 'monoclinic'
loop_
_space_group_symop_operation_xyz
x,y,z
-x,y,-z
-x,-y,-z
x,-y,z
loop_
_atom_site_type_symbol
_atom_site_label
_atom_site_fract_x
_atom_site_fract_y
_atom_site_fract_z
Si Si1 0.029750 0.685787 0.209072
Si Si2 0.715343 0.323758 0.966124
Si Si3 0.190897 0.829510 0.691741
Si Si4 0.409997 0.683770 0.722335
Si Si5 0.044307 0.184105 0.342137
Si Si6 0.477923 0.171430 0.051339
Si Si7 0.616156 0.817610 0.619833
Si Si8 0.620578 0.682891 0.427406
O O1 0.042930 0.500000 0.216869
O O2 0.974375 0.741023 0.242445
O O3 0.200323 0.763531 0.288949
O O4 0.899406 0.743316 0.084070
O O5 0.736211 0.500000 0.958936
O O6 0.587059 0.243059 0.846649
O O7 0.626055 0.305877 0.977248
O O8 0.247283 0.731803 0.666981
O O9 0.343602 0.848053 0.820589
O O10 0.048161 0.752296 0.651603
O O11 0.132485 0.000000 0.636513
O O12 0.424665 0.500000 0.734962
O O13 0.385472 0.741614 0.642716
O O14 0.236526 0.226723 0.456928
O O15 0.021028 0.000000 0.324245
O O16 0.390452 0.000000 0.003066
O O17 0.500000 0.236354 0.000000
O O18 0.500000 0.770715 0.500000
O O19 0.552329 0.727151 0.640759
O O20 0.613144 0.000000 0.630318
O O21 0.653138 0.500000 0.449550
#
# Coordination Sequence:
#
# PCOD8067677 Si02
#       8
#     4   4   4   4   4   4   4   4
#     4  11  22  36  59  88 116 146 183 230 281 336
#     4   9  19  35  54  79 110 145 184 226 274 325
#     4   9  19  33  51  77 110 151 193 231 275 326
#     4   9  20  39  59  80 112 152 192 232 274 323
#     4  11  22  36  55  83 118 151 187 234 284 332
#     4   9  16  28  47  72 104 144 188 230 273 322
#     4  11  23  40  62  87 114 145 179 223 282 341
#     4  11  23  39  61  85 110 146 189 233 280 333
#
# _framework density 20.072717000000001
#
# number of rings (size 3 to 8) (size 9 to 14) (size 15 to 20)
#    0.000    2.000    1.250    2.250    0.000    5.250 
#    0.000    5.625    0.000    3.750    0.000    0.000 
#    0.000    0.000    0.000    0.000    0.000    0.000 
#
# Total GULP energy -396478.045350 kJ/mol
# GULP energy per Si atom -12389.938917 kJ/mol
# Density = 2.002703 g / cm^3
# Si number density = 20.072717 Si / 1000 Ang^3
#
#
#
# Elastic Constant Matrix: (Units=GPa)
#
#
# Indices 1 2 3 4 5 6 
#
# 1 99.7720 13.4220 12.0266 0.0000 2.8883 0.0000
# 2 13.4220 30.7060 10.9408 0.0000 -3.7198 0.0000
# 3 12.0266 10.9408 61.1712 0.0000 11.0753 0.0000
# 4 0.0000 0.0000 0.0000 28.6771 0.0000 -7.1284
# 5 2.8883 -3.7198 11.0753 0.0000 29.7216 0.0000
# 6 0.0000 0.0000 0.0000 -7.1284 0.0000 44.7108
#
#
#
# Elastic Compliance Matrix: (Units=1/GPa)
#
#
# Indices 1 2 3 4 5 6 
#
# 1 0.010792 -0.004468 -0.001106 0.000000 -0.001196 0.000000
# 2 -0.004468 0.038112 -0.007378 0.000000 0.007953 0.000000
# 3 -0.001106 -0.007378 0.019337 0.000000 -0.008022 0.000000
# 4 0.000000 0.000000 0.000000 0.036310 0.000000 0.005789
# 5 -0.001196 0.007953 -0.008022 0.000000 0.037746 0.000000
# 6 0.000000 0.000000 0.000000 0.005789 0.000000 0.023289
#
#
# Mechanical properties :
#
#
# Convention : Reuss Voigt Hill
#
# Bulk Modulus (GPa) = 23.62022 29.38088 26.50055
# Shear Modulus (GPa) = 24.31868 30.97256 27.64562
#
# Velocity S-wave (km/s) = 3.48448 3.93239 3.71519
# Velocity P-wave (km/s) = 5.28977 5.94031 5.62445
#
# Compressibility (1/GPa) = 0.04233660
#
# Stress axis : x y z
#
# Youngs Moduli (GPa) = 92.66237 26.23821 51.71432
#
# Poissons Ratio (x) = 0.11723 0.05720
# Poissons Ratio (y) = 0.41402 0.38156
# Poissons Ratio (z) = 0.10250 0.19359
#
# Static dielectric constant tensor:
#      x y z
#    x 3.594260 0.000000 -0.042370 
#    y 0.000000 3.542020 0.000000 
#    z -0.042370 0.000000 3.905650 
# 
# 
# High freq. dielectric constant tensor:
#      x y z
#    x 1.774910 0.000000 0.001060 
#    y 0.000000 1.770260 0.000000 
#    z 0.001060 0.000000 1.788590 
# 
# From -- ./inp_files/71652.got.cif
#   From: 2010.06.25/outbox.cif.g09.slc.cpg/sg10_36_cif.got.tgz:71652.got - 2010.06.27 22:07:45.
