data_PCOD8067022
_publ_section_title
;
Structure prediction by ZEFSAII (Michael W. Deem and Ramdas Pophale) SiO2 
 PCOD8067022
Probable space group: P 2/M
;
_chemical_formula_sum "Si O2"
_cell_formula_units_Z 32
_cell_length_a 27.544846
_cell_length_b 13.581895
_cell_length_c 9.581099
_cell_angle_alpha 90.000000
_cell_angle_beta 149.902884
_cell_angle_gamma 90.000000
_cell_volume 1797.457238
_symmetry_space_group_name_H-M "P 2/M"
_symmetry_group_IT_number 10
_symmetry_cell_setting 'monoclinic'
loop_
_space_group_symop_operation_xyz
x,y,z
-x,y,-z
-x,-y,-z
x,-y,z
loop_
_atom_site_type_symbol
_atom_site_label
_atom_site_fract_x
_atom_site_fract_y
_atom_site_fract_z
Si Si1 0.801622 0.707497 0.531303
Si Si2 0.096611 0.112639 0.653416
Si Si3 0.903609 0.887542 0.673514
Si Si4 0.611635 0.387419 0.117698
Si Si5 0.788377 0.705337 0.004184
Si Si6 0.112229 0.612872 0.506314
Si Si7 0.894384 0.615122 0.019443
Si Si8 0.393956 0.613051 0.567448
O O1 0.818701 0.820257 0.527515
O O2 0.687887 0.683026 0.228798
O O3 0.870743 0.635864 0.613399
O O4 0.830121 0.684910 0.761105
O O5 0.078038 0.136920 0.443734
O O6 0.182320 0.179500 0.931983
O O7 0.000000 0.135153 0.500000
O O8 0.129330 0.000000 0.754263
O O9 0.870685 0.000000 0.611733
O O10 0.000000 0.864311 0.000000
O O11 0.636044 0.500000 0.140021
O O12 0.619924 0.372497 0.303275
O O13 0.503800 0.360648 0.797396
O O14 0.806736 0.672966 0.208400
O O15 0.857678 0.636110 0.083518
O O16 0.676182 0.688622 0.687473
O O17 0.126751 0.500000 0.575125
O O18 0.005463 0.647513 0.284516
O O19 0.879658 0.500000 0.945787
O O20 0.369724 0.500000 0.466550
#
# Coordination Sequence:
#
# PCOD8067022 Si02
#       8
#     4   4   4   4   4   4   4   4
#     4  12  21  34  55  79 107 150 182 222 275 324
#     4  10  22  39  58  81 110 146 189 234 276 323
#     4  10  22  39  58  81 110 146 189 234 276 323
#     4   9  18  34  56  80 106 141 187 232 271 319
#     4  12  21  34  55  79 107 150 182 222 275 324
#     4  11  22  32  46  76 116 145 176 214 264 329
#     4  11  22  34  50  76 112 151 186 212 252 329
#     4   9  18  34  56  80 106 141 187 232 271 319
#
# _framework density 17.802925999999999
#
# number of rings (size 3 to 8) (size 9 to 14) (size 15 to 20)
#    0.000    1.500    2.500    5.250    1.750    2.000 
#    0.000    0.625    0.000    3.000    0.000    3.500 
#    0.000    0.000    0.000    0.000    0.000    0.000 
#
# Total GULP energy -396828.784952 kJ/mol
# GULP energy per Si atom -12400.899530 kJ/mol
# Density = 1.776241 g / cm^3
# Si number density = 17.802926 Si / 1000 Ang^3
#
#
#
# Elastic Constant Matrix: (Units=GPa)
#
#
# Indices 1 2 3 4 5 6 
#
# 1 64.4393 38.5438 29.1453 0.0000 10.2255 0.0000
# 2 38.5438 108.0598 60.2789 0.0000 14.8981 0.0000
# 3 29.1453 60.2789 109.6677 0.0000 15.6123 0.0000
# 4 0.0000 0.0000 0.0000 28.7213 0.0000 1.0966
# 5 10.2255 14.8981 15.6123 0.0000 27.3552 0.0000
# 6 0.0000 0.0000 0.0000 1.0966 0.0000 29.1713
#
#
#
# Elastic Compliance Matrix: (Units=1/GPa)
#
#
# Indices 1 2 3 4 5 6 
#
# 1 0.020320 -0.005817 -0.001711 0.000000 -0.003451 0.000000
# 2 -0.005817 0.015301 -0.006517 0.000000 -0.002439 0.000000
# 3 -0.001711 -0.006517 0.013670 0.000000 -0.003613 0.000000
# 4 0.000000 0.000000 0.000000 0.034867 0.000000 -0.001311
# 5 -0.003451 -0.002439 -0.003613 0.000000 0.041236 0.000000
# 6 0.000000 0.000000 0.000000 -0.001311 0.000000 0.034330
#
#
# Mechanical properties :
#
#
# Convention : Reuss Voigt Hill
#
# Bulk Modulus (GPa) = 47.17258 59.78921 53.48089
# Shear Modulus (GPa) = 25.65675 27.32947 26.49311
#
# Velocity S-wave (km/s) = 3.80037 3.92230 3.86182
# Velocity P-wave (km/s) = 6.76843 7.35999 7.07040
#
# Compressibility (1/GPa) = 0.02119876
#
# Stress axis : x y z
#
# Youngs Moduli (GPa) = 49.21328 65.35668 73.15555
#
# Poissons Ratio (x) = 0.38021 0.12520
# Poissons Ratio (y) = 0.28629 0.47674
# Poissons Ratio (z) = 0.08422 0.42591
#
# Static dielectric constant tensor:
#      x y z
#    x 3.276040 0.000000 0.013900 
#    y 0.000000 3.254170 0.000000 
#    z 0.013900 0.000000 3.265590 
# 
# 
# High freq. dielectric constant tensor:
#      x y z
#    x 1.686310 0.000000 -0.008420 
#    y 0.000000 1.676400 0.000000 
#    z -0.008420 0.000000 1.676580 
# 
# From -- ./inp_files/37746.got.cif
#   From: 2010.06.25/outbox.cif.g09.slc.cpg/sg10_19_cif.got.tgz:37746.got - 2010.06.27 22:07:45.
