data_PCOD8067935
_publ_section_title
;
Structure prediction by ZEFSAII (Michael W. Deem and Ramdas Pophale) SiO2 
 PCOD8067935
Probable space group: P 2/M
;
_chemical_formula_sum "Si O2"
_cell_formula_units_Z 32
_cell_length_a 22.797486
_cell_length_b 9.774316
_cell_length_c 20.799179
_cell_angle_alpha 90.000000
_cell_angle_beta 24.167643
_cell_angle_gamma 90.000000
_cell_volume 1897.473430
_symmetry_space_group_name_H-M "P 2/M"
_symmetry_group_IT_number 10
_symmetry_cell_setting 'monoclinic'
loop_
_space_group_symop_operation_xyz
x,y,z
-x,y,-z
-x,-y,-z
x,-y,z
loop_
_atom_site_type_symbol
_atom_site_label
_atom_site_fract_x
_atom_site_fract_y
_atom_site_fract_z
Si Si1 0.408542 0.837285 0.033096
Si Si2 0.087722 0.337269 0.851492
Si Si3 0.420661 0.847551 0.880432
Si Si4 0.079350 0.847548 0.221746
Si Si5 0.587719 0.337271 0.473065
Si Si6 0.582930 0.658943 0.231231
Si Si7 0.091462 0.837289 0.350178
Si Si8 0.082918 0.341059 0.102924
O O1 0.250002 0.774494 0.198011
O O2 0.401507 0.000000 0.045723
O O3 0.500000 0.773645 0.000000
O O4 0.476209 0.799660 0.895497
O O5 0.090083 0.500000 0.852452
O O6 0.250002 0.279583 0.690086
O O7 0.007218 0.288504 0.867776
O O8 0.000000 0.278170 0.000000
O O9 0.474887 0.742234 0.772389
O O10 0.477922 0.000000 0.806625
O O11 0.250005 0.850155 0.054036
O O12 0.023797 0.799662 0.347912
O O13 0.025110 0.742245 0.222166
O O14 0.022089 0.000000 0.262462
O O15 0.500000 0.278163 0.500000
O O16 0.590085 0.500000 0.467377
O O17 0.507210 0.288502 0.617793
O O18 0.555359 0.500000 0.244765
O O19 0.750005 0.687435 0.078101
O O20 0.000000 0.773635 0.500000
O O21 0.098503 0.000000 0.348730
O O22 0.055349 0.500000 0.144530
#
# Coordination Sequence:
#
# PCOD8067935 Si02
#       8
#     4   4   4   4   4   4   4   4
#     4   8  13  22  37  56  76  99 130 166 199 231
#     4   9  16  26  41  61  84 108 134 166 202 237
#     4   8  14  25  41  60  82 108 135 163 199 242
#     4   8  14  25  41  60  82 108 135 163 199 242
#     4   9  16  26  41  61  84 108 134 166 202 237
#     4   9  16  26  42  63  83 104 133 167 200 236
#     4   8  13  22  37  56  76  99 130 166 199 231
#     4   9  16  26  42  63  83 104 133 167 200 236
#
# _framework density 16.864530999999999
#
# number of rings (size 3 to 8) (size 9 to 14) (size 15 to 20)
#    0.000    3.500    0.000    2.250    0.000    3.000 
#    0.000    1.250    0.000    3.750    0.000    0.000 
#    0.000    0.000    0.000    0.000    0.000    0.000 
#
# Total GULP energy -396568.660862 kJ/mol
# GULP energy per Si atom -12392.770652 kJ/mol
# Density = 1.682615 g / cm^3
# Si number density = 16.864531 Si / 1000 Ang^3
#
#
#
# Elastic Constant Matrix: (Units=GPa)
#
#
# Indices 1 2 3 4 5 6 
#
# 1 161.6659 42.7332 70.9281 0.0000 26.2862 0.0000
# 2 42.7332 34.1748 28.6768 0.0000 12.7599 0.0000
# 3 70.9281 28.6768 105.2518 0.0000 24.9126 0.0000
# 4 0.0000 0.0000 0.0000 12.4029 0.0000 7.4969
# 5 26.2862 12.7599 24.9126 0.0000 32.1292 0.0000
# 6 0.0000 0.0000 0.0000 7.4969 0.0000 20.6612
#
#
#
# Elastic Compliance Matrix: (Units=1/GPa)
#
#
# Indices 1 2 3 4 5 6 
#
# 1 0.010825 -0.009199 -0.004357 0.000000 -0.001825 0.000000
# 2 -0.009199 0.047814 -0.005040 0.000000 -0.007555 0.000000
# 3 -0.004357 -0.005040 0.015301 0.000000 -0.006298 0.000000
# 4 0.000000 0.000000 0.000000 0.103277 0.000000 -0.037474
# 5 -0.001825 -0.007555 -0.006298 0.000000 0.040502 0.000000
# 6 0.000000 0.000000 0.000000 -0.037474 0.000000 0.061997
#
#
# Mechanical properties :
#
#
# Convention : Reuss Voigt Hill
#
# Bulk Modulus (GPa) = 27.21176 65.08540 46.14858
# Shear Modulus (GPa) = 15.19029 23.62228 19.40629
#
# Velocity S-wave (km/s) = 3.00446 3.74666 3.39590
# Velocity P-wave (km/s) = 5.31096 7.57585 6.54216
#
# Compressibility (1/GPa) = 0.03674882
#
# Stress axis : x y z
#
# Youngs Moduli (GPa) = 92.37525 20.91430 65.35562
#
# Poissons Ratio (x) = 0.19239 0.28474
# Poissons Ratio (y) = 0.84977 0.32939
# Poissons Ratio (z) = 0.40245 0.10541
#
# Static dielectric constant tensor:
#      x y z
#    x 3.436420 0.000000 0.192500 
#    y 0.000000 2.727910 0.000000 
#    z 0.192500 0.000000 3.224270 
# 
# 
# High freq. dielectric constant tensor:
#      x y z
#    x 1.658070 0.000000 0.018920 
#    y 0.000000 1.588630 0.000000 
#    z 0.018920 0.000000 1.637220 
# 
# From -- ./inp_files/79447.got.cif
#   From: 2010.06.25/outbox.cif.g09.slc.cpg/sg10_40_cif.got.tgz:79447.got - 2010.06.27 22:07:45.
