data_PCOD8067619
_publ_section_title
;
Structure prediction by ZEFSAII (Michael W. Deem and Ramdas Pophale) SiO2 
 PCOD8067619
Probable space group: P 2/M
;
_chemical_formula_sum "Si O2"
_cell_formula_units_Z 28
_cell_length_a 9.379220
_cell_length_b 15.267135
_cell_length_c 12.252239
_cell_angle_alpha 90.000000
_cell_angle_beta 52.806818
_cell_angle_gamma 90.000000
_cell_volume 1397.594051
_symmetry_space_group_name_H-M "P 2/M"
_symmetry_group_IT_number 10
_symmetry_cell_setting 'monoclinic'
loop_
_space_group_symop_operation_xyz
x,y,z
-x,y,-z
-x,-y,-z
x,-y,z
loop_
_atom_site_type_symbol
_atom_site_label
_atom_site_fract_x
_atom_site_fract_y
_atom_site_fract_z
Si Si1 0.517531 0.404844 0.613744
Si Si2 0.540210 0.903432 0.355954
Si Si3 0.089243 0.182139 0.848250
Si Si4 0.293423 0.396729 0.071914
Si Si5 0.723279 0.754485 0.596087
Si Si6 0.811153 0.368649 0.112684
Si Si7 0.062745 0.255119 0.290676
O O1 0.500000 0.365268 0.500000
O O2 0.616234 0.500000 0.565522
O O3 0.615491 0.337340 0.649300
O O4 0.319390 0.425212 0.751846
O O5 0.500000 0.904649 0.500000
O O6 0.748702 0.882073 0.249945
O O7 0.412803 0.833439 0.358339
O O8 0.505192 0.000000 0.321178
O O9 0.159228 0.279399 0.836063
O O10 0.953039 0.189111 0.806519
O O11 0.000000 0.145262 0.000000
O O12 0.248157 0.500000 0.094137
O O13 0.150089 0.348759 0.217354
O O14 0.500000 0.379004 0.000000
O O15 0.277776 0.351263 0.962253
O O16 0.811409 0.780505 0.670643
O O17 0.864019 0.737851 0.433219
O O18 0.000000 0.417189 0.000000
#
# Coordination Sequence:
#
# PCOD8067619 Si02
#       7
#     4   4   4   4   4   4   4
#     4  11  23  37  59  89 124 167 214 265 314 369
#     4  11  23  43  72  98 127 167 211 262 325 392
#     4  11  21  40  66  96 125 162 214 265 318 384
#     4  11  24  39  57  88 130 173 225 265 313 380
#     4  11  23  41  65  92 131 164 215 267 313 396
#     4  11  21  38  60  87 118 165 212 267 303 368
#     4  11  23  40  62  93 125 173 209 261 329 364
#
# _framework density 20.03443
#
# number of rings (size 3 to 8) (size 9 to 14) (size 15 to 20)
#    0.000    1.000    5.714    2.571    0.000    3.714 
#    0.000    3.571    0.000    0.857    0.000    0.000 
#    0.000    0.000    0.000    0.000    0.000    0.000 
#
# Total GULP energy -346933.448504 kJ/mol
# GULP energy per Si atom -12390.480304 kJ/mol
# Density = 1.998883 g / cm^3
# Si number density = 20.034430 Si / 1000 Ang^3
#
#
#
# Elastic Constant Matrix: (Units=GPa)
#
#
# Indices 1 2 3 4 5 6 
#
# 1 128.0859 45.7608 51.2114 0.0000 7.6214 0.0000
# 2 45.7608 98.7488 28.4745 0.0000 -5.2456 0.0000
# 3 51.2114 28.4745 130.9950 0.0000 -3.7913 0.0000
# 4 0.0000 0.0000 0.0000 -18.5811 0.0000 -5.5616
# 5 7.6214 -5.2456 -3.7913 0.0000 37.3392 0.0000
# 6 0.0000 0.0000 0.0000 -5.5616 0.0000 9.7880
#
#
#
# Elastic Compliance Matrix: (Units=1/GPa)
#
#
# Indices 1 2 3 4 5 6 
#
# 1 0.010872 -0.004218 -0.003425 0.000000 -0.003159 0.000000
# 2 -0.004218 0.012502 -0.000996 0.000000 0.002516 0.000000
# 3 -0.003425 -0.000996 0.009232 0.000000 0.001497 0.000000
# 4 0.000000 0.000000 0.000000 -0.045995 0.000000 -0.026135
# 5 -0.003159 0.002516 0.001497 0.000000 0.027932 0.000000
# 6 0.000000 0.000000 0.000000 -0.026135 0.000000 0.087316
#
#
# Mechanical properties :
#
#
# Convention : Reuss Voigt Hill
#
# Bulk Modulus (GPa) = 65.23572 67.63592 66.43582
# Shear Modulus (GPa) = 40.24291 21.20141 30.72216
#
# Velocity S-wave (km/s) = 4.48670 3.25660 3.92020
# Velocity P-wave (km/s) = 7.71188 6.92631 7.32963
#
# Compressibility (1/GPa) = 0.01532903
#
# Stress axis : x y z
#
# Youngs Moduli (GPa) = 91.98326 79.98561 108.31336
#
# Poissons Ratio (x) = 0.33740 0.37094
# Poissons Ratio (y) = 0.38801 0.10785
# Poissons Ratio (z) = 0.31501 0.07964
#
# Static dielectric constant tensor:
#      x y z
#    x 10.620490 0.000000 -0.918790 
#    y 0.000000 3.509970 0.000000 
#    z -0.918790 0.000000 3.995980 
# 
# 
# High freq. dielectric constant tensor:
#      x y z
#    x 1.786150 0.000000 -0.001680 
#    y 0.000000 1.753980 0.000000 
#    z -0.001680 0.000000 1.799400 
# 
# From -- ./inp_files/42905.got.cif
#   From: 2010.06.25/outbox.cif.g09.slc.cpg/sg10_22_cif.got.tgz:42905.got - 2010.06.27 22:07:45.
