data_PCOD8067298
_publ_section_title
;
Structure prediction by ZEFSAII (Michael W. Deem and Ramdas Pophale) SiO2 
 PCOD8067298
Probable space group: P 2/M
;
_chemical_formula_sum "Si O2"
_cell_formula_units_Z 20
_cell_length_a 14.083996
_cell_length_b 11.690002
_cell_length_c 11.536332
_cell_angle_alpha 90.000000
_cell_angle_beta 146.756407
_cell_angle_gamma 90.000000
_cell_volume 1041.230847
_symmetry_space_group_name_H-M "P 2/M"
_symmetry_group_IT_number 10
_symmetry_cell_setting 'monoclinic'
loop_
_space_group_symop_operation_xyz
x,y,z
-x,y,-z
-x,-y,-z
x,-y,z
loop_
_atom_site_type_symbol
_atom_site_label
_atom_site_fract_x
_atom_site_fract_y
_atom_site_fract_z
Si Si1 0.695868 0.243399 0.431616
Si Si2 0.264007 0.000000 0.827120
Si Si3 0.189090 0.752438 0.708138
Si Si4 0.992660 0.367639 0.127299
Si Si5 0.400023 0.000000 0.707086
Si Si6 0.349833 0.366461 0.086777
O O1 0.704126 0.255102 0.301379
O O2 0.671978 0.109279 0.436192
O O3 0.529871 0.310446 0.312030
O O4 0.870480 0.288586 0.667358
O O5 0.156039 0.881820 0.723436
O O6 0.350953 0.000000 0.791005
O O7 0.391222 0.000000 0.069054
O O8 0.000000 0.696001 0.500000
O O9 0.299708 0.679363 0.909996
O O10 0.037627 0.500000 0.198643
O O11 0.800408 0.336950 0.974680
O O12 0.000000 0.339264 0.000000
O O13 0.382615 0.500000 0.111508
#
# Coordination Sequence:
#
# PCOD8067298 Si02
#       6
#     4   2   4   4   2   4
#     4  11  21  38  60  87 119 153 187 234 285 340
#     4   9  17  32  52  83 119 155 194 227 263 341
#     4  11  20  34  56  88 122 154 188 230 283 345
#     4  10  23  43  63  83 109 147 200 248 283 334
#     4   9  18  32  57  84 118 152 191 226 275 340
#     4  11  23  37  58  87 116 152 189 231 294 347
#
# _framework density 19.208036
#
# number of rings (size 3 to 8) (size 9 to 14) (size 15 to 20)
#    0.000    1.600    4.000    1.500    0.000    3.600 
#    0.000    4.500    0.000    1.200    0.000    0.000 
#    0.000    0.000    0.000    0.000    0.000    0.000 
#
# Total GULP energy -247974.093331 kJ/mol
# GULP energy per Si atom -12398.704667 kJ/mol
# Density = 1.916432 g / cm^3
# Si number density = 19.208036 Si / 1000 Ang^3
#
#
#
# Elastic Constant Matrix: (Units=GPa)
#
#
# Indices 1 2 3 4 5 6 
#
# 1 91.8002 48.6023 31.2440 0.0000 5.9898 0.0000
# 2 48.6023 125.0767 46.4962 0.0000 7.4428 0.0000
# 3 31.2440 46.4962 44.3536 0.0000 16.3454 0.0000
# 4 0.0000 0.0000 0.0000 33.8350 0.0000 14.8401
# 5 5.9898 7.4428 16.3454 0.0000 30.5693 0.0000
# 6 0.0000 0.0000 0.0000 14.8401 0.0000 46.8754
#
#
#
# Elastic Compliance Matrix: (Units=1/GPa)
#
#
# Indices 1 2 3 4 5 6 
#
# 1 0.015158 -0.002857 -0.008524 0.000000 0.002283 0.000000
# 2 -0.002857 0.014330 -0.014858 0.000000 0.005015 0.000000
# 3 -0.008524 -0.014858 0.052528 0.000000 -0.022799 0.000000
# 4 0.000000 0.000000 0.000000 0.034321 0.000000 -0.010865
# 5 0.002283 0.005015 -0.022799 0.000000 0.043235 0.000000
# 6 0.000000 0.000000 0.000000 -0.010865 0.000000 0.024773
#
#
# Mechanical properties :
#
#
# Convention : Reuss Voigt Hill
#
# Bulk Modulus (GPa) = 33.85448 57.10173 45.47810
# Shear Modulus (GPa) = 20.26998 31.24846 25.75922
#
# Velocity S-wave (km/s) = 3.25204 4.03779 3.66603
# Velocity P-wave (km/s) = 5.63600 7.17850 6.45350
#
# Compressibility (1/GPa) = 0.02953819
#
# Stress axis : x y z
#
# Youngs Moduli (GPa) = 65.97129 69.78220 19.03731
#
# Poissons Ratio (x) = 0.19939 0.16227
# Poissons Ratio (y) = 0.18850 0.28286
# Poissons Ratio (z) = 0.56234 1.03683
#
# Static dielectric constant tensor:
#      x y z
#    x 3.384100 0.000000 0.196640 
#    y 0.000000 3.706180 0.000000 
#    z 0.196640 0.000000 3.386700 
# 
# 
# High freq. dielectric constant tensor:
#      x y z
#    x 1.723810 0.000000 0.022430 
#    y 0.000000 1.752540 0.000000 
#    z 0.022430 0.000000 1.745810 
# 
# From -- ./inp_files/46875.got.cif
#   From: 2010.06.25/outbox.cif.g09.slc.cpg/sg10_24_cif.got.tgz:46875.got - 2010.06.27 22:07:45.
