data_PCOD8067102
_publ_section_title
;
Structure prediction by ZEFSAII (Michael W. Deem and Ramdas Pophale) SiO2 
 PCOD8067102
Probable space group: P 2/M
;
_chemical_formula_sum "Si O2"
_cell_formula_units_Z 32
_cell_length_a 28.343612
_cell_length_b 8.922315
_cell_length_c 11.693562
_cell_angle_alpha 90.000000
_cell_angle_beta 148.508437
_cell_angle_gamma 90.000000
_cell_volume 1544.757435
_symmetry_space_group_name_H-M "P 2/M"
_symmetry_group_IT_number 10
_symmetry_cell_setting 'monoclinic'
loop_
_space_group_symop_operation_xyz
x,y,z
-x,y,-z
-x,-y,-z
x,-y,z
loop_
_atom_site_type_symbol
_atom_site_label
_atom_site_fract_x
_atom_site_fract_y
_atom_site_fract_z
Si Si1 0.164242 0.171768 0.151804
Si Si2 0.910153 0.823146 0.382972
Si Si3 0.315332 0.674939 0.862060
Si Si4 0.726244 0.325091 0.964961
Si Si5 0.513739 0.824762 0.895965
Si Si6 0.843091 0.172581 0.601108
Si Si7 0.020126 0.676220 0.254286
Si Si8 0.657156 0.174716 0.611032
O O1 0.186369 0.196823 0.329885
O O2 0.252068 0.222886 0.265987
O O3 0.138122 0.000000 0.071825
O O4 0.082181 0.273075 0.939575
O O5 0.914771 0.743145 0.514385
O O6 0.000000 0.778040 0.500000
O O7 0.902232 0.000000 0.381888
O O8 0.820293 0.762374 0.135494
O O9 0.300278 0.500000 0.807303
O O10 0.234965 0.766313 0.640157
O O11 0.316083 0.710360 0.998733
O O12 0.407986 0.726461 0.996944
O O13 0.744817 0.500000 0.987233
O O14 0.653176 0.267598 0.720933
O O15 0.424574 0.782845 0.640999
O O16 0.538400 0.000000 0.936733
O O17 0.500000 0.780563 0.000000
O O18 0.937270 0.261034 0.775423
O O19 0.860344 0.000000 0.607989
O O20 0.025874 0.500000 0.269062
O O21 0.655873 0.000000 0.638325
#
# Coordination Sequence:
#
# PCOD8067102 Si02
#       8
#     4   4   4   4   4   4   4   4
#     4  10  22  40  61  88 121 161 209 261 314 368
#     4  11  23  39  61  87 118 163 217 265 309 365
#     4  11  24  41  63  93 128 165 206 259 319 377
#     4  11  24  41  61  89 127 166 206 256 315 374
#     4  10  22  43  70  98 126 161 208 259 312 373
#     4  11  22  39  64  89 120 164 212 261 311 368
#     4  12  24  37  56  88 126 163 205 254 314 378
#     4  10  22  41  65  92 123 159 207 260 309 369
#
# _framework density 20.715226999999999
#
# number of rings (size 3 to 8) (size 9 to 14) (size 15 to 20)
#    0.000    1.250    1.250    4.500    0.000   11.750 
#    0.000    3.750    0.000    0.000    0.000    0.000 
#    0.000    0.000    0.000    0.000    0.000    0.000 
#
# Total GULP energy -396976.950357 kJ/mol
# GULP energy per Si atom -12405.529699 kJ/mol
# Density = 2.066808 g / cm^3
# Si number density = 20.715227 Si / 1000 Ang^3
#
#
#
# Elastic Constant Matrix: (Units=GPa)
#
#
# Indices 1 2 3 4 5 6 
#
# 1 79.0596 24.4088 24.5119 0.0000 -1.5348 0.0000
# 2 24.4088 77.1426 31.5829 0.0000 -7.0526 0.0000
# 3 24.5119 31.5829 99.0112 0.0000 -8.0410 0.0000
# 4 0.0000 0.0000 0.0000 -6.7048 0.0000 -2.1843
# 5 -1.5348 -7.0526 -8.0410 0.0000 35.1839 0.0000
# 6 0.0000 0.0000 0.0000 -2.1843 0.0000 26.4497
#
#
#
# Elastic Compliance Matrix: (Units=1/GPa)
#
#
# Indices 1 2 3 4 5 6 
#
# 1 0.014532 -0.003639 -0.002491 0.000000 -0.000665 0.000000
# 2 -0.003639 0.015952 -0.004015 0.000000 0.002121 0.000000
# 3 -0.002491 -0.004015 0.012149 0.000000 0.001863 0.000000
# 4 0.000000 0.000000 0.000000 -0.145239 0.000000 -0.011994
# 5 -0.000665 0.002121 0.001863 0.000000 0.029244 0.000000
# 6 0.000000 0.000000 0.000000 -0.011994 0.000000 0.036817
#
#
# Mechanical properties :
#
#
# Convention : Reuss Voigt Hill
#
# Bulk Modulus (GPa) = 44.75823 46.24675 45.50249
# Shear Modulus (GPa) = -567.65954 22.63307 -272.51323
#
# Velocity S-wave (km/s) = -16.57181 3.30901 -11.48206
# Velocity P-wave (km/s) = 18.56107 6.08053 12.40041
#
# Compressibility (1/GPa) = 0.02234226
#
# Stress axis : x y z
#
# Youngs Moduli (GPa) = 68.81598 62.68695 82.31388
#
# Poissons Ratio (x) = 0.22812 0.20502
# Poissons Ratio (y) = 0.25042 0.33052
# Poissons Ratio (z) = 0.17140 0.25171
#
# Static dielectric constant tensor:
#      x y z
#    x 4.038080 0.000000 0.024950 
#    y 0.000000 3.698430 0.000000 
#    z 0.024950 0.000000 3.888820 
# 
# 
# High freq. dielectric constant tensor:
#      x y z
#    x 1.822480 0.000000 -0.005890 
#    y 0.000000 1.809000 0.000000 
#    z -0.005890 0.000000 1.816410 
# 
# From -- ./inp_files/58275.got.cif
#   From: 2010.06.25/outbox.cif.g09.slc.cpg/sg10_30_cif.got.tgz:58275.got - 2010.06.27 22:07:45.
