data_PCOD8067592
_publ_section_title
;
Structure prediction by ZEFSAII (Michael W. Deem and Ramdas Pophale) SiO2 
 PCOD8067592
Probable space group: P 2/M
;
_chemical_formula_sum "Si O2"
_cell_formula_units_Z 28
_cell_length_a 22.136204
_cell_length_b 11.462602
_cell_length_c 18.921281
_cell_angle_alpha 90.000000
_cell_angle_beta 18.388916
_cell_angle_gamma 90.000000
_cell_volume 1514.567820
_symmetry_space_group_name_H-M "P 2/M"
_symmetry_group_IT_number 10
_symmetry_cell_setting 'monoclinic'
loop_
_space_group_symop_operation_xyz
x,y,z
-x,y,-z
-x,-y,-z
x,-y,z
loop_
_atom_site_type_symbol
_atom_site_label
_atom_site_fract_x
_atom_site_fract_y
_atom_site_fract_z
Si Si1 0.478317 0.367260 0.837482
Si Si2 0.983979 0.500000 0.934174
Si Si3 0.666341 0.135853 0.261143
Si Si4 0.907715 0.363135 0.672563
Si Si5 0.910551 0.635832 0.385001
Si Si6 0.464284 0.733187 0.373403
Si Si7 0.441013 0.500000 0.645929
Si Si8 0.048897 0.262094 0.806328
O O1 0.445408 0.500000 0.849491
O O2 0.683185 0.350386 0.645479
O O3 0.451069 0.290815 0.797759
O O4 0.318274 0.333000 0.073282
O O5 0.098163 0.388218 0.782705
O O6 0.786967 0.500000 0.108522
O O7 0.000000 0.500000 0.000000
O O8 0.500000 0.179514 0.500000
O O9 0.592726 0.165224 0.264870
O O10 0.706883 0.000000 0.225675
O O11 0.871528 0.200650 0.043713
O O12 0.948635 0.500000 0.624137
O O13 0.000000 0.304251 0.500000
O O14 0.003269 0.314779 0.638117
O O15 0.966820 0.500000 0.307906
O O16 0.988602 0.720346 0.235865
O O17 0.479514 0.615910 0.404073
O O18 0.254102 0.794500 0.597690
O O19 0.500000 0.500000 0.500000
#
# Coordination Sequence:
#
# PCOD8067592 Si02
#       8
#     4   2   4   4   4   4   2   4
#     4   9  17  29  47  74 105 134 170 208 260 314
#     4  12  24  32  54  87 113 132 167 219 280 332
#     4  11  26  43  55  72 101 143 187 224 270 320
#     4   9  17  26  41  65 101 147 185 206 231 291
#     4   9  17  30  48  73 103 135 169 211 263 315
#     4  11  21  36  58  80 104 137 175 223 272 321
#     4  12  22  34  52  83 112 133 162 219 281 325
#     4  11  22  37  58  80 107 138 175 224 277 326
#
# _framework density 18.487121999999999
#
# number of rings (size 3 to 8) (size 9 to 14) (size 15 to 20)
#    0.000    1.714    2.857    2.571    2.000    1.143 
#    0.000    4.286    0.000    0.000    0.000    0.000 
#    0.000    9.143    0.000   25.143    0.000    1.143 
#
# Total GULP energy -346936.898349 kJ/mol
# GULP energy per Si atom -12390.603512 kJ/mol
# Density = 1.844504 g / cm^3
# Si number density = 18.487122 Si / 1000 Ang^3
#
#
#
# Elastic Constant Matrix: (Units=GPa)
#
#
# Indices 1 2 3 4 5 6 
#
# 1 72.9309 9.9088 29.0882 0.0000 0.4579 0.0000
# 2 9.9088 39.1837 19.7115 0.0000 1.9831 0.0000
# 3 29.0882 19.7115 115.9247 0.0000 7.4256 0.0000
# 4 0.0000 0.0000 0.0000 10.5985 0.0000 0.7021
# 5 0.4579 1.9831 7.4256 0.0000 30.5206 0.0000
# 6 0.0000 0.0000 0.0000 0.7021 0.0000 10.3860
#
#
#
# Elastic Compliance Matrix: (Units=1/GPa)
#
#
# Indices 1 2 3 4 5 6 
#
# 1 0.015416 -0.002151 -0.003552 0.000000 0.000773 0.000000
# 2 -0.002151 0.028221 -0.004209 0.000000 -0.000777 0.000000
# 3 -0.003552 -0.004209 0.010374 0.000000 -0.002197 0.000000
# 4 0.000000 0.000000 0.000000 0.094777 0.000000 -0.006407
# 5 0.000773 -0.000777 -0.002197 0.000000 0.033338 0.000000
# 6 0.000000 0.000000 0.000000 -0.006407 0.000000 0.096716
#
#
# Mechanical properties :
#
#
# Convention : Reuss Voigt Hill
#
# Bulk Modulus (GPa) = 29.25044 38.38404 33.81724
# Shear Modulus (GPa) = 16.12578 21.58976 18.85777
#
# Velocity S-wave (km/s) = 2.95663 3.42106 3.19729
# Velocity P-wave (km/s) = 5.24518 6.03428 5.65351
#
# Compressibility (1/GPa) = 0.03418752
#
# Stress axis : x y z
#
# Youngs Moduli (GPa) = 64.86924 35.43401 96.39459
#
# Poissons Ratio (x) = 0.07620 0.34239
# Poissons Ratio (y) = 0.13951 0.40575
# Poissons Ratio (z) = 0.23041 0.14915
#
# Static dielectric constant tensor:
#      x y z
#    x 3.510860 0.000000 0.021200 
#    y 0.000000 2.923740 0.000000 
#    z 0.021200 0.000000 3.791830 
# 
# 
# High freq. dielectric constant tensor:
#      x y z
#    x 1.719270 0.000000 -0.012660 
#    y 0.000000 1.648030 0.000000 
#    z -0.012660 0.000000 1.735460 
# 
# From -- ./inp_files/79541.got.cif
#   From: 2010.06.25/outbox.cif.g09.slc.cpg/sg10_40_cif.got.tgz:79541.got - 2010.06.27 22:07:45.
