data_PCOD8067407
_publ_section_title
;
Structure prediction by ZEFSAII (Michael W. Deem and Ramdas Pophale) SiO2 
 PCOD8067407
Probable space group: P 2/M
;
_chemical_formula_sum "Si O2"
_cell_formula_units_Z 16
_cell_length_a 9.358600
_cell_length_b 7.590651
_cell_length_c 10.460112
_cell_angle_alpha 90.000000
_cell_angle_beta 99.672707
_cell_angle_gamma 90.000000
_cell_volume 732.500357
_symmetry_space_group_name_H-M "P 2/M"
_symmetry_group_IT_number 10
_symmetry_cell_setting 'monoclinic'
loop_
_space_group_symop_operation_xyz
x,y,z
-x,y,-z
-x,-y,-z
x,-y,z
loop_
_atom_site_type_symbol
_atom_site_label
_atom_site_fract_x
_atom_site_fract_y
_atom_site_fract_z
Si Si1 0.565075 0.295131 0.822086
Si Si2 0.872567 0.500000 0.582517
Si Si3 0.051380 0.500000 0.860192
Si Si4 0.344040 0.802915 0.428461
Si Si5 0.722833 0.200730 0.104944
O O1 0.555796 0.500000 0.788668
O O2 0.651411 0.195743 0.724479
O O3 0.402077 0.218295 0.806838
O O4 0.654843 0.264283 0.962864
O O5 0.779141 0.673518 0.538595
O O6 0.000000 0.500000 0.500000
O O7 0.919905 0.500000 0.739161
O O8 0.142024 0.324409 0.842717
O O9 0.000000 0.500000 0.000000
O O10 0.500000 0.735790 0.500000
O O11 0.309203 0.000000 0.472729
O O12 0.777905 0.000000 0.106329
#
# Coordination Sequence:
#
# PCOD8067407 Si02
#       5
#     4   2   2   4   4
#     4  11  19  38  68  98 131 164 218 291 337 384
#     4  12  29  46  68  99 145 183 219 276 343 403
#     4  12  26  43  64  93 132 187 225 263 331 413
#     4  11  25  45  72  98 127 174 232 281 330 398
#     4  11  22  38  64  97 131 169 219 279 339 393
#
# _framework density 21.842993
#
# number of rings (size 3 to 8) (size 9 to 14) (size 15 to 20)
#    0.000    0.750    3.750    5.625    3.500    2.000 
#    0.000    0.000    0.000    0.000    0.000    0.000 
#    0.000    0.000    0.000    0.000    0.000    0.000 
#
# Total GULP energy -198470.471325 kJ/mol
# GULP energy per Si atom -12404.404458 kJ/mol
# Density = 2.179328 g / cm^3
# Si number density = 21.842993 Si / 1000 Ang^3
#
#
#
# Elastic Constant Matrix: (Units=GPa)
#
#
# Indices 1 2 3 4 5 6 
#
# 1 119.9826 60.3457 34.7603 0.0000 0.0728 0.0000
# 2 60.3457 153.1879 29.3379 0.0000 13.9821 0.0000
# 3 34.7603 29.3379 53.8866 0.0000 -4.0731 0.0000
# 4 0.0000 0.0000 0.0000 19.9264 0.0000 5.2249
# 5 0.0728 13.9821 -4.0731 0.0000 41.2325 0.0000
# 6 0.0000 0.0000 0.0000 5.2249 0.0000 16.4275
#
#
#
# Elastic Compliance Matrix: (Units=1/GPa)
#
#
# Indices 1 2 3 4 5 6 
#
# 1 0.011774 -0.003632 -0.005567 0.000000 0.000661 0.000000
# 2 -0.003632 0.008766 -0.002673 0.000000 -0.003230 0.000000
# 3 -0.005567 -0.002673 0.023852 0.000000 0.003273 0.000000
# 4 0.000000 0.000000 0.000000 0.054751 0.000000 -0.017414
# 5 0.000661 -0.003230 0.003273 0.000000 0.025670 0.000000
# 6 0.000000 0.000000 0.000000 -0.017414 0.000000 0.066412
#
#
# Mechanical properties :
#
#
# Convention : Reuss Voigt Hill
#
# Bulk Modulus (GPa) = 48.43786 63.99389 56.21587
# Shear Modulus (GPa) = 22.53750 29.02483 25.78117
#
# Velocity S-wave (km/s) = 3.21564 3.64922 3.43927
# Velocity P-wave (km/s) = 6.00090 6.86415 6.44699
#
# Compressibility (1/GPa) = 0.02064501
#
# Stress axis : x y z
#
# Youngs Moduli (GPa) = 84.93337 114.08212 41.92556
#
# Poissons Ratio (x) = 0.41437 0.23342
# Poissons Ratio (y) = 0.30850 0.11209
# Poissons Ratio (z) = 0.47287 0.30500
#
# Static dielectric constant tensor:
#      x y z
#    x 3.992360 0.000000 -0.034910 
#    y 0.000000 4.081910 0.000000 
#    z -0.034910 0.000000 3.919420 
# 
# 
# High freq. dielectric constant tensor:
#      x y z
#    x 1.849940 0.000000 -0.004390 
#    y 0.000000 1.872870 0.000000 
#    z -0.004390 0.000000 1.856880 
# 
# From -- ./inp_files/40531.got.cif
#   From: 2010.06.25/outbox.cif.g09.slc.cpg/sg10_21_cif.got.tgz:40531.got - 2010.06.27 22:07:45.
