data_PCOD8067738
_publ_section_title
;
Structure prediction by ZEFSAII (Michael W. Deem and Ramdas Pophale) SiO2 
 PCOD8067738
Probable space group: P 2/M
;
_chemical_formula_sum "Si O2"
_cell_formula_units_Z 32
_cell_length_a 8.999942
_cell_length_b 23.257972
_cell_length_c 14.386038
_cell_angle_alpha 90.000000
_cell_angle_beta 150.321495
_cell_angle_gamma 90.000000
_cell_volume 1490.988927
_symmetry_space_group_name_H-M "P 2/M"
_symmetry_group_IT_number 10
_symmetry_cell_setting 'monoclinic'
loop_
_space_group_symop_operation_xyz
x,y,z
-x,y,-z
-x,-y,-z
x,-y,z
loop_
_atom_site_type_symbol
_atom_site_label
_atom_site_fract_x
_atom_site_fract_y
_atom_site_fract_z
Si Si1 0.330956 0.361013 0.649195
Si Si2 0.708759 0.132899 0.032191
Si Si3 0.679056 0.132899 0.355623
Si Si4 0.791871 0.435554 0.597290
Si Si5 0.033209 0.752533 0.218075
Si Si6 0.285671 0.638987 0.967432
Si Si7 0.412194 0.247467 0.597060
Si Si8 0.306420 0.932467 0.306421
O O1 0.300592 0.406442 0.549889
O O2 0.483190 0.301293 0.701378
O O3 0.000000 0.344226 0.500000
O O4 0.530258 0.386252 0.843420
O O5 0.828389 0.193776 0.134615
O O6 0.972918 0.090927 0.142533
O O7 0.500000 0.104945 0.000000
O O8 0.506942 0.147226 0.835647
O O9 0.747068 0.193776 0.440842
O O10 0.481762 0.090927 0.312148
O O11 0.000000 0.104945 0.500000
O O12 0.500000 0.436113 0.500000
O O13 0.902248 0.500000 0.634082
O O14 0.048480 0.406442 0.799184
O O15 0.274066 0.775648 0.274066
O O16 0.194842 0.728824 0.398281
O O17 0.862247 0.698707 0.080435
O O18 0.500000 0.655775 0.000000
O O19 0.500000 0.914373 0.500000
O O20 0.276963 0.000000 0.276961
#
# Coordination Sequence:
#
# PCOD8067738 Si02
#       8
#     4   4   4   4   4   4   4   4
#     4  12  24  43  68 101 136 177 228 281 345 411
#     4  12  25  42  67 100 136 178 229 279 341 409
#     4  12  25  42  67 100 136 178 229 279 341 409
#     4  11  26  48  70  98 137 179 227 285 341 406
#     4  11  22  39  66  98 139 179 217 279 347 408
#     4  12  24  43  68 101 136 177 228 281 345 411
#     4  11  22  39  66  98 139 179 217 279 347 408
#     4  11  25  47  71  97 135 179 229 284 341 404
#
# _framework density 21.462267000000001
#
# number of rings (size 3 to 8) (size 9 to 14) (size 15 to 20)
#    0.000    0.500    3.750    4.875    0.000    5.500 
#    0.000    1.250    0.000    0.000    0.000    0.000 
#    0.000    0.000    0.000    0.000    0.000    0.000 
#
# Total GULP energy -396837.402804 kJ/mol
# GULP energy per Si atom -12401.168838 kJ/mol
# Density = 2.141342 g / cm^3
# Si number density = 21.462267 Si / 1000 Ang^3
#
#
#
# Elastic Constant Matrix: (Units=GPa)
#
#
# Indices 1 2 3 4 5 6 
#
# 1 133.3681 36.8779 52.7902 0.0000 7.5461 0.0000
# 2 36.8779 78.7604 36.0546 0.0000 0.6127 0.0000
# 3 52.7902 36.0546 135.0524 0.0000 -8.8050 0.0000
# 4 0.0000 0.0000 0.0000 29.0167 0.0000 12.9532
# 5 7.5461 0.6127 -8.8050 0.0000 47.4305 0.0000
# 6 0.0000 0.0000 0.0000 12.9532 0.0000 46.3820
#
#
#
# Elastic Compliance Matrix: (Units=1/GPa)
#
#
# Indices 1 2 3 4 5 6 
#
# 1 0.009701 -0.003108 -0.003098 0.000000 -0.002078 0.000000
# 2 -0.003108 0.015500 -0.002939 0.000000 -0.000251 0.000000
# 3 -0.003098 -0.002939 0.009550 0.000000 0.002304 0.000000
# 4 0.000000 0.000000 0.000000 0.039371 0.000000 -0.010995
# 5 -0.002078 -0.000251 0.002304 0.000000 0.021845 0.000000
# 6 0.000000 0.000000 0.000000 -0.010995 0.000000 0.024631
#
#
# Mechanical properties :
#
#
# Convention : Reuss Voigt Hill
#
# Bulk Modulus (GPa) = 60.75124 66.51401 63.63262
# Shear Modulus (GPa) = 34.63184 39.32971 36.98077
#
# Velocity S-wave (km/s) = 4.02134 4.28542 4.15548
# Velocity P-wave (km/s) = 7.06605 7.45284 7.26202
#
# Compressibility (1/GPa) = 0.01646057
#
# Stress axis : x y z
#
# Youngs Moduli (GPa) = 103.07926 64.51795 104.70830
#
# Poissons Ratio (x) = 0.20053 0.32437
# Poissons Ratio (y) = 0.32038 0.30777
# Poissons Ratio (z) = 0.31932 0.18964
#
# Static dielectric constant tensor:
#      x y z
#    x 4.017860 0.000000 0.095420 
#    y 0.000000 3.721880 0.000000 
#    z 0.095420 0.000000 3.889910 
# 
# 
# High freq. dielectric constant tensor:
#      x y z
#    x 1.858790 0.000000 0.000980 
#    y 0.000000 1.828100 0.000000 
#    z 0.000980 0.000000 1.857480 
# 
# From -- ./inp_files/62710.got.cif
#   From: 2010.06.25/outbox.cif.g09.slc.cpg/sg10_32_cif.got.tgz:62710.got - 2010.06.27 22:07:45.
