data_PCOD8067119
_publ_section_title
;
Structure prediction by ZEFSAII (Michael W. Deem and Ramdas Pophale) SiO2 
 PCOD8067119
Probable space group: P 2/M
;
_chemical_formula_sum "Si O2"
_cell_formula_units_Z 14
_cell_length_a 13.137942
_cell_length_b 8.146200
_cell_length_c 4.785560
_cell_angle_alpha 90.000000
_cell_angle_beta 97.892087
_cell_angle_gamma 90.000000
_cell_volume 507.320161
_symmetry_space_group_name_H-M "P 2/M"
_symmetry_group_IT_number 10
_symmetry_cell_setting 'monoclinic'
loop_
_space_group_symop_operation_xyz
x,y,z
-x,y,-z
-x,-y,-z
x,-y,z
loop_
_atom_site_type_symbol
_atom_site_label
_atom_site_fract_x
_atom_site_fract_y
_atom_site_fract_z
Si Si1 0.393643 0.309091 0.081207
Si Si2 0.268708 0.193064 0.525355
Si Si3 0.121688 0.321324 0.023209
Si Si4 0.076947 0.000000 0.774053
O O1 0.405967 0.500000 0.160676
O O2 0.300261 0.281564 0.828492
O O3 0.500000 0.237015 0.000000
O O4 0.366465 0.211767 0.354205
O O5 0.171678 0.284086 0.343207
O O6 0.240105 0.000000 0.554168
O O7 0.161125 0.500000 0.931692
O O8 0.000000 0.327961 0.000000
O O9 0.146736 0.168122 0.816221
O O10 0.000000 0.000000 0.500000
O O11 0.000000 0.000000 0.000000
#
# Coordination Sequence:
#
# PCOD8067119 Si02
#       4
#     4   4   4   2
#     4  11  25  46  71 100 137 181 232 290 349 416
#     4  12  25  43  70 103 140 182 231 288 347 415
#     4  10  22  43  69  99 137 183 229 280 340 407
#     4  10  22  40  62  90 127 168 219 272 324 388
#
# _framework density 27.595984000000001
#
# number of rings (size 3 to 8) (size 9 to 14) (size 15 to 20)
#    0.000    1.143    1.429    4.286    0.000   10.857 
#    0.000    5.714    0.000    0.000    0.000    0.000 
#    0.000    0.000    0.000    0.000    0.000    0.000 
#
# Total GULP energy -173627.426621 kJ/mol
# GULP energy per Si atom -12401.959044 kJ/mol
# Density = 2.753317 g / cm^3
# Si number density = 27.595984 Si / 1000 Ang^3
#
#
#
# Elastic Constant Matrix: (Units=GPa)
#
#
# Indices 1 2 3 4 5 6 
#
# 1 106.6950 35.2298 -12.2717 0.0000 8.7315 0.0000
# 2 35.2298 256.7031 66.5321 0.0000 -6.6306 0.0000
# 3 -12.2717 66.5321 138.1489 0.0000 -0.2335 0.0000
# 4 0.0000 0.0000 0.0000 48.3750 0.0000 -5.6037
# 5 8.7315 -6.6306 -0.2335 0.0000 46.7765 0.0000
# 6 0.0000 0.0000 0.0000 -5.6037 0.0000 48.5244
#
#
#
# Elastic Compliance Matrix: (Units=1/GPa)
#
#
# Indices 1 2 3 4 5 6 
#
# 1 0.010420 -0.001972 0.001872 0.000000 -0.002215 0.000000
# 2 -0.001972 0.004843 -0.002506 0.000000 0.001042 0.000000
# 3 0.001872 -0.002506 0.008610 0.000000 -0.000662 0.000000
# 4 0.000000 0.000000 0.000000 0.020952 0.000000 0.002420
# 5 -0.002215 0.001042 -0.000662 0.000000 0.021936 0.000000
# 6 0.000000 0.000000 0.000000 0.002420 0.000000 0.020888
#
#
# Mechanical properties :
#
#
# Convention : Reuss Voigt Hill
#
# Bulk Modulus (GPa) = 53.58805 75.61414 64.60110
# Shear Modulus (GPa) = 50.46320 56.20563 53.33442
#
# Velocity S-wave (km/s) = 4.28090 4.51791 4.40100
# Velocity P-wave (km/s) = 6.62539 7.39427 7.02037
#
# Compressibility (1/GPa) = 0.01866088
#
# Stress axis : x y z
#
# Youngs Moduli (GPa) = 95.96580 206.50201 116.13841
#
# Poissons Ratio (x) = 0.40731 -0.21739
# Poissons Ratio (y) = 0.18929 0.29100
# Poissons Ratio (z) = -0.17963 0.51741
#
# Static dielectric constant tensor:
#      x y z
#    x 5.694520 0.000000 -0.174490 
#    y 0.000000 5.768580 0.000000 
#    z -0.174490 0.000000 4.988500 
# 
# 
# High freq. dielectric constant tensor:
#      x y z
#    x 2.171400 0.000000 -0.012970 
#    y 0.000000 2.127730 0.000000 
#    z -0.012970 0.000000 2.115900 
# 
# From -- ./inp_files/8548.got.cif
#   From: 2010.06.25/outbox.cif.g09.slc.cpg/sg10_5_cif.got.tgz:8548.got - 2010.06.27 22:07:45.
