data_PCOD8067685
_publ_section_title
;
Structure prediction by ZEFSAII (Michael W. Deem and Ramdas Pophale) SiO2 
 PCOD8067685
Probable space group: P 2/M
;
_chemical_formula_sum "Si O2"
_cell_formula_units_Z 28
_cell_length_a 31.747532
_cell_length_b 8.176280
_cell_length_c 31.747630
_cell_angle_alpha 90.000000
_cell_angle_beta 170.622299
_cell_angle_gamma 90.000000
_cell_volume 1342.795997
_symmetry_space_group_name_H-M "P 2/M"
_symmetry_group_IT_number 10
_symmetry_cell_setting 'monoclinic'
loop_
_space_group_symop_operation_xyz
x,y,z
-x,y,-z
-x,-y,-z
x,-y,z
loop_
_atom_site_type_symbol
_atom_site_label
_atom_site_fract_x
_atom_site_fract_y
_atom_site_fract_z
Si Si1 0.452351 0.194704 0.048310
Si Si2 0.310745 0.304832 0.191026
Si Si3 0.165970 0.305327 0.333931
Si Si4 0.737879 0.695117 0.762149
Si Si5 0.594565 0.189867 0.902965
Si Si6 0.883066 0.310206 0.619469
Si Si7 0.977329 0.804870 0.525063
O O1 0.215002 0.264381 0.786825
O O2 0.446926 0.000000 0.042283
O O3 0.428509 0.258853 0.072434
O O4 0.715308 0.262585 0.287378
O O5 0.311053 0.500000 0.191628
O O6 0.572359 0.235675 0.428481
O O7 0.285995 0.237078 0.214008
O O8 0.072893 0.237429 0.928871
O O9 0.171943 0.500000 0.339290
O O10 0.141518 0.241096 0.357444
O O11 0.500000 0.762336 0.500000
O O12 0.737780 0.500000 0.762405
O O13 0.000000 0.762406 0.000000
O O14 0.391823 0.286700 0.674269
O O15 0.521311 0.000000 0.828923
O O16 0.888329 0.213160 0.177868
O O17 0.957226 0.500000 0.692832
O O18 0.000000 0.737244 0.500000
O O19 0.977933 0.000000 0.525448
#
# Coordination Sequence:
#
# PCOD8067685 Si02
#       7
#     4   4   4   4   4   4   4
#     4   9  17  28  43  66  98 133 165 201 250 309
#     4   9  15  24  37  54  79 113 155 199 244 293
#     4   9  17  28  43  62  85 117 159 208 252 291
#     4   9  15  21  30  47  73 107 149 193 232 281
#     4  11  22  37  56  79 110 145 177 213 268 327
#     4  11  22  37  56  79 106 137 182 231 266 305
#     4   9  15  24  40  64  96 131 163 199 248 301
#
# _framework density 20.852011999999998
#
# number of rings (size 3 to 8) (size 9 to 14) (size 15 to 20)
#    0.000    2.429    0.000    3.857    0.000    9.714 
#    0.000    0.000    0.000    0.000    0.000    0.000 
#    0.000   40.000    0.000    0.000    0.000  180.000 
#
# Total GULP energy -347245.410702 kJ/mol
# GULP energy per Si atom -12401.621811 kJ/mol
# Density = 2.080455 g / cm^3
# Si number density = 20.852012 Si / 1000 Ang^3
#
#
#
# Elastic Constant Matrix: (Units=GPa)
#
#
# Indices 1 2 3 4 5 6 
#
# 1 221.4244 8.8873 104.6349 0.0000 -1.0027 0.0000
# 2 8.8873 14.2325 2.0934 0.0000 -0.5997 0.0000
# 3 104.6349 2.0934 199.0788 0.0000 -0.9476 0.0000
# 4 0.0000 0.0000 0.0000 13.7001 0.0000 -1.2291
# 5 -1.0027 -0.5997 -0.9476 0.0000 52.6538 0.0000
# 6 0.0000 0.0000 0.0000 -1.2291 0.0000 16.2738
#
#
#
# Elastic Compliance Matrix: (Units=1/GPa)
#
#
# Indices 1 2 3 4 5 6 
#
# 1 0.006167 -0.003378 -0.003206 0.000000 0.000021 0.000000
# 2 -0.003378 0.072254 0.001020 0.000000 0.000777 0.000000
# 3 -0.003206 0.001020 0.006698 0.000000 0.000071 0.000000
# 4 0.000000 0.000000 0.000000 0.073490 0.000000 0.005550
# 5 0.000021 0.000777 0.000071 0.000000 0.019003 0.000000
# 6 0.000000 0.000000 0.000000 0.005550 0.000000 0.061868
#
#
# Mechanical properties :
#
#
# Convention : Reuss Voigt Hill
#
# Bulk Modulus (GPa) = 13.51539 73.99632 43.75586
# Shear Modulus (GPa) = 18.16394 37.80022 27.98208
#
# Velocity S-wave (km/s) = 2.95462 4.26230 3.66722
# Velocity P-wave (km/s) = 4.25856 7.73217 6.24187
#
# Compressibility (1/GPa) = 0.07398972
#
# Stress axis : x y z
#
# Youngs Moduli (GPa) = 162.16100 13.84004 149.30755
#
# Poissons Ratio (x) = 0.04676 0.47862
# Poissons Ratio (y) = 0.54784 -0.15223
# Poissons Ratio (z) = 0.51982 -0.01411
#
# Static dielectric constant tensor:
#      x y z
#    x 4.041440 0.000000 -0.010160 
#    y 0.000000 2.948200 0.000000 
#    z -0.010160 0.000000 3.925020 
# 
# 
# High freq. dielectric constant tensor:
#      x y z
#    x 1.836220 0.000000 -0.000200 
#    y 0.000000 1.744070 0.000000 
#    z -0.000200 0.000000 1.833990 
# 
# From -- ./inp_files/94304.got.cif
#   From: 2010.06.25/outbox.cif.g09.slc.cpg/sg10_48_cif.got.tgz:94304.got - 2010.06.27 22:07:45.
