data_PCOD8067691
_publ_section_title
;
Structure prediction by ZEFSAII (Michael W. Deem and Ramdas Pophale) SiO2 
 PCOD8067691
Probable space group: P 2/M
;
_chemical_formula_sum "Si O2"
_cell_formula_units_Z 28
_cell_length_a 9.969569
_cell_length_b 10.719928
_cell_length_c 14.607782
_cell_angle_alpha 90.000000
_cell_angle_beta 70.162350
_cell_angle_gamma 90.000000
_cell_volume 1468.534903
_symmetry_space_group_name_H-M "P 2/M"
_symmetry_group_IT_number 10
_symmetry_cell_setting 'monoclinic'
loop_
_space_group_symop_operation_xyz
x,y,z
-x,y,-z
-x,-y,-z
x,-y,z
loop_
_atom_site_type_symbol
_atom_site_label
_atom_site_fract_x
_atom_site_fract_y
_atom_site_fract_z
Si Si1 0.370738 0.751327 0.309488
Si Si2 0.931592 0.500000 0.370333
Si Si3 0.125643 0.237842 0.687389
Si Si4 0.141543 0.144507 0.011261
Si Si5 0.327763 0.853911 0.797891
Si Si6 0.769017 0.500000 0.596552
Si Si7 0.651284 0.141168 0.498290
Si Si8 0.172937 0.856488 0.206543
O O1 0.537267 0.765229 0.248085
O O2 0.332881 0.616651 0.358687
O O3 0.331895 0.852074 0.396444
O O4 0.284887 0.776397 0.237414
O O5 0.911814 0.383677 0.306785
O O6 0.816514 0.500000 0.479453
O O7 0.091474 0.500000 0.372587
O O8 0.203693 0.196242 0.761455
O O9 0.219697 0.215184 0.576165
O O10 0.982588 0.156537 0.712737
O O11 0.277004 0.162497 0.914089
O O12 0.106206 0.000000 0.036483
O O13 0.174633 0.201673 0.103439
O O14 0.000000 0.207492 0.000000
O O15 0.360900 0.000000 0.768936
O O16 0.500000 0.199051 0.500000
O O17 0.660304 0.000000 0.461578
O O18 0.221805 0.000000 0.196731
#
# Coordination Sequence:
#
# PCOD8067691 Si02
#       8
#     4   2   4   4   4   2   4   4
#     4  12  24  40  61  88 126 167 204 255 304 366
#     4  11  24  43  61  84 120 167 224 255 292 353
#     4  12  22  38  63  89 120 164 207 251 299 364
#     4   9  18  35  62  92 126 160 196 249 311 377
#     4  11  22  39  64  97 129 158 198 253 318 375
#     4  11  24  45  59  80 125 172 216 251 301 354
#     4  11  22  37  57  90 130 161 192 250 318 372
#     4  11  22  37  62  96 123 157 205 254 316 371
#
# _framework density 19.066623
#
# number of rings (size 3 to 8) (size 9 to 14) (size 15 to 20)
#    0.000    1.000    5.714    2.571    0.000    1.714 
#    0.000    5.000    0.000    5.143    0.000    0.000 
#    0.000    0.000    0.000    0.000    0.000    0.000 
#
# Total GULP energy -347245.859870 kJ/mol
# GULP energy per Si atom -12401.637852 kJ/mol
# Density = 1.902323 g / cm^3
# Si number density = 19.066623 Si / 1000 Ang^3
#
#
#
# Elastic Constant Matrix: (Units=GPa)
#
#
# Indices 1 2 3 4 5 6 
#
# 1 66.3502 29.2846 11.3282 0.0000 4.9207 0.0000
# 2 29.2846 75.0297 22.4568 0.0000 -4.9791 0.0000
# 3 11.3282 22.4568 87.0559 0.0000 7.8975 0.0000
# 4 0.0000 0.0000 0.0000 14.5830 0.0000 -4.7178
# 5 4.9207 -4.9791 7.8975 0.0000 36.9954 0.0000
# 6 0.0000 0.0000 0.0000 -4.7178 0.0000 27.4522
#
#
#
# Elastic Compliance Matrix: (Units=1/GPa)
#
#
# Indices 1 2 3 4 5 6 
#
# 1 0.018647 -0.007449 -0.000193 0.000000 -0.003442 0.000000
# 2 -0.007449 0.017707 -0.003982 0.000000 0.004224 0.000000
# 3 -0.000193 -0.003982 0.012834 0.000000 -0.003250 0.000000
# 4 0.000000 0.000000 0.000000 0.072610 0.000000 0.012478
# 5 -0.003442 0.004224 -0.003250 0.000000 0.028750 0.000000
# 6 0.000000 0.000000 0.000000 0.012478 0.000000 0.038571
#
#
# Mechanical properties :
#
#
# Convention : Reuss Voigt Hill
#
# Bulk Modulus (GPa) = 38.54751 39.39723 38.97237
# Shear Modulus (GPa) = 22.62293 26.83053 24.72673
#
# Velocity S-wave (km/s) = 3.44833 3.75533 3.60510
# Velocity P-wave (km/s) = 6.00964 6.28579 6.14927
#
# Compressibility (1/GPa) = 0.02594201
#
# Stress axis : x y z
#
# Youngs Moduli (GPa) = 53.62679 56.47336 77.91874
#
# Poissons Ratio (x) = 0.42066 0.01502
# Poissons Ratio (y) = 0.39946 0.31025
# Poissons Ratio (z) = 0.01034 0.22486
#
# Static dielectric constant tensor:
#      x y z
#    x 3.578050 0.000000 0.014040 
#    y 0.000000 3.278990 0.000000 
#    z 0.014040 0.000000 3.583730 
# 
# 
# High freq. dielectric constant tensor:
#      x y z
#    x 1.746520 0.000000 -0.000210 
#    y 0.000000 1.713980 0.000000 
#    z -0.000210 0.000000 1.749910 
# 
# From -- ./inp_files/60970.got.cif
#   From: 2010.06.25/outbox.cif.g09.slc.cpg/sg10_31_cif.got.tgz:60970.got - 2010.06.27 22:07:45.
