data_PCOD8067917
_publ_section_title
;
Structure prediction by ZEFSAII (Michael W. Deem and Ramdas Pophale) SiO2 
 PCOD8067917
Probable space group: P 2/M
;
_chemical_formula_sum "Si O2"
_cell_formula_units_Z 20
_cell_length_a 13.905337
_cell_length_b 9.518177
_cell_length_c 25.946691
_cell_angle_alpha 90.000000
_cell_angle_beta 158.911198
_cell_angle_gamma 90.000000
_cell_volume 1235.651188
_symmetry_space_group_name_H-M "P 2/M"
_symmetry_group_IT_number 10
_symmetry_cell_setting 'monoclinic'
loop_
_space_group_symop_operation_xyz
x,y,z
-x,y,-z
-x,-y,-z
x,-y,z
loop_
_atom_site_type_symbol
_atom_site_label
_atom_site_fract_x
_atom_site_fract_y
_atom_site_fract_z
Si Si1 0.817779 0.343501 0.065299
Si Si2 0.798148 0.332628 0.941519
Si Si3 0.182387 0.656510 0.747590
Si Si4 0.819219 0.158238 0.159617
Si Si5 0.798081 0.332638 0.356605
O O1 0.933751 0.500000 0.133618
O O2 0.931125 0.237333 0.164918
O O3 0.900307 0.288533 0.049647
O O4 0.500075 0.351009 0.909380
O O5 0.790294 0.500000 0.934561
O O6 0.500030 0.273006 0.781885
O O7 0.000000 0.269112 0.000000
O O8 0.066415 0.500000 0.699926
O O9 0.068932 0.762622 0.733807
O O10 0.099805 0.711466 0.649383
O O11 0.931216 0.000000 0.215614
O O12 0.500000 0.158482 0.000000
O O13 0.790205 0.500000 0.355701
O O14 0.000000 0.269075 0.500000
#
# Coordination Sequence:
#
# PCOD8067917 Si02
#       5
#     4   4   4   4   4
#     4   8  13  21  33  49  70  95 120 146 179 219
#     4   8  13  21  34  53  75  97 121 149 181 217
#     4   8  13  21  33  49  70  95 120 146 179 219
#     4   9  15  21  31  49  72  95 118 148 186 221
#     4   8  13  21  34  53  75  97 121 149 181 217
#
# _framework density 16.185797999999998
#
# number of rings (size 3 to 8) (size 9 to 14) (size 15 to 20)
#    0.000    3.800    0.000    3.000    0.000    2.400 
#    0.000    0.000    0.000    1.200    0.000    1.400 
#    0.000   11.200    0.000    0.000    0.000    0.000 
#
# Total GULP energy -247807.457190 kJ/mol
# GULP energy per Si atom -12390.372859 kJ/mol
# Density = 1.614896 g / cm^3
# Si number density = 16.185798 Si / 1000 Ang^3
#
#
#
# Elastic Constant Matrix: (Units=GPa)
#
#
# Indices 1 2 3 4 5 6 
#
# 1 150.6317 57.2618 50.4310 0.0000 -31.6789 0.0000
# 2 57.2618 70.3188 24.5637 0.0000 -17.2819 0.0000
# 3 50.4310 24.5637 50.1025 0.0000 -21.4276 0.0000
# 4 0.0000 0.0000 0.0000 4.3005 0.0000 -0.3227
# 5 -31.6789 -17.2819 -21.4276 0.0000 25.5067 0.0000
# 6 0.0000 0.0000 0.0000 -0.3227 0.0000 4.8984
#
#
#
# Elastic Compliance Matrix: (Units=1/GPa)
#
#
# Indices 1 2 3 4 5 6 
#
# 1 0.012637 -0.006458 -0.007356 0.000000 0.005141 0.000000
# 2 -0.006458 0.021329 -0.001883 0.000000 0.004849 0.000000
# 3 -0.007356 -0.001883 0.037198 0.000000 0.020838 0.000000
# 4 0.000000 0.000000 0.000000 0.233689 0.000000 0.015394
# 5 0.005141 0.004849 0.020838 0.000000 0.066381 0.000000
# 6 0.000000 0.000000 0.000000 0.015394 0.000000 0.205163
#
#
# Mechanical properties :
#
#
# Convention : Reuss Voigt Hill
#
# Bulk Modulus (GPa) = 25.14363 59.50732 42.32547
# Shear Modulus (GPa) = 8.05092 16.19422 12.12257
#
# Velocity S-wave (km/s) = 2.23268 3.16653 2.73969
# Velocity P-wave (km/s) = 4.71323 7.08620 6.01784
#
# Compressibility (1/GPa) = 0.03977151
#
# Stress axis : x y z
#
# Youngs Moduli (GPa) = 79.13012 46.88393 26.88323
#
# Poissons Ratio (x) = 0.30278 0.19774
# Poissons Ratio (y) = 0.51103 0.05062
# Poissons Ratio (z) = 0.58205 0.08828
#
# Static dielectric constant tensor:
#      x y z
#    x 3.404370 0.000000 -0.316750 
#    y 0.000000 2.864540 0.000000 
#    z -0.316750 0.000000 2.804770 
# 
# 
# High freq. dielectric constant tensor:
#      x y z
#    x 1.628300 0.000000 -0.033640 
#    y 0.000000 1.580080 0.000000 
#    z -0.033640 0.000000 1.564580 
# 
# From -- ./inp_files/26755.got.cif
#   From: 2010.06.25/outbox.cif.g09.slc.cpg/sg10_14_cif.got.tgz:26755.got - 2010.06.27 22:07:45.
