data_PCOD8067920
_publ_section_title
;
Structure prediction by ZEFSAII (Michael W. Deem and Ramdas Pophale) SiO2 
 PCOD8067920
Probable space group: P 2/M
;
_chemical_formula_sum "Si O2"
_cell_formula_units_Z 28
_cell_length_a 11.468405
_cell_length_b 9.855173
_cell_length_c 21.437968
_cell_angle_alpha 90.000000
_cell_angle_beta 48.857929
_cell_angle_gamma 90.000000
_cell_volume 1824.703439
_symmetry_space_group_name_H-M "P 2/M"
_symmetry_group_IT_number 10
_symmetry_cell_setting 'monoclinic'
loop_
_space_group_symop_operation_xyz
x,y,z
-x,y,-z
-x,-y,-z
x,-y,z
loop_
_atom_site_type_symbol
_atom_site_label
_atom_site_fract_x
_atom_site_fract_y
_atom_site_fract_z
Si Si1 0.957243 0.657022 0.282100
Si Si2 0.274849 0.656512 0.749347
Si Si3 0.167815 0.661531 0.921957
Si Si4 0.384659 0.661369 0.954074
Si Si5 0.713999 0.661045 0.877393
Si Si6 0.515343 0.152059 0.393418
Si Si7 0.250546 0.847954 0.574687
O O1 0.958627 0.500000 0.301705
O O2 0.860109 0.678139 0.253303
O O3 0.887390 0.741758 0.364506
O O4 0.128985 0.716060 0.209126
O O5 0.325635 0.500000 0.735315
O O6 0.210814 0.710983 0.837670
O O7 0.428699 0.742016 0.678557
O O8 0.163983 0.500000 0.925629
O O9 0.294931 0.720121 0.925689
O O10 0.000000 0.719915 0.000000
O O11 0.376356 0.500000 0.957019
O O12 0.564920 0.707503 0.889225
O O13 0.303503 0.716558 0.045766
O O14 0.724397 0.500000 0.876962
O O15 0.632243 0.157518 0.409485
O O16 0.344089 0.192177 0.478789
O O17 0.512385 0.000000 0.366217
O O18 0.182160 0.000000 0.592229
#
# Coordination Sequence:
#
# PCOD8067920 Si02
#       7
#     4   4   4   4   4   4   4
#     4   9  15  22  34  55  80  99 118 151 190 220
#     4   9  16  23  34  55  79 100 122 150 185 221
#     4   9  15  22  33  51  76 103 127 151 181 217
#     4   8  13  21  33  49  72 102 130 153 179 214
#     4   8  13  21  33  51  74  98 125 155 184 214
#     4   8  14  25  38  51  72 101 127 150 179 221
#     4   8  14  24  37  53  73  98 126 151 180 223
#
# _framework density 15.344958999999999
#
# number of rings (size 3 to 8) (size 9 to 14) (size 15 to 20)
#    0.000    3.571    0.000    2.571    0.000    4.000 
#    0.000    2.857    0.000    0.429    0.000    5.000 
#    0.000    8.000    0.000    0.000    0.000    0.000 
#
# Total GULP energy -346968.859662 kJ/mol
# GULP energy per Si atom -12391.744988 kJ/mol
# Density = 1.531003 g / cm^3
# Si number density = 15.344959 Si / 1000 Ang^3
#
#
#
# Elastic Constant Matrix: (Units=GPa)
#
#
# Indices 1 2 3 4 5 6 
#
# 1 63.5691 21.9800 48.7962 0.0000 -10.1420 0.0000
# 2 21.9800 44.7769 56.4233 0.0000 -9.5535 0.0000
# 3 48.7962 56.4233 149.2625 0.0000 -21.4646 0.0000
# 4 0.0000 0.0000 0.0000 6.5357 0.0000 0.7679
# 5 -10.1420 -9.5535 -21.4646 0.0000 22.7689 0.0000
# 6 0.0000 0.0000 0.0000 0.7679 0.0000 4.5820
#
#
#
# Elastic Compliance Matrix: (Units=1/GPa)
#
#
# Indices 1 2 3 4 5 6 
#
# 1 0.021435 -0.003036 -0.005402 0.000000 0.003181 0.000000
# 2 -0.003036 0.043270 -0.014978 0.000000 0.002683 0.000000
# 3 -0.005402 -0.014978 0.014898 0.000000 0.005353 0.000000
# 4 0.000000 0.000000 0.000000 0.156079 0.000000 -0.026158
# 5 0.003181 0.002683 0.005353 0.000000 0.051509 0.000000
# 6 0.000000 0.000000 0.000000 -0.026158 0.000000 0.222629
#
#
# Mechanical properties :
#
#
# Convention : Reuss Voigt Hill
#
# Bulk Modulus (GPa) = 30.51631 56.88973 43.70302
# Shear Modulus (GPa) = 8.80941 15.47125 12.14033
#
# Velocity S-wave (km/s) = 2.39862 3.17871 2.81581
# Velocity P-wave (km/s) = 5.25368 7.11524 6.25411
#
# Compressibility (1/GPa) = 0.03276936
#
# Stress axis : x y z
#
# Youngs Moduli (GPa) = 46.65257 23.11087 67.12501
#
# Poissons Ratio (x) = 0.07016 0.36264
# Poissons Ratio (y) = 0.14162 1.00542
# Poissons Ratio (z) = 0.25204 0.34616
#
# Static dielectric constant tensor:
#      x y z
#    x 2.829470 0.000000 -0.168560 
#    y 0.000000 2.650210 0.000000 
#    z -0.168560 0.000000 3.250910 
# 
# 
# High freq. dielectric constant tensor:
#      x y z
#    x 1.553040 0.000000 -0.014500 
#    y 0.000000 1.542770 0.000000 
#    z -0.014500 0.000000 1.595730 
# 
# From -- ./inp_files/46148.got.cif
#   From: 2010.06.25/outbox.cif.g09.slc.cpg/sg10_24_cif.got.tgz:46148.got - 2010.06.27 22:07:45.
