data_PCOD8067070
_publ_section_title
;
Structure prediction by ZEFSAII (Michael W. Deem and Ramdas Pophale) SiO2 
 PCOD8067070
Probable space group: P 2/M
;
_chemical_formula_sum "Si O2"
_cell_formula_units_Z 32
_cell_length_a 12.023884
_cell_length_b 8.720335
_cell_length_c 28.456529
_cell_angle_alpha 90.000000
_cell_angle_beta 147.378060
_cell_angle_gamma 90.000000
_cell_volume 1608.510279
_symmetry_space_group_name_H-M "P 2/M"
_symmetry_group_IT_number 10
_symmetry_cell_setting 'monoclinic'
loop_
_space_group_symop_operation_xyz
x,y,z
-x,y,-z
-x,-y,-z
x,-y,z
loop_
_atom_site_type_symbol
_atom_site_label
_atom_site_fract_x
_atom_site_fract_y
_atom_site_fract_z
Si Si1 0.588314 0.673874 0.651547
Si Si2 0.477252 0.320431 0.852832
Si Si3 0.953130 0.680144 0.339788
Si Si4 0.707014 0.823538 0.600439
Si Si5 0.357903 0.819428 0.993413
Si Si6 0.121648 0.318004 0.498231
Si Si7 0.078532 0.325743 0.148886
Si Si8 0.210656 0.830141 0.102161
O O1 0.571857 0.500000 0.626108
O O2 0.678001 0.786350 0.644467
O O3 0.361503 0.731304 0.586730
O O4 0.746073 0.682603 0.749975
O O5 0.466332 0.500000 0.860658
O O6 0.265143 0.255074 0.755664
O O7 0.646286 0.291495 0.873147
O O8 0.529021 0.230414 0.918713
O O9 0.937069 0.500000 0.339846
O O10 0.115557 0.718969 0.357487
O O11 0.020179 0.750415 0.414244
O O12 0.500000 0.780657 0.500000
O O13 0.768538 0.000000 0.616095
O O14 0.137723 0.737957 0.908731
O O15 0.319530 0.000000 0.981567
O O16 0.500000 0.771949 0.000000
O O17 0.101758 0.500000 0.491316
O O18 0.000000 0.249469 0.500000
O O19 0.042075 0.500000 0.119050
O O20 0.165402 0.224276 0.138156
O O21 0.312474 0.000000 0.139896
O O22 0.000000 0.839774 0.000000
#
# Coordination Sequence:
#
# PCOD8067070 Si02
#       8
#     4   4   4   4   4   4   4   4
#     4  10  22  39  63  92 121 157 203 251 302 357
#     4  11  24  40  64  95 123 156 205 260 304 355
#     4  10  22  39  63  92 121 157 203 251 302 357
#     4  11  23  39  61  88 123 162 205 253 300 358
#     4  11  25  44  63  86 123 167 203 245 308 377
#     4   9  18  35  61  88 120 157 194 241 296 355
#     4  11  24  40  64  95 123 156 205 260 304 355
#     4  11  23  41  65  90 122 163 205 247 305 375
#
# _framework density 19.894183000000002
#
# number of rings (size 3 to 8) (size 9 to 14) (size 15 to 20)
#    0.000    1.500    2.500    1.875    3.500    4.000 
#    0.000    0.000    0.000    0.750    0.000    0.000 
#    0.000    0.000    0.000    0.000    0.000    0.000 
#
# Total GULP energy -396880.019372 kJ/mol
# GULP energy per Si atom -12402.500605 kJ/mol
# Density = 1.984890 g / cm^3
# Si number density = 19.894183 Si / 1000 Ang^3
#
#
#
# Elastic Constant Matrix: (Units=GPa)
#
#
# Indices 1 2 3 4 5 6 
#
# 1 131.7158 9.2964 49.7611 0.0000 6.1798 0.0000
# 2 9.2964 34.7058 25.2239 0.0000 -1.6971 0.0000
# 3 49.7611 25.2239 129.1837 0.0000 5.4471 0.0000
# 4 0.0000 0.0000 0.0000 12.3039 0.0000 -1.2603
# 5 6.1798 -1.6971 5.4471 0.0000 25.6458 0.0000
# 6 0.0000 0.0000 0.0000 -1.2603 0.0000 20.5931
#
#
#
# Elastic Compliance Matrix: (Units=1/GPa)
#
#
# Indices 1 2 3 4 5 6 
#
# 1 0.008937 -0.000007 -0.003381 0.000000 -0.001436 0.000000
# 2 -0.000007 0.033920 -0.006776 0.000000 0.003686 0.000000
# 3 -0.003381 -0.006776 0.010444 0.000000 -0.001852 0.000000
# 4 0.000000 0.000000 0.000000 0.081788 0.000000 0.005005
# 5 -0.001436 0.003686 -0.001852 0.000000 0.039976 0.000000
# 6 0.000000 0.000000 0.000000 0.005005 0.000000 0.048866
#
#
# Mechanical properties :
#
#
# Convention : Reuss Voigt Hill
#
# Bulk Modulus (GPa) = 30.32637 51.57423 40.95030
# Shear Modulus (GPa) = 19.58859 25.79682 22.69270
#
# Velocity S-wave (km/s) = 3.14130 3.60488 3.38104
# Velocity P-wave (km/s) = 5.33235 6.58084 5.98922
#
# Compressibility (1/GPa) = 0.03297460
#
# Stress axis : x y z
#
# Youngs Moduli (GPa) = 111.89246 29.48085 95.74670
#
# Poissons Ratio (x) = 0.00021 0.32368
# Poissons Ratio (y) = 0.00080 0.64876
# Poissons Ratio (z) = 0.37827 0.19976
#
# Static dielectric constant tensor:
#      x y z
#    x 3.665450 0.000000 0.014140 
#    y 0.000000 3.615240 0.000000 
#    z 0.014140 0.000000 3.875850 
# 
# 
# High freq. dielectric constant tensor:
#      x y z
#    x 1.785750 0.000000 0.000760 
#    y 0.000000 1.764680 0.000000 
#    z 0.000760 0.000000 1.788400 
# 
# From -- ./inp_files/95081.got.cif
#   From: 2010.06.25/outbox.cif.g09.slc.cpg/sg10_48_cif.got.tgz:95081.got - 2010.06.27 22:07:45.
