data_PCOD8067412
_publ_section_title
;
Structure prediction by ZEFSAII (Michael W. Deem and Ramdas Pophale) SiO2 
 PCOD8067412
Probable space group: P 2/M
;
_chemical_formula_sum "Si O2"
_cell_formula_units_Z 24
_cell_length_a 18.478287
_cell_length_b 7.624788
_cell_length_c 25.331138
_cell_angle_alpha 90.000000
_cell_angle_beta 160.955209
_cell_angle_gamma 90.000000
_cell_volume 1164.584104
_symmetry_space_group_name_H-M "P 2/M"
_symmetry_group_IT_number 10
_symmetry_cell_setting 'monoclinic'
loop_
_space_group_symop_operation_xyz
x,y,z
-x,y,-z
-x,-y,-z
x,-y,z
loop_
_atom_site_type_symbol
_atom_site_label
_atom_site_fract_x
_atom_site_fract_y
_atom_site_fract_z
Si Si1 0.815522 0.291810 0.833188
Si Si2 0.915058 0.196217 0.198347
Si Si3 0.934548 0.296203 0.095047
Si Si4 0.357114 0.704853 0.562761
Si Si5 0.261365 0.500000 0.680099
Si Si6 0.451981 0.802555 0.741261
Si Si7 0.421834 0.500000 0.005972
O O1 0.821646 0.500000 0.841257
O O2 0.572400 0.219572 0.680465
O O3 0.872371 0.236023 0.812164
O O4 0.000000 0.212240 0.000000
O O5 0.950708 0.189504 0.160121
O O6 0.719060 0.325944 0.079662
O O7 0.142858 0.256737 0.380967
O O8 0.852479 0.000000 0.173996
O O9 0.951975 0.500000 0.121819
O O10 0.703960 0.258631 0.906386
O O11 0.384721 0.500000 0.591983
O O12 0.330554 0.796195 0.601114
O O13 0.337226 0.676403 0.703907
O O14 0.000000 0.500000 0.500000
O O15 0.360344 0.500000 0.807289
O O16 0.438176 0.000000 0.754258
O O17 0.500000 0.500000 0.000000
#
# Coordination Sequence:
#
# PCOD8067412 Si02
#       7
#     4   4   4   4   2   4   2
#     4   9  18  32  61  97 132 176 227 273 319 369
#     4  12  25  45  69  96 133 176 220 267 327 398
#     4  11  19  40  67  95 132 182 226 266 322 382
#     4  11  21  40  66  98 137 180 225 273 319 379
#     4  12  28  48  74 103 131 165 211 271 332 400
#     4  12  23  41  69  99 134 176 218 265 324 391
#     4  12  28  50  74  99 130 170 210 268 341 399
#
# _framework density 20.608215000000001
#
# number of rings (size 3 to 8) (size 9 to 14) (size 15 to 20)
#    0.000    0.833    6.667    1.000    2.333    1.333 
#    0.000    7.500    0.000    0.000    0.000    0.000 
#    0.000    0.000    0.000    0.000    0.000    0.000 
#
# Total GULP energy -297662.086150 kJ/mol
# GULP energy per Si atom -12402.586923 kJ/mol
# Density = 2.056131 g / cm^3
# Si number density = 20.608215 Si / 1000 Ang^3
#
#
#
# Elastic Constant Matrix: (Units=GPa)
#
#
# Indices 1 2 3 4 5 6 
#
# 1 140.7010 40.9436 55.5001 0.0000 -6.2047 0.0000
# 2 40.9436 89.3300 10.5617 0.0000 18.9309 0.0000
# 3 55.5001 10.5617 138.5894 0.0000 -2.2009 0.0000
# 4 0.0000 0.0000 0.0000 12.7200 0.0000 -8.8029
# 5 -6.2047 18.9309 -2.2009 0.0000 26.2873 0.0000
# 6 0.0000 0.0000 0.0000 -8.8029 0.0000 6.5412
#
#
#
# Elastic Compliance Matrix: (Units=1/GPa)
#
#
# Indices 1 2 3 4 5 6 
#
# 1 0.010491 -0.005705 -0.003667 0.000000 0.006278 0.000000
# 2 -0.005705 0.016502 0.000818 0.000000 -0.013162 0.000000
# 3 -0.003667 0.000818 0.008610 0.000000 -0.000734 0.000000
# 4 0.000000 0.000000 0.000000 1.144910 0.000000 1.540777
# 5 0.006278 -0.013162 -0.000734 0.000000 0.048940 0.000000
# 6 0.000000 0.000000 0.000000 1.540777 0.000000 2.226397
#
#
# Mechanical properties :
#
#
# Convention : Reuss Voigt Hill
#
# Bulk Modulus (GPa) = 54.06841 64.73681 59.40261
# Shear Modulus (GPa) = 1.43714 26.55069 13.99392
#
# Velocity S-wave (km/s) = 0.83599 3.59326 2.60868
# Velocity P-wave (km/s) = 5.21777 6.97830 6.16124
#
# Compressibility (1/GPa) = 0.01849509
#
# Stress axis : x y z
#
# Youngs Moduli (GPa) = 95.32331 60.59894 116.14506
#
# Poissons Ratio (x) = 0.34573 0.42586
# Poissons Ratio (y) = 0.54383 -0.09502
# Poissons Ratio (z) = 0.34952 -0.04958
#
# Static dielectric constant tensor:
#      x y z
#    x 3.752700 0.000000 0.010530 
#    y 0.000000 3.728930 0.000000 
#    z 0.010530 0.000000 3.811020 
# 
# 
# High freq. dielectric constant tensor:
#      x y z
#    x 1.803960 0.000000 -0.010490 
#    y 0.000000 1.807100 0.000000 
#    z -0.010490 0.000000 1.804520 
# 
# From -- ./inp_files/90069.got.cif
#   From: 2010.06.25/outbox.cif.g09.slc.cpg/sg10_46_cif.got.tgz:90069.got - 2010.06.27 22:07:45.
