data_PCOD8067063
_publ_section_title
;
Structure prediction by ZEFSAII (Michael W. Deem and Ramdas Pophale) SiO2 
 PCOD8067063
Probable space group: P 2/M
;
_chemical_formula_sum "Si O2"
_cell_formula_units_Z 28
_cell_length_a 14.925752
_cell_length_b 8.680854
_cell_length_c 11.079278
_cell_angle_alpha 90.000000
_cell_angle_beta 66.556997
_cell_angle_gamma 90.000000
_cell_volume 1317.029539
_symmetry_space_group_name_H-M "P 2/M"
_symmetry_group_IT_number 10
_symmetry_cell_setting 'monoclinic'
loop_
_space_group_symop_operation_xyz
x,y,z
-x,y,-z
-x,-y,-z
x,-y,z
loop_
_atom_site_type_symbol
_atom_site_label
_atom_site_fract_x
_atom_site_fract_y
_atom_site_fract_z
Si Si1 0.850042 0.179294 0.403048
Si Si2 0.089679 0.171364 0.041341
Si Si3 0.455325 0.681233 0.149098
Si Si4 0.047857 0.322230 0.304481
Si Si5 0.771173 0.680444 0.210264
Si Si6 0.242002 0.680226 0.333857
Si Si7 0.452103 0.682416 0.649942
O O1 0.837327 0.275344 0.288274
O O2 0.761908 0.224002 0.539735
O O3 0.954350 0.228628 0.405919
O O4 0.848954 0.000000 0.372714
O O5 0.058956 0.293663 0.157494
O O6 0.107620 0.000000 0.085541
O O7 0.189274 0.228961 0.926689
O O8 0.000000 0.165572 0.000000
O O9 0.475121 0.500000 0.137623
O O10 0.340347 0.721394 0.209249
O O11 0.500926 0.748793 0.250029
O O12 0.500000 0.751772 0.000000
O O13 0.028311 0.500000 0.343053
O O14 0.149227 0.265316 0.307007
O O15 0.779209 0.500000 0.180726
O O16 0.660402 0.732319 0.291979
O O17 0.239519 0.500000 0.367334
O O18 0.500000 0.749458 0.500000
O O19 0.466063 0.500000 0.642232
#
# Coordination Sequence:
#
# PCOD8067063 Si02
#       7
#     4   4   4   4   4   4   4
#     4  12  24  39  59  86 122 162 197 235 298 365
#     4  11  23  39  58  84 121 162 199 239 297 362
#     4   9  18  34  59  89 122 153 193 254 310 355
#     4  11  23  38  61  90 119 153 200 250 293 346
#     4  11  22  36  62  91 118 153 200 251 297 346
#     4  10  22  39  62  90 118 152 199 249 298 348
#     4   9  18  33  57  90 122 152 193 249 310 359
#
# _framework density 21.259965000000001
#
# number of rings (size 3 to 8) (size 9 to 14) (size 15 to 20)
#    0.000    1.571    1.429    3.857    2.000    5.714 
#    0.000    0.000    0.000    8.143    0.000    0.000 
#    0.000    0.000    0.000    0.000    0.000    0.000 
#
# Total GULP energy -347176.200331 kJ/mol
# GULP energy per Si atom -12399.150012 kJ/mol
# Density = 2.121158 g / cm^3
# Si number density = 21.259965 Si / 1000 Ang^3
#
#
#
# Elastic Constant Matrix: (Units=GPa)
#
#
# Indices 1 2 3 4 5 6 
#
# 1 106.1580 19.7680 44.9563 0.0000 -12.0312 0.0000
# 2 19.7680 40.8632 19.6743 0.0000 -7.6027 0.0000
# 3 44.9563 19.6743 152.3916 0.0000 -16.2674 0.0000
# 4 0.0000 0.0000 0.0000 6.1728 0.0000 1.1937
# 5 -12.0312 -7.6027 -16.2674 0.0000 38.9827 0.0000
# 6 0.0000 0.0000 0.0000 1.1937 0.0000 3.8907
#
#
#
# Elastic Compliance Matrix: (Units=1/GPa)
#
#
# Indices 1 2 3 4 5 6 
#
# 1 0.011487 -0.003949 -0.002703 0.000000 0.001647 0.000000
# 2 -0.003949 0.028017 -0.002092 0.000000 0.003372 0.000000
# 3 -0.002703 -0.002092 0.007846 0.000000 0.002032 0.000000
# 4 0.000000 0.000000 0.000000 0.172219 0.000000 -0.052836
# 5 0.001647 0.003372 0.002032 0.000000 0.027666 0.000000
# 6 0.000000 0.000000 0.000000 -0.052836 0.000000 0.273233
#
#
# Mechanical properties :
#
#
# Convention : Reuss Voigt Hill
#
# Bulk Modulus (GPa) = 33.48754 52.02333 42.75543
# Shear Modulus (GPa) = 9.12557 24.14352 16.63455
#
# Velocity S-wave (km/s) = 2.07405 3.37357 2.80024
# Velocity P-wave (km/s) = 4.63910 6.30062 5.53259
#
# Compressibility (1/GPa) = 0.02986186
#
# Stress axis : x y z
#
# Youngs Moduli (GPa) = 87.05806 35.69273 127.44616
#
# Poissons Ratio (x) = 0.14095 0.34448
# Poissons Ratio (y) = 0.34379 0.26664
# Poissons Ratio (z) = 0.23531 0.07467
#
# Static dielectric constant tensor:
#      x y z
#    x 3.902520 0.000000 -0.030280 
#    y 0.000000 3.495990 0.000000 
#    z -0.030280 0.000000 4.165430 
# 
# 
# High freq. dielectric constant tensor:
#      x y z
#    x 1.835810 0.000000 -0.006310 
#    y 0.000000 1.793530 0.000000 
#    z -0.006310 0.000000 1.851560 
# 
# From -- ./inp_files/49202.got.cif
#   From: 2010.06.25/outbox.cif.g09.slc.cpg/sg10_25_cif.got.tgz:49202.got - 2010.06.27 22:07:45.
