data_PCOD8067949
_publ_section_title
;
Structure prediction by ZEFSAII (Michael W. Deem and Ramdas Pophale) SiO2 
 PCOD8067949
Probable space group: P 2/M
;
_chemical_formula_sum "Si O2"
_cell_formula_units_Z 28
_cell_length_a 10.683516
_cell_length_b 14.852973
_cell_length_c 14.268981
_cell_angle_alpha 90.000000
_cell_angle_beta 138.479900
_cell_angle_gamma 90.000000
_cell_volume 1500.919062
_symmetry_space_group_name_H-M "P 2/M"
_symmetry_group_IT_number 10
_symmetry_cell_setting 'monoclinic'
loop_
_space_group_symop_operation_xyz
x,y,z
-x,y,-z
-x,-y,-z
x,-y,z
loop_
_atom_site_type_symbol
_atom_site_label
_atom_site_fract_x
_atom_site_fract_y
_atom_site_fract_z
Si Si1 0.306800 0.397762 0.168023
Si Si2 0.928186 0.898449 0.162342
Si Si3 0.801241 0.278703 0.164991
Si Si4 0.396498 0.101551 0.162342
Si Si5 0.471259 0.721297 0.835009
Si Si6 0.342309 0.106640 0.342309
Si Si7 0.029246 0.397762 0.168023
O O1 0.380975 0.500000 0.215310
O O2 0.483320 0.335465 0.234079
O O3 0.223226 0.367827 0.223226
O O4 0.138896 0.389957 0.000000
O O5 0.136321 0.861526 0.257950
O O6 0.841840 0.828637 0.188384
O O7 0.926271 0.000000 0.203398
O O8 0.811406 0.895817 0.000000
O O9 0.730787 0.304532 0.230787
O O10 0.984837 0.335465 0.234079
O O11 0.633749 0.301317 1.000000
O O12 0.534927 0.171363 0.188384
O O13 0.379580 0.138474 0.257950
O O14 0.480525 0.000000 0.203398
O O15 0.500000 0.148246 0.500000
O O16 0.349208 0.000000 0.349208
O O17 0.049645 0.500000 0.215310
#
# Coordination Sequence:
#
# PCOD8067949 Si02
#       7
#     4   4   4   4   4   4   4
#     4   8  14  24  37  54  80 116 152 184 223 269
#     4   9  17  28  43  64  91 121 151 183 222 267
#     4   9  17  26  38  60  88 119 153 186 221 263
#     4   9  17  28  43  64  91 121 151 183 222 267
#     4   9  17  26  38  60  88 119 153 186 221 263
#     4   9  17  29  45  65  88 115 152 194 229 261
#     4   8  14  24  37  54  80 116 152 184 223 269
#
# _framework density 18.655235999999999
#
# number of rings (size 3 to 8) (size 9 to 14) (size 15 to 20)
#    0.000    3.286    0.000    1.286    2.000    2.857 
#    0.000    5.714    0.000    0.857    0.000    4.000 
#    0.000    2.286    0.000    2.571    0.000    2.857 
#
# Total GULP energy -346880.520997 kJ/mol
# GULP energy per Si atom -12388.590036 kJ/mol
# Density = 1.861278 g / cm^3
# Si number density = 18.655236 Si / 1000 Ang^3
#
#
#
# Elastic Constant Matrix: (Units=GPa)
#
#
# Indices 1 2 3 4 5 6 
#
# 1 175.0818 80.5576 17.7995 0.0000 -3.8644 0.0000
# 2 80.5576 98.3277 5.3195 0.0000 -1.8921 0.0000
# 3 17.7995 5.3195 30.8988 0.0000 0.2384 0.0000
# 4 0.0000 0.0000 0.0000 4.0555 0.0000 -0.4950
# 5 -3.8644 -1.8921 0.2384 0.0000 1.9122 0.0000
# 6 0.0000 0.0000 0.0000 -0.4950 0.0000 23.7372
#
#
#
# Elastic Compliance Matrix: (Units=1/GPa)
#
#
# Indices 1 2 3 4 5 6 
#
# 1 0.010006 -0.007699 -0.004540 0.000000 0.013170 0.000000
# 2 -0.007699 0.016400 0.001608 0.000000 0.000468 0.000000
# 3 -0.004540 0.001608 0.034794 0.000000 -0.011923 0.000000
# 4 0.000000 0.000000 0.000000 0.247210 0.000000 0.005155
# 5 0.013170 0.000468 -0.011923 0.000000 0.551520 0.000000
# 6 0.000000 0.000000 0.000000 0.005155 0.000000 0.042235
#
#
# Mechanical properties :
#
#
# Convention : Reuss Voigt Hill
#
# Bulk Modulus (GPa) = 25.03890 56.85129 40.94510
# Shear Modulus (GPa) = 5.33766 19.31642 12.32704
#
# Velocity S-wave (km/s) = 1.69335 3.22132 2.57336
# Velocity P-wave (km/s) = 4.15623 6.66159 5.55207
#
# Compressibility (1/GPa) = 0.03993786
#
# Stress axis : x y z
#
# Youngs Moduli (GPa) = 99.93785 60.97737 28.74021
#
# Poissons Ratio (x) = 0.46945 0.13049
# Poissons Ratio (y) = 0.76940 -0.04621
# Poissons Ratio (z) = 0.45376 -0.09805
#
# Static dielectric constant tensor:
#      x y z
#    x 3.784510 0.000000 -0.021770 
#    y 0.000000 3.473360 0.000000 
#    z -0.021770 0.000000 2.918650 
# 
# 
# High freq. dielectric constant tensor:
#      x y z
#    x 1.725970 0.000000 -0.002120 
#    y 0.000000 1.723520 0.000000 
#    z -0.002120 0.000000 1.641700 
# 
# From -- ./inp_files/64942.got.cif
#   From: 2010.06.25/outbox.cif.g09.slc.cpg/sg10_33_cif.got.tgz:64942.got - 2010.06.27 22:07:45.
