data_PCOD8067201
_publ_section_title
;
Structure prediction by ZEFSAII (Michael W. Deem and Ramdas Pophale) SiO2 
 PCOD8067201
Probable space group: P 2/M
;
_chemical_formula_sum "Si O2"
_cell_formula_units_Z 24
_cell_length_a 12.224666
_cell_length_b 11.321662
_cell_length_c 19.043988
_cell_angle_alpha 90.000000
_cell_angle_beta 150.568123
_cell_angle_gamma 90.000000
_cell_volume 1295.179534
_symmetry_space_group_name_H-M "P 2/M"
_symmetry_group_IT_number 10
_symmetry_cell_setting 'monoclinic'
loop_
_space_group_symop_operation_xyz
x,y,z
-x,y,-z
-x,-y,-z
x,-y,z
loop_
_atom_site_type_symbol
_atom_site_label
_atom_site_fract_x
_atom_site_fract_y
_atom_site_fract_z
Si Si1 0.318158 0.000000 0.606138
Si Si2 0.494570 0.751322 0.664899
Si Si3 0.100522 0.361923 0.358409
Si Si4 0.798251 0.000000 0.298369
Si Si5 0.877153 0.638162 0.792238
Si Si6 0.626051 0.638050 0.883902
Si Si7 0.650286 0.757198 0.150280
O O1 0.454440 0.890126 0.651403
O O2 0.309723 0.000000 0.685250
O O3 0.063454 0.000000 0.439711
O O4 0.279050 0.697361 0.508313
O O5 0.706914 0.724745 0.735558
O O6 0.534210 0.697639 0.763072
O O7 0.116354 0.500000 0.379163
O O8 0.140132 0.330300 0.299298
O O9 0.860763 0.319083 0.246897
O O10 0.713441 0.884361 0.213342
O O11 0.818205 0.500000 0.772519
O O12 0.117378 0.669456 0.958079
O O13 0.595019 0.500000 0.857825
O O14 0.480770 0.680949 0.866914
O O15 0.500000 0.780327 0.000000
#
# Coordination Sequence:
#
# PCOD8067201 Si02
#       7
#     2   4   4   2   4   4   4
#     4  11  24  42  66  86 124 169 206 274 316 353
#     4  12  23  42  63  92 125 167 218 255 305 374
#     4  11  23  39  65  97 129 164 204 260 321 375
#     4  11  23  46  62  88 123 173 212 256 322 364
#     4  10  22  42  65  91 132 173 201 246 319 382
#     4  11  23  39  65  97 129 164 204 260 321 375
#     4  12  23  41  67  93 126 163 214 261 311 379
#
# _framework density 18.530249000000001
#
# number of rings (size 3 to 8) (size 9 to 14) (size 15 to 20)
#    0.000    0.833    5.000    3.250    0.000    4.000 
#    0.000    6.667    0.000    0.000    0.000    0.000 
#    0.000    0.000    0.000    0.000    0.000    0.000 
#
# Total GULP energy -297665.373699 kJ/mol
# GULP energy per Si atom -12402.723904 kJ/mol
# Density = 1.848807 g / cm^3
# Si number density = 18.530249 Si / 1000 Ang^3
#
#
#
# Elastic Constant Matrix: (Units=GPa)
#
#
# Indices 1 2 3 4 5 6 
#
# 1 138.7849 68.6610 55.3229 0.0000 4.2359 0.0000
# 2 68.6610 124.3874 61.9964 0.0000 2.8836 0.0000
# 3 55.3229 61.9964 143.2527 0.0000 -7.2932 0.0000
# 4 0.0000 0.0000 0.0000 -27.1396 0.0000 -82.3680
# 5 4.2359 2.8836 -7.2932 0.0000 43.3989 0.0000
# 6 0.0000 0.0000 0.0000 -82.3680 0.0000 -165.3802
#
#
#
# Elastic Compliance Matrix: (Units=1/GPa)
#
#
# Indices 1 2 3 4 5 6 
#
# 1 0.010364 -0.004686 -0.002027 0.000000 -0.001041 0.000000
# 2 -0.004686 0.012459 -0.003632 0.000000 -0.000981 0.000000
# 3 -0.002027 -0.003632 0.009439 0.000000 0.002025 0.000000
# 4 0.000000 0.000000 0.000000 0.072026 0.000000 -0.035873
# 5 -0.001041 -0.000981 0.002025 0.000000 0.023549 0.000000
# 6 0.000000 0.000000 0.000000 -0.035873 0.000000 0.011820
#
#
# Mechanical properties :
#
#
# Convention : Reuss Voigt Hill
#
# Bulk Modulus (GPa) = 86.42895 86.48728 86.45812
# Shear Modulus (GPa) = 30.44990 -15.12787 7.66102
#
# Velocity S-wave (km/s) = 4.05810 -2.86035 2.03551
# Velocity P-wave (km/s) = 8.28860 5.98883 7.23073
#
# Compressibility (1/GPa) = 0.01157020
#
# Stress axis : x y z
#
# Youngs Moduli (GPa) = 96.49121 80.26201 105.94716
#
# Poissons Ratio (x) = 0.37612 0.21479
# Poissons Ratio (y) = 0.45217 0.38483
# Poissons Ratio (z) = 0.19562 0.29153
#
# Static dielectric constant tensor:
#      x y z
#    x 3.582520 0.000000 -0.128670 
#    y 0.000000 3.447450 0.000000 
#    z -0.128670 0.000000 3.830060 
# 
# 
# High freq. dielectric constant tensor:
#      x y z
#    x 1.733370 0.000000 -0.004140 
#    y 0.000000 1.722540 0.000000 
#    z -0.004140 0.000000 1.741440 
# 
# From -- ./inp_files/46556.got.cif
#   From: 2010.06.25/outbox.cif.g09.slc.cpg/sg10_24_cif.got.tgz:46556.got - 2010.06.27 22:07:45.
