data_PCOD8067577
_publ_section_title
;
Structure prediction by ZEFSAII (Michael W. Deem and Ramdas Pophale) SiO2 
 PCOD8067577
Probable space group: P 2/M
;
_chemical_formula_sum "Si O2"
_cell_formula_units_Z 28
_cell_length_a 16.293833
_cell_length_b 8.717635
_cell_length_c 21.657540
_cell_angle_alpha 90.000000
_cell_angle_beta 26.152095
_cell_angle_gamma 90.000000
_cell_volume 1355.903584
_symmetry_space_group_name_H-M "P 2/M"
_symmetry_group_IT_number 10
_symmetry_cell_setting 'monoclinic'
loop_
_space_group_symop_operation_xyz
x,y,z
-x,y,-z
-x,-y,-z
x,-y,z
loop_
_atom_site_type_symbol
_atom_site_label
_atom_site_fract_x
_atom_site_fract_y
_atom_site_fract_z
Si Si1 0.318913 0.820597 0.473967
Si Si2 0.053146 0.321900 0.063258
Si Si3 0.828179 0.824732 0.671823
Si Si4 0.957399 0.180409 0.796375
Si Si5 0.701210 0.677841 0.216695
Si Si6 0.777242 0.322033 0.589545
Si Si7 0.286511 0.666835 0.136533
O O1 0.154967 0.768256 0.631726
O O2 0.523812 0.775855 0.359974
O O3 0.308493 0.736513 0.415690
O O4 0.303471 0.000000 0.473120
O O5 0.067847 0.500000 0.071613
O O6 0.050917 0.220090 0.125994
O O7 0.862108 0.288070 0.156928
O O8 0.225501 0.276803 0.901659
O O9 0.693987 0.765845 0.706521
O O10 0.739915 0.804874 0.797727
O O11 0.005704 0.714537 0.555131
O O12 0.885923 0.000000 0.622378
O O13 0.787078 0.270340 0.879164
O O14 0.928274 0.000000 0.807836
O O15 0.645675 0.500000 0.254676
O O16 0.733138 0.500000 0.625939
O O17 0.187551 0.500000 0.216098
O O18 0.500000 0.631457 0.000000
#
# Coordination Sequence:
#
# PCOD8067577 Si02
#       7
#     4   4   4   4   4   4   4
#     4  11  23  38  58  90 127 161 200 253 306 359
#     4   9  20  41  66  90 121 158 203 250 300 362
#     4  11  21  36  57  82 114 149 190 242 298 350
#     4  11  24  40  61  89 124 162 200 248 309 365
#     4   9  20  40  65  92 120 158 202 251 302 359
#     4  11  21  35  58  83 111 152 197 240 289 348
#     4  11  24  41  61  85 115 156 205 250 296 357
#
# _framework density 20.650435000000002
#
# number of rings (size 3 to 8) (size 9 to 14) (size 15 to 20)
#    0.000    1.571    1.429    5.571    0.000    5.714 
#    0.000    5.714    0.000    0.000    0.000    0.000 
#    0.000    0.000    0.000    0.000    0.000    0.000 
#
# Total GULP energy -346949.334892 kJ/mol
# GULP energy per Si atom -12391.047675 kJ/mol
# Density = 2.060343 g / cm^3
# Si number density = 20.650435 Si / 1000 Ang^3
#
#
#
# Elastic Constant Matrix: (Units=GPa)
#
#
# Indices 1 2 3 4 5 6 
#
# 1 107.1123 45.7892 44.4790 0.0000 18.5423 0.0000
# 2 45.7892 101.3768 32.7273 0.0000 2.9390 0.0000
# 3 44.4790 32.7273 73.5263 0.0000 -4.4739 0.0000
# 4 0.0000 0.0000 0.0000 29.9052 0.0000 3.2814
# 5 18.5423 2.9390 -4.4739 0.0000 29.3941 0.0000
# 6 0.0000 0.0000 0.0000 3.2814 0.0000 33.4931
#
#
#
# Elastic Compliance Matrix: (Units=1/GPa)
#
#
# Indices 1 2 3 4 5 6 
#
# 1 0.016987 -0.004425 -0.009015 0.000000 -0.011646 0.000000
# 2 -0.004425 0.012784 -0.002949 0.000000 0.001064 0.000000
# 3 -0.009015 -0.002949 0.020925 0.000000 0.009167 0.000000
# 4 0.000000 0.000000 0.000000 0.033802 0.000000 -0.003312
# 5 -0.011646 0.001064 0.009167 0.000000 0.042655 0.000000
# 6 0.000000 0.000000 0.000000 -0.003312 0.000000 0.030181
#
#
# Mechanical properties :
#
#
# Convention : Reuss Voigt Hill
#
# Bulk Modulus (GPa) = 55.80985 58.66737 57.23861
# Shear Modulus (GPa) = 25.49916 29.15981 27.32949
#
# Velocity S-wave (km/s) = 3.51778 3.76183 3.64185
# Velocity P-wave (km/s) = 6.60185 6.88040 6.74256
#
# Compressibility (1/GPa) = 0.01791798
#
# Stress axis : x y z
#
# Youngs Moduli (GPa) = 58.86817 78.22411 47.79057
#
# Poissons Ratio (x) = 0.34611 0.43085
# Poissons Ratio (y) = 0.26047 0.14093
# Poissons Ratio (z) = 0.53072 0.23067
#
# Static dielectric constant tensor:
#      x y z
#    x 3.805240 0.000000 -0.121030 
#    y 0.000000 3.750430 0.000000 
#    z -0.121030 0.000000 3.487130 
# 
# 
# High freq. dielectric constant tensor:
#      x y z
#    x 1.814170 0.000000 0.006340 
#    y 0.000000 1.814150 0.000000 
#    z 0.006340 0.000000 1.793870 
# 
# From -- ./inp_files/84889.got.cif
#   From: 2010.06.25/outbox.cif.g09.slc.cpg/sg10_43_cif.got.tgz:84889.got - 2010.06.27 22:07:45.
