data_PCOD8067527
_publ_section_title
;
Structure prediction by ZEFSAII (Michael W. Deem and Ramdas Pophale) SiO2 
 PCOD8067527
Probable space group: P 2/M
;
_chemical_formula_sum "Si O2"
_cell_formula_units_Z 20
_cell_length_a 15.523569
_cell_length_b 16.441596
_cell_length_c 8.930896
_cell_angle_alpha 90.000000
_cell_angle_beta 28.371046
_cell_angle_gamma 90.000000
_cell_volume 1083.149469
_symmetry_space_group_name_H-M "P 2/M"
_symmetry_group_IT_number 10
_symmetry_cell_setting 'monoclinic'
loop_
_space_group_symop_operation_xyz
x,y,z
-x,y,-z
-x,-y,-z
x,-y,z
loop_
_atom_site_type_symbol
_atom_site_label
_atom_site_fract_x
_atom_site_fract_y
_atom_site_fract_z
Si Si1 0.304087 0.500000 0.718862
Si Si2 0.825006 0.910211 0.375824
Si Si3 0.697738 0.500000 0.626967
Si Si4 0.998643 0.800242 0.678882
Si Si5 0.999826 0.627915 0.824355
Si Si6 0.686505 0.906742 0.289986
O O1 0.500000 0.500000 0.500000
O O2 0.342281 0.500000 0.486127
O O3 0.181733 0.578796 0.944986
O O4 0.830128 0.845658 0.503861
O O5 0.662935 0.891693 0.505845
O O6 0.805532 0.000000 0.477002
O O7 0.000000 0.904938 0.000000
O O8 0.816841 0.578102 0.492453
O O9 0.500000 0.500000 0.000000
O O10 0.000000 0.809112 0.500000
O O11 0.001779 0.706776 0.719172
O O12 0.821610 0.843865 0.009377
O O13 0.000000 0.650149 0.000000
O O14 0.500000 0.886822 0.500000
O O15 0.750984 0.000000 0.162467
#
# Coordination Sequence:
#
# PCOD8067527 Si02
#       6
#     2   4   2   4   4   4
#     4   9  19  35  58  80 100 135 175 211 258 319
#     4   8  15  30  51  71  96 135 173 204 249 307
#     4   9  19  37  60  80 102 135 171 217 271 313
#     4  11  21  32  50  78 107 136 172 217 263 304
#     4   9  19  37  55  75 106 141 176 210 257 325
#     4   9  18  34  55  76 100 137 181 218 258 313
#
# _framework density 18.464673000000001
#
# number of rings (size 3 to 8) (size 9 to 14) (size 15 to 20)
#    0.000    2.800    0.000    4.800    0.000    4.000 
#    0.000    7.000    0.000    3.600    0.000    0.000 
#    0.000    0.000    0.000    0.000    0.000    0.000 
#
# Total GULP energy -247795.802766 kJ/mol
# GULP energy per Si atom -12389.790138 kJ/mol
# Density = 1.842265 g / cm^3
# Si number density = 18.464673 Si / 1000 Ang^3
#
#
#
# Elastic Constant Matrix: (Units=GPa)
#
#
# Indices 1 2 3 4 5 6 
#
# 1 159.1224 78.0634 47.0925 0.0000 -14.0836 0.0000
# 2 78.0634 136.0260 47.1444 0.0000 4.1860 0.0000
# 3 47.0925 47.1444 78.2222 0.0000 -10.8012 0.0000
# 4 0.0000 0.0000 0.0000 9.7251 0.0000 5.2947
# 5 -14.0836 4.1860 -10.8012 0.0000 34.2532 0.0000
# 6 0.0000 0.0000 0.0000 5.2947 0.0000 13.9243
#
#
#
# Elastic Compliance Matrix: (Units=1/GPa)
#
#
# Indices 1 2 3 4 5 6 
#
# 1 0.009719 -0.004868 -0.002387 0.000000 0.003838 0.000000
# 2 -0.004868 0.012043 -0.005026 0.000000 -0.005058 0.000000
# 3 -0.002387 -0.005026 0.017982 0.000000 0.005303 0.000000
# 4 0.000000 0.000000 0.000000 0.129672 0.000000 -0.049308
# 5 0.003838 -0.005058 0.005303 0.000000 0.033063 0.000000
# 6 0.000000 0.000000 0.000000 -0.049308 0.000000 0.090566
#
#
# Mechanical properties :
#
#
# Convention : Reuss Voigt Hill
#
# Bulk Modulus (GPa) = 65.86718 79.77459 72.82089
# Shear Modulus (GPa) = 15.49577 24.98520 20.24048
#
# Velocity S-wave (km/s) = 2.90006 3.68249 3.31444
# Velocity P-wave (km/s) = 6.85297 7.83445 7.36009
#
# Compressibility (1/GPa) = 0.01518207
#
# Stress axis : x y z
#
# Youngs Moduli (GPa) = 102.89100 83.03595 55.60979
#
# Poissons Ratio (x) = 0.40426 0.13274
# Poissons Ratio (y) = 0.50092 0.27948
# Poissons Ratio (z) = 0.24560 0.41732
#
# Static dielectric constant tensor:
#      x y z
#    x 4.093790 0.000000 -0.286790 
#    y 0.000000 3.444420 0.000000 
#    z -0.286790 0.000000 3.103100 
# 
# 
# High freq. dielectric constant tensor:
#      x y z
#    x 1.734480 0.000000 -0.012640 
#    y 0.000000 1.719070 0.000000 
#    z -0.012640 0.000000 1.676610 
# 
# From -- ./inp_files/29959.got.cif
#   From: 2010.06.25/outbox.cif.g09.slc.cpg/sg10_15_cif.got.tgz:29959.got - 2010.06.27 22:07:45.
