data_PCOD8067797
_publ_section_title
;
Structure prediction by ZEFSAII (Michael W. Deem and Ramdas Pophale) SiO2 
 PCOD8067797
Probable space group: P 2/M
;
_chemical_formula_sum "Si O2"
_cell_formula_units_Z 24
_cell_length_a 16.005868
_cell_length_b 8.535599
_cell_length_c 21.943552
_cell_angle_alpha 90.000000
_cell_angle_beta 157.835285
_cell_angle_gamma 90.000000
_cell_volume 1131.027182
_symmetry_space_group_name_H-M "P 2/M"
_symmetry_group_IT_number 10
_symmetry_cell_setting 'monoclinic'
loop_
_space_group_symop_operation_xyz
x,y,z
-x,y,-z
-x,-y,-z
x,-y,z
loop_
_atom_site_type_symbol
_atom_site_label
_atom_site_fract_x
_atom_site_fract_y
_atom_site_fract_z
Si Si1 0.048084 0.817900 0.963913
Si Si2 0.856071 0.183462 0.601888
Si Si3 0.268014 0.324718 0.810506
Si Si4 0.518534 0.319443 0.282376
Si Si5 0.248073 0.316938 0.340652
Si Si6 0.258695 0.827447 0.677430
O O1 0.893062 0.718418 0.814734
O O2 0.995370 0.000000 0.918309
O O3 0.303821 0.784261 0.124168
O O4 0.000000 0.763322 0.000000
O O5 0.645449 0.268042 0.429197
O O6 0.858432 0.223898 0.674850
O O7 0.086835 0.233840 0.727769
O O8 0.826788 0.000000 0.571980
O O9 0.176602 0.500000 0.736615
O O10 0.328416 0.238033 0.789353
O O11 0.500000 0.331562 0.000000
O O12 0.451208 0.500000 0.242984
O O13 0.675256 0.293589 0.330411
O O14 0.500000 0.261794 0.500000
O O15 0.236508 0.500000 0.347884
O O16 0.000000 0.845001 0.500000
O O17 0.366812 0.000000 0.740707
#
# Coordination Sequence:
#
# PCOD8067797 Si02
#       6
#     4   4   4   4   4   4
#     4  11  25  45  70 100 133 170 215 268 324 386
#     4  12  25  43  67  96 132 173 219 270 327 389
#     4  11  25  43  65  94 131 173 221 271 325 387
#     4  12  25  42  68  97 132 173 218 271 326 387
#     4  11  25  45  70  99 133 172 216 266 324 388
#     4  11  23  41  66  96 130 171 221 269 322 385
#
# _framework density 21.219649
#
# number of rings (size 3 to 8) (size 9 to 14) (size 15 to 20)
#    0.000    0.667    1.667    6.000    2.333    7.333 
#    0.000    0.000    0.000    0.000    0.000    0.000 
#    0.000    0.000    0.000    0.000    0.000    0.000 
#
# Total GULP energy -297760.535981 kJ/mol
# GULP energy per Si atom -12406.688999 kJ/mol
# Density = 2.117135 g / cm^3
# Si number density = 21.219649 Si / 1000 Ang^3
#
#
#
# Elastic Constant Matrix: (Units=GPa)
#
#
# Indices 1 2 3 4 5 6 
#
# 1 108.7128 30.6217 31.6688 0.0000 -13.9480 0.0000
# 2 30.6217 93.6037 16.9331 0.0000 -2.7084 0.0000
# 3 31.6688 16.9331 103.5683 0.0000 -9.1521 0.0000
# 4 0.0000 0.0000 0.0000 -34.2591 0.0000 2.0092
# 5 -13.9480 -2.7084 -9.1521 0.0000 31.8647 0.0000
# 6 0.0000 0.0000 0.0000 2.0092 0.0000 34.1047
#
#
#
# Elastic Compliance Matrix: (Units=1/GPa)
#
#
# Indices 1 2 3 4 5 6 
#
# 1 0.011346 -0.003125 -0.002609 0.000000 0.003951 0.000000
# 2 -0.003125 0.011876 -0.001044 0.000000 -0.000659 0.000000
# 3 -0.002609 -0.001044 0.010789 0.000000 0.001868 0.000000
# 4 0.000000 0.000000 0.000000 -0.029089 0.000000 0.001714
# 5 0.003951 -0.000659 0.001868 0.000000 0.033593 0.000000
# 6 0.000000 0.000000 0.000000 0.001714 0.000000 0.029221
#
#
# Mechanical properties :
#
#
# Convention : Reuss Voigt Hill
#
# Bulk Modulus (GPa) = 48.89208 51.59244 50.24226
# Shear Modulus (GPa) = 56.74705 21.45280 39.09993
#
# Velocity S-wave (km/s) = 5.17694 3.18305 4.29724
# Velocity P-wave (km/s) = 7.66976 6.15430 6.95344
#
# Compressibility (1/GPa) = 0.02045321
#
# Stress axis : x y z
#
# Youngs Moduli (GPa) = 88.13738 84.20609 92.68641
#
# Poissons Ratio (x) = 0.26318 0.24183
# Poissons Ratio (y) = 0.27546 0.09678
# Poissons Ratio (z) = 0.22996 0.08792
#
# Static dielectric constant tensor:
#      x y z
#    x 3.955290 0.000000 -0.048090 
#    y 0.000000 4.059490 0.000000 
#    z -0.048090 0.000000 3.814950 
# 
# 
# High freq. dielectric constant tensor:
#      x y z
#    x 1.843380 0.000000 -0.003380 
#    y 0.000000 1.846620 0.000000 
#    z -0.003380 0.000000 1.839070 
# 
# From -- ./inp_files/90064.got.cif
#   From: 2010.06.25/outbox.cif.g09.slc.cpg/sg10_46_cif.got.tgz:90064.got - 2010.06.27 22:07:45.
