data_PCOD8067513
_publ_section_title
;
Structure prediction by ZEFSAII (Michael W. Deem and Ramdas Pophale) SiO2 
 PCOD8067513
Probable space group: P 2/M
;
_chemical_formula_sum "Si O2"
_cell_formula_units_Z 32
_cell_length_a 22.369772
_cell_length_b 14.005980
_cell_length_c 10.269589
_cell_angle_alpha 90.000000
_cell_angle_beta 36.093995
_cell_angle_gamma 90.000000
_cell_volume 1895.508557
_symmetry_space_group_name_H-M "P 2/M"
_symmetry_group_IT_number 10
_symmetry_cell_setting 'monoclinic'
loop_
_space_group_symop_operation_xyz
x,y,z
-x,y,-z
-x,-y,-z
x,-y,z
loop_
_atom_site_type_symbol
_atom_site_label
_atom_site_fract_x
_atom_site_fract_y
_atom_site_fract_z
Si Si1 0.870174 0.701697 0.968281
Si Si2 0.199463 0.388086 0.646435
Si Si3 0.892244 0.299923 0.441007
Si Si4 0.884406 0.895707 0.356637
Si Si5 0.225907 0.612104 0.115180
Si Si6 0.875064 0.895477 0.081557
Si Si7 0.457928 0.386979 0.708063
Si Si8 0.428958 0.386157 0.239852
O O1 0.815147 0.670169 0.934564
O O2 0.989681 0.693872 0.733316
O O3 0.838660 0.633270 0.141596
O O4 0.834385 0.810350 0.061838
O O5 0.195735 0.500000 0.629589
O O6 0.125024 0.340067 0.673387
O O7 0.314143 0.349418 0.424339
O O8 0.852751 0.189471 0.510578
O O9 0.832833 0.361471 0.650607
O O10 0.836323 0.878980 0.297839
O O11 0.850055 0.000000 0.471725
O O12 0.004434 0.892830 0.130157
O O13 0.213281 0.500000 0.109785
O O14 0.341736 0.641885 0.933852
O O15 0.837369 0.000000 0.097714
O O16 0.500000 0.342418 0.500000
O O17 0.469337 0.500000 0.684665
O O18 0.525937 0.345019 0.704937
O O19 0.431240 0.500000 0.236753
O O20 0.500000 0.345916 0.000000
#
# Coordination Sequence:
#
# PCOD8067513 Si02
#       8
#     4   4   4   4   4   4   4   4
#     4  11  21  33  47  69 100 135 171 198 224 278
#     4  11  21  31  47  71  97 127 167 205 233 280
#     4  11  21  33  47  69 102 137 166 193 232 285
#     4   8  14  28  50  71  91 120 159 206 254 282
#     4  11  23  35  47  67 101 141 170 194 232 285
#     4   8  14  28  50  71  91 119 159 209 254 279
#     4   9  17  32  51  66  84 118 164 209 249 280
#     4   9  17  30  47  66  88 114 151 208 262 284
#
# _framework density 16.882013000000001
#
# number of rings (size 3 to 8) (size 9 to 14) (size 15 to 20)
#    0.000    2.250    1.250    3.750    0.000    7.000 
#    0.000    0.625    0.000    3.000    0.000    0.000 
#    0.000   20.000    0.000    0.000    0.000    0.000 
#
# Total GULP energy -396676.314398 kJ/mol
# GULP energy per Si atom -12396.134825 kJ/mol
# Density = 1.684359 g / cm^3
# Si number density = 16.882013 Si / 1000 Ang^3
#
#
#
# Elastic Constant Matrix: (Units=GPa)
#
#
# Indices 1 2 3 4 5 6 
#
# 1 21.6619 38.5054 -67.9607 0.0000 44.0411 0.0000
# 2 38.5054 71.2532 32.8417 0.0000 -17.9588 0.0000
# 3 -67.9607 32.8417 -54.9996 0.0000 61.6352 0.0000
# 4 0.0000 0.0000 0.0000 7.8185 0.0000 11.1171
# 5 44.0411 -17.9588 61.6352 0.0000 -7.1070 0.0000
# 6 0.0000 0.0000 0.0000 11.1171 0.0000 15.5910
#
#
#
# Elastic Compliance Matrix: (Units=1/GPa)
#
#
# Indices 1 2 3 4 5 6 
#
# 1 0.011326 -0.001023 -0.007678 0.000000 0.006182 0.000000
# 2 -0.001023 0.011839 0.003704 0.000000 -0.004131 0.000000
# 3 -0.007678 0.003704 0.008062 0.000000 0.012979 0.000000
# 4 0.000000 0.000000 0.000000 -9.214092 0.000000 6.570092
# 5 0.006182 -0.004131 0.012979 0.000000 0.020599 0.000000
# 6 0.000000 0.000000 0.000000 6.570092 0.000000 -4.620653
#
#
# Mechanical properties :
#
#
# Convention : Reuss Voigt Hill
#
# Bulk Modulus (GPa) = 47.09699 4.96535 26.03117
# Shear Modulus (GPa) = -0.36322 5.56244 2.59961
#
# Velocity S-wave (km/s) = -0.46435 1.81715 1.24226
# Velocity P-wave (km/s) = 5.26031 2.71115 4.18456
#
# Compressibility (1/GPa) = 0.02123278
#
# Stress axis : x y z
#
# Youngs Moduli (GPa) = 88.29424 84.46743 124.03434
#
# Poissons Ratio (x) = 0.08644 0.95235
# Poissons Ratio (y) = 0.09036 -0.45948
# Poissons Ratio (z) = 0.67793 -0.31290
#
# Static dielectric constant tensor:
#      x y z
#    x 3.158450 0.000000 0.047270 
#    y 0.000000 3.322530 0.000000 
#    z 0.047270 0.000000 3.104350 
# 
# 
# High freq. dielectric constant tensor:
#      x y z
#    x 1.645030 0.000000 0.009670 
#    y 0.000000 1.628230 0.000000 
#    z 0.009670 0.000000 1.637690 
# 
# From -- ./inp_files/35134.got.cif
#   From: 2010.06.25/outbox.cif.g09.slc.cpg/sg10_18_cif.got.tgz:35134.got - 2010.06.27 22:07:45.
