data_PCOD8067576
_publ_section_title
;
Structure prediction by ZEFSAII (Michael W. Deem and Ramdas Pophale) SiO2 
 PCOD8067576
Probable space group: P 2/M
;
_chemical_formula_sum "Si O2"
_cell_formula_units_Z 28
_cell_length_a 9.923652
_cell_length_b 10.552838
_cell_length_c 14.913891
_cell_angle_alpha 90.000000
_cell_angle_beta 65.741176
_cell_angle_gamma 90.000000
_cell_volume 1423.911951
_symmetry_space_group_name_H-M "P 2/M"
_symmetry_group_IT_number 10
_symmetry_cell_setting 'monoclinic'
loop_
_space_group_symop_operation_xyz
x,y,z
-x,y,-z
-x,-y,-z
x,-y,z
loop_
_atom_site_type_symbol
_atom_site_label
_atom_site_fract_x
_atom_site_fract_y
_atom_site_fract_z
Si Si1 0.405168 0.851452 0.301097
Si Si2 0.327121 0.500000 0.068586
Si Si3 0.354733 0.859160 0.994903
Si Si4 0.343812 0.147085 0.515766
Si Si5 0.212708 0.245716 0.190474
Si Si6 0.099097 0.147084 0.717363
Si Si7 0.169786 0.500000 0.922629
Si Si8 0.718712 0.244318 0.175326
O O1 0.315698 0.831077 0.417906
O O2 0.304092 0.798709 0.250754
O O3 0.556275 0.770432 0.262983
O O4 0.443111 0.000000 0.276104
O O5 0.271636 0.380963 0.141456
O O6 0.500000 0.500000 0.000000
O O7 0.259679 0.500000 0.989114
O O8 0.229949 0.855646 0.105058
O O9 0.399831 0.000000 0.954194
O O10 0.500000 0.791273 0.000000
O O11 0.290474 0.792890 0.925860
O O12 0.500000 0.211079 0.500000
O O13 0.211884 0.202889 0.611819
O O14 0.352235 0.000000 0.538898
O O15 0.039513 0.240594 0.259154
O O16 0.168860 0.158891 0.797655
O O17 0.056644 0.000000 0.711723
O O18 0.214418 0.384673 0.845150
O O19 0.000000 0.500000 0.000000
#
# Coordination Sequence:
#
# PCOD8067576 Si02
#       8
#     4   2   4   4   4   4   2   4
#     4  11  21  38  65  95 123 155 199 253 314 365
#     4  12  24  46  66  81 118 174 222 243 288 361
#     4  11  21  35  57  89 123 153 189 249 314 364
#     4   9  18  36  63  91 124 161 199 245 301 379
#     4  12  24  39  60  91 125 160 203 259 299 361
#     4  11  23  39  62  95 127 158 199 252 320 371
#     4  12  26  44  58  81 122 166 216 251 292 353
#     4  12  23  38  62  85 117 164 209 248 295 367
#
# _framework density 19.664137
#
# number of rings (size 3 to 8) (size 9 to 14) (size 15 to 20)
#    0.000    0.857    4.286    4.714    0.000    0.571 
#    0.000    3.571    0.000    5.143    0.000    0.000 
#    0.000    0.000    0.000    0.000    0.000    0.000 
#
# Total GULP energy -347068.621300 kJ/mol
# GULP energy per Si atom -12395.307904 kJ/mol
# Density = 1.961938 g / cm^3
# Si number density = 19.664137 Si / 1000 Ang^3
#
#
#
# Elastic Constant Matrix: (Units=GPa)
#
#
# Indices 1 2 3 4 5 6 
#
# 1 105.5222 47.8176 47.0219 0.0000 -23.5054 0.0000
# 2 47.8176 84.1716 52.6998 0.0000 -7.3994 0.0000
# 3 47.0219 52.6998 119.0002 0.0000 -16.8951 0.0000
# 4 0.0000 0.0000 0.0000 47.1132 0.0000 4.8034
# 5 -23.5054 -7.3994 -16.8951 0.0000 41.1662 0.0000
# 6 0.0000 0.0000 0.0000 4.8034 0.0000 25.7260
#
#
#
# Elastic Compliance Matrix: (Units=1/GPa)
#
#
# Indices 1 2 3 4 5 6 
#
# 1 0.014787 -0.006570 -0.002020 0.000000 0.006433 0.000000
# 2 -0.006570 0.019358 -0.006387 0.000000 -0.002894 0.000000
# 3 -0.002020 -0.006387 0.012428 0.000000 0.002799 0.000000
# 4 0.000000 0.000000 0.000000 0.021637 0.000000 -0.004040
# 5 0.006433 -0.002894 0.002799 0.000000 0.028594 0.000000
# 6 0.000000 0.000000 0.000000 -0.004040 0.000000 0.039625
#
#
# Mechanical properties :
#
#
# Convention : Reuss Voigt Hill
#
# Bulk Modulus (GPa) = 60.17796 67.08584 63.63190
# Shear Modulus (GPa) = 29.08272 33.54473 31.31373
#
# Velocity S-wave (km/s) = 3.84991 4.13472 3.99485
# Velocity P-wave (km/s) = 7.10153 7.54880 7.32858
#
# Compressibility (1/GPa) = 0.01661738
#
# Stress axis : x y z
#
# Youngs Moduli (GPa) = 67.62615 51.65884 80.46635
#
# Poissons Ratio (x) = 0.33941 0.16254
# Poissons Ratio (y) = 0.44432 0.51396
# Poissons Ratio (z) = 0.13660 0.32996
#
# Static dielectric constant tensor:
#      x y z
#    x 3.663070 0.000000 -0.093660 
#    y 0.000000 3.557590 0.000000 
#    z -0.093660 0.000000 3.799920 
# 
# 
# High freq. dielectric constant tensor:
#      x y z
#    x 1.775450 0.000000 0.001320 
#    y 0.000000 1.739130 0.000000 
#    z 0.001320 0.000000 1.775920 
# 
# From -- ./inp_files/61152.got.cif
#   From: 2010.06.25/outbox.cif.g09.slc.cpg/sg10_31_cif.got.tgz:61152.got - 2010.06.27 22:07:45.
