data_PCOD8067615
_publ_section_title
;
Structure prediction by ZEFSAII (Michael W. Deem and Ramdas Pophale) SiO2 
 PCOD8067615
Probable space group: P 2/M
;
_chemical_formula_sum "Si O2"
_cell_formula_units_Z 30
_cell_length_a 11.902996
_cell_length_b 15.325641
_cell_length_c 8.771362
_cell_angle_alpha 90.000000
_cell_angle_beta 67.979765
_cell_angle_gamma 90.000000
_cell_volume 1483.357496
_symmetry_space_group_name_H-M "P 2/M"
_symmetry_group_IT_number 10
_symmetry_cell_setting 'monoclinic'
loop_
_space_group_symop_operation_xyz
x,y,z
-x,y,-z
-x,-y,-z
x,-y,z
loop_
_atom_site_type_symbol
_atom_site_label
_atom_site_fract_x
_atom_site_fract_y
_atom_site_fract_z
Si Si1 0.000000 0.312549 0.000000
Si Si2 0.416356 0.406682 0.894812
Si Si3 0.856722 0.190748 0.278384
Si Si4 0.843151 0.400497 0.831924
Si Si5 0.393431 0.899820 0.675646
Si Si6 0.485152 0.765307 0.186999
Si Si7 0.206088 0.753334 0.362306
Si Si8 0.935833 0.094829 0.693220
O O1 0.047637 0.371703 0.113915
O O2 0.888020 0.255198 0.123016
O O3 0.428641 0.500000 0.800295
O O4 0.457552 0.324314 0.770905
O O5 0.500000 0.411234 0.000000
O O6 0.278785 0.391547 0.011027
O O7 0.730136 0.141940 0.321514
O O8 0.856579 0.241815 0.440354
O O9 0.965380 0.120331 0.229454
O O10 0.864989 0.500000 0.765889
O O11 0.833107 0.339323 0.688102
O O12 0.500000 0.890144 0.500000
O O13 0.439242 0.849217 0.800653
O O14 0.369621 0.000000 0.731001
O O15 0.348190 0.766868 0.312084
O O16 0.500000 0.760932 0.000000
O O17 0.166255 0.830673 0.266874
O O18 0.000000 0.085326 0.500000
O O19 0.878920 0.000000 0.766558
#
# Coordination Sequence:
#
# PCOD8067615 Si02
#       8
#     2   4   4   4   4   4   4   4
#     4  12  25  42  65  92 128 170 213 264 311 382
#     4   9  17  32  60  90 119 156 205 254 308 370
#     4  11  23  41  66  88 127 166 214 258 320 364
#     4  11  22  40  65  94 126 167 210 258 318 379
#     4  11  24  42  63  93 131 174 211 253 317 384
#     4  11  21  37  63  92 127 164 212 257 315 367
#     4  11  21  39  62  95 123 164 208 263 310 378
#     4   9  19  36  61  87 115 156 207 257 309 365
#
# _framework density 20.224388999999999
#
# number of rings (size 3 to 8) (size 9 to 14) (size 15 to 20)
#    0.000    1.467    5.333    1.400    0.000    1.333 
#    0.000    4.667    0.000    1.200    0.000    0.000 
#    0.000    0.000    0.000    0.000    0.000    0.000 
#
# Total GULP energy -371877.914862 kJ/mol
# GULP energy per Si atom -12395.930495 kJ/mol
# Density = 2.017836 g / cm^3
# Si number density = 20.224389 Si / 1000 Ang^3
#
#
#
# Elastic Constant Matrix: (Units=GPa)
#
#
# Indices 1 2 3 4 5 6 
#
# 1 91.6478 70.1313 23.8706 0.0000 1.8162 0.0000
# 2 70.1313 190.8063 41.5981 0.0000 1.5379 0.0000
# 3 23.8706 41.5981 47.9656 0.0000 -1.1314 0.0000
# 4 0.0000 0.0000 0.0000 -14.2675 0.0000 12.1576
# 5 1.8162 1.5379 -1.1314 0.0000 26.2768 0.0000
# 6 0.0000 0.0000 0.0000 12.1576 0.0000 26.0709
#
#
#
# Elastic Compliance Matrix: (Units=1/GPa)
#
#
# Indices 1 2 3 4 5 6 
#
# 1 0.015654 -0.004985 -0.003489 0.000000 -0.000940 0.000000
# 2 -0.004985 0.008061 -0.004517 0.000000 -0.000322 0.000000
# 3 -0.003489 -0.004517 0.026541 0.000000 0.001648 0.000000
# 4 0.000000 0.000000 0.000000 -0.050158 0.000000 0.023390
# 5 -0.000940 -0.000322 0.001648 0.000000 0.038211 0.000000
# 6 0.000000 0.000000 0.000000 0.023390 0.000000 0.027449
#
#
# Mechanical properties :
#
#
# Convention : Reuss Voigt Hill
#
# Bulk Modulus (GPa) = 41.19893 66.84662 54.02278
# Shear Modulus (GPa) = 50.08460 20.60403 35.34432
#
# Velocity S-wave (km/s) = 4.98179 3.19528 4.18498
# Velocity P-wave (km/s) = 7.31479 6.83647 7.07967
#
# Compressibility (1/GPa) = 0.02427247
#
# Stress axis : x y z
#
# Youngs Moduli (GPa) = 63.88326 124.05906 37.67768
#
# Poissons Ratio (x) = 0.61847 0.13145
# Poissons Ratio (y) = 0.31848 0.17020
# Poissons Ratio (z) = 0.22288 0.56040
#
# Static dielectric constant tensor:
#      x y z
#    x 3.732320 0.000000 -0.097820 
#    y 0.000000 4.411250 0.000000 
#    z -0.097820 0.000000 3.316800 
# 
# 
# High freq. dielectric constant tensor:
#      x y z
#    x 1.801530 0.000000 -0.006840 
#    y 0.000000 1.806160 0.000000 
#    z -0.006840 0.000000 1.752190 
# 
# From -- ./inp_files/25292.got.cif
#   From: 2010.06.25/outbox.cif.g09.slc.cpg/sg10_13_cif.got.tgz:25292.got - 2010.06.27 22:07:45.
