data_PCOD8067976
_publ_section_title
;
Structure prediction by ZEFSAII (Michael W. Deem and Ramdas Pophale) SiO2 
 PCOD8067976
Probable space group: P 2/M
;
_chemical_formula_sum "Si O2"
_cell_formula_units_Z 28
_cell_length_a 9.513091
_cell_length_b 8.975641
_cell_length_c 30.019877
_cell_angle_alpha 90.000000
_cell_angle_beta 37.779753
_cell_angle_gamma 90.000000
_cell_volume 1570.336513
_symmetry_space_group_name_H-M "P 2/M"
_symmetry_group_IT_number 10
_symmetry_cell_setting 'monoclinic'
loop_
_space_group_symop_operation_xyz
x,y,z
-x,y,-z
-x,-y,-z
x,-y,z
loop_
_atom_site_type_symbol
_atom_site_label
_atom_site_fract_x
_atom_site_fract_y
_atom_site_fract_z
Si Si1 0.324236 0.676466 0.635926
Si Si2 0.980656 0.672494 0.369361
Si Si3 0.632317 0.326552 0.790239
Si Si4 0.262044 0.823910 0.929962
Si Si5 0.155045 0.322315 0.501284
Si Si6 0.959094 0.173816 0.778199
Si Si7 0.436965 0.174911 0.063249
O O1 0.307459 0.500000 0.642837
O O2 0.584793 0.732948 0.570386
O O3 0.193572 0.737946 0.624441
O O4 0.200661 0.741142 0.711369
O O5 0.918500 0.500000 0.388983
O O6 0.248493 0.694783 0.288187
O O7 0.938226 0.744976 0.428492
O O8 0.636594 0.500000 0.802721
O O9 0.374675 0.259710 0.858602
O O10 0.783499 0.228922 0.785249
O O11 0.391625 0.764214 0.941670
O O12 0.287171 0.000000 0.916517
O O13 0.000000 0.774593 0.000000
O O14 0.143016 0.500000 0.504329
O O15 0.000000 0.257852 0.500000
O O16 0.831176 0.207687 0.857418
O O17 0.004513 0.000000 0.760790
O O18 0.480497 0.000000 0.049468
O O19 0.500000 0.250095 0.000000
#
# Coordination Sequence:
#
# PCOD8067976 Si02
#       7
#     4   4   4   4   4   4   4
#     4   9  16  27  45  66  86 110 142 179 215 253
#     4   8  14  25  42  63  84 109 143 179 214 253
#     4   9  16  27  45  66  88 113 142 179 219 255
#     4   9  17  29  45  65  89 116 146 179 212 251
#     4   9  16  26  42  64  88 114 144 177 212 252
#     4   9  16  27  45  66  87 111 142 180 216 252
#     4   8  14  26  44  63  82 109 145 178 208 248
#
# _framework density 17.830573999999999
#
# number of rings (size 3 to 8) (size 9 to 14) (size 15 to 20)
#    0.000    3.286    0.000    3.000    0.000    2.000 
#    0.000    1.429    0.000   18.857    0.000    0.000 
#    0.000    0.000    0.000    0.000    0.000    0.000 
#
# Total GULP energy -346865.452529 kJ/mol
# GULP energy per Si atom -12388.051876 kJ/mol
# Density = 1.778999 g / cm^3
# Si number density = 17.830574 Si / 1000 Ang^3
#
#
#
# Elastic Constant Matrix: (Units=GPa)
#
#
# Indices 1 2 3 4 5 6 
#
# 1 75.8809 15.8396 73.1427 0.0000 -2.4326 0.0000
# 2 15.8396 18.2727 36.9575 0.0000 2.2362 0.0000
# 3 73.1427 36.9575 199.3130 0.0000 -3.9603 0.0000
# 4 0.0000 0.0000 0.0000 25.1678 0.0000 -2.4015
# 5 -2.4326 2.2362 -3.9603 0.0000 25.7979 0.0000
# 6 0.0000 0.0000 0.0000 -2.4015 0.0000 9.2832
#
#
#
# Elastic Compliance Matrix: (Units=1/GPa)
#
#
# Indices 1 2 3 4 5 6 
#
# 1 0.020624 -0.004450 -0.006718 0.000000 0.001299 0.000000
# 2 -0.004450 0.091239 -0.015497 0.000000 -0.010708 0.000000
# 3 -0.006718 -0.015497 0.010402 0.000000 0.002307 0.000000
# 4 0.000000 0.000000 0.000000 0.040739 0.000000 0.010539
# 5 0.001299 -0.010708 0.002307 0.000000 0.040168 0.000000
# 6 0.000000 0.000000 0.000000 0.010539 0.000000 0.110448
#
#
# Mechanical properties :
#
#
# Convention : Reuss Voigt Hill
#
# Bulk Modulus (GPa) = 14.50661 60.59400 37.55031
# Shear Modulus (GPa) = 12.82288 23.21824 18.02056
#
# Velocity S-wave (km/s) = 2.68461 3.61246 3.18253
# Velocity P-wave (km/s) = 4.21461 7.17334 5.88302
#
# Compressibility (1/GPa) = 0.06893408
#
# Stress axis : x y z
#
# Youngs Moduli (GPa) = 48.48641 10.96024 96.13685
#
# Poissons Ratio (x) = 0.04878 0.64580
# Poissons Ratio (y) = 0.21579 1.48988
# Poissons Ratio (z) = 0.32571 0.16986
#
# Static dielectric constant tensor:
#      x y z
#    x 3.167650 0.000000 0.094500 
#    y 0.000000 2.975550 0.000000 
#    z 0.094500 0.000000 4.032280 
# 
# 
# High freq. dielectric constant tensor:
#      x y z
#    x 1.644040 0.000000 0.000170 
#    y 0.000000 1.646990 0.000000 
#    z 0.000170 0.000000 1.717970 
# 
# From -- ./inp_files/86694.got.cif
#   From: 2010.06.25/outbox.cif.g09.slc.cpg/sg10_44_cif.got.tgz:86694.got - 2010.06.27 22:07:45.
