data_PCOD8067230
_publ_section_title
;
Structure prediction by ZEFSAII (Michael W. Deem and Ramdas Pophale) SiO2 
 PCOD8067230
Probable space group: P 2/M
;
_chemical_formula_sum "Si O2"
_cell_formula_units_Z 28
_cell_length_a 11.822062
_cell_length_b 13.894069
_cell_length_c 9.660491
_cell_angle_alpha 90.000000
_cell_angle_beta 63.500802
_cell_angle_gamma 90.000000
_cell_volume 1420.090750
_symmetry_space_group_name_H-M "P 2/M"
_symmetry_group_IT_number 10
_symmetry_cell_setting 'monoclinic'
loop_
_space_group_symop_operation_xyz
x,y,z
-x,y,-z
-x,-y,-z
x,-y,z
loop_
_atom_site_type_symbol
_atom_site_label
_atom_site_fract_x
_atom_site_fract_y
_atom_site_fract_z
Si Si1 0.017084 0.500000 0.282075
Si Si2 0.820375 0.749352 0.861617
Si Si3 0.788153 0.500000 0.614268
Si Si4 0.080754 0.307776 0.761593
Si Si5 0.487817 0.244178 0.668660
Si Si6 0.281404 0.617168 0.864442
Si Si7 0.608964 0.113097 0.049918
Si Si8 0.243707 0.705769 0.405408
O O1 0.915762 0.500000 0.457648
O O2 0.998243 0.406386 0.200968
O O3 0.162014 0.500000 0.255219
O O4 0.835096 0.728951 0.689481
O O5 0.962292 0.765559 0.848097
O O6 0.741423 0.658615 0.969414
O O7 0.743071 0.847776 0.922452
O O8 0.709193 0.594403 0.619914
O O9 0.178340 0.322623 0.831855
O O10 0.154369 0.274383 0.584696
O O11 0.500000 0.223335 0.500000
O O12 0.418556 0.347348 0.733936
O O13 0.413206 0.159125 0.786561
O O14 0.627301 0.236123 0.656907
O O15 0.271001 0.500000 0.860553
O O16 0.618870 0.000000 0.063544
O O17 0.500000 0.142016 0.000000
#
# Coordination Sequence:
#
# PCOD8067230 Si02
#       8
#     2   4   2   4   4   4   4   4
#     4   9  16  28  47  74 111 156 209 226 269 326
#     4  11  23  37  60  88 119 155 200 247 295 352
#     4   9  18  28  45  79 116 158 195 239 276 317
#     4  11  20  36  57  83 123 164 205 242 282 338
#     4  11  23  41  62  89 118 154 202 249 296 349
#     4  11  25  37  53  87 130 171 203 237 287 342
#     4  10  22  44  69  90 114 148 191 245 311 374
#     4  11  21  35  57  87 117 162 206 245 284 346
#
# _framework density 19.717048999999999
#
# number of rings (size 3 to 8) (size 9 to 14) (size 15 to 20)
#    0.000    1.429    5.000    0.857    3.000    1.143 
#    0.000    0.714    0.000    9.429    0.000    0.000 
#    0.000    0.000    0.000    0.000    0.000    0.000 
#
# Total GULP energy -346952.178985 kJ/mol
# GULP energy per Si atom -12391.149249 kJ/mol
# Density = 1.967217 g / cm^3
# Si number density = 19.717049 Si / 1000 Ang^3
#
#
#
# Elastic Constant Matrix: (Units=GPa)
#
#
# Indices 1 2 3 4 5 6 
#
# 1 97.6067 27.2734 21.1719 0.0000 -11.1290 0.0000
# 2 27.2734 79.6710 31.3489 0.0000 -9.1619 0.0000
# 3 21.1719 31.3489 90.2579 0.0000 1.4995 0.0000
# 4 0.0000 0.0000 0.0000 19.1083 0.0000 -1.4120
# 5 -11.1290 -9.1619 1.4995 0.0000 28.2721 0.0000
# 6 0.0000 0.0000 0.0000 -1.4120 0.0000 26.4962
#
#
#
# Elastic Compliance Matrix: (Units=1/GPa)
#
#
# Indices 1 2 3 4 5 6 
#
# 1 0.011895 -0.002904 -0.001845 0.000000 0.003839 0.000000
# 2 -0.002904 0.015985 -0.004942 0.000000 0.004299 0.000000
# 3 -0.001845 -0.004942 0.013279 0.000000 -0.003032 0.000000
# 4 0.000000 0.000000 0.000000 0.052540 0.000000 0.002800
# 5 0.003839 0.004299 -0.003032 0.000000 0.038436 0.000000
# 6 0.000000 0.000000 0.000000 0.002800 0.000000 0.037890
#
#
# Mechanical properties :
#
#
# Convention : Reuss Voigt Hill
#
# Bulk Modulus (GPa) = 45.92348 47.45823 46.69085
# Shear Modulus (GPa) = 25.42373 27.29140 26.35757
#
# Velocity S-wave (km/s) = 3.59476 3.72446 3.66018
# Velocity P-wave (km/s) = 6.36958 6.52819 6.44937
#
# Compressibility (1/GPa) = 0.02177535
#
# Stress axis : x y z
#
# Youngs Moduli (GPa) = 84.07120 62.55932 75.30645
#
# Poissons Ratio (x) = 0.18169 0.13895
# Poissons Ratio (y) = 0.24417 0.37217
# Poissons Ratio (z) = 0.15513 0.30917
#
# Static dielectric constant tensor:
#      x y z
#    x 3.691810 0.000000 -0.003560 
#    y 0.000000 3.333510 0.000000 
#    z -0.003560 0.000000 3.656040 
# 
# 
# High freq. dielectric constant tensor:
#      x y z
#    x 1.773020 0.000000 -0.001260 
#    y 0.000000 1.720630 0.000000 
#    z -0.001260 0.000000 1.782980 
# 
# From -- ./inp_files/24959.got.cif
#   From: 2010.06.25/outbox.cif.g09.slc.cpg/sg10_13_cif.got.tgz:24959.got - 2010.06.27 22:07:45.
