data_PCOD8067451
_publ_section_title
;
Structure prediction by ZEFSAII (Michael W. Deem and Ramdas Pophale) SiO2 
 PCOD8067451
Probable space group: P 2/M
;
_chemical_formula_sum "Si O2"
_cell_formula_units_Z 28
_cell_length_a 12.476591
_cell_length_b 12.719186
_cell_length_c 16.031419
_cell_angle_alpha 90.000000
_cell_angle_beta 39.412214
_cell_angle_gamma 90.000000
_cell_volume 1615.211073
_symmetry_space_group_name_H-M "P 2/M"
_symmetry_group_IT_number 10
_symmetry_cell_setting 'monoclinic'
loop_
_space_group_symop_operation_xyz
x,y,z
-x,y,-z
-x,-y,-z
x,-y,z
loop_
_atom_site_type_symbol
_atom_site_label
_atom_site_fract_x
_atom_site_fract_y
_atom_site_fract_z
Si Si1 0.432620 0.763333 0.257840
Si Si2 0.521431 0.620495 0.351180
Si Si3 0.225893 0.379906 0.654920
Si Si4 0.118144 0.877533 0.503761
Si Si5 0.950555 0.249972 0.743991
Si Si6 0.844480 0.621250 0.655231
Si Si7 0.369267 0.876808 0.003591
O O1 0.537611 0.699543 0.264045
O O2 0.312374 0.850348 0.371501
O O3 0.322255 0.680794 0.273127
O O4 0.559497 0.826656 0.123322
O O5 0.544413 0.500000 0.307483
O O6 0.666706 0.651965 0.328837
O O7 0.338255 0.632749 0.503964
O O8 0.164264 0.500000 0.699607
O O9 0.064995 0.303185 0.746821
O O10 0.000000 0.832656 0.500000
O O11 0.062383 0.830764 0.624713
O O12 0.093309 0.000000 0.525161
O O13 0.886868 0.343563 0.723150
O O14 0.801096 0.185029 0.875108
O O15 0.797229 0.500000 0.685125
O O16 0.000000 0.643652 0.500000
O O17 0.330947 0.000000 0.013092
O O18 0.500000 0.860851 0.000000
#
# Coordination Sequence:
#
# PCOD8067451 Si02
#       7
#     4   4   4   4   4   4   4
#     4  12  19  36  55  82 111 146 186 228 283 327
#     4   9  18  34  59  88 115 147 185 225 274 334
#     4   9  18  34  59  88 115 147 185 225 274 334
#     4  11  20  32  53  80 107 137 190 240 278 334
#     4  12  19  36  55  82 111 146 186 228 283 327
#     4  11  20  31  52  85 115 141 173 227 290 341
#     4  11  24  40  57  78 113 153 192 232 280 336
#
# _framework density 17.335196
#
# number of rings (size 3 to 8) (size 9 to 14) (size 15 to 20)
#    0.000    1.286    5.714    2.571    0.000    4.571 
#    0.000    4.286    0.000    6.857    0.000    0.000 
#    0.000    0.000    0.000    0.000    0.000    0.000 
#
# Total GULP energy -347248.313957 kJ/mol
# GULP energy per Si atom -12401.725498 kJ/mol
# Density = 1.729574 g / cm^3
# Si number density = 17.335196 Si / 1000 Ang^3
#
#
#
# Elastic Constant Matrix: (Units=GPa)
#
#
# Indices 1 2 3 4 5 6 
#
# 1 98.3654 47.3799 32.6983 0.0000 -1.8897 0.0000
# 2 47.3799 94.5630 37.1896 0.0000 -7.1461 0.0000
# 3 32.6983 37.1896 108.4928 0.0000 -14.6622 0.0000
# 4 0.0000 0.0000 0.0000 73.5844 0.0000 1.9154
# 5 -1.8897 -7.1461 -14.6622 0.0000 33.1877 0.0000
# 6 0.0000 0.0000 0.0000 1.9154 0.0000 31.5596
#
#
#
# Elastic Compliance Matrix: (Units=1/GPa)
#
#
# Indices 1 2 3 4 5 6 
#
# 1 0.013863 -0.006169 -0.002272 0.000000 -0.001543 0.000000
# 2 -0.006169 0.014989 -0.003074 0.000000 0.001518 0.000000
# 3 -0.002272 -0.003074 0.011538 0.000000 0.004306 0.000000
# 4 0.000000 0.000000 0.000000 0.013611 0.000000 -0.000826
# 5 -0.001543 0.001518 0.004306 0.000000 0.032273 0.000000
# 6 0.000000 0.000000 0.000000 -0.000826 0.000000 0.031736
#
#
# Mechanical properties :
#
#
# Convention : Reuss Voigt Hill
#
# Bulk Modulus (GPa) = 57.60151 59.55075 58.57613
# Shear Modulus (GPa) = 34.05358 39.94324 36.99841
#
# Velocity S-wave (km/s) = 4.43698 4.80538 4.62485
# Velocity P-wave (km/s) = 7.71682 8.07565 7.89827
#
# Compressibility (1/GPa) = 0.01736066
#
# Stress axis : x y z
#
# Youngs Moduli (GPa) = 72.13302 66.71342 86.67382
#
# Poissons Ratio (x) = 0.41156 0.19693
# Poissons Ratio (y) = 0.44500 0.26641
# Poissons Ratio (z) = 0.16389 0.20506
#
# Static dielectric constant tensor:
#      x y z
#    x 3.173630 0.000000 0.054120 
#    y 0.000000 3.480000 0.000000 
#    z 0.054120 0.000000 2.902170 
# 
# 
# High freq. dielectric constant tensor:
#      x y z
#    x 1.658020 0.000000 -0.001140 
#    y 0.000000 1.683530 0.000000 
#    z -0.001140 0.000000 1.649700 
# 
# From -- ./inp_files/64906.got.cif
#   From: 2010.06.25/outbox.cif.g09.slc.cpg/sg10_33_cif.got.tgz:64906.got - 2010.06.27 22:07:45.
