data_PCOD8067731
_publ_section_title
;
Structure prediction by ZEFSAII (Michael W. Deem and Ramdas Pophale) SiO2 
 PCOD8067731
Probable space group: P 2/M
;
_chemical_formula_sum "Si O2"
_cell_formula_units_Z 20
_cell_length_a 5.079156
_cell_length_b 8.389816
_cell_length_c 25.427083
_cell_angle_alpha 90.000000
_cell_angle_beta 120.084928
_cell_angle_gamma 90.000000
_cell_volume 937.559543
_symmetry_space_group_name_H-M "P 2/M"
_symmetry_group_IT_number 10
_symmetry_cell_setting 'monoclinic'
loop_
_space_group_symop_operation_xyz
x,y,z
-x,y,-z
-x,-y,-z
x,-y,z
loop_
_atom_site_type_symbol
_atom_site_label
_atom_site_fract_x
_atom_site_fract_y
_atom_site_fract_z
Si Si1 0.600826 0.315138 0.567866
Si Si2 0.338827 0.810185 0.035593
Si Si3 0.584305 0.687608 0.762104
Si Si4 0.260006 0.815827 0.631208
Si Si5 0.754903 0.811093 0.172240
O O1 0.500000 0.259931 0.500000
O O2 0.529317 0.500000 0.570361
O O3 0.399087 0.214432 0.587891
O O4 0.957729 0.285815 0.611205
O O5 0.510693 0.750558 0.104971
O O6 0.333936 0.000000 0.034415
O O7 0.500000 0.742050 0.000000
O O8 0.000000 0.739971 0.000000
O O9 0.546185 0.500000 0.754228
O O10 0.511677 0.766318 0.698893
O O11 0.348578 0.754466 0.781033
O O12 0.925803 0.733562 0.811877
O O13 0.175492 0.000000 0.628498
O O14 0.792312 0.000000 0.175047
#
# Coordination Sequence:
#
# PCOD8067731 Si02
#       5
#     4   4   4   4   4
#     4  11  24  43  66  93 127 165 202 243 300 366
#     4   9  17  31  55  87 118 150 193 246 299 351
#     4  12  25  42  62  87 124 164 202 247 308 370
#     4  12  25  42  65  93 124 159 206 257 302 352
#     4  11  22  39  64  92 121 156 205 256 299 354
#
# _framework density 21.331976999999998
#
# number of rings (size 3 to 8) (size 9 to 14) (size 15 to 20)
#    0.000    1.000    0.000    7.800    0.000    7.200 
#    0.000    0.000    0.000   12.000    0.000    0.000 
#    0.000    0.000    0.000    0.000    0.000    0.000 
#
# Total GULP energy -248161.711641 kJ/mol
# GULP energy per Si atom -12408.085582 kJ/mol
# Density = 2.128342 g / cm^3
# Si number density = 21.331977 Si / 1000 Ang^3
#
#
#
# Elastic Constant Matrix: (Units=GPa)
#
#
# Indices 1 2 3 4 5 6 
#
# 1 112.8870 16.1036 12.9614 0.0000 0.9023 0.0000
# 2 16.1036 73.3247 32.7078 0.0000 -11.4764 0.0000
# 3 12.9614 32.7078 97.3411 0.0000 -2.7547 0.0000
# 4 0.0000 0.0000 0.0000 13.9452 0.0000 13.8954
# 5 0.9023 -11.4764 -2.7547 0.0000 43.4721 0.0000
# 6 0.0000 0.0000 0.0000 13.8954 0.0000 7.1159
#
#
#
# Elastic Compliance Matrix: (Units=1/GPa)
#
#
# Indices 1 2 3 4 5 6 
#
# 1 0.009200 -0.001856 -0.000622 0.000000 -0.000720 0.000000
# 2 -0.001856 0.017105 -0.005381 0.000000 0.004213 0.000000
# 3 -0.000622 -0.005381 0.012146 0.000000 -0.000638 0.000000
# 4 0.000000 0.000000 0.000000 -0.075823 0.000000 0.148062
# 5 -0.000720 0.004213 -0.000638 0.000000 0.024090 0.000000
# 6 0.000000 0.000000 0.000000 0.148062 0.000000 -0.148593
#
#
# Mechanical properties :
#
#
# Convention : Reuss Voigt Hill
#
# Bulk Modulus (GPa) = 43.98748 45.23314 44.61031
# Shear Modulus (GPa) = -36.08080 27.69196 -4.19442
#
# Velocity S-wave (km/s) = -4.11712 3.60688 -1.40375
# Velocity P-wave (km/s) = 1.39129 6.21261 4.28141
#
# Compressibility (1/GPa) = 0.02273374
#
# Stress axis : x y z
#
# Youngs Moduli (GPa) = 108.69179 58.46092 82.33111
#
# Poissons Ratio (x) = 0.10850 0.05120
# Poissons Ratio (y) = 0.20173 0.44305
# Poissons Ratio (z) = 0.06759 0.31459
#
# Static dielectric constant tensor:
#      x y z
#    x 3.940050 0.000000 0.027080 
#    y 0.000000 3.811610 0.000000 
#    z 0.027080 0.000000 4.059760 
# 
# 
# High freq. dielectric constant tensor:
#      x y z
#    x 1.851500 0.000000 0.000420 
#    y 0.000000 1.824130 0.000000 
#    z 0.000420 0.000000 1.853000 
# 
# From -- ./inp_files/80924.got.cif
#   From: 2010.06.25/outbox.cif.g09.slc.cpg/sg10_41_cif.got.tgz:80924.got - 2010.06.27 22:07:45.
