data_PCOD8067165
_publ_section_title
;
Structure prediction by ZEFSAII (Michael W. Deem and Ramdas Pophale) SiO2 
 PCOD8067165
Probable space group: P 2/M
;
_chemical_formula_sum "Si O2"
_cell_formula_units_Z 24
_cell_length_a 22.461622
_cell_length_b 9.071246
_cell_length_c 10.662615
_cell_angle_alpha 90.000000
_cell_angle_beta 148.049494
_cell_angle_gamma 90.000000
_cell_volume 1149.689431
_symmetry_space_group_name_H-M "P 2/M"
_symmetry_group_IT_number 10
_symmetry_cell_setting 'monoclinic'
loop_
_space_group_symop_operation_xyz
x,y,z
-x,y,-z
-x,-y,-z
x,-y,z
loop_
_atom_site_type_symbol
_atom_site_label
_atom_site_fract_x
_atom_site_fract_y
_atom_site_fract_z
Si Si1 0.537983 0.328166 0.427839
Si Si2 0.186205 0.831573 0.572225
Si Si3 0.971724 0.662808 0.091466
Si Si4 0.877466 0.167814 0.268702
Si Si5 0.589130 0.671568 0.053457
Si Si6 0.232133 0.824820 0.175792
O O1 0.500000 0.276613 0.500000
O O2 0.568567 0.500000 0.485331
O O3 0.448082 0.294636 0.156737
O O4 0.645447 0.236616 0.576546
O O5 0.070757 0.750849 0.335391
O O6 0.198359 0.821406 0.743760
O O7 0.179353 0.000000 0.513121
O O8 0.295784 0.756581 0.708681
O O9 0.957385 0.500000 0.128115
O O10 0.000000 0.639273 0.000000
O O11 0.857184 0.757160 0.887376
O O12 0.000000 0.246694 0.500000
O O13 0.901673 0.000000 0.272203
O O14 0.805548 0.237557 0.027850
O O15 0.614574 0.500000 0.115654
O O16 0.500000 0.723254 0.000000
O O17 0.234976 0.000000 0.193436
#
# Coordination Sequence:
#
# PCOD8067165 Si02
#       6
#     4   4   4   4   4   4
#     4  10  22  41  63  88 123 166 211 254 299 363
#     4  11  22  39  65  92 121 154 199 253 300 356
#     4  11  25  42  60  85 122 165 203 243 303 369
#     4   9  17  34  57  86 124 156 183 232 304 361
#     4  10  23  42  62  85 120 165 204 247 309 366
#     4  11  22  38  64  93 123 157 200 253 307 360
#
# _framework density 20.875204
#
# number of rings (size 3 to 8) (size 9 to 14) (size 15 to 20)
#    0.000    1.667    1.667    2.500    2.333    2.667 
#    0.000    3.333    0.000    0.000    0.000    0.000 
#    0.000    0.000    0.000    0.000    0.000    0.000 
#
# Total GULP energy -297557.332942 kJ/mol
# GULP energy per Si atom -12398.222206 kJ/mol
# Density = 2.082769 g / cm^3
# Si number density = 20.875204 Si / 1000 Ang^3
#
#
#
# Elastic Constant Matrix: (Units=GPa)
#
#
# Indices 1 2 3 4 5 6 
#
# 1 88.1511 32.6486 17.4147 0.0000 15.9599 0.0000
# 2 32.6486 99.2281 48.3213 0.0000 20.9058 0.0000
# 3 17.4147 48.3213 71.5220 0.0000 25.1010 0.0000
# 4 0.0000 0.0000 0.0000 30.1863 0.0000 2.7737
# 5 15.9599 20.9058 25.1010 0.0000 43.7850 0.0000
# 6 0.0000 0.0000 0.0000 2.7737 0.0000 29.0789
#
#
#
# Elastic Compliance Matrix: (Units=1/GPa)
#
#
# Indices 1 2 3 4 5 6 
#
# 1 0.013293 -0.003974 0.000604 0.000000 -0.003294 0.000000
# 2 -0.003974 0.016308 -0.009797 0.000000 -0.000722 0.000000
# 3 0.000604 -0.009797 0.023647 0.000000 -0.009099 0.000000
# 4 0.000000 0.000000 0.000000 0.033421 0.000000 -0.003188
# 5 -0.003294 -0.000722 -0.009099 0.000000 0.029600 0.000000
# 6 0.000000 0.000000 0.000000 -0.003188 0.000000 0.034693
#
#
# Mechanical properties :
#
#
# Convention : Reuss Voigt Hill
#
# Bulk Modulus (GPa) = 37.15452 50.63005 43.89229
# Shear Modulus (GPa) = 26.84301 31.31112 29.07707
#
# Velocity S-wave (km/s) = 3.58981 3.87708 3.73621
# Velocity P-wave (km/s) = 5.91771 6.65948 6.29952
#
# Compressibility (1/GPa) = 0.02691462
#
# Stress axis : x y z
#
# Youngs Moduli (GPa) = 75.22708 61.31807 42.28859
#
# Poissons Ratio (x) = 0.24368 -0.02556
# Poissons Ratio (y) = 0.29895 0.41432
# Poissons Ratio (z) = -0.04547 0.60075
#
# Static dielectric constant tensor:
#      x y z
#    x 3.910760 0.000000 -0.152200 
#    y 0.000000 3.708570 0.000000 
#    z -0.152200 0.000000 3.836570 
# 
# 
# High freq. dielectric constant tensor:
#      x y z
#    x 1.822950 0.000000 0.001330 
#    y 0.000000 1.805480 0.000000 
#    z 0.001330 0.000000 1.820160 
# 
# From -- ./inp_files/56530.got.cif
#   From: 2010.06.25/outbox.cif.g09.slc.cpg/sg10_29_cif.got.tgz:56530.got - 2010.06.27 22:07:45.
