data_PCOD8067456
_publ_section_title
;
Structure prediction by ZEFSAII (Michael W. Deem and Ramdas Pophale) SiO2 
 PCOD8067456
Probable space group: P 2/M
;
_chemical_formula_sum "Si O2"
_cell_formula_units_Z 20
_cell_length_a 14.420559
_cell_length_b 8.830081
_cell_length_c 23.935800
_cell_angle_alpha 90.000000
_cell_angle_beta 20.285436
_cell_angle_gamma 90.000000
_cell_volume 1056.683955
_symmetry_space_group_name_H-M "P 2/M"
_symmetry_group_IT_number 10
_symmetry_cell_setting 'monoclinic'
loop_
_space_group_symop_operation_xyz
x,y,z
-x,y,-z
-x,-y,-z
x,-y,z
loop_
_atom_site_type_symbol
_atom_site_label
_atom_site_fract_x
_atom_site_fract_y
_atom_site_fract_z
Si Si1 0.544462 0.329109 0.739104
Si Si2 0.789204 0.821095 0.493798
Si Si3 0.813995 0.179715 0.976734
Si Si4 0.403611 0.180045 0.613877
Si Si5 0.677581 0.670743 0.784329
O O1 0.493127 0.500000 0.746582
O O2 0.663779 0.227843 0.623092
O O3 0.744930 0.330660 0.679494
O O4 0.265103 0.253750 0.918546
O O5 0.602754 0.760983 0.549227
O O6 0.081441 0.750144 0.319148
O O7 0.818097 0.000000 0.476890
O O8 0.106012 0.239500 0.794837
O O9 0.802298 0.000000 0.988277
O O10 0.601301 0.237060 0.049673
O O11 0.500000 0.246021 0.500000
O O12 0.403245 0.000000 0.612682
O O13 0.642886 0.500000 0.826545
#
# Coordination Sequence:
#
# PCOD8067456 Si02
#       5
#     4   4   4   4   4
#     4   9  19  33  52  78 114 144 166 208 265 316
#     4  11  20  31  55  84 106 137 179 216 256 312
#     4   9  17  33  57  79 104 138 176 215 258 312
#     4   9  20  38  56  77 106 137 175 225 270 305
#     4   9  19  34  52  78 113 144 168 208 264 316
#
# _framework density 18.927135
#
# number of rings (size 3 to 8) (size 9 to 14) (size 15 to 20)
#    1.200    1.400    0.000    2.400    0.000    3.200 
#    0.000    9.000    0.000   15.600    0.000    0.000 
#    0.000    0.000    0.000    0.000    0.000    0.000 
#
# Total GULP energy -247839.861600 kJ/mol
# GULP energy per Si atom -12391.993080 kJ/mol
# Density = 1.888406 g / cm^3
# Si number density = 18.927135 Si / 1000 Ang^3
#
#
#
# Elastic Constant Matrix: (Units=GPa)
#
#
# Indices 1 2 3 4 5 6 
#
# 1 78.3762 26.4591 61.0702 0.0000 -28.2769 0.0000
# 2 26.4591 81.3551 26.4761 0.0000 -15.2995 0.0000
# 3 61.0702 26.4761 88.4893 0.0000 -37.2566 0.0000
# 4 0.0000 0.0000 0.0000 6.9438 0.0000 -1.3628
# 5 -28.2769 -15.2995 -37.2566 0.0000 25.6758 0.0000
# 6 0.0000 0.0000 0.0000 -1.3628 0.0000 10.5669
#
#
#
# Elastic Compliance Matrix: (Units=1/GPa)
#
#
# Indices 1 2 3 4 5 6 
#
# 1 0.028683 -0.002848 -0.016341 0.000000 0.006180 0.000000
# 2 -0.002848 0.014228 -0.000109 0.000000 0.005183 0.000000
# 3 -0.016341 -0.000109 0.038571 0.000000 0.037906 0.000000
# 4 0.000000 0.000000 0.000000 0.147752 0.000000 0.019055
# 5 0.006180 0.005183 0.037906 0.000000 0.103844 0.000000
# 6 0.000000 0.000000 0.000000 0.019055 0.000000 0.097093
#
#
# Mechanical properties :
#
#
# Convention : Reuss Voigt Hill
#
# Bulk Modulus (GPa) = 23.31850 52.91461 38.11656
# Shear Modulus (GPa) = 10.35059 17.58497 13.96778
#
# Velocity S-wave (km/s) = 2.34105 3.05140 2.71952
# Velocity P-wave (km/s) = 4.43331 6.35865 5.48118
#
# Compressibility (1/GPa) = 0.04288440
#
# Stress axis : x y z
#
# Youngs Moduli (GPa) = 34.86351 70.28193 25.92631
#
# Poissons Ratio (x) = 0.20019 0.42367
# Poissons Ratio (y) = 0.09930 0.00283
# Poissons Ratio (z) = 0.56972 0.00767
#
# Static dielectric constant tensor:
#      x y z
#    x 3.319450 0.000000 -0.152510 
#    y 0.000000 3.287790 0.000000 
#    z -0.152510 0.000000 3.428250 
# 
# 
# High freq. dielectric constant tensor:
#      x y z
#    x 1.708700 0.000000 -0.014790 
#    y 0.000000 1.730010 0.000000 
#    z -0.014790 0.000000 1.730250 
# 
# From -- ./inp_files/58057.got.cif
#   From: 2010.06.25/outbox.cif.g09.slc.cpg/sg10_30_cif.got.tgz:58057.got - 2010.06.27 22:07:45.
