data_PCOD8067628
_publ_section_title
;
Structure prediction by ZEFSAII (Michael W. Deem and Ramdas Pophale) SiO2 
 PCOD8067628
Probable space group: P 2/M
;
_chemical_formula_sum "Si O2"
_cell_formula_units_Z 28
_cell_length_a 10.233915
_cell_length_b 8.700297
_cell_length_c 30.123884
_cell_angle_alpha 90.000000
_cell_angle_beta 146.847770
_cell_angle_gamma 90.000000
_cell_volume 1466.787790
_symmetry_space_group_name_H-M "P 2/M"
_symmetry_group_IT_number 10
_symmetry_cell_setting 'monoclinic'
loop_
_space_group_symop_operation_xyz
x,y,z
-x,y,-z
-x,-y,-z
x,-y,z
loop_
_atom_site_type_symbol
_atom_site_label
_atom_site_fract_x
_atom_site_fract_y
_atom_site_fract_z
Si Si1 0.633438 0.319534 0.763409
Si Si2 0.918449 0.319729 0.256787
Si Si3 0.363560 0.180296 0.332546
Si Si4 0.127296 0.821518 0.913935
Si Si5 0.877169 0.180118 0.508675
Si Si6 0.179688 0.817428 0.676891
Si Si7 0.596738 0.178239 0.097126
O O1 0.591105 0.500000 0.751953
O O2 0.598938 0.256994 0.704251
O O3 0.446204 0.239379 0.742869
O O4 0.895980 0.281505 0.856865
O O5 0.952584 0.500000 0.268934
O O6 0.914597 0.251699 0.304462
O O7 0.673977 0.278914 0.161320
O O8 0.136819 0.246595 0.292617
O O9 0.595134 0.215766 0.428624
O O10 0.327725 0.000000 0.314398
O O11 0.226570 0.785839 0.893280
O O12 0.058842 0.000000 0.898318
O O13 0.326636 0.777274 0.007052
O O14 0.000000 0.254902 0.500000
O O15 0.000149 0.246745 0.587874
O O16 0.928143 0.000000 0.522239
O O17 0.177270 0.000000 0.679609
O O18 0.611771 0.000000 0.114338
#
# Coordination Sequence:
#
# PCOD8067628 Si02
#       7
#     4   4   4   4   4   4   4
#     4  12  23  36  57  92 126 155 193 242 299 354
#     4  12  25  40  57  88 128 159 193 242 302 357
#     4  11  21  38  64  88 116 156 204 247 288 349
#     4   9  18  34  60  90 117 151 200 248 286 341
#     4   9  18  36  63  92 113 144 202 257 290 334
#     4  11  23  42  65  85 115 160 203 244 295 355
#     4   9  18  35  60  88 117 154 200 244 289 343
#
# _framework density 19.089331999999999
#
# number of rings (size 3 to 8) (size 9 to 14) (size 15 to 20)
#    0.000    1.571    2.857    4.286    0.000    1.143 
#    0.000    8.571    0.000    4.286    0.000    0.000 
#    0.000    0.000    0.000    0.000    0.000    0.000 
#
# Total GULP energy -347268.883890 kJ/mol
# GULP energy per Si atom -12402.460139 kJ/mol
# Density = 1.904588 g / cm^3
# Si number density = 19.089332 Si / 1000 Ang^3
#
#
#
# Elastic Constant Matrix: (Units=GPa)
#
#
# Indices 1 2 3 4 5 6 
#
# 1 58.2615 20.4801 19.5102 0.0000 -9.5475 0.0000
# 2 20.4801 98.9026 33.2483 0.0000 -0.5052 0.0000
# 3 19.5102 33.2483 110.8717 0.0000 -5.6810 0.0000
# 4 0.0000 0.0000 0.0000 6.6107 0.0000 -12.3675
# 5 -9.5475 -0.5052 -5.6810 0.0000 30.2298 0.0000
# 6 0.0000 0.0000 0.0000 -12.3675 0.0000 45.7720
#
#
#
# Elastic Compliance Matrix: (Units=1/GPa)
#
#
# Indices 1 2 3 4 5 6 
#
# 1 0.020054 -0.003378 -0.002216 0.000000 0.005861 0.000000
# 2 -0.003378 0.011820 -0.003024 0.000000 -0.001438 0.000000
# 3 -0.002216 -0.003024 0.010378 0.000000 0.001200 0.000000
# 4 0.000000 0.000000 0.000000 0.305899 0.000000 0.082654
# 5 0.005861 -0.001438 0.001200 0.000000 0.035132 0.000000
# 6 0.000000 0.000000 0.000000 0.082654 0.000000 0.044180
#
#
# Mechanical properties :
#
#
# Convention : Reuss Voigt Hill
#
# Bulk Modulus (GPa) = 39.97362 46.05700 43.01531
# Shear Modulus (GPa) = 11.03665 29.50899 20.27282
#
# Velocity S-wave (km/s) = 2.40710 3.93598 3.26237
# Velocity P-wave (km/s) = 5.35829 6.69592 6.06410
#
# Compressibility (1/GPa) = 0.02501650
#
# Stress axis : x y z
#
# Youngs Moduli (GPa) = 49.86605 84.60554 96.36173
#
# Poissons Ratio (x) = 0.28578 0.21350
# Poissons Ratio (y) = 0.16844 0.29137
# Poissons Ratio (z) = 0.11049 0.25582
#
# Static dielectric constant tensor:
#      x y z
#    x 3.396370 0.000000 -0.002180 
#    y 0.000000 3.388560 0.000000 
#    z -0.002180 0.000000 3.793660 
# 
# 
# High freq. dielectric constant tensor:
#      x y z
#    x 1.728120 0.000000 0.006020 
#    y 0.000000 1.730590 0.000000 
#    z 0.006020 0.000000 1.759750 
# 
# From -- ./inp_files/92088.got.cif
#   From: 2010.06.25/outbox.cif.g09.slc.cpg/sg10_47_cif.got.tgz:92088.got - 2010.06.27 22:07:45.
