data_PCOD8067549
_publ_section_title
;
Structure prediction by ZEFSAII (Michael W. Deem and Ramdas Pophale) SiO2 
 PCOD8067549
Probable space group: P 2/M
;
_chemical_formula_sum "Si O2"
_cell_formula_units_Z 24
_cell_length_a 17.099329
_cell_length_b 13.344552
_cell_length_c 13.339433
_cell_angle_alpha 90.000000
_cell_angle_beta 25.102143
_cell_angle_gamma 90.000000
_cell_volume 1291.294154
_symmetry_space_group_name_H-M "P 2/M"
_symmetry_group_IT_number 10
_symmetry_cell_setting 'monoclinic'
loop_
_space_group_symop_operation_xyz
x,y,z
-x,y,-z
-x,-y,-z
x,-y,z
loop_
_atom_site_type_symbol
_atom_site_label
_atom_site_fract_x
_atom_site_fract_y
_atom_site_fract_z
Si Si1 0.438339 0.383914 0.685000
Si Si2 0.700660 0.241698 0.494988
Si Si3 0.896294 0.241690 0.908059
Si Si4 0.399397 0.888565 0.215058
Si Si5 0.705999 0.117375 0.294001
Si Si6 0.986144 0.888565 0.628313
O O1 0.500000 0.364799 0.500000
O O2 0.423909 0.500000 0.728228
O O3 0.591108 0.337112 0.580868
O O4 0.236935 0.337103 0.935039
O O5 0.568965 0.186601 0.729147
O O6 0.745999 0.162439 0.355919
O O7 0.893575 0.278996 0.319295
O O8 0.867064 0.186599 0.834822
O O9 0.847924 0.162430 0.050158
O O10 0.183797 0.897253 0.448604
O O11 0.479660 0.000000 0.145978
O O12 0.500000 0.844383 0.000000
O O13 0.500000 0.145806 0.500000
O O14 0.739980 0.000000 0.260039
O O15 0.000000 0.844385 0.500000
O O16 0.894703 0.000000 0.730923
#
# Coordination Sequence:
#
# PCOD8067549 Si02
#       6
#     4   4   4   4   4   4
#     4  11  24  42  60  84 112 140 192 249 294 343
#     4  11  21  37  58  83 113 149 189 229 285 339
#     4  11  21  37  58  83 113 149 189 229 285 339
#     4   9  19  33  52  83 117 151 187 222 266 330
#     4  11  21  33  53  83 119 154 185 220 272 340
#     4   9  19  33  52  83 117 151 187 222 266 330
#
# _framework density 18.586005
#
# number of rings (size 3 to 8) (size 9 to 14) (size 15 to 20)
#    0.000    1.667    3.333    1.500    2.333    3.333 
#    0.000    1.667    0.000    1.000    0.000    0.000 
#    0.000    0.000    0.000    0.000    0.000    0.000 
#
# Total GULP energy -297635.358000 kJ/mol
# GULP energy per Si atom -12401.473250 kJ/mol
# Density = 1.854370 g / cm^3
# Si number density = 18.586005 Si / 1000 Ang^3
#
#
#
# Elastic Constant Matrix: (Units=GPa)
#
#
# Indices 1 2 3 4 5 6 
#
# 1 101.8585 59.7494 47.1507 0.0000 19.1458 0.0000
# 2 59.7494 127.9286 57.7203 0.0000 12.3202 0.0000
# 3 47.1507 57.7203 96.1124 0.0000 15.6854 0.0000
# 4 0.0000 0.0000 0.0000 15.2603 0.0000 1.0076
# 5 19.1458 12.3202 15.6854 0.0000 46.7088 0.0000
# 6 0.0000 0.0000 0.0000 1.0076 0.0000 15.4358
#
#
#
# Elastic Compliance Matrix: (Units=1/GPa)
#
#
# Indices 1 2 3 4 5 6 
#
# 1 0.015234 -0.005022 -0.003867 0.000000 -0.003621 0.000000
# 2 -0.005022 0.012399 -0.005063 0.000000 0.000488 0.000000
# 3 -0.003867 -0.005063 0.015727 0.000000 -0.002361 0.000000
# 4 0.000000 0.000000 0.000000 0.065813 0.000000 -0.004296
# 5 -0.003621 0.000488 -0.002361 0.000000 0.023558 0.000000
# 6 0.000000 0.000000 0.000000 -0.004296 0.000000 0.065065
#
#
# Mechanical properties :
#
#
# Convention : Reuss Voigt Hill
#
# Bulk Modulus (GPa) = 64.68930 72.79337 68.74133
# Shear Modulus (GPa) = 21.65904 26.23293 23.94598
#
# Velocity S-wave (km/s) = 3.41741 3.76098 3.59331
# Velocity P-wave (km/s) = 7.10300 7.62304 7.36761
#
# Compressibility (1/GPa) = 0.01545851
#
# Stress axis : x y z
#
# Youngs Moduli (GPa) = 65.64390 80.64886 63.58483
#
# Poissons Ratio (x) = 0.40499 0.24586
# Poissons Ratio (y) = 0.32964 0.32190
# Poissons Ratio (z) = 0.25382 0.40829
#
# Static dielectric constant tensor:
#      x y z
#    x 3.503990 0.000000 0.087720 
#    y 0.000000 3.249370 0.000000 
#    z 0.087720 0.000000 3.489460 
# 
# 
# High freq. dielectric constant tensor:
#      x y z
#    x 1.727960 0.000000 -0.000550 
#    y 0.000000 1.691350 0.000000 
#    z -0.000550 0.000000 1.728040 
# 
# From -- ./inp_files/51523.got.cif
#   From: 2010.06.25/outbox.cif.g09.slc.cpg/sg10_26_cif.got.tgz:51523.got - 2010.06.27 22:07:45.
