data_PCOD8067289
_publ_section_title
;
Structure prediction by ZEFSAII (Michael W. Deem and Ramdas Pophale) SiO2 
 PCOD8067289
Probable space group: P 2/M
;
_chemical_formula_sum "Si O2"
_cell_formula_units_Z 24
_cell_length_a 14.673565
_cell_length_b 8.792092
_cell_length_c 9.339968
_cell_angle_alpha 90.000000
_cell_angle_beta 98.039993
_cell_angle_gamma 90.000000
_cell_volume 1193.117776
_symmetry_space_group_name_H-M "P 2/M"
_symmetry_group_IT_number 10
_symmetry_cell_setting 'monoclinic'
loop_
_space_group_symop_operation_xyz
x,y,z
-x,y,-z
-x,-y,-z
x,-y,z
loop_
_atom_site_type_symbol
_atom_site_label
_atom_site_fract_x
_atom_site_fract_y
_atom_site_fract_z
Si Si1 0.249739 0.322861 0.050417
Si Si2 0.924873 0.831587 0.104380
Si Si3 0.762150 0.179644 0.648474
Si Si4 0.955996 0.330931 0.643830
Si Si5 0.413689 0.820243 0.572297
Si Si6 0.415663 0.678621 0.884914
O O1 0.256789 0.500000 0.090337
O O2 0.265449 0.227252 0.197455
O O3 0.151613 0.287618 0.959971
O O4 0.324144 0.274238 0.949179
O O5 0.973853 0.774776 0.256851
O O6 0.882510 0.000000 0.122354
O O7 0.000000 0.842276 0.000000
O O8 0.854734 0.259863 0.616057
O O9 0.680682 0.231628 0.524662
O O10 0.777915 0.000000 0.649323
O O11 0.948243 0.500000 0.710991
O O12 0.000000 0.344114 0.500000
O O13 0.500000 0.756128 0.500000
O O14 0.417344 0.757767 0.732569
O O15 0.419460 0.000000 0.581928
O O16 0.421866 0.500000 0.859155
O O17 0.500000 0.736547 0.000000
#
# Coordination Sequence:
#
# PCOD8067289 Si02
#       6
#     4   4   4   4   4   4
#     4  11  23  39  63  92 123 161 205 254 304 360
#     4  11  23  40  63  91 122 162 207 251 303 361
#     4  11  23  40  62  91 123 161 206 251 304 364
#     4  11  25  42  62  89 123 163 206 253 305 362
#     4  10  23  42  64  92 125 161 202 248 302 364
#     4  10  23  42  64  93 125 158 202 250 302 363
#
# _framework density 20.115366000000002
#
# number of rings (size 3 to 8) (size 9 to 14) (size 15 to 20)
#    0.000    1.333    1.667    3.000    2.333    5.333 
#    0.000    0.000    0.000    0.000    0.000    0.000 
#    0.000    0.000    0.000    0.000    0.000    0.000 
#
# Total GULP energy -297681.743612 kJ/mol
# GULP energy per Si atom -12403.405984 kJ/mol
# Density = 2.006958 g / cm^3
# Si number density = 20.115366 Si / 1000 Ang^3
#
#
#
# Elastic Constant Matrix: (Units=GPa)
#
#
# Indices 1 2 3 4 5 6 
#
# 1 117.7716 34.2414 69.9376 0.0000 4.3954 0.0000
# 2 34.2414 55.1542 24.6020 0.0000 -2.0294 0.0000
# 3 69.9376 24.6020 135.2787 0.0000 8.2008 0.0000
# 4 0.0000 0.0000 0.0000 42.8090 0.0000 -2.3424
# 5 4.3954 -2.0294 8.2008 0.0000 38.0940 0.0000
# 6 0.0000 0.0000 0.0000 -2.3424 0.0000 27.8821
#
#
#
# Elastic Compliance Matrix: (Units=1/GPa)
#
#
# Indices 1 2 3 4 5 6 
#
# 1 0.013812 -0.005908 -0.006029 0.000000 -0.000610 0.000000
# 2 -0.005908 0.022388 -0.001146 0.000000 0.002121 0.000000
# 3 -0.006029 -0.001146 0.010820 0.000000 -0.001695 0.000000
# 4 0.000000 0.000000 0.000000 0.023467 0.000000 0.001972
# 5 -0.000610 0.002121 -0.001695 0.000000 0.026799 0.000000
# 6 0.000000 0.000000 0.000000 0.001972 0.000000 0.036031
#
#
# Mechanical properties :
#
#
# Convention : Reuss Voigt Hill
#
# Bulk Modulus (GPa) = 47.95152 62.86292 55.40722
# Shear Modulus (GPa) = 30.04183 33.71859 31.88021
#
# Velocity S-wave (km/s) = 3.86875 4.09866 3.98536
# Velocity P-wave (km/s) = 6.62165 7.32924 6.98441
#
# Compressibility (1/GPa) = 0.02085440
#
# Stress axis : x y z
#
# Youngs Moduli (GPa) = 72.40166 44.66695 92.41928
#
# Poissons Ratio (x) = 0.26389 0.55721
# Poissons Ratio (y) = 0.42774 0.10589
# Poissons Ratio (z) = 0.43652 0.05118
#
# Static dielectric constant tensor:
#      x y z
#    x 3.861820 0.000000 0.019980 
#    y 0.000000 3.843010 0.000000 
#    z 0.019980 0.000000 3.605690 
# 
# 
# High freq. dielectric constant tensor:
#      x y z
#    x 1.799010 0.000000 0.001430 
#    y 0.000000 1.791530 0.000000 
#    z 0.001430 0.000000 1.795210 
# 
# From -- ./inp_files/27071.got.cif
#   From: 2010.06.25/outbox.cif.g09.slc.cpg/sg10_14_cif.got.tgz:27071.got - 2010.06.27 22:07:45.
