data_PCOD8067193
_publ_section_title
;
Structure prediction by ZEFSAII (Michael W. Deem and Ramdas Pophale) SiO2 
 PCOD8067193
Probable space group: P 2/M
;
_chemical_formula_sum "Si O2"
_cell_formula_units_Z 24
_cell_length_a 11.370176
_cell_length_b 10.339154
_cell_length_c 9.076028
_cell_angle_alpha 90.000000
_cell_angle_beta 90.595056
_cell_angle_gamma 90.000000
_cell_volume 1066.902164
_symmetry_space_group_name_H-M "P 2/M"
_symmetry_group_IT_number 10
_symmetry_cell_setting 'monoclinic'
loop_
_space_group_symop_operation_xyz
x,y,z
-x,y,-z
-x,-y,-z
x,-y,z
loop_
_atom_site_type_symbol
_atom_site_label
_atom_site_fract_x
_atom_site_fract_y
_atom_site_fract_z
Si Si1 0.127434 0.146060 0.976154
Si Si2 0.253715 0.719927 0.748340
Si Si3 0.161576 0.500000 0.932879
Si Si4 0.124894 0.262088 0.453612
Si Si5 0.707291 0.149757 0.763927
Si Si6 0.917666 0.500000 0.759959
Si Si7 0.494203 0.654392 0.175098
O O1 0.184767 0.154196 0.812297
O O2 0.102833 0.000000 0.016788
O O3 0.219559 0.198712 0.095300
O O4 0.000000 0.219228 0.000000
O O5 0.231317 0.623521 0.882356
O O6 0.196324 0.679776 0.593288
O O7 0.394180 0.720346 0.740679
O O8 0.036755 0.500000 0.853073
O O9 0.176864 0.500000 0.109970
O O10 0.208319 0.155791 0.378670
O O11 0.094399 0.376249 0.342073
O O12 0.000000 0.198892 0.500000
O O13 0.605968 0.257646 0.750803
O O14 0.661321 0.000000 0.777021
O O15 0.481380 0.500000 0.211986
O O16 0.500000 0.676884 0.000000
#
# Coordination Sequence:
#
# PCOD8067193 Si02
#       7
#     4   4   2   4   4   2   4
#     4  10  22  41  66  98 133 175 232 284 341 415
#     4  12  23  41  68 100 135 181 229 282 349 411
#     4  11  23  40  67 100 140 182 234 277 346 413
#     4  12  25  42  67 105 146 176 220 286 361 424
#     4  11  26  47  70  98 137 187 235 287 349 414
#     4  11  24  39  67 102 145 186 219 288 350 423
#     4  11  25  45  71 102 136 181 240 297 340 401
#
# _framework density 22.495032999999999
#
# number of rings (size 3 to 8) (size 9 to 14) (size 15 to 20)
#    0.000    0.833    4.167    2.750    3.500    2.667 
#    0.000    1.667    0.000    0.000    0.000    0.000 
#    0.000    0.000    0.000    0.000    0.000    0.000 
#
# Total GULP energy -297358.146159 kJ/mol
# GULP energy per Si atom -12389.922757 kJ/mol
# Density = 2.244383 g / cm^3
# Si number density = 22.495033 Si / 1000 Ang^3
#
#
#
# Elastic Constant Matrix: (Units=GPa)
#
#
# Indices 1 2 3 4 5 6 
#
# 1 164.3677 49.9762 55.8911 0.0000 4.0626 0.0000
# 2 49.9762 77.4599 25.2754 0.0000 -7.2330 0.0000
# 3 55.8911 25.2754 124.1670 0.0000 -0.0171 0.0000
# 4 0.0000 0.0000 0.0000 22.0365 0.0000 -9.9014
# 5 4.0626 -7.2330 -0.0171 0.0000 37.4752 0.0000
# 6 0.0000 0.0000 0.0000 -9.9014 0.0000 24.6161
#
#
#
# Elastic Compliance Matrix: (Units=1/GPa)
#
#
# Indices 1 2 3 4 5 6 
#
# 1 0.008555 -0.004751 -0.002884 0.000000 -0.001846 0.000000
# 2 -0.004751 0.016739 -0.001268 0.000000 0.003745 0.000000
# 3 -0.002884 -0.001268 0.009610 0.000000 0.000072 0.000000
# 4 0.000000 0.000000 0.000000 0.055390 0.000000 0.022280
# 5 -0.001846 0.003745 0.000072 0.000000 0.027607 0.000000
# 6 0.000000 0.000000 0.000000 0.022280 0.000000 0.049585
#
#
# Mechanical properties :
#
#
# Convention : Reuss Voigt Hill
#
# Bulk Modulus (GPa) = 58.48868 69.80888 64.14878
# Shear Modulus (GPa) = 26.17931 32.48235 29.33083
#
# Velocity S-wave (km/s) = 3.41513 3.80409 3.61485
# Velocity P-wave (km/s) = 6.45042 7.09896 6.78245
#
# Compressibility (1/GPa) = 0.01709733
#
# Stress axis : x y z
#
# Youngs Moduli (GPa) = 116.89616 59.74233 104.05845
#
# Poissons Ratio (x) = 0.28381 0.30009
# Poissons Ratio (y) = 0.55533 0.13199
# Poissons Ratio (z) = 0.33711 0.07578
#
# Static dielectric constant tensor:
#      x y z
#    x 4.797710 0.000000 -0.145620 
#    y 0.000000 3.736030 0.000000 
#    z -0.145620 0.000000 4.170580 
# 
# 
# High freq. dielectric constant tensor:
#      x y z
#    x 1.897280 0.000000 0.001560 
#    y 0.000000 1.876410 0.000000 
#    z 0.001560 0.000000 1.885580 
# 
# From -- ./inp_files/24084.got.cif
#   From: 2010.06.25/outbox.cif.g09.slc.cpg/sg10_13_cif.got.tgz:24084.got - 2010.06.27 22:07:45.
