data_PCOD8067072
_publ_section_title
;
Structure prediction by ZEFSAII (Michael W. Deem and Ramdas Pophale) SiO2 
 PCOD8067072
Probable space group: P 2/M
;
_chemical_formula_sum "Si O2"
_cell_formula_units_Z 32
_cell_length_a 16.080062
_cell_length_b 12.009676
_cell_length_c 13.840187
_cell_angle_alpha 90.000000
_cell_angle_beta 143.983411
_cell_angle_gamma 90.000000
_cell_volume 1571.638541
_symmetry_space_group_name_H-M "P 2/M"
_symmetry_group_IT_number 10
_symmetry_cell_setting 'monoclinic'
loop_
_space_group_symop_operation_xyz
x,y,z
-x,y,-z
-x,-y,-z
x,-y,z
loop_
_atom_site_type_symbol
_atom_site_label
_atom_site_fract_x
_atom_site_fract_y
_atom_site_fract_z
Si Si1 0.349397 0.372369 0.740719
Si Si2 0.342473 0.622499 0.021009
Si Si3 0.838419 0.376171 0.823081
Si Si4 0.028557 0.868544 0.738653
Si Si5 0.861441 0.288401 0.314417
Si Si6 0.237299 0.728969 0.448970
Si Si7 0.253799 0.214778 0.096413
Si Si8 0.476454 0.124310 0.582875
O O1 0.317644 0.500000 0.744391
O O2 0.517068 0.347080 0.908797
O O3 0.265451 0.281242 0.726752
O O4 0.296549 0.359815 0.581152
O O5 0.359031 0.500000 0.079179
O O6 0.333693 0.700383 0.103325
O O7 0.198151 0.627279 0.822540
O O8 0.768109 0.500000 0.770326
O O9 0.824544 0.338276 0.699313
O O10 0.777324 0.280290 0.834204
O O11 0.000000 0.389035 0.000000
O O12 0.104083 0.827270 0.709672
O O13 0.881002 0.805335 0.611477
O O14 0.004024 0.000000 0.706680
O O15 0.118642 0.841403 0.919455
O O16 0.000000 0.334949 0.500000
O O17 0.366446 0.806324 0.540732
O O18 0.368901 0.118972 0.222823
O O19 0.500000 0.179571 0.500000
O O20 0.415451 0.000000 0.515644
#
# Coordination Sequence:
#
# PCOD8067072 Si02
#       8
#     4   4   4   4   4   4   4   4
#     4  11  23  41  63  91 127 165 200 248 313 376
#     4  10  22  39  64  91 125 165 200 245 307 376
#     4  11  23  39  61  93 133 171 205 251 309 364
#     4  11  25  44  66  89 119 163 212 259 312 364
#     4  11  23  42  63  93 121 153 201 261 307 369
#     4  12  22  43  61  94 125 165 211 258 302 369
#     4  11  21  42  63  91 128 162 210 252 304 366
#     4  11  23  39  63  90 124 166 209 262 309 352
#
# _framework density 20.360917000000001
#
# number of rings (size 3 to 8) (size 9 to 14) (size 15 to 20)
#    0.000    1.000    5.000    2.250    0.000    2.250 
#    0.000    1.250    0.000    1.500    0.000    0.000 
#    0.000    0.000    0.000    0.000    0.000    0.000 
#
# Total GULP energy -396614.978668 kJ/mol
# GULP energy per Si atom -12394.218083 kJ/mol
# Density = 2.031458 g / cm^3
# Si number density = 20.360917 Si / 1000 Ang^3
#
#
#
# Elastic Constant Matrix: (Units=GPa)
#
#
# Indices 1 2 3 4 5 6 
#
# 1 84.0882 36.2718 16.1571 0.0000 -3.5517 0.0000
# 2 36.2718 83.7795 27.3976 0.0000 5.6227 0.0000
# 3 16.1571 27.3976 100.3218 0.0000 4.9893 0.0000
# 4 0.0000 0.0000 0.0000 26.7420 0.0000 -6.1319
# 5 -3.5517 5.6227 4.9893 0.0000 34.4618 0.0000
# 6 0.0000 0.0000 0.0000 -6.1319 0.0000 -95.0494
#
#
#
# Elastic Compliance Matrix: (Units=1/GPa)
#
#
# Indices 1 2 3 4 5 6 
#
# 1 0.014909 -0.006376 -0.000794 0.000000 0.002692 0.000000
# 2 -0.006376 0.015925 -0.003183 0.000000 -0.002795 0.000000
# 3 -0.000794 -0.003183 0.011023 0.000000 -0.001158 0.000000
# 4 0.000000 0.000000 0.000000 0.036849 0.000000 -0.002377
# 5 0.002692 -0.002795 -0.001158 0.000000 0.029919 0.000000
# 6 0.000000 0.000000 0.000000 -0.002377 0.000000 -0.010367
#
#
# Mechanical properties :
#
#
# Convention : Reuss Voigt Hill
#
# Bulk Modulus (GPa) = 47.27931 47.53806 47.40868
# Shear Modulus (GPa) = 39.67862 5.78841 22.73352
#
# Velocity S-wave (km/s) = 4.41927 1.68792 3.34507
# Velocity P-wave (km/s) = 7.02218 5.21509 6.18499
#
# Compressibility (1/GPa) = 0.02115090
#
# Stress axis : x y z
#
# Youngs Moduli (GPa) = 67.07514 62.79462 90.72180
#
# Poissons Ratio (x) = 0.40036 0.07201
# Poissons Ratio (y) = 0.42765 0.28879
# Poissons Ratio (z) = 0.05324 0.19989
#
# Static dielectric constant tensor:
#      x y z
#    x 3.845360 0.000000 -0.058530 
#    y 0.000000 3.516900 0.000000 
#    z -0.058530 0.000000 3.906820 
# 
# 
# High freq. dielectric constant tensor:
#      x y z
#    x 1.801420 0.000000 -0.003950 
#    y 0.000000 1.777760 0.000000 
#    z -0.003950 0.000000 1.813990 
# 
# From -- ./inp_files/61229.got.cif
#   From: 2010.06.25/outbox.cif.g09.slc.cpg/sg10_31_cif.got.tgz:61229.got - 2010.06.27 22:07:45.
