data_PCOD8067828
_publ_section_title
;
Structure prediction by ZEFSAII (Michael W. Deem and Ramdas Pophale) SiO2 
 PCOD8067828
Probable space group: P 2/M
;
_chemical_formula_sum "Si O2"
_cell_formula_units_Z 24
_cell_length_a 21.769255
_cell_length_b 7.634562
_cell_length_c 8.834619
_cell_angle_alpha 90.000000
_cell_angle_beta 127.498928
_cell_angle_gamma 90.000000
_cell_volume 1164.899362
_symmetry_space_group_name_H-M "P 2/M"
_symmetry_group_IT_number 10
_symmetry_cell_setting 'monoclinic'
loop_
_space_group_symop_operation_xyz
x,y,z
-x,y,-z
-x,-y,-z
x,-y,z
loop_
_atom_site_type_symbol
_atom_site_label
_atom_site_fract_x
_atom_site_fract_y
_atom_site_fract_z
Si Si1 0.679566 0.302699 0.846107
Si Si2 0.416226 0.000000 0.802438
Si Si3 0.320435 0.697301 0.807410
Si Si4 0.166941 0.207535 0.426551
Si Si5 0.000000 0.795318 0.174882
Si Si6 0.416226 0.000000 0.446237
Si Si7 0.166940 0.792464 0.074267
O O1 0.647226 0.500000 0.779814
O O2 0.629055 0.174285 0.668440
O O3 0.768542 0.302817 0.927468
O O4 0.674517 0.239929 0.011775
O O5 0.370946 0.825714 0.781278
O O6 0.425235 0.000000 0.637851
O O7 0.500000 0.000000 0.000000
O O8 0.352776 0.500000 0.838139
O O9 0.231459 0.697180 0.621841
O O10 0.082396 0.275549 0.362647
O O11 0.177285 0.257331 0.265926
O O12 0.175196 0.000000 0.459444
O O13 0.999999 0.000000 0.201108
O O14 0.000000 0.749470 0.000000
O O15 0.917605 0.724448 0.115463
O O16 0.500000 0.000000 0.500000
O O17 0.175193 0.000000 0.066139
#
# Coordination Sequence:
#
# PCOD8067828 Si02
#       7
#     4   2   4   4   4   2   4
#     4  11  24  41  62  91 128 166 202 245 298 359
#     4  12  26  46  72  97 122 155 194 244 301 360
#     4  11  24  41  62  91 128 166 202 245 298 359
#     4   9  16  30  55  85 117 159 207 256 304 353
#     4   7  12  24  46  79 116 153 202 255 302 351
#     4  12  26  46  72  97 122 155 194 244 301 360
#     4   9  16  30  55  85 117 159 207 256 304 353
#
# _framework density 20.602637999999999
#
# number of rings (size 3 to 8) (size 9 to 14) (size 15 to 20)
#    0.000    2.167    1.667    4.500    0.000    3.333 
#    0.000    1.667    0.000    8.000    0.000    0.000 
#    0.000    0.000    0.000    0.000    0.000    0.000 
#
# Total GULP energy -297402.949633 kJ/mol
# GULP energy per Si atom -12391.789568 kJ/mol
# Density = 2.055575 g / cm^3
# Si number density = 20.602638 Si / 1000 Ang^3
#
#
#
# Elastic Constant Matrix: (Units=GPa)
#
#
# Indices 1 2 3 4 5 6 
#
# 1 135.2484 42.5146 64.7892 0.0000 11.6795 0.0000
# 2 42.5146 82.7999 42.3964 0.0000 0.3365 0.0000
# 3 64.7892 42.3964 128.0541 0.0000 8.7176 0.0000
# 4 0.0000 0.0000 0.0000 5.2347 0.0000 -5.9634
# 5 11.6795 0.3365 8.7176 0.0000 41.5734 0.0000
# 6 0.0000 0.0000 0.0000 -5.9634 0.0000 3.1336
#
#
#
# Elastic Compliance Matrix: (Units=1/GPa)
#
#
# Indices 1 2 3 4 5 6 
#
# 1 0.010590 -0.003321 -0.004116 0.000000 -0.002085 0.000000
# 2 -0.003321 0.015618 -0.003597 0.000000 0.001561 0.000000
# 3 -0.004116 -0.003597 0.011161 0.000000 -0.001155 0.000000
# 4 0.000000 0.000000 0.000000 -0.163557 0.000000 -0.311259
# 5 -0.002085 0.001561 -0.001155 0.000000 0.024869 0.000000
# 6 0.000000 0.000000 0.000000 -0.311259 0.000000 -0.273222
#
#
# Mechanical properties :
#
#
# Convention : Reuss Voigt Hill
#
# Bulk Modulus (GPa) = 65.35774 71.72254 68.54014
# Shear Modulus (GPa) = -14.39379 23.08181 4.34401
#
# Velocity S-wave (km/s) = -2.64604 3.35077 1.45363
# Velocity P-wave (km/s) = 4.73883 7.06103 6.01309
#
# Compressibility (1/GPa) = 0.01530041
#
# Stress axis : x y z
#
# Youngs Moduli (GPa) = 94.43078 64.02897 89.59529
#
# Poissons Ratio (x) = 0.21266 0.36881
# Poissons Ratio (y) = 0.31363 0.32225
# Poissons Ratio (z) = 0.38871 0.23029
#
# Static dielectric constant tensor:
#      x y z
#    x 3.941160 0.000000 0.354050 
#    y 0.000000 3.544040 0.000000 
#    z 0.354050 0.000000 3.816380 
# 
# 
# High freq. dielectric constant tensor:
#      x y z
#    x 1.803820 0.000000 0.020490 
#    y 0.000000 1.795210 0.000000 
#    z 0.020490 0.000000 1.796600 
# 
# From -- ./inp_files/34025.got.cif
#   From: 2010.06.25/outbox.cif.g09.slc.cpg/sg10_18_cif.got.tgz:34025.got - 2010.06.27 22:07:45.
