data_PCOD8067732
_publ_section_title
;
Structure prediction by ZEFSAII (Michael W. Deem and Ramdas Pophale) SiO2 
 PCOD8067732
Probable space group: P 2/M
;
_chemical_formula_sum "Si O2"
_cell_formula_units_Z 28
_cell_length_a 15.372318
_cell_length_b 19.560627
_cell_length_c 9.165668
_cell_angle_alpha 90.000000
_cell_angle_beta 150.051488
_cell_angle_gamma 90.000000
_cell_volume 1375.876917
_symmetry_space_group_name_H-M "P 2/M"
_symmetry_group_IT_number 10
_symmetry_cell_setting 'monoclinic'
loop_
_space_group_symop_operation_xyz
x,y,z
-x,y,-z
-x,-y,-z
x,-y,z
loop_
_atom_site_type_symbol
_atom_site_label
_atom_site_fract_x
_atom_site_fract_y
_atom_site_fract_z
Si Si1 0.659527 0.426153 0.838722
Si Si2 0.344327 0.853008 0.170162
Si Si3 0.980331 0.573848 0.801136
Si Si4 0.909000 0.286578 0.590025
Si Si5 0.675346 0.919197 0.175348
Si Si6 0.727975 0.713423 0.046948
Si Si7 0.018493 0.853007 0.192658
O O1 0.500000 0.426647 0.500000
O O2 0.666509 0.500000 0.933020
O O3 0.831193 0.416366 0.993577
O O4 0.635815 0.361068 0.910562
O O5 0.500000 0.880478 0.500000
O O6 0.327579 0.893805 0.995377
O O7 0.384366 0.773106 0.192265
O O8 0.165042 0.862626 0.995127
O O9 0.899999 0.500000 0.633491
O O10 0.861065 0.638931 0.586310
O O11 0.000000 0.573358 0.000000
O O12 0.755071 0.265974 0.255070
O O13 0.923533 0.226895 0.731431
O O14 0.087726 0.292157 0.763178
O O15 0.840218 0.893802 0.508016
O O16 0.686751 0.000000 0.186756
O O17 0.500000 0.893966 0.000000
O O18 0.000000 0.880477 0.000000
#
# Coordination Sequence:
#
# PCOD8067732 Si02
#       7
#     4   4   4   4   4   4   4
#     4   9  17  29  47  71 102 142 187 236 287 340
#     4  11  22  39  64  92 124 162 201 245 296 352
#     4   9  17  29  47  71 102 142 187 236 287 340
#     4   9  17  31  52  79 111 146 191 243 291 341
#     4  11  25  45  67  93 124 155 194 244 295 355
#     4   9  17  31  52  79 111 146 191 243 291 341
#     4  11  22  39  64  92 124 162 201 245 296 352
#
# _framework density 20.350657000000002
#
# number of rings (size 3 to 8) (size 9 to 14) (size 15 to 20)
#    0.000    2.143    1.429    2.143    0.000    2.286 
#    0.000    4.286    0.000    0.000    0.000    4.000 
#    0.000    0.000    0.000    0.000    0.000    0.000 
#
# Total GULP energy -346932.476040 kJ/mol
# GULP energy per Si atom -12390.445573 kJ/mol
# Density = 2.030434 g / cm^3
# Si number density = 20.350657 Si / 1000 Ang^3
#
#
#
# Elastic Constant Matrix: (Units=GPa)
#
#
# Indices 1 2 3 4 5 6 
#
# 1 85.7294 40.4823 46.3103 0.0000 -16.9497 0.0000
# 2 40.4823 100.1595 44.5101 0.0000 -4.0936 0.0000
# 3 46.3103 44.5101 121.3166 0.0000 -19.2430 0.0000
# 4 0.0000 0.0000 0.0000 24.4559 0.0000 -2.3353
# 5 -16.9497 -4.0936 -19.2430 0.0000 30.3740 0.0000
# 6 0.0000 0.0000 0.0000 -2.3353 0.0000 22.1595
#
#
#
# Elastic Compliance Matrix: (Units=1/GPa)
#
#
# Indices 1 2 3 4 5 6 
#
# 1 0.017401 -0.005112 -0.003709 0.000000 0.006672 0.000000
# 2 -0.005112 0.013477 -0.003510 0.000000 -0.003260 0.000000
# 3 -0.003709 -0.003510 0.011721 0.000000 0.004883 0.000000
# 4 0.000000 0.000000 0.000000 0.041306 0.000000 0.004353
# 5 0.006672 -0.003260 0.004883 0.000000 0.039300 0.000000
# 6 0.000000 0.000000 0.000000 0.004353 0.000000 0.045586
#
#
# Mechanical properties :
#
#
# Convention : Reuss Voigt Hill
#
# Bulk Modulus (GPa) = 55.75130 63.31232 59.53181
# Shear Modulus (GPa) = 25.07112 27.12474 26.09793
#
# Velocity S-wave (km/s) = 3.51373 3.65481 3.58496
# Velocity P-wave (km/s) = 6.62696 6.99917 6.81561
#
# Compressibility (1/GPa) = 0.01793680
#
# Stress axis : x y z
#
# Youngs Moduli (GPa) = 57.46715 74.20008 85.31706
#
# Poissons Ratio (x) = 0.37934 0.31641
# Poissons Ratio (y) = 0.29380 0.29948
# Poissons Ratio (z) = 0.21312 0.26046
#
# Static dielectric constant tensor:
#      x y z
#    x 2.683570 0.000000 -0.643950 
#    y 0.000000 4.252400 0.000000 
#    z -0.643950 0.000000 3.316860 
# 
# 
# High freq. dielectric constant tensor:
#      x y z
#    x 1.773580 0.000000 -0.012730 
#    y 0.000000 1.811550 0.000000 
#    z -0.012730 0.000000 1.786100 
# 
# From -- ./inp_files/30353.got.cif
#   From: 2010.06.25/outbox.cif.g09.slc.cpg/sg10_16_cif.got.tgz:30353.got - 2010.06.27 22:07:45.
