data_PCOD8067539
_publ_section_title
;
Structure prediction by ZEFSAII (Michael W. Deem and Ramdas Pophale) SiO2 
 PCOD8067539
Probable space group: P 2/M
;
_chemical_formula_sum "Si O2"
_cell_formula_units_Z 32
_cell_length_a 20.983116
_cell_length_b 9.172460
_cell_length_c 30.238634
_cell_angle_alpha 90.000000
_cell_angle_beta 160.559116
_cell_angle_gamma 90.000000
_cell_volume 1937.072087
_symmetry_space_group_name_H-M "P 2/M"
_symmetry_group_IT_number 10
_symmetry_cell_setting 'monoclinic'
loop_
_space_group_symop_operation_xyz
x,y,z
-x,y,-z
-x,-y,-z
x,-y,z
loop_
_atom_site_type_symbol
_atom_site_label
_atom_site_fract_x
_atom_site_fract_y
_atom_site_fract_z
Si Si1 0.626653 0.835172 0.626644
Si Si2 0.683601 0.667996 0.530747
Si Si3 0.345877 0.670814 0.020271
Si Si4 0.061286 0.833093 0.469256
Si Si5 0.688291 0.831989 0.094168
Si Si6 0.956402 0.670830 0.630828
Si Si7 0.927796 0.332015 0.774932
Si Si8 0.693183 0.166912 0.285177
O O1 0.500000 0.821513 0.500000
O O2 0.512008 0.758889 0.591580
O O3 0.830346 0.758899 0.750742
O O4 0.666940 0.000000 0.666934
O O5 0.626872 0.500000 0.497994
O O6 0.775239 0.704630 0.543463
O O7 0.840102 0.711378 0.670043
O O8 0.364721 0.500000 0.022272
O O9 0.517869 0.723917 0.163728
O O10 0.350514 0.755991 0.977583
O O11 0.151882 0.704539 0.920086
O O12 0.101515 0.723923 0.455597
O O13 0.224554 0.805200 0.612295
O O14 0.854085 0.798804 0.354064
O O15 0.067674 0.000000 0.456821
O O16 0.858798 0.755926 0.231775
O O17 0.742003 0.000000 0.121040
O O18 0.500000 0.816695 0.000000
O O19 0.004826 0.500000 0.662447
O O20 0.888525 0.500000 0.759672
O O21 0.624284 0.000000 0.235091
#
# Coordination Sequence:
#
# PCOD8067539 Si02
#       8
#     4   4   4   4   4   4   4   4
#     4   9  17  27  43  69  94 121 162 201 231 273
#     4   9  17  31  46  64  96 133 160 189 238 293
#     4  11  21  33  50  74 100 128 165 206 246 290
#     4   9  19  36  54  71  95 129 168 208 251 297
#     4  11  23  35  47  66  97 136 169 197 242 299
#     4  11  21  33  50  74 100 128 165 206 246 290
#     4   9  17  31  46  64  96 133 160 189 238 293
#     4   9  19  36  54  71  95 129 168 208 251 297
#
# _framework density 16.519776
#
# number of rings (size 3 to 8) (size 9 to 14) (size 15 to 20)
#    0.000    2.250    1.250    3.000    0.000    8.500 
#    0.000    1.250    0.000    0.000    0.000    0.875 
#    0.000    7.000    0.000    0.000    0.000    0.000 
#
# Total GULP energy -396861.788989 kJ/mol
# GULP energy per Si atom -12401.930906 kJ/mol
# Density = 1.648218 g / cm^3
# Si number density = 16.519776 Si / 1000 Ang^3
#
#
#
# Elastic Constant Matrix: (Units=GPa)
#
#
# Indices 1 2 3 4 5 6 
#
# 1 93.2685 67.5441 60.9987 0.0000 15.2487 0.0000
# 2 67.5441 111.8505 57.4446 0.0000 14.9786 0.0000
# 3 60.9987 57.4446 76.9021 0.0000 8.8934 0.0000
# 4 0.0000 0.0000 0.0000 23.9456 0.0000 -3.7621
# 5 15.2487 14.9786 8.8934 0.0000 20.5167 0.0000
# 6 0.0000 0.0000 0.0000 -3.7621 0.0000 21.4789
#
#
#
# Elastic Compliance Matrix: (Units=1/GPa)
#
#
# Indices 1 2 3 4 5 6 
#
# 1 0.027610 -0.007802 -0.015116 0.000000 -0.008273 0.000000
# 2 -0.007802 0.017501 -0.006398 0.000000 -0.004205 0.000000
# 3 -0.015116 -0.006398 0.029407 0.000000 0.003158 0.000000
# 4 0.000000 0.000000 0.000000 0.042943 0.000000 0.007522
# 5 -0.008273 -0.004205 0.003158 0.000000 0.056590 0.000000
# 6 0.000000 0.000000 0.000000 0.007522 0.000000 0.047875
#
#
# Mechanical properties :
#
#
# Convention : Reuss Voigt Hill
#
# Bulk Modulus (GPa) = 62.94526 72.66621 67.80573
# Shear Modulus (GPa) = 17.49142 19.59047 18.54094
#
# Velocity S-wave (km/s) = 3.25748 3.44740 3.35378
# Velocity P-wave (km/s) = 7.23422 7.74138 7.49209
#
# Compressibility (1/GPa) = 0.01588682
#
# Stress axis : x y z
#
# Youngs Moduli (GPa) = 36.21814 57.13908 34.00528
#
# Poissons Ratio (x) = 0.44582 0.51401
# Poissons Ratio (y) = 0.28259 0.21756
# Poissons Ratio (z) = 0.54746 0.36557
#
# Static dielectric constant tensor:
#      x y z
#    x 3.071120 0.000000 0.156420 
#    y 0.000000 3.197900 0.000000 
#    z 0.156420 0.000000 2.967170 
# 
# 
# High freq. dielectric constant tensor:
#      x y z
#    x 1.626650 0.000000 0.018800 
#    y 0.000000 1.646130 0.000000 
#    z 0.018800 0.000000 1.614150 
# 
# From -- ./inp_files/52780.got.cif
#   From: 2010.06.25/outbox.cif.g09.slc.cpg/sg10_27_cif.got.tgz:52780.got - 2010.06.27 22:07:45.
