data_PCOD8067007
_publ_section_title
;
Structure prediction by ZEFSAII (Michael W. Deem and Ramdas Pophale) SiO2 
 PCOD8067007
Probable space group: P 2/M
;
_chemical_formula_sum "Si O2"
_cell_formula_units_Z 24
_cell_length_a 11.223939
_cell_length_b 11.433230
_cell_length_c 8.987087
_cell_angle_alpha 90.000000
_cell_angle_beta 98.435582
_cell_angle_gamma 90.000000
_cell_volume 1140.799008
_symmetry_space_group_name_H-M "P 2/M"
_symmetry_group_IT_number 10
_symmetry_cell_setting 'monoclinic'
loop_
_space_group_symop_operation_xyz
x,y,z
-x,y,-z
-x,-y,-z
x,-y,z
loop_
_atom_site_type_symbol
_atom_site_label
_atom_site_fract_x
_atom_site_fract_y
_atom_site_fract_z
Si Si1 0.767056 0.868510 0.614630
Si Si2 0.163574 0.868183 0.711706
Si Si3 0.395777 0.500000 0.110087
Si Si4 0.446773 0.703818 0.342833
Si Si5 0.041426 0.254822 0.175567
Si Si6 0.426803 0.132940 0.844131
Si Si7 0.879002 0.500000 0.881712
O O1 0.815495 0.848217 0.458240
O O2 0.667628 0.774560 0.628875
O O3 0.869909 0.847864 0.756492
O O4 0.717334 0.000000 0.624181
O O5 0.283361 0.856966 0.835936
O O6 0.077499 0.762574 0.746238
O O7 0.110664 0.000000 0.725709
O O8 0.415850 0.612937 0.211102
O O9 0.249268 0.500000 0.046649
O O10 0.500000 0.500000 0.000000
O O11 0.500000 0.641302 0.500000
O O12 0.543607 0.794484 0.297241
O O13 0.107315 0.381157 0.213469
O O14 0.000000 0.234990 0.000000
O O15 0.467633 0.000000 0.824309
O O16 0.500000 0.183417 0.000000
O O17 0.000000 0.500000 0.000000
#
# Coordination Sequence:
#
# PCOD8067007 Si02
#       7
#     4   4   2   4   4   4   2
#     4  11  23  41  67  95 137 180 221 275 344 409
#     4  10  22  41  63  95 136 181 223 272 340 412
#     4  12  27  49  77 100 134 183 231 290 350 407
#     4  12  24  43  68 100 135 176 231 279 343 413
#     4  11  24  42  68  93 132 174 233 280 342 400
#     4  10  22  38  62  98 139 177 224 282 342 403
#     4  10  24  47  68  99 134 177 224 284 342 402
#
# _framework density 21.037887999999999
#
# number of rings (size 3 to 8) (size 9 to 14) (size 15 to 20)
#    0.000    1.167    3.333    2.250    2.333    6.000 
#    0.000    2.500    0.000    0.000    0.000    0.000 
#    0.000    0.000    0.000    0.000    0.000    0.000 
#
# Total GULP energy -297381.629571 kJ/mol
# GULP energy per Si atom -12390.901232 kJ/mol
# Density = 2.099000 g / cm^3
# Si number density = 21.037888 Si / 1000 Ang^3
#
#
#
# Elastic Constant Matrix: (Units=GPa)
#
#
# Indices 1 2 3 4 5 6 
#
# 1 125.1485 54.7031 44.7567 0.0000 -8.1781 0.0000
# 2 54.7031 97.0163 55.7218 0.0000 -16.4978 0.0000
# 3 44.7567 55.7218 101.7576 0.0000 3.6048 0.0000
# 4 0.0000 0.0000 0.0000 21.2250 0.0000 -7.1465
# 5 -8.1781 -16.4978 3.6048 0.0000 38.3263 0.0000
# 6 0.0000 0.0000 0.0000 -7.1465 0.0000 28.7187
#
#
#
# Elastic Compliance Matrix: (Units=1/GPa)
#
#
# Indices 1 2 3 4 5 6 
#
# 1 0.010906 -0.004825 -0.002170 0.000000 0.000454 0.000000
# 2 -0.004825 0.019505 -0.008849 0.000000 0.008199 0.000000
# 3 -0.002170 -0.008849 0.015832 0.000000 -0.005761 0.000000
# 4 0.000000 0.000000 0.000000 0.051423 0.000000 0.012796
# 5 0.000454 0.008199 -0.005761 0.000000 0.030260 0.000000
# 6 0.000000 0.000000 0.000000 0.012796 0.000000 0.038005
#
#
# Mechanical properties :
#
#
# Convention : Reuss Voigt Hill
#
# Bulk Modulus (GPa) = 68.71514 70.47616 69.59565
# Shear Modulus (GPa) = 24.69509 28.90339 26.79924
#
# Velocity S-wave (km/s) = 3.42985 3.71060 3.57298
# Velocity P-wave (km/s) = 6.95835 7.20628 7.08340
#
# Compressibility (1/GPa) = 0.01455283
#
# Stress axis : x y z
#
# Youngs Moduli (GPa) = 91.69625 51.26913 63.16493
#
# Poissons Ratio (x) = 0.24739 0.13709
# Poissons Ratio (y) = 0.44247 0.55894
# Poissons Ratio (z) = 0.19902 0.45367
#
# Static dielectric constant tensor:
#      x y z
#    x 4.089520 0.000000 0.237890 
#    y 0.000000 4.116500 0.000000 
#    z 0.237890 0.000000 4.424270 
# 
# 
# High freq. dielectric constant tensor:
#      x y z
#    x 1.836940 0.000000 0.010690 
#    y 0.000000 1.825060 0.000000 
#    z 0.010690 0.000000 1.818750 
# 
# From -- ./inp_files/24072.got.cif
#   From: 2010.06.25/outbox.cif.g09.slc.cpg/sg10_13_cif.got.tgz:24072.got - 2010.06.27 22:07:45.
