data_PCOD8067710
_publ_section_title
;
Structure prediction by ZEFSAII (Michael W. Deem and Ramdas Pophale) SiO2 
 PCOD8067710
Probable space group: P 2/M
;
_chemical_formula_sum "Si O2"
_cell_formula_units_Z 24
_cell_length_a 9.015471
_cell_length_b 8.376907
_cell_length_c 20.317919
_cell_angle_alpha 90.000000
_cell_angle_beta 131.229565
_cell_angle_gamma 90.000000
_cell_volume 1154.017636
_symmetry_space_group_name_H-M "P 2/M"
_symmetry_group_IT_number 10
_symmetry_cell_setting 'monoclinic'
loop_
_space_group_symop_operation_xyz
x,y,z
-x,y,-z
-x,-y,-z
x,-y,z
loop_
_atom_site_type_symbol
_atom_site_label
_atom_site_fract_x
_atom_site_fract_y
_atom_site_fract_z
Si Si1 0.979807 0.684317 0.418900
Si Si2 0.288882 0.815851 0.411321
Si Si3 0.192642 0.688788 0.903975
Si Si4 0.520167 0.689107 0.899932
Si Si5 0.764646 0.685421 0.744321
Si Si6 0.567239 0.183014 0.263938
O O1 0.039331 0.500000 0.428160
O O2 0.757615 0.706915 0.328981
O O3 0.000000 0.740294 0.500000
O O4 0.127084 0.792221 0.420214
O O5 0.500000 0.760494 0.500000
O O6 0.234639 0.706197 0.333699
O O7 0.292458 0.000000 0.390585
O O8 0.191146 0.500000 0.898185
O O9 0.326087 0.750179 0.882141
O O10 0.970900 0.754909 0.833144
O O11 0.287563 0.739728 0.001380
O O12 0.515578 0.500000 0.886885
O O13 0.535623 0.778177 0.835359
O O14 0.738798 0.500000 0.754718
O O15 0.587225 0.784858 0.723308
O O16 0.633302 0.000000 0.286269
#
# Coordination Sequence:
#
# PCOD8067710 Si02
#       6
#     4   4   4   4   4   4
#     4  11  24  42  65  90 115 150 198 244 285 339
#     4  11  24  41  62  90 124 157 188 231 291 350
#     4   8  17  34  60  88 112 145 192 246 294 342
#     4   9  17  36  62  86 113 148 194 242 292 351
#     4  11  22  38  60  86 117 156 202 245 287 341
#     4  12  25  39  56  84 121 157 194 241 299 351
#
# _framework density 20.796907999999998
#
# number of rings (size 3 to 8) (size 9 to 14) (size 15 to 20)
#    0.000    1.667    0.000    6.000    0.000    7.333 
#    0.000    7.500    0.000    0.000    0.000    0.000 
#    0.000    0.000    0.000    0.000    0.000    0.000 
#
# Total GULP energy -297722.537211 kJ/mol
# GULP energy per Si atom -12405.105717 kJ/mol
# Density = 2.074957 g / cm^3
# Si number density = 20.796908 Si / 1000 Ang^3
#
#
#
# Elastic Constant Matrix: (Units=GPa)
#
#
# Indices 1 2 3 4 5 6 
#
# 1 115.0223 10.3794 54.7306 0.0000 5.5253 0.0000
# 2 10.3794 46.4251 16.2171 0.0000 -1.8437 0.0000
# 3 54.7306 16.2171 131.4867 0.0000 5.8281 0.0000
# 4 0.0000 0.0000 0.0000 15.8587 0.0000 0.2971
# 5 5.5253 -1.8437 5.8281 0.0000 44.9728 0.0000
# 6 0.0000 0.0000 0.0000 0.2971 0.0000 24.7463
#
#
#
# Elastic Compliance Matrix: (Units=1/GPa)
#
#
# Indices 1 2 3 4 5 6 
#
# 1 0.010905 -0.000938 -0.004388 0.000000 -0.000810 0.000000
# 2 -0.000938 0.022665 -0.002466 0.000000 0.001364 0.000000
# 3 -0.004388 -0.002466 0.009773 0.000000 -0.000828 0.000000
# 4 0.000000 0.000000 0.000000 0.063071 0.000000 -0.000757
# 5 -0.000810 0.001364 -0.000828 0.000000 0.022498 0.000000
# 6 0.000000 0.000000 0.000000 -0.000757 0.000000 0.040419
#
#
# Mechanical properties :
#
#
# Convention : Reuss Voigt Hill
#
# Bulk Modulus (GPa) = 36.02166 50.62091 43.32128
# Shear Modulus (GPa) = 25.75100 31.22269 28.48684
#
# Velocity S-wave (km/s) = 3.52264 3.87888 3.70505
# Velocity P-wave (km/s) = 5.82268 6.66741 6.25931
#
# Compressibility (1/GPa) = 0.02776108
#
# Stress axis : x y z
#
# Youngs Moduli (GPa) = 91.69891 44.12059 102.32772
#
# Poissons Ratio (x) = 0.04137 0.44899
# Poissons Ratio (y) = 0.08597 0.25230
# Poissons Ratio (z) = 0.40235 0.10879
#
# Static dielectric constant tensor:
#      x y z
#    x 3.779540 0.000000 0.137570 
#    y 0.000000 3.417140 0.000000 
#    z 0.137570 0.000000 4.023570 
# 
# 
# High freq. dielectric constant tensor:
#      x y z
#    x 1.816870 0.000000 0.000610 
#    y 0.000000 1.794760 0.000000 
#    z 0.000610 0.000000 1.828520 
# 
# From -- ./inp_files/82043.got.cif
#   From: 2010.06.25/outbox.cif.g09.slc.cpg/sg10_42_cif.got.tgz:82043.got - 2010.06.27 22:07:45.
