data_PCOD8067564
_publ_section_title
;
Structure prediction by ZEFSAII (Michael W. Deem and Ramdas Pophale) SiO2 
 PCOD8067564
Probable space group: P 2/M
;
_chemical_formula_sum "Si O2"
_cell_formula_units_Z 28
_cell_length_a 14.646549
_cell_length_b 8.502176
_cell_length_c 11.711614
_cell_angle_alpha 90.000000
_cell_angle_beta 110.718287
_cell_angle_gamma 90.000000
_cell_volume 1364.104228
_symmetry_space_group_name_H-M "P 2/M"
_symmetry_group_IT_number 10
_symmetry_cell_setting 'monoclinic'
loop_
_space_group_symop_operation_xyz
x,y,z
-x,y,-z
-x,-y,-z
x,-y,z
loop_
_atom_site_type_symbol
_atom_site_label
_atom_site_fract_x
_atom_site_fract_y
_atom_site_fract_z
Si Si1 0.958942 0.812822 0.656071
Si Si2 0.304928 0.816433 0.187273
Si Si3 0.386633 0.318692 0.453979
Si Si4 0.468476 0.683507 0.110539
Si Si5 0.356977 0.817742 0.675356
Si Si6 0.913869 0.185901 0.884057
Si Si7 0.854875 0.813948 0.387259
O O1 0.924624 0.741376 0.761632
O O2 0.890219 0.744342 0.525160
O O3 0.071256 0.760277 0.680120
O O4 0.952510 0.000000 0.656496
O O5 0.338694 0.721272 0.312441
O O6 0.370167 0.771416 0.106592
O O7 0.192293 0.771820 0.111281
O O8 0.316450 0.000000 0.218672
O O9 0.500000 0.279230 0.500000
O O10 0.367238 0.500000 0.474273
O O11 0.341779 0.211076 0.533849
O O12 0.445158 0.500000 0.096184
O O13 0.555257 0.713335 0.238159
O O14 0.500000 0.747448 0.000000
O O15 0.255841 0.762428 0.690877
O O16 0.380421 0.000000 0.709022
O O17 0.927527 0.000000 0.883444
O O18 0.000000 0.258972 0.000000
O O19 0.857577 0.000000 0.401553
#
# Coordination Sequence:
#
# PCOD8067564 Si02
#       7
#     4   4   4   4   4   4   4
#     4   8  13  26  45  70 109 146 173 207 269 340
#     4  11  22  37  61  90 116 145 189 245 291 329
#     4  11  22  36  57  83 116 155 191 227 282 350
#     4  11  25  43  58  75 109 156 195 227 277 346
#     4  11  21  34  57  89 117 142 186 241 286 330
#     4   9  18  31  50  80 115 146 177 224 286 341
#     4   8  15  26  46  77 109 140 172 218 275 327
#
# _framework density 20.526289999999999
#
# number of rings (size 3 to 8) (size 9 to 14) (size 15 to 20)
#    0.000    2.143    1.429    3.429    0.000    5.143 
#    0.000    2.857    0.000    1.714    0.000   25.000 
#    0.000    0.000    0.000    0.000    0.000    0.000 
#
# Total GULP energy -347138.127990 kJ/mol
# GULP energy per Si atom -12397.790285 kJ/mol
# Density = 2.047957 g / cm^3
# Si number density = 20.526290 Si / 1000 Ang^3
#
#
#
# Elastic Constant Matrix: (Units=GPa)
#
#
# Indices 1 2 3 4 5 6 
#
# 1 167.7954 22.1947 55.4106 0.0000 1.5301 0.0000
# 2 22.1947 26.0780 1.9305 0.0000 3.6217 0.0000
# 3 55.4106 1.9305 85.7702 0.0000 -6.0680 0.0000
# 4 0.0000 0.0000 0.0000 15.3747 0.0000 -7.9710
# 5 1.5301 3.6217 -6.0680 0.0000 36.8849 0.0000
# 6 0.0000 0.0000 0.0000 -7.9710 0.0000 4.8173
#
#
#
# Elastic Compliance Matrix: (Units=1/GPa)
#
#
# Indices 1 2 3 4 5 6 
#
# 1 0.008697 -0.006913 -0.005505 0.000000 -0.000588 0.000000
# 2 -0.006913 0.044486 0.003213 0.000000 -0.003553 0.000000
# 3 -0.005505 0.003213 0.015315 0.000000 0.002432 0.000000
# 4 0.000000 0.000000 0.000000 0.457540 0.000000 0.757069
# 5 -0.000588 -0.003553 0.002432 0.000000 0.027885 0.000000
# 6 0.000000 0.000000 0.000000 0.757069 0.000000 1.460269
#
#
# Mechanical properties :
#
#
# Convention : Reuss Voigt Hill
#
# Bulk Modulus (GPa) = 19.96434 48.74611 34.35523
# Shear Modulus (GPa) = 2.43986 24.75591 13.59789
#
# Velocity S-wave (km/s) = 1.09144 3.47660 2.57663
# Velocity P-wave (km/s) = 3.36685 6.31786 5.06217
#
# Compressibility (1/GPa) = 0.05008931
#
# Stress axis : x y z
#
# Youngs Moduli (GPa) = 114.97988 22.47922 65.29539
#
# Poissons Ratio (x) = 0.15540 0.35943
# Poissons Ratio (y) = 0.79485 -0.20982
# Poissons Ratio (z) = 0.63292 -0.07223
#
# Static dielectric constant tensor:
#      x y z
#    x 4.206640 0.000000 -0.054620 
#    y 0.000000 3.224870 0.000000 
#    z -0.054620 0.000000 3.746820 
# 
# 
# High freq. dielectric constant tensor:
#      x y z
#    x 1.822980 0.000000 -0.002180 
#    y 0.000000 1.758100 0.000000 
#    z -0.002180 0.000000 1.790530 
# 
# From -- ./inp_files/49376.got.cif
#   From: 2010.06.25/outbox.cif.g09.slc.cpg/sg10_25_cif.got.tgz:49376.got - 2010.06.27 22:07:45.
