data_PCOD8067515
_publ_section_title
;
Structure prediction by ZEFSAII (Michael W. Deem and Ramdas Pophale) SiO2 
 PCOD8067515
Probable space group: P 2/M
;
_chemical_formula_sum "Si O2"
_cell_formula_units_Z 28
_cell_length_a 7.604723
_cell_length_b 18.271450
_cell_length_c 13.642483
_cell_angle_alpha 90.000000
_cell_angle_beta 58.936588
_cell_angle_gamma 90.000000
_cell_volume 1623.776535
_symmetry_space_group_name_H-M "P 2/M"
_symmetry_group_IT_number 10
_symmetry_cell_setting 'monoclinic'
loop_
_space_group_symop_operation_xyz
x,y,z
-x,y,-z
-x,-y,-z
x,-y,z
loop_
_atom_site_type_symbol
_atom_site_label
_atom_site_fract_x
_atom_site_fract_y
_atom_site_fract_z
Si Si1 0.374615 0.918734 0.635585
Si Si2 0.158881 0.585691 0.868821
Si Si3 0.993134 0.657456 0.720777
Si Si4 0.676780 0.190797 0.630022
Si Si5 0.302581 0.584888 0.496965
Si Si6 0.073508 0.812998 0.635143
Si Si7 0.412189 0.652823 0.266262
O O1 0.500000 0.925309 0.500000
O O2 0.505012 0.872417 0.677007
O O3 0.156953 0.879601 0.677027
O O4 0.332450 0.000000 0.690228
O O5 0.204561 0.500000 0.844539
O O6 0.067011 0.614266 0.793942
O O7 0.367348 0.627559 0.836538
O O8 0.000000 0.602772 0.000000
O O9 0.102598 0.627466 0.591575
O O10 0.046527 0.743286 0.713865
O O11 0.748887 0.647145 0.776842
O O12 0.764057 0.207191 0.496674
O O13 0.572161 0.264632 0.698574
O O14 0.857146 0.163521 0.650005
O O15 0.500000 0.613252 0.500000
O O16 0.264444 0.500000 0.526981
O O17 0.337765 0.598771 0.372829
#
# Coordination Sequence:
#
# PCOD8067515 Si02
#       7
#     4   4   4   4   4   4   4
#     4   9  17  26  40  64  96 139 175 193 220 273
#     4  11  25  41  53  69  97 135 176 216 259 303
#     4  11  21  35  55  76  99 131 169 210 257 307
#     4   9  17  29  46  70  99 129 161 199 245 294
#     4  11  21  31  49  78 105 128 156 204 266 311
#     4   9  17  29  46  70  99 129 161 199 245 294
#     4  11  21  35  55  76  99 131 169 210 257 307
#
# _framework density 17.243751
#
# number of rings (size 3 to 8) (size 9 to 14) (size 15 to 20)
#    0.000    1.857    2.857    2.143    0.000    4.000 
#    0.000    4.286    0.000    0.000    0.000    0.000 
#    0.000    9.143    0.000   25.143    0.000    1.143 
#
# Total GULP energy -347248.617162 kJ/mol
# GULP energy per Si atom -12401.736327 kJ/mol
# Density = 1.720450 g / cm^3
# Si number density = 17.243751 Si / 1000 Ang^3
#
#
#
# Elastic Constant Matrix: (Units=GPa)
#
#
# Indices 1 2 3 4 5 6 
#
# 1 114.4923 65.7318 29.9090 0.0000 -25.4187 0.0000
# 2 65.7318 107.2891 29.2473 0.0000 -19.7721 0.0000
# 3 29.9090 29.2473 53.1187 0.0000 -13.9610 0.0000
# 4 0.0000 0.0000 0.0000 10.6515 0.0000 -4.8932
# 5 -25.4187 -19.7721 -13.9610 0.0000 12.6169 0.0000
# 6 0.0000 0.0000 0.0000 -4.8932 0.0000 18.3023
#
#
#
# Elastic Compliance Matrix: (Units=1/GPa)
#
#
# Indices 1 2 3 4 5 6 
#
# 1 0.018356 -0.006265 0.000357 0.000000 0.027558 0.000000
# 2 -0.006265 0.015496 -0.002735 0.000000 0.008637 0.000000
# 3 0.000357 -0.002735 0.027064 0.000000 0.026381 0.000000
# 4 0.000000 0.000000 0.000000 0.107028 0.000000 0.028615
# 5 0.027558 0.008637 0.026381 0.000000 0.177504 0.000000
# 6 0.000000 0.000000 0.000000 0.028615 0.000000 0.062288
#
#
# Mechanical properties :
#
#
# Convention : Reuss Voigt Hill
#
# Bulk Modulus (GPa) = 22.91955 58.29735 40.60845
# Shear Modulus (GPa) = 11.37488 18.31494 14.84491
#
# Velocity S-wave (km/s) = 2.57116 3.26255 2.93727
# Velocity P-wave (km/s) = 4.70477 6.93351 5.92488
#
# Compressibility (1/GPa) = 0.04363087
#
# Stress axis : x y z
#
# Youngs Moduli (GPa) = 54.47873 64.53378 36.94925
#
# Poissons Ratio (x) = 0.40427 -0.01319
# Poissons Ratio (y) = 0.34128 0.10105
# Poissons Ratio (z) = -0.01944 0.17648
#
# Static dielectric constant tensor:
#      x y z
#    x 3.451540 0.000000 -0.137400 
#    y 0.000000 3.332220 0.000000 
#    z -0.137400 0.000000 2.794350 
# 
# 
# High freq. dielectric constant tensor:
#      x y z
#    x 1.684590 0.000000 -0.009240 
#    y 0.000000 1.666970 0.000000 
#    z -0.009240 0.000000 1.606170 
# 
# From -- ./inp_files/61776.got.cif
#   From: 2010.06.25/outbox.cif.g09.slc.cpg/sg10_31_cif.got.tgz:61776.got - 2010.06.27 22:07:45.
