data_PCOD8067373
_publ_section_title
;
Structure prediction by ZEFSAII (Michael W. Deem and Ramdas Pophale) SiO2 
 PCOD8067373
Probable space group: P 2/M
;
_chemical_formula_sum "Si O2"
_cell_formula_units_Z 24
_cell_length_a 13.577847
_cell_length_b 13.237086
_cell_length_c 9.689456
_cell_angle_alpha 90.000000
_cell_angle_beta 69.786194
_cell_angle_gamma 90.000000
_cell_volume 1634.237708
_symmetry_space_group_name_H-M "P 2/M"
_symmetry_group_IT_number 10
_symmetry_cell_setting 'monoclinic'
loop_
_space_group_symop_operation_xyz
x,y,z
-x,y,-z
-x,-y,-z
x,-y,z
loop_
_atom_site_type_symbol
_atom_site_label
_atom_site_fract_x
_atom_site_fract_y
_atom_site_fract_z
Si Si1 0.619435 0.882262 0.422050
Si Si2 0.087890 0.387224 0.841310
Si Si3 0.827384 0.116391 0.850383
Si Si4 0.057288 0.803759 0.711723
Si Si5 0.214348 0.883267 0.431567
Si Si6 0.222520 0.214103 0.845571
O O1 0.500000 0.848951 0.500000
O O2 0.679734 0.858956 0.535870
O O3 0.665711 0.813872 0.275853
O O4 0.628427 0.000000 0.376668
O O5 0.114635 0.500000 0.775704
O O6 0.042183 0.317798 0.738557
O O7 0.194927 0.334222 0.848094
O O8 0.000000 0.390836 0.000000
O O9 0.768424 0.146296 0.736696
O O10 0.950153 0.136032 0.771369
O O11 0.809370 0.000000 0.896294
O O12 0.777288 0.182726 0.995343
O O13 0.115227 0.821349 0.538539
O O14 0.131664 0.844858 0.801694
O O15 0.183318 0.000000 0.458857
#
# Coordination Sequence:
#
# PCOD8067373 Si02
#       6
#     4   4   4   4   4   4
#     4   9  17  31  48  64  86 116 149 185 224 264
#     4   9  16  29  46  65  89 115 150 188 220 254
#     4  11  18  25  39  65  97 121 144 173 210 259
#     4   9  16  28  41  64  85 123 146 175 205 261
#     4   9  18  28  41  63  93 123 143 170 217 265
#     4   9  17  29  43  67  82 118 152 186 207 258
#
# _framework density 14.685746
#
# number of rings (size 3 to 8) (size 9 to 14) (size 15 to 20)
#    1.000    1.667    1.667    2.000    0.000    4.000 
#    0.000    0.833    0.000    7.500    0.000    0.000 
#    0.000    1.333    0.000    0.000    0.000    0.000 
#
# Total GULP energy -297390.084117 kJ/mol
# GULP energy per Si atom -12391.253505 kJ/mol
# Density = 1.465232 g / cm^3
# Si number density = 14.685746 Si / 1000 Ang^3
#
#
#
# Elastic Constant Matrix: (Units=GPa)
#
#
# Indices 1 2 3 4 5 6 
#
# 1 60.1458 14.7732 39.2964 0.0000 -10.4518 0.0000
# 2 14.7732 57.8837 28.4434 0.0000 -0.7685 0.0000
# 3 39.2964 28.4434 78.7398 0.0000 3.0016 0.0000
# 4 0.0000 0.0000 0.0000 16.5318 0.0000 -0.8034
# 5 -10.4518 -0.7685 3.0016 0.0000 24.7209 0.0000
# 6 0.0000 0.0000 0.0000 -0.8034 0.0000 4.4495
#
#
#
# Elastic Compliance Matrix: (Units=1/GPa)
#
#
# Indices 1 2 3 4 5 6 
#
# 1 0.028795 0.000195 -0.014975 0.000000 0.013998 0.000000
# 2 0.000195 0.021067 -0.007772 0.000000 0.001681 0.000000
# 3 -0.014975 -0.007772 0.023339 0.000000 -0.009407 0.000000
# 4 0.000000 0.000000 0.000000 0.061025 0.000000 0.011019
# 5 0.013998 0.001681 -0.009407 0.000000 0.047565 0.000000
# 6 0.000000 0.000000 0.000000 0.011019 0.000000 0.226736
#
#
# Mechanical properties :
#
#
# Convention : Reuss Voigt Hill
#
# Bulk Modulus (GPa) = 35.58826 40.19946 37.89386
# Shear Modulus (GPa) = 10.79924 16.75752 13.77838
#
# Velocity S-wave (km/s) = 2.71469 3.38164 3.06635
# Velocity P-wave (km/s) = 5.84053 6.53298 6.19644
#
# Compressibility (1/GPa) = 0.02809915
#
# Stress axis : x y z
#
# Youngs Moduli (GPa) = 34.72881 47.46650 42.84613
#
# Poissons Ratio (x) = -0.00926 0.64160
# Poissons Ratio (y) = -0.00678 0.33299
# Poissons Ratio (z) = 0.52005 0.36890
#
# Static dielectric constant tensor:
#      x y z
#    x 2.695680 0.000000 0.096280 
#    y 0.000000 2.782680 0.000000 
#    z 0.096280 0.000000 2.848670 
# 
# 
# High freq. dielectric constant tensor:
#      x y z
#    x 1.536110 0.000000 0.004230 
#    y 0.000000 1.535180 0.000000 
#    z 0.004230 0.000000 1.561300 
# 
# From -- ./inp_files/28797.got.cif
#   From: 2010.06.25/outbox.cif.g09.slc.cpg/sg10_15_cif.got.tgz:28797.got - 2010.06.27 22:07:45.
