data_PCOD8067150
_publ_section_title
;
Structure prediction by ZEFSAII (Michael W. Deem and Ramdas Pophale) SiO2 
 PCOD8067150
Probable space group: P 2/M
;
_chemical_formula_sum "Si O2"
_cell_formula_units_Z 32
_cell_length_a 14.040343
_cell_length_b 8.583011
_cell_length_c 19.579444
_cell_angle_alpha 90.000000
_cell_angle_beta 40.457822
_cell_angle_gamma 90.000000
_cell_volume 1531.043583
_symmetry_space_group_name_H-M "P 2/M"
_symmetry_group_IT_number 10
_symmetry_cell_setting 'monoclinic'
loop_
_space_group_symop_operation_xyz
x,y,z
-x,y,-z
-x,-y,-z
x,-y,z
loop_
_atom_site_type_symbol
_atom_site_label
_atom_site_fract_x
_atom_site_fract_y
_atom_site_fract_z
Si Si1 0.832580 0.319611 0.603753
Si Si2 0.698707 0.680477 0.187738
Si Si3 0.212613 0.819153 0.001526
Si Si4 0.173893 0.819592 0.616152
Si Si5 0.387874 0.179913 0.381015
Si Si6 0.133952 0.180032 0.275169
Si Si7 0.901377 0.681039 0.202917
Si Si8 0.343973 0.318600 0.055027
O O1 0.803773 0.500000 0.603057
O O2 0.729685 0.214412 0.613409
O O3 0.797474 0.284485 0.702001
O O4 0.000000 0.269832 0.500000
O O5 0.719722 0.500000 0.158777
O O6 0.763231 0.778793 0.090356
O O7 0.528658 0.713186 0.293915
O O8 0.789033 0.729595 0.205144
O O9 0.241420 0.000000 0.997326
O O10 0.331860 0.723985 0.981551
O O11 0.048556 0.779596 0.114508
O O12 0.319026 0.783218 0.492860
O O13 0.177561 0.716959 0.682312
O O14 0.035335 0.774703 0.644598
O O15 0.165063 0.000000 0.642293
O O16 0.433967 0.000000 0.350483
O O17 0.219804 0.217261 0.159269
O O18 0.150861 0.000000 0.285562
O O19 0.942990 0.500000 0.176516
O O20 0.313807 0.500000 0.083195
O O21 0.500000 0.268529 0.000000
#
# Coordination Sequence:
#
# PCOD8067150 Si02
#       8
#     4   4   4   4   4   4   4   4
#     4  11  23  38  61  91 125 168 212 257 308 370
#     4  11  26  46  66  94 130 168 213 266 325 386
#     4  12  25  43  69  98 129 168 214 265 319 382
#     4  10  22  40  65  96 130 167 212 266 320 377
#     4  11  24  43  65  93 130 172 215 266 323 379
#     4  11  22  39  63  92 127 167 212 262 314 377
#     4  11  24  43  70  97 126 166 212 267 325 382
#     4  11  25  43  64  93 130 170 210 258 316 378
#
# _framework density 20.900777000000001
#
# number of rings (size 3 to 8) (size 9 to 14) (size 15 to 20)
#    0.000    1.000    2.500    3.750    1.750    7.000 
#    0.000    2.500    0.000    0.000    0.000    0.000 
#    0.000    0.000    0.000    0.000    0.000    0.000 
#
# Total GULP energy -397049.644881 kJ/mol
# GULP energy per Si atom -12407.801403 kJ/mol
# Density = 2.085321 g / cm^3
# Si number density = 20.900777 Si / 1000 Ang^3
#
#
#
# Elastic Constant Matrix: (Units=GPa)
#
#
# Indices 1 2 3 4 5 6 
#
# 1 121.1777 30.3397 31.8170 0.0000 10.0836 0.0000
# 2 30.3397 53.4797 18.3880 0.0000 0.9753 0.0000
# 3 31.8170 18.3880 80.5081 0.0000 13.5729 0.0000
# 4 0.0000 0.0000 0.0000 31.7070 0.0000 9.6855
# 5 10.0836 0.9753 13.5729 0.0000 32.7304 0.0000
# 6 0.0000 0.0000 0.0000 9.6855 0.0000 26.7083
#
#
#
# Elastic Compliance Matrix: (Units=1/GPa)
#
#
# Indices 1 2 3 4 5 6 
#
# 1 0.010339 -0.004924 -0.002633 0.000000 -0.001947 0.000000
# 2 -0.004924 0.022699 -0.003634 0.000000 0.002348 0.000000
# 3 -0.002633 -0.003634 0.015199 0.000000 -0.005384 0.000000
# 4 0.000000 0.000000 0.000000 0.035468 0.000000 -0.012862
# 5 -0.001947 0.002348 -0.005384 0.000000 0.033315 0.000000
# 6 0.000000 0.000000 0.000000 -0.012862 0.000000 0.042106
#
#
# Mechanical properties :
#
#
# Convention : Reuss Voigt Hill
#
# Bulk Modulus (GPa) = 38.67872 46.25055 42.46463
# Shear Modulus (GPa) = 26.29831 29.87052 28.08441
#
# Velocity S-wave (km/s) = 3.55102 3.78452 3.66963
# Velocity P-wave (km/s) = 5.94635 6.42444 6.19001
#
# Compressibility (1/GPa) = 0.02585401
#
# Stress axis : x y z
#
# Youngs Moduli (GPa) = 96.72506 44.05460 65.79247
#
# Poissons Ratio (x) = 0.21694 0.17323
# Poissons Ratio (y) = 0.47632 0.23910
# Poissons Ratio (z) = 0.25467 0.16010
#
# Static dielectric constant tensor:
#      x y z
#    x 3.846890 0.000000 0.071260 
#    y 0.000000 3.679870 0.000000 
#    z 0.071260 0.000000 3.760280 
# 
# 
# High freq. dielectric constant tensor:
#      x y z
#    x 1.825850 0.000000 0.008560 
#    y 0.000000 1.823240 0.000000 
#    z 0.008560 0.000000 1.821970 
# 
# From -- ./inp_files/84730.got.cif
#   From: 2010.06.25/outbox.cif.g09.slc.cpg/sg10_43_cif.got.tgz:84730.got - 2010.06.27 22:07:45.
