data_PCOD8067000
_publ_section_title
;
Structure prediction by ZEFSAII (Michael W. Deem and Ramdas Pophale) SiO2 
 PCOD8067000
Probable space group: P 2/M
;
_chemical_formula_sum "Si O2"
_cell_formula_units_Z 26
_cell_length_a 9.301506
_cell_length_b 16.381743
_cell_length_c 13.389049
_cell_angle_alpha 90.000000
_cell_angle_beta 40.075548
_cell_angle_gamma 90.000000
_cell_volume 1313.445764
_symmetry_space_group_name_H-M "P 2/M"
_symmetry_group_IT_number 10
_symmetry_cell_setting 'monoclinic'
loop_
_space_group_symop_operation_xyz
x,y,z
-x,y,-z
-x,-y,-z
x,-y,z
loop_
_atom_site_type_symbol
_atom_site_label
_atom_site_fract_x
_atom_site_fract_y
_atom_site_fract_z
Si Si1 0.709596 0.090482 0.046269
Si Si2 0.379679 0.500000 0.338485
Si Si3 0.072320 0.500000 0.308446
Si Si4 0.702866 0.261879 0.332311
Si Si5 0.500000 0.209303 0.000000
Si Si6 0.749174 0.635143 0.118724
Si Si7 0.846104 0.667483 0.845246
Si Si8 0.234426 0.909471 0.758322
O O1 0.567474 0.154810 0.058750
O O2 0.649965 0.095998 0.194695
O O3 0.652120 0.000000 0.036448
O O4 0.971262 0.107439 0.899726
O O5 0.232064 0.500000 0.318242
O O6 0.546446 0.576226 0.256278
O O7 0.194299 0.500000 0.525796
O O8 0.139127 0.578159 0.208656
O O9 0.500000 0.303213 0.500000
O O10 0.722381 0.287104 0.205686
O O11 0.669687 0.164038 0.358663
O O12 0.913228 0.293280 0.280589
O O13 0.300158 0.269307 0.141959
O O14 0.726076 0.662801 0.017042
O O15 0.000000 0.596413 0.000000
O O16 0.282826 0.000000 0.686910
#
# Coordination Sequence:
#
# PCOD8067000 Si02
#       8
#     4   2   2   4   2   4   4   4
#     4   9  18  32  56  87 117 149 191 241 289 335
#     4  11  22  42  60  82 112 157 188 234 294 346
#     4  11  25  40  57  80 121 153 191 229 290 361
#     4  11  22  37  58  86 117 149 192 240 291 348
#     4  12  19  31  58  88 120 146 190 243 289 336
#     4  10  22  38  61  84 112 144 195 246 287 333
#     4  11  23  38  58  86 115 152 193 241 289 341
#     4   9  18  35  56  81 116 155 192 234 286 344
#
# _framework density 19.795259999999999
#
# number of rings (size 3 to 8) (size 9 to 14) (size 15 to 20)
#    0.000    1.692    1.538    4.615    4.308    3.077 
#    0.000    3.846    0.000    0.000    0.000    2.154 
#    0.000    0.000    0.000    0.000    0.000    0.000 
#
# Total GULP energy -322199.245000 kJ/mol
# GULP energy per Si atom -12392.278654 kJ/mol
# Density = 1.975021 g / cm^3
# Si number density = 19.795260 Si / 1000 Ang^3
#
#
#
# Elastic Constant Matrix: (Units=GPa)
#
#
# Indices 1 2 3 4 5 6 
#
# 1 95.8835 61.3364 33.8414 0.0000 -12.9864 0.0000
# 2 61.3364 147.5364 43.5757 0.0000 -13.9503 0.0000
# 3 33.8414 43.5757 94.5771 0.0000 -11.6748 0.0000
# 4 0.0000 0.0000 0.0000 41.5338 0.0000 -35.5326
# 5 -12.9864 -13.9503 -11.6748 0.0000 24.3751 0.0000
# 6 0.0000 0.0000 0.0000 -35.5326 0.0000 98.1951
#
#
#
# Elastic Compliance Matrix: (Units=1/GPa)
#
#
# Indices 1 2 3 4 5 6 
#
# 1 0.015177 -0.005185 -0.002561 0.000000 0.003892 0.000000
# 2 -0.005185 0.009819 -0.002462 0.000000 0.001678 0.000000
# 3 -0.002561 -0.002462 0.013053 0.000000 0.003479 0.000000
# 4 0.000000 0.000000 0.000000 0.034872 0.000000 0.012619
# 5 0.003892 0.001678 0.003479 0.000000 0.045726 0.000000
# 6 0.000000 0.000000 0.000000 0.012619 0.000000 0.014750
#
#
# Mechanical properties :
#
#
# Convention : Reuss Voigt Hill
#
# Bulk Modulus (GPa) = 56.70926 68.38933 62.54929
# Shear Modulus (GPa) = 31.31013 46.10370 38.70692
#
# Velocity S-wave (km/s) = 3.98137 4.83124 4.42675
# Velocity P-wave (km/s) = 7.06011 8.10830 7.60229
#
# Compressibility (1/GPa) = 0.01763381
#
# Stress axis : x y z
#
# Youngs Moduli (GPa) = 65.88720 101.83826 76.60800
#
# Poissons Ratio (x) = 0.52807 0.19621
# Poissons Ratio (y) = 0.34165 0.18858
# Poissons Ratio (z) = 0.16875 0.25069
#
# Static dielectric constant tensor:
#      x y z
#    x 3.634750 0.000000 -0.150100 
#    y 0.000000 3.789250 0.000000 
#    z -0.150100 0.000000 3.464870 
# 
# 
# High freq. dielectric constant tensor:
#      x y z
#    x 1.768810 0.000000 -0.011680 
#    y 0.000000 1.789140 0.000000 
#    z -0.011680 0.000000 1.753240 
# 
# From -- ./inp_files/62043.got.cif
#   From: 2010.06.25/outbox.cif.g09.slc.cpg/sg10_32_cif.got.tgz:62043.got - 2010.06.27 22:07:45.
