data_PCOD8067140
_publ_section_title
;
Structure prediction by ZEFSAII (Michael W. Deem and Ramdas Pophale) SiO2 
 PCOD8067140
Probable space group: P 2/M
;
_chemical_formula_sum "Si O2"
_cell_formula_units_Z 32
_cell_length_a 11.810618
_cell_length_b 8.816576
_cell_length_c 15.205862
_cell_angle_alpha 90.000000
_cell_angle_beta 89.818032
_cell_angle_gamma 90.000000
_cell_volume 1583.366430
_symmetry_space_group_name_H-M "P 2/M"
_symmetry_group_IT_number 10
_symmetry_cell_setting 'monoclinic'
loop_
_space_group_symop_operation_xyz
x,y,z
-x,y,-z
-x,-y,-z
x,-y,z
loop_
_atom_site_type_symbol
_atom_site_label
_atom_site_fract_x
_atom_site_fract_y
_atom_site_fract_z
Si Si1 0.998911 0.178532 0.161269
Si Si2 0.754145 0.677948 0.407261
Si Si3 0.657254 0.324813 0.744112
Si Si4 0.247543 0.177949 0.904339
Si Si5 0.393981 0.324099 0.757688
Si Si6 0.792897 0.677463 0.918156
Si Si7 0.998757 0.320787 0.652977
Si Si8 0.216478 0.821969 0.415704
O O1 0.088270 0.232735 0.087874
O O2 0.874014 0.228755 0.132987
O O3 0.033000 0.261511 0.250749
O O4 0.007754 0.000000 0.175209
O O5 0.753852 0.500000 0.426927
O O6 0.662677 0.722823 0.334276
O O7 0.876686 0.734449 0.373842
O O8 0.720793 0.765472 0.496245
O O9 0.679127 0.500000 0.720003
O O10 0.525494 0.287744 0.750938
O O11 0.713229 0.281711 0.836468
O O12 0.709338 0.222179 0.668207
O O13 0.343845 0.223081 0.835491
O O14 0.252115 0.000000 0.922556
O O15 0.271472 0.266423 0.994624
O O16 0.369581 0.500000 0.778769
O O17 0.818095 0.500000 0.924057
O O18 0.989128 0.500000 0.652836
O O19 0.907415 0.255035 0.585256
O O20 0.200640 0.000000 0.417964
#
# Coordination Sequence:
#
# PCOD8067140 Si02
#       8
#     4   4   4   4   4   4   4   4
#     4  11  22  37  60  91 126 160 195 244 309 367
#     4  10  22  40  64  91 121 158 201 251 301 359
#     4  10  23  43  65  88 118 158 208 260 301 349
#     4  11  24  40  61  91 128 162 195 249 310 365
#     4  10  22  43  67  89 116 158 210 256 301 355
#     4  11  23  39  63  91 121 162 207 251 298 358
#     4  11  21  37  63  92 122 157 200 247 298 360
#     4  12  25  39  61  91 126 163 198 245 305 367
#
# _framework density 20.210104000000001
#
# number of rings (size 3 to 8) (size 9 to 14) (size 15 to 20)
#    0.000    1.250    2.500    3.375    0.000    8.000 
#    0.000    5.000    0.000    0.000    0.000    0.000 
#    0.000    0.000    0.000    0.000    0.000    0.000 
#
# Total GULP energy -397051.613482 kJ/mol
# GULP energy per Si atom -12407.862921 kJ/mol
# Density = 2.016411 g / cm^3
# Si number density = 20.210104 Si / 1000 Ang^3
#
#
#
# Elastic Constant Matrix: (Units=GPa)
#
#
# Indices 1 2 3 4 5 6 
#
# 1 107.7676 37.0338 35.7917 0.0000 3.8677 0.0000
# 2 37.0338 80.6300 46.2885 0.0000 -0.5679 0.0000
# 3 35.7917 46.2885 118.7102 0.0000 4.1663 0.0000
# 4 0.0000 0.0000 0.0000 18.1601 0.0000 -7.0546
# 5 3.8677 -0.5679 4.1663 0.0000 13.0009 0.0000
# 6 0.0000 0.0000 0.0000 -7.0546 0.0000 22.9045
#
#
#
# Elastic Compliance Matrix: (Units=1/GPa)
#
#
# Indices 1 2 3 4 5 6 
#
# 1 0.011422 -0.004319 -0.001652 0.000000 -0.003057 0.000000
# 2 -0.004319 0.017709 -0.005740 0.000000 0.003898 0.000000
# 3 -0.001652 -0.005740 0.011279 0.000000 -0.003373 0.000000
# 4 0.000000 0.000000 0.000000 0.062550 0.000000 0.019265
# 5 -0.003057 0.003898 -0.003373 0.000000 0.079078 0.000000
# 6 0.000000 0.000000 0.000000 0.019265 0.000000 0.049593
#
#
# Mechanical properties :
#
#
# Convention : Reuss Voigt Hill
#
# Bulk Modulus (GPa) = 58.86896 60.59286 59.73091
# Shear Modulus (GPa) = 19.17803 23.34603 21.26203
#
# Velocity S-wave (km/s) = 3.08382 3.40246 3.24705
# Velocity P-wave (km/s) = 6.47083 6.74405 6.60885
#
# Compressibility (1/GPa) = 0.01698688
#
# Stress axis : x y z
#
# Youngs Moduli (GPa) = 87.55064 56.46959 88.66413
#
# Poissons Ratio (x) = 0.24390 0.14650
# Poissons Ratio (y) = 0.37814 0.50890
# Poissons Ratio (z) = 0.14466 0.32412
#
# Static dielectric constant tensor:
#      x y z
#    x 3.662440 0.000000 0.078400 
#    y 0.000000 3.552120 0.000000 
#    z 0.078400 0.000000 3.750460 
# 
# 
# High freq. dielectric constant tensor:
#      x y z
#    x 1.786800 0.000000 0.001840 
#    y 0.000000 1.787710 0.000000 
#    z 0.001840 0.000000 1.802480 
# 
# From -- ./inp_files/63777.got.cif
#   From: 2010.06.25/outbox.cif.g09.slc.cpg/sg10_32_cif.got.tgz:63777.got - 2010.06.27 22:07:45.
