data_PCOD8067269
_publ_section_title
;
Structure prediction by ZEFSAII (Michael W. Deem and Ramdas Pophale) SiO2 
 PCOD8067269
Probable space group: P 2/M
;
_chemical_formula_sum "Si O2"
_cell_formula_units_Z 24
_cell_length_a 12.041214
_cell_length_b 8.935302
_cell_length_c 11.487227
_cell_angle_alpha 90.000000
_cell_angle_beta 69.051305
_cell_angle_gamma 90.000000
_cell_volume 1154.238432
_symmetry_space_group_name_H-M "P 2/M"
_symmetry_group_IT_number 10
_symmetry_cell_setting 'monoclinic'
loop_
_space_group_symop_operation_xyz
x,y,z
-x,y,-z
-x,-y,-z
x,-y,z
loop_
_atom_site_type_symbol
_atom_site_label
_atom_site_fract_x
_atom_site_fract_y
_atom_site_fract_z
Si Si1 0.235809 0.827258 0.359185
Si Si2 0.952440 0.323495 0.715102
Si Si3 0.475143 0.172983 0.141952
Si Si4 0.224321 0.325900 0.594320
Si Si5 0.320229 0.325589 0.808283
Si Si6 0.884436 0.824047 0.972831
O O1 0.115768 0.737293 0.372796
O O2 0.337096 0.801385 0.223999
O O3 0.281043 0.766887 0.466963
O O4 0.202815 0.000000 0.382521
O O5 0.942655 0.500000 0.721717
O O6 0.883366 0.256459 0.850217
O O7 0.089055 0.270991 0.665933
O O8 0.548327 0.277329 0.202981
O O9 0.511617 0.000000 0.146443
O O10 0.500000 0.222956 0.000000
O O11 0.227144 0.500000 0.561114
O O12 0.302934 0.291437 0.678387
O O13 0.297451 0.500000 0.842851
O O14 0.230842 0.224891 0.914689
O O15 0.880948 0.000000 0.952525
O O16 0.000000 0.772463 0.000000
#
# Coordination Sequence:
#
# PCOD8067269 Si02
#       6
#     4   4   4   4   4   4
#     4  11  24  40  62  91 122 161 209 256 305 363
#     4  11  22  39  63  89 125 165 205 253 304 362
#     4  10  23  44  65  87 121 159 200 255 311 365
#     4  10  23  41  60  88 126 164 201 250 309 364
#     4  11  23  40  64  92 123 161 207 253 301 364
#     4  11  22  36  59  91 125 159 197 246 304 360
#
# _framework density 20.792932
#
# number of rings (size 3 to 8) (size 9 to 14) (size 15 to 20)
#    0.000    1.333    1.667    3.500    0.000    9.000 
#    0.000    3.333    0.000    0.000    0.000    0.000 
#    0.000    0.000    0.000    0.000    0.000    0.000 
#
# Total GULP energy -297758.838541 kJ/mol
# GULP energy per Si atom -12406.618273 kJ/mol
# Density = 2.074561 g / cm^3
# Si number density = 20.792932 Si / 1000 Ang^3
#
#
#
# Elastic Constant Matrix: (Units=GPa)
#
#
# Indices 1 2 3 4 5 6 
#
# 1 102.0108 39.2814 24.9646 0.0000 18.0596 0.0000
# 2 39.2814 69.5596 39.3266 0.0000 7.1753 0.0000
# 3 24.9646 39.3266 104.7573 0.0000 13.8863 0.0000
# 4 0.0000 0.0000 0.0000 31.3875 0.0000 -2.7418
# 5 18.0596 7.1753 13.8863 0.0000 31.7093 0.0000
# 6 0.0000 0.0000 0.0000 -2.7418 0.0000 29.6906
#
#
#
# Elastic Compliance Matrix: (Units=1/GPa)
#
#
# Indices 1 2 3 4 5 6 
#
# 1 0.013614 -0.007207 0.000290 0.000000 -0.006249 0.000000
# 2 -0.007207 0.022108 -0.006861 0.000000 0.002107 0.000000
# 3 0.000290 -0.006861 0.012600 0.000000 -0.004130 0.000000
# 4 0.000000 0.000000 0.000000 0.032119 0.000000 0.002966
# 5 -0.006249 0.002107 -0.004130 0.000000 0.036428 0.000000
# 6 0.000000 0.000000 0.000000 0.002966 0.000000 0.033955
#
#
# Mechanical properties :
#
#
# Convention : Reuss Voigt Hill
#
# Bulk Modulus (GPa) = 48.15889 53.71920 50.93904
# Shear Modulus (GPa) = 26.98309 30.07448 28.52879
#
# Velocity S-wave (km/s) = 3.60628 3.80726 3.70813
# Velocity P-wave (km/s) = 6.36803 6.72446 6.54867
#
# Compressibility (1/GPa) = 0.02076460
#
# Stress axis : x y z
#
# Youngs Moduli (GPa) = 73.45613 45.23285 79.36463
#
# Poissons Ratio (x) = 0.32599 -0.02299
# Poissons Ratio (y) = 0.52939 0.54454
# Poissons Ratio (z) = -0.02128 0.31035
#
# Static dielectric constant tensor:
#      x y z
#    x 3.883310 0.000000 0.142440 
#    y 0.000000 3.697000 0.000000 
#    z 0.142440 0.000000 3.766320 
# 
# 
# High freq. dielectric constant tensor:
#      x y z
#    x 1.816090 0.000000 0.008120 
#    y 0.000000 1.815420 0.000000 
#    z 0.008120 0.000000 1.821110 
# 
# From -- ./inp_files/45025.got.cif
#   From: 2010.06.25/outbox.cif.g09.slc.cpg/sg10_23_cif.got.tgz:45025.got - 2010.06.27 22:07:45.
