data_PCOD8067372
_publ_section_title
;
Structure prediction by ZEFSAII (Michael W. Deem and Ramdas Pophale) SiO2 
 PCOD8067372
Probable space group: P 2/M
;
_chemical_formula_sum "Si O2"
_cell_formula_units_Z 32
_cell_length_a 14.320619
_cell_length_b 18.127508
_cell_length_c 20.312283
_cell_angle_alpha 90.000000
_cell_angle_beta 20.349482
_cell_angle_gamma 90.000000
_cell_volume 1833.665695
_symmetry_space_group_name_H-M "P 2/M"
_symmetry_group_IT_number 10
_symmetry_cell_setting 'monoclinic'
loop_
_space_group_symop_operation_xyz
x,y,z
-x,y,-z
-x,-y,-z
x,-y,z
loop_
_atom_site_type_symbol
_atom_site_label
_atom_site_fract_x
_atom_site_fract_y
_atom_site_fract_z
Si Si1 0.048417 0.191733 0.180066
Si Si2 0.464901 0.282810 0.454107
Si Si3 0.500534 0.697472 0.074436
Si Si4 0.451482 0.308277 0.320003
Si Si5 0.000431 0.197467 0.574502
Si Si6 0.964852 0.217203 0.954140
Si Si7 0.685342 0.414889 0.699349
Si Si8 0.814666 0.085109 0.800651
O O1 0.103107 0.116601 0.182727
O O2 0.742641 0.216438 0.394148
O O3 0.118489 0.172839 0.056889
O O4 0.229052 0.258896 0.087391
O O5 0.500000 0.329490 0.500000
O O6 0.381446 0.327167 0.443158
O O7 0.750059 0.250032 0.249956
O O8 0.479253 0.626300 0.134868
O O9 0.250122 0.750026 0.249928
O O10 0.500000 0.669069 0.000000
O O11 0.270744 0.241137 0.412749
O O12 0.396882 0.383413 0.317282
O O13 0.757212 0.283549 0.105941
O O14 0.000000 0.169060 0.500000
O O15 0.979250 0.126295 0.634870
O O16 0.000000 0.170525 0.000000
O O17 0.605195 0.500000 0.755255
O O18 0.000000 0.401586 0.500000
O O19 0.894859 0.000000 0.744729
O O20 0.500000 0.098396 0.000000
#
# Coordination Sequence:
#
# PCOD8067372 Si02
#       8
#     4   4   4   4   4   4   4   4
#     4  11  17  33  57  79 106 146 175 224 274 320
#     4   9  19  31  53  87 103 126 187 245 265 303
#     4  12  19  32  56  84 108 143 188 221 259 328
#     4  11  17  33  57  79 106 146 175 224 274 320
#     4  12  19  32  56  84 108 143 188 221 259 328
#     4   9  19  31  53  87 103 126 187 245 265 303
#     4  11  23  36  52  83 120 149 178 218 274 337
#     4  11  23  36  52  83 120 149 178 218 274 337
#
# _framework density 17.451383
#
# number of rings (size 3 to 8) (size 9 to 14) (size 15 to 20)
#    0.000    1.250    7.500    0.000    0.000    0.500 
#    0.000    0.000    0.000    7.500    0.000    0.000 
#    0.000    0.000    0.000    0.000    0.000    0.000 
#
# Total GULP energy -396550.498529 kJ/mol
# GULP energy per Si atom -12392.203079 kJ/mol
# Density = 1.741166 g / cm^3
# Si number density = 17.451383 Si / 1000 Ang^3
#
#
#
# Elastic Constant Matrix: (Units=GPa)
#
#
# Indices 1 2 3 4 5 6 
#
# 1 181.9411 49.9959 33.5278 0.0000 36.3172 0.0000
# 2 49.9959 92.2424 30.6866 0.0000 8.8123 0.0000
# 3 33.5278 30.6866 86.2068 0.0000 -0.1659 0.0000
# 4 0.0000 0.0000 0.0000 9.0126 0.0000 9.6451
# 5 36.3172 8.8123 -0.1659 0.0000 39.8552 0.0000
# 6 0.0000 0.0000 0.0000 9.6451 0.0000 17.5934
#
#
#
# Elastic Compliance Matrix: (Units=1/GPa)
#
#
# Indices 1 2 3 4 5 6 
#
# 1 0.008040 -0.003036 -0.002059 0.000000 -0.006664 0.000000
# 2 -0.003036 0.013750 -0.003714 0.000000 -0.000289 0.000000
# 3 -0.002059 -0.003714 0.013728 0.000000 0.002755 0.000000
# 4 0.000000 0.000000 0.000000 0.268466 0.000000 -0.147179
# 5 -0.006664 -0.000289 0.002755 0.000000 0.031238 0.000000
# 6 0.000000 0.000000 0.000000 -0.147179 0.000000 0.137527
#
#
# Mechanical properties :
#
#
# Convention : Reuss Voigt Hill
#
# Bulk Modulus (GPa) = 55.86777 65.42343 60.64560
# Shear Modulus (GPa) = 10.07385 29.70423 19.88904
#
# Velocity S-wave (km/s) = 2.40521 4.13014 3.37958
# Velocity P-wave (km/s) = 6.30843 7.76624 7.07498
#
# Compressibility (1/GPa) = 0.01789941
#
# Stress axis : x y z
#
# Youngs Moduli (GPa) = 124.37506 72.72795 72.84255
#
# Poissons Ratio (x) = 0.22082 0.14999
# Poissons Ratio (y) = 0.37763 0.27055
# Poissons Ratio (z) = 0.25609 0.27012
#
# Static dielectric constant tensor:
#      x y z
#    x 4.928600 0.000000 0.386020 
#    y 0.000000 2.876340 0.000000 
#    z 0.386020 0.000000 3.560980 
# 
# 
# High freq. dielectric constant tensor:
#      x y z
#    x 1.707030 0.000000 0.006110 
#    y 0.000000 1.611670 0.000000 
#    z 0.006110 0.000000 1.691560 
# 
# From -- ./inp_files/43277.got.cif
#   From: 2010.06.25/outbox.cif.g09.slc.cpg/sg10_22_cif.got.tgz:43277.got - 2010.06.27 22:07:45.
