data_PCOD8067757
_publ_section_title
;
Structure prediction by ZEFSAII (Michael W. Deem and Ramdas Pophale) SiO2 
 PCOD8067757
Probable space group: P 2/M
;
_chemical_formula_sum "Si O2"
_cell_formula_units_Z 28
_cell_length_a 24.849808
_cell_length_b 8.834284
_cell_length_c 22.414254
_cell_angle_alpha 90.000000
_cell_angle_beta 17.506564
_cell_angle_gamma 90.000000
_cell_volume 1480.192694
_symmetry_space_group_name_H-M "P 2/M"
_symmetry_group_IT_number 10
_symmetry_cell_setting 'monoclinic'
loop_
_space_group_symop_operation_xyz
x,y,z
-x,y,-z
-x,-y,-z
x,-y,z
loop_
_atom_site_type_symbol
_atom_site_label
_atom_site_fract_x
_atom_site_fract_y
_atom_site_fract_z
Si Si1 0.396238 0.820734 0.815147
Si Si2 0.673988 0.819734 0.977874
Si Si3 0.202599 0.677145 0.797051
Si Si4 0.586972 0.819823 0.847294
Si Si5 0.730694 0.679324 0.400628
Si Si6 0.978873 0.180177 0.455384
Si Si7 0.142763 0.679328 0.987858
O O1 0.590441 0.761755 0.590989
O O2 0.397592 0.000000 0.811472
O O3 0.360186 0.758282 0.919674
O O4 0.234300 0.761876 0.946008
O O5 0.863728 0.757155 0.753290
O O6 0.674074 0.000000 0.977625
O O7 0.519144 0.757208 0.097854
O O8 0.230971 0.500000 0.768666
O O9 0.308751 0.737470 0.626348
O O10 0.246518 0.737470 0.817386
O O11 0.000000 0.719749 0.000000
O O12 0.791174 0.763357 0.626603
O O13 0.577198 0.000000 0.859148
O O14 0.500000 0.755492 0.000000
O O15 0.701891 0.500000 0.435044
O O16 0.932219 0.721388 0.207992
O O17 0.000000 0.244483 0.500000
O O18 0.986721 0.000000 0.449599
O O19 0.166266 0.500000 0.969923
#
# Coordination Sequence:
#
# PCOD8067757 Si02
#       7
#     4   4   4   4   4   4   4
#     4  11  23  34  46  71 112 150 172 198 248 318
#     4   9  18  29  38  58  93 132 166 194 238 299
#     4   7  12  27  53  80  97 117 162 226 275 297
#     4   9  14  22  39  59  80 112 156 202 242 283
#     4   9  18  35  58  78  98 129 175 224 263 300
#     4   9  14  22  39  59  80 112 156 202 242 283
#     4   9  18  35  58  78  98 129 175 224 263 300
#
# _framework density 18.916457000000001
#
# number of rings (size 3 to 8) (size 9 to 14) (size 15 to 20)
#    0.000    3.000    1.429    2.143    0.000    2.286 
#    0.000    6.429    0.000    2.571    0.000    0.000 
#    0.000    4.571    0.000    0.000    0.000    0.000 
#
# Total GULP energy -346877.619322 kJ/mol
# GULP energy per Si atom -12388.486404 kJ/mol
# Density = 1.887340 g / cm^3
# Si number density = 18.916457 Si / 1000 Ang^3
#
#
#
# Elastic Constant Matrix: (Units=GPa)
#
#
# Indices 1 2 3 4 5 6 
#
# 1 187.6644 27.2313 102.3160 0.0000 13.2320 0.0000
# 2 27.2313 25.5018 23.6195 0.0000 2.4074 0.0000
# 3 102.3160 23.6195 153.9368 0.0000 6.9300 0.0000
# 4 0.0000 0.0000 0.0000 7.2028 0.0000 -18.2095
# 5 13.2320 2.4074 6.9300 0.0000 38.0179 0.0000
# 6 0.0000 0.0000 0.0000 -18.2095 0.0000 -13.2034
#
#
#
# Elastic Compliance Matrix: (Units=1/GPa)
#
#
# Indices 1 2 3 4 5 6 
#
# 1 0.008935 -0.004595 -0.005149 0.000000 -0.001880 0.000000
# 2 -0.004595 0.048172 -0.004307 0.000000 -0.000666 0.000000
# 3 -0.005149 -0.004307 0.010574 0.000000 0.000138 0.000000
# 4 0.000000 0.000000 0.000000 0.030944 0.000000 -0.042677
# 5 -0.001880 -0.000666 0.000138 0.000000 0.026975 0.000000
# 6 0.000000 0.000000 0.000000 -0.042677 0.000000 -0.016881
#
#
# Mechanical properties :
#
#
# Convention : Reuss Voigt Hill
#
# Bulk Modulus (GPa) = 25.26680 74.82628 50.04654
# Shear Modulus (GPa) = 33.33016 20.66587 26.99802
#
# Velocity S-wave (km/s) = 4.20213 3.30886 3.78196
# Velocity P-wave (km/s) = 6.07700 7.36479 6.75167
#
# Compressibility (1/GPa) = 0.03957763
#
# Stress axis : x y z
#
# Youngs Moduli (GPa) = 111.91371 20.75915 94.57579
#
# Poissons Ratio (x) = 0.09538 0.48701
# Poissons Ratio (y) = 0.51420 0.40738
# Poissons Ratio (z) = 0.57629 0.08942
#
# Static dielectric constant tensor:
#      x y z
#    x 3.782440 0.000000 0.124520 
#    y 0.000000 2.784180 0.000000 
#    z 0.124520 0.000000 3.655350 
# 
# 
# High freq. dielectric constant tensor:
#      x y z
#    x 1.745850 0.000000 0.002540 
#    y 0.000000 1.663050 0.000000 
#    z 0.002540 0.000000 1.743210 
# 
# From -- ./inp_files/86483.got.cif
#   From: 2010.06.25/outbox.cif.g09.slc.cpg/sg10_44_cif.got.tgz:86483.got - 2010.06.27 22:07:45.
