data_PCOD8067174
_publ_section_title
;
Structure prediction by ZEFSAII (Michael W. Deem and Ramdas Pophale) SiO2 
 PCOD8067174
Probable space group: P 2/M
;
_chemical_formula_sum "Si O2"
_cell_formula_units_Z 26
_cell_length_a 8.148437
_cell_length_b 9.178214
_cell_length_c 20.603205
_cell_angle_alpha 90.000000
_cell_angle_beta 51.503612
_cell_angle_gamma 90.000000
_cell_volume 1205.961441
_symmetry_space_group_name_H-M "P 2/M"
_symmetry_group_IT_number 10
_symmetry_cell_setting 'monoclinic'
loop_
_space_group_symop_operation_xyz
x,y,z
-x,y,-z
-x,-y,-z
x,-y,z
loop_
_atom_site_type_symbol
_atom_site_label
_atom_site_fract_x
_atom_site_fract_y
_atom_site_fract_z
Si Si1 0.878622 0.662626 0.666797
Si Si2 0.000000 0.246562 0.500000
Si Si3 0.648819 0.162867 0.024317
Si Si4 0.442959 0.837033 0.441617
Si Si5 0.448528 0.326366 0.827177
Si Si6 0.812868 0.327342 0.302683
Si Si7 0.071773 0.171967 0.850027
O O1 0.857084 0.500000 0.697828
O O2 0.662202 0.736634 0.742325
O O3 0.909585 0.660478 0.581756
O O4 0.079381 0.725403 0.656098
O O5 0.804227 0.158290 0.517202
O O6 0.559295 0.282694 0.095577
O O7 0.655535 0.000000 0.054058
O O8 0.500000 0.161084 0.000000
O O9 0.879047 0.209098 0.944343
O O10 0.500000 0.780421 0.500000
O O11 0.574228 0.733484 0.360630
O O12 0.529491 0.000000 0.412914
O O13 0.417575 0.500000 0.826333
O O14 0.272981 0.236345 0.834510
O O15 0.800332 0.500000 0.295719
O O16 0.953468 0.254897 0.212056
O O17 0.092038 0.000000 0.832468
#
# Coordination Sequence:
#
# PCOD8067174 Si02
#       7
#     4   2   4   4   4   4   4
#     4  10  23  40  62  93 128 166 212 266 322 386
#     4  12  22  42  68  94 125 176 217 268 323 388
#     4  10  22  41  64  91 124 165 213 261 317 385
#     4  11  24  43  64  93 129 166 214 267 320 382
#     4  11  23  40  62  93 129 166 211 263 320 382
#     4  11  23  42  65  94 128 167 214 264 323 383
#     4  11  23  40  63  92 126 166 210 261 319 382
#
# _framework density 21.559563000000001
#
# number of rings (size 3 to 8) (size 9 to 14) (size 15 to 20)
#    0.000    1.231    1.538    4.154    0.000    6.154 
#    0.000    4.615    0.000    0.000    0.000    0.000 
#    0.000    0.000    0.000    0.000    0.000    0.000 
#
# Total GULP energy -322279.273735 kJ/mol
# GULP energy per Si atom -12395.356682 kJ/mol
# Density = 2.151049 g / cm^3
# Si number density = 21.559563 Si / 1000 Ang^3
#
#
#
# Elastic Constant Matrix: (Units=GPa)
#
#
# Indices 1 2 3 4 5 6 
#
# 1 117.1049 21.6603 53.2404 0.0000 -10.7758 0.0000
# 2 21.6603 86.0669 50.1377 0.0000 -7.9491 0.0000
# 3 53.2404 50.1377 151.8223 0.0000 -7.4651 0.0000
# 4 0.0000 0.0000 0.0000 33.5567 0.0000 -0.5136
# 5 -10.7758 -7.9491 -7.4651 0.0000 42.6997 0.0000
# 6 0.0000 0.0000 0.0000 -0.5136 0.0000 39.0531
#
#
#
# Elastic Compliance Matrix: (Units=1/GPa)
#
#
# Indices 1 2 3 4 5 6 
#
# 1 0.010338 -0.000454 -0.003380 0.000000 0.001933 0.000000
# 2 -0.000454 0.014555 -0.004559 0.000000 0.001798 0.000000
# 3 -0.003380 -0.004559 0.009274 0.000000 -0.000080 0.000000
# 4 0.000000 0.000000 0.000000 0.029806 0.000000 0.000392
# 5 0.001933 0.001798 -0.000080 0.000000 0.024228 0.000000
# 6 0.000000 0.000000 0.000000 0.000392 0.000000 0.025611
#
#
# Mechanical properties :
#
#
# Convention : Reuss Voigt Hill
#
# Bulk Modulus (GPa) = 57.53726 67.23009 62.38367
# Shear Modulus (GPa) = 36.65895 38.39226 37.52561
#
# Velocity S-wave (km/s) = 4.12801 4.22448 4.17652
# Velocity P-wave (km/s) = 7.03322 7.41930 7.22884
#
# Compressibility (1/GPa) = 0.01738004
#
# Stress axis : x y z
#
# Youngs Moduli (GPa) = 96.72995 68.70482 107.83242
#
# Poissons Ratio (x) = 0.03119 0.36451
# Poissons Ratio (y) = 0.04392 0.49161
# Poissons Ratio (z) = 0.32698 0.31323
#
# Static dielectric constant tensor:
#      x y z
#    x 4.275120 0.000000 -1.231420 
#    y 0.000000 3.832780 0.000000 
#    z -1.231420 0.000000 12.438260 
# 
# 
# High freq. dielectric constant tensor:
#      x y z
#    x 1.862340 0.000000 -0.002760 
#    y 0.000000 1.831960 0.000000 
#    z -0.002760 0.000000 1.857380 
# 
# From -- ./inp_files/82188.got.cif
#   From: 2010.06.25/outbox.cif.g09.slc.cpg/sg10_42_cif.got.tgz:82188.got - 2010.06.27 22:07:45.
