data_PCOD8067235
_publ_section_title
;
Structure prediction by ZEFSAII (Michael W. Deem and Ramdas Pophale) SiO2 
 PCOD8067235
Probable space group: P 2/M
;
_chemical_formula_sum "Si O2"
_cell_formula_units_Z 24
_cell_length_a 9.190707
_cell_length_b 11.857140
_cell_length_c 24.150483
_cell_angle_alpha 90.000000
_cell_angle_beta 151.154524
_cell_angle_gamma 90.000000
_cell_volume 1269.714698
_symmetry_space_group_name_H-M "P 2/M"
_symmetry_group_IT_number 10
_symmetry_cell_setting 'monoclinic'
loop_
_space_group_symop_operation_xyz
x,y,z
-x,y,-z
-x,-y,-z
x,-y,z
loop_
_atom_site_type_symbol
_atom_site_label
_atom_site_fract_x
_atom_site_fract_y
_atom_site_fract_z
Si Si1 0.709030 0.770400 0.430747
Si Si2 0.336419 0.129613 0.213613
Si Si3 0.094192 0.000000 0.333025
Si Si4 0.789012 0.373860 0.558647
Si Si5 0.666438 0.000000 0.467721
Si Si6 0.622845 0.130666 0.980066
Si Si7 0.701572 0.791865 0.227873
O O1 0.439929 0.788241 0.297800
O O2 0.631895 0.685728 0.453880
O O3 0.000000 0.715136 0.500000
O O4 0.815543 0.890562 0.490701
O O5 0.491420 0.170237 0.208619
O O6 0.438341 0.000000 0.258959
O O7 0.980800 0.139707 0.093863
O O8 0.904728 0.888185 0.269884
O O9 0.297647 0.000000 0.344049
O O10 0.285600 0.000000 0.451876
O O11 0.500000 0.377594 0.500000
O O12 0.900425 0.500000 0.581571
O O13 0.082409 0.311485 0.682394
O O14 0.508407 0.224073 0.896721
O O15 0.526271 0.000000 0.934572
O O16 0.500000 0.164212 0.000000
#
# Coordination Sequence:
#
# PCOD8067235 Si02
#       7
#     4   4   2   4   2   4   4
#     4  12  22  36  59  91 125 156 192 243 303 367
#     4  11  22  36  56  92 133 163 193 235 296 370
#     4  11  20  30  55  89 116 159 193 234 295 371
#     4  11  26  44  63  87 118 159 207 256 304 352
#     4  11  21  30  51  90 127 153 187 236 301 363
#     4  10  23  37  57  90 127 163 197 239 293 363
#     4  12  21  39  61  84 123 163 202 241 300 356
#
# _framework density 18.901883000000002
#
# number of rings (size 3 to 8) (size 9 to 14) (size 15 to 20)
#    0.000    0.833    5.833    1.750    4.667    1.667 
#    0.000    0.000    0.000    3.500    0.000    0.000 
#    0.000    0.000    0.000    0.000    0.000    0.000 
#
# Total GULP energy -297332.081601 kJ/mol
# GULP energy per Si atom -12388.836733 kJ/mol
# Density = 1.885886 g / cm^3
# Si number density = 18.901883 Si / 1000 Ang^3
#
#
#
# Elastic Constant Matrix: (Units=GPa)
#
#
# Indices 1 2 3 4 5 6 
#
# 1 79.8705 34.3221 39.7566 0.0000 -10.6708 0.0000
# 2 34.3221 97.4623 44.1110 0.0000 -8.4289 0.0000
# 3 39.7566 44.1110 103.0724 0.0000 -17.8091 0.0000
# 4 0.0000 0.0000 0.0000 41.8372 0.0000 -13.2339
# 5 -10.6708 -8.4289 -17.8091 0.0000 37.8198 0.0000
# 6 0.0000 0.0000 0.0000 -13.2339 0.0000 30.3601
#
#
#
# Elastic Compliance Matrix: (Units=1/GPa)
#
#
# Indices 1 2 3 4 5 6 
#
# 1 0.016571 -0.003632 -0.004539 0.000000 0.001729 0.000000
# 2 -0.003632 0.013524 -0.004401 0.000000 -0.000083 0.000000
# 3 -0.004539 -0.004401 0.014092 0.000000 0.004374 0.000000
# 4 0.000000 0.000000 0.000000 0.027725 0.000000 0.012085
# 5 0.001729 -0.000083 0.004374 0.000000 0.028970 0.000000
# 6 0.000000 0.000000 0.000000 0.012085 0.000000 0.038206
#
#
# Mechanical properties :
#
#
# Convention : Reuss Voigt Hill
#
# Bulk Modulus (GPa) = 52.51157 57.42049 54.96603
# Shear Modulus (GPa) = 29.31171 32.81778 31.06475
#
# Velocity S-wave (km/s) = 3.94220 4.17131 4.05838
# Velocity P-wave (km/s) = 6.96870 7.32420 7.14866
#
# Compressibility (1/GPa) = 0.01904342
#
# Stress axis : x y z
#
# Youngs Moduli (GPa) = 60.34579 73.94141 70.96243
#
# Poissons Ratio (x) = 0.26855 0.32208
# Poissons Ratio (y) = 0.21917 0.31233
# Poissons Ratio (z) = 0.27389 0.32544
#
# Static dielectric constant tensor:
#      x y z
#    x 3.718740 0.000000 -0.042190 
#    y 0.000000 3.321140 0.000000 
#    z -0.042190 0.000000 4.027560 
# 
# 
# High freq. dielectric constant tensor:
#      x y z
#    x 1.761820 0.000000 0.001660 
#    y 0.000000 1.684180 0.000000 
#    z 0.001660 0.000000 1.743790 
# 
# From -- ./inp_files/36205.got.cif
#   From: 2010.06.25/outbox.cif.g09.slc.cpg/sg10_19_cif.got.tgz:36205.got - 2010.06.27 22:07:45.
