data_PCOD8067340
_publ_section_title
;
Structure prediction by ZEFSAII (Michael W. Deem and Ramdas Pophale) SiO2 
 PCOD8067340
Probable space group: P 2/M
;
_chemical_formula_sum "Si O2"
_cell_formula_units_Z 32
_cell_length_a 14.684194
_cell_length_b 14.391685
_cell_length_c 21.464002
_cell_angle_alpha 90.000000
_cell_angle_beta 19.310286
_cell_angle_gamma 90.000000
_cell_volume 1499.979791
_symmetry_space_group_name_H-M "P 2/M"
_symmetry_group_IT_number 10
_symmetry_cell_setting 'monoclinic'
loop_
_space_group_symop_operation_xyz
x,y,z
-x,y,-z
-x,-y,-z
x,-y,z
loop_
_atom_site_type_symbol
_atom_site_label
_atom_site_fract_x
_atom_site_fract_y
_atom_site_fract_z
Si Si1 0.695904 0.891617 0.467643
Si Si2 0.956871 0.772518 0.847790
Si Si3 0.680949 0.901881 0.695791
Si Si4 0.553432 0.196925 0.894402
Si Si5 0.053002 0.893148 0.896213
Si Si6 0.050033 0.395218 0.866374
Si Si7 0.445538 0.605177 0.724287
Si Si8 0.169541 0.228164 0.503437
O O1 0.370606 0.878311 0.675322
O O2 0.825956 0.849249 0.445864
O O3 0.817645 0.836096 0.331079
O O4 0.777924 0.000000 0.410443
O O5 0.090033 0.675200 0.783286
O O6 0.867692 0.832923 0.967265
O O7 0.705215 0.742821 0.964312
O O8 0.542862 0.889312 0.853174
O O9 0.647999 0.814238 0.670689
O O10 0.000000 0.914769 0.500000
O O11 0.564946 0.000000 0.742644
O O12 0.847431 0.248357 0.695791
O O13 0.500000 0.165986 0.000000
O O14 0.962424 0.000000 0.950005
O O15 0.000000 0.854643 0.000000
O O16 0.092406 0.500000 0.814369
O O17 0.274195 0.370211 0.773491
O O18 0.745670 0.383664 0.091673
O O19 0.558569 0.500000 0.647959
O O20 0.704811 0.673420 0.558838
#
# Coordination Sequence:
#
# PCOD8067340 Si02
#       8
#     4   4   4   4   4   4   4   4
#     4  11  24  41  63  92 132 173 215 267 324 385
#     4  12  23  40  65  90 129 177 209 260 330 384
#     4   9  20  36  57  84 118 163 215 267 311 361
#     4  11  24  42  58  90 129 176 224 265 312 384
#     4  10  24  42  63  95 127 163 217 270 322 390
#     4   9  20  39  67 103 132 158 209 274 333 395
#     4   9  19  38  68 102 130 160 209 273 337 392
#     4  11  21  41  64  90 129 172 220 271 318 381
#
# _framework density 21.333618999999999
#
# number of rings (size 3 to 8) (size 9 to 14) (size 15 to 20)
#    0.000    1.750    1.250    3.375    5.250    2.750 
#    0.000    1.250    0.000    8.625    0.000    0.000 
#    0.000    0.000    0.000    0.000    0.000    0.000 
#
# Total GULP energy -396635.814592 kJ/mol
# GULP energy per Si atom -12394.869206 kJ/mol
# Density = 2.128506 g / cm^3
# Si number density = 21.333619 Si / 1000 Ang^3
#
#
#
# Elastic Constant Matrix: (Units=GPa)
#
#
# Indices 1 2 3 4 5 6 
#
# 1 132.8929 61.8740 48.4722 0.0000 10.1046 0.0000
# 2 61.8740 141.4802 49.6059 0.0000 4.1547 0.0000
# 3 48.4722 49.6059 96.5668 0.0000 2.7741 0.0000
# 4 0.0000 0.0000 0.0000 30.7428 0.0000 0.3294
# 5 10.1046 4.1547 2.7741 0.0000 41.3988 0.0000
# 6 0.0000 0.0000 0.0000 0.3294 0.0000 33.6586
#
#
#
# Elastic Compliance Matrix: (Units=1/GPa)
#
#
# Indices 1 2 3 4 5 6 
#
# 1 0.010495 -0.003298 -0.003516 0.000000 -0.001995 0.000000
# 2 -0.003298 0.009671 -0.003314 0.000000 0.000057 0.000000
# 3 -0.003516 -0.003314 0.013815 0.000000 0.000265 0.000000
# 4 0.000000 0.000000 0.000000 0.032531 0.000000 -0.000318
# 5 -0.001995 0.000057 0.000265 0.000000 0.024619 0.000000
# 6 0.000000 0.000000 0.000000 -0.000318 0.000000 0.029713
#
#
# Mechanical properties :
#
#
# Convention : Reuss Voigt Hill
#
# Bulk Modulus (GPa) = 72.86527 76.76044 74.81285
# Shear Modulus (GPa) = 34.32283 35.22590 34.77437
#
# Velocity S-wave (km/s) = 4.01541 4.06789 4.04174
# Velocity P-wave (km/s) = 7.46507 7.62383 7.54487
#
# Compressibility (1/GPa) = 0.01372396
#
# Stress axis : x y z
#
# Youngs Moduli (GPa) = 95.28598 103.40390 72.38369
#
# Poissons Ratio (x) = 0.34105 0.25452
# Poissons Ratio (y) = 0.31427 0.23987
# Poissons Ratio (z) = 0.33505 0.34267
#
# Static dielectric constant tensor:
#      x y z
#    x 3.988990 0.000000 -0.010510 
#    y 0.000000 3.789450 0.000000 
#    z -0.010510 0.000000 4.003390 
# 
# 
# High freq. dielectric constant tensor:
#      x y z
#    x 1.842880 0.000000 -0.003210 
#    y 0.000000 1.814780 0.000000 
#    z -0.003210 0.000000 1.840140 
# 
# From -- ./inp_files/85376.got.cif
#   From: 2010.06.25/outbox.cif.g09.slc.cpg/sg10_43_cif.got.tgz:85376.got - 2010.06.27 22:07:45.
