data_PCOD8067963
_publ_section_title
;
Structure prediction by ZEFSAII (Michael W. Deem and Ramdas Pophale) SiO2 
 PCOD8067963
Probable space group: P 2/M
;
_chemical_formula_sum "Si O2"
_cell_formula_units_Z 32
_cell_length_a 15.727384
_cell_length_b 15.269268
_cell_length_c 9.422782
_cell_angle_alpha 90.000000
_cell_angle_beta 107.431541
_cell_angle_gamma 90.000000
_cell_volume 2158.920373
_symmetry_space_group_name_H-M "P 2/M"
_symmetry_group_IT_number 10
_symmetry_cell_setting 'monoclinic'
loop_
_space_group_symop_operation_xyz
x,y,z
-x,y,-z
-x,-y,-z
x,-y,z
loop_
_atom_site_type_symbol
_atom_site_label
_atom_site_fract_x
_atom_site_fract_y
_atom_site_fract_z
Si Si1 0.254064 0.399224 0.712898
Si Si2 0.083288 0.604144 0.130800
Si Si3 0.605884 0.903942 0.393113
Si Si4 0.394116 0.096058 0.287229
Si Si5 0.601274 0.258705 0.215664
Si Si6 0.398726 0.258705 0.114390
Si Si7 0.916712 0.395856 0.547511
Si Si8 0.254064 0.600776 0.041166
O O1 0.277430 0.500000 0.692443
O O2 0.341217 0.343750 0.716312
O O3 0.173272 0.365311 0.575391
O O4 0.226455 0.386709 0.863227
O O5 0.078114 0.500000 0.130675
O O6 0.081270 0.641150 0.290635
O O7 0.173272 0.634689 0.097881
O O8 0.000000 0.642186 0.000000
O O9 0.638768 0.886446 0.569384
O O10 0.500000 0.903553 0.333071
O O11 0.643264 0.826467 0.313226
O O12 0.640376 0.000000 0.359216
O O13 0.356736 0.173533 0.169962
O O14 0.359624 0.000000 0.218840
O O15 0.500000 0.277766 0.214771
O O16 0.604909 0.237638 0.052455
O O17 0.341217 0.343750 0.124905
O O18 0.921886 0.500000 0.552561
O O19 0.000000 0.357814 0.500000
O O20 0.277430 0.500000 0.084986
#
# Coordination Sequence:
#
# PCOD8067963 Si02
#       8
#     4   4   4   4   4   4   4   4
#     4   9  17  28  40  55  79 110 140 168 197 231
#     4   9  16  26  41  59  77  98 127 164 205 244
#     4   8  14  25  40  56  74  98 128 163 205 247
#     4   8  14  25  40  56  74  98 128 163 205 247
#     4   9  17  27  39  57  80 107 139 171 200 230
#     4   9  17  27  39  57  80 107 139 171 200 230
#     4   9  16  26  41  59  77  98 127 164 205 244
#     4   9  17  28  40  55  79 110 140 168 197 231
#
# _framework density 14.822224
#
# number of rings (size 3 to 8) (size 9 to 14) (size 15 to 20)
#    0.000    3.250    0.000    1.500    0.000    5.000 
#    0.000    5.000    0.000    0.000    0.000    7.000 
#    0.000    1.000    0.000    3.250    0.000    4.750 
#
# Total GULP energy -396638.400188 kJ/mol
# GULP energy per Si atom -12394.950006 kJ/mol
# Density = 1.478849 g / cm^3
# Si number density = 14.822224 Si / 1000 Ang^3
#
#
#
# Elastic Constant Matrix: (Units=GPa)
#
#
# Indices 1 2 3 4 5 6 
#
# 1 79.8916 46.4997 48.5491 0.0000 -3.0283 0.0000
# 2 46.4997 81.5772 45.3336 0.0000 0.3029 0.0000
# 3 48.5491 45.3336 80.8515 0.0000 2.7790 0.0000
# 4 0.0000 0.0000 0.0000 20.4604 0.0000 -4.5580
# 5 -3.0283 0.3029 2.7790 0.0000 19.9921 0.0000
# 6 0.0000 0.0000 0.0000 -4.5580 0.0000 2.9128
#
#
#
# Elastic Compliance Matrix: (Units=1/GPa)
#
#
# Indices 1 2 3 4 5 6 
#
# 1 0.023145 -0.007834 -0.009676 0.000000 0.004970 0.000000
# 2 -0.007834 0.020484 -0.006762 0.000000 -0.000557 0.000000
# 3 -0.009676 -0.006762 0.022123 0.000000 -0.004438 0.000000
# 4 0.000000 0.000000 0.000000 0.075030 0.000000 0.117408
# 5 0.004970 -0.000557 -0.004438 0.000000 0.051398 0.000000
# 6 0.000000 0.000000 0.000000 0.117408 0.000000 0.527036
#
#
# Mechanical properties :
#
#
# Convention : Reuss Voigt Hill
#
# Bulk Modulus (GPa) = 58.11626 58.12058 58.11842
# Shear Modulus (GPa) = 6.46416 15.46893 10.96654
#
# Velocity S-wave (km/s) = 2.09060 3.23403 2.72301
# Velocity P-wave (km/s) = 6.71725 7.29672 7.01297
#
# Compressibility (1/GPa) = 0.01720689
#
# Stress axis : x y z
#
# Youngs Moduli (GPa) = 43.20537 48.81948 45.20270
#
# Poissons Ratio (x) = 0.38246 0.43739
# Poissons Ratio (y) = 0.33848 0.30565
# Poissons Ratio (z) = 0.41806 0.33011
#
# Static dielectric constant tensor:
#      x y z
#    x 2.731360 0.000000 -0.071230 
#    y 0.000000 2.878180 0.000000 
#    z -0.071230 0.000000 3.005600 
# 
# 
# High freq. dielectric constant tensor:
#      x y z
#    x 1.539480 0.000000 -0.008390 
#    y 0.000000 1.539490 0.000000 
#    z -0.008390 0.000000 1.571780 
# 
# From -- ./inp_files/29163.got.cif
#   From: 2010.06.25/outbox.cif.g09.slc.cpg/sg10_15_cif.got.tgz:29163.got - 2010.06.27 22:07:45.
