data_PCOD8067890
_publ_section_title
;
Structure prediction by ZEFSAII (Michael W. Deem and Ramdas Pophale) SiO2 
 PCOD8067890
Probable space group: P 2/M
;
_chemical_formula_sum "Si O2"
_cell_formula_units_Z 32
_cell_length_a 24.460603
_cell_length_b 10.089757
_cell_length_c 8.943228
_cell_angle_alpha 90.000000
_cell_angle_beta 56.741184
_cell_angle_gamma 90.000000
_cell_volume 1845.666616
_symmetry_space_group_name_H-M "P 2/M"
_symmetry_group_IT_number 10
_symmetry_cell_setting 'monoclinic'
loop_
_space_group_symop_operation_xyz
x,y,z
-x,y,-z
-x,-y,-z
x,-y,z
loop_
_atom_site_type_symbol
_atom_site_label
_atom_site_fract_x
_atom_site_fract_y
_atom_site_fract_z
Si Si1 0.072878 0.648286 0.068662
Si Si2 0.676043 0.148356 0.308209
Si Si3 0.432415 0.348973 0.527862
Si Si4 0.927123 0.351714 0.287298
Si Si5 0.676043 0.148355 0.663670
Si Si6 0.178224 0.148255 0.554680
Si Si7 0.432415 0.348974 0.174889
Si Si8 0.178225 0.851745 0.910641
O O1 0.089923 0.500000 0.098638
O O2 0.075436 0.652926 0.886845
O O3 0.125695 0.749706 0.059193
O O4 0.000001 0.688360 0.232241
O O5 0.624528 0.254578 0.321169
O O6 0.675275 0.152780 0.487092
O O7 0.748897 0.185725 0.141976
O O8 0.657345 0.000000 0.281525
O O9 0.500000 0.303373 0.500000
O O10 0.415191 0.500000 0.597970
O O11 0.439625 0.333072 0.340561
O O12 0.910079 0.500000 0.368407
O O13 0.874307 0.250294 0.436279
O O14 0.748898 0.185725 0.611339
O O15 0.624529 0.254577 0.805252
O O16 0.657346 0.000000 0.746448
O O17 0.176480 0.154955 0.735277
O O18 0.160020 0.000000 0.528497
O O19 0.415188 0.500000 0.156457
O O20 0.500000 0.303377 0.000000
O O21 0.160021 0.000000 0.991437
#
# Coordination Sequence:
#
# PCOD8067890 Si02
#       8
#     4   4   4   4   4   4   4   4
#     4   8  13  19  25  35  53  77 106 140 175 209
#     4   8  14  24  36  50  68  89 115 148 183 218
#     4   9  17  28  41  57  76  97 122 152 185 221
#     4   8  13  19  25  35  53  77 106 140 175 209
#     4   8  14  24  36  50  68  89 115 148 183 218
#     4   8  13  20  29  41  57  78 106 140 175 209
#     4   9  17  28  41  57  76  97 122 152 185 221
#     4   8  13  20  29  41  57  78 106 140 175 209
#
# _framework density 17.337909
#
# number of rings (size 3 to 8) (size 9 to 14) (size 15 to 20)
#    0.000    3.750    0.000    2.250    0.000    2.000 
#    0.000    7.500    0.000    0.000    0.000    0.000 
#    0.000    0.000    0.000    0.000    0.000    1.250 
#
# Total GULP energy -396525.490624 kJ/mol
# GULP energy per Si atom -12391.421582 kJ/mol
# Density = 1.729845 g / cm^3
# Si number density = 17.337909 Si / 1000 Ang^3
#
#
#
# Elastic Constant Matrix: (Units=GPa)
#
#
# Indices 1 2 3 4 5 6 
#
# 1 85.6942 83.4826 35.5325 0.0000 -49.3969 0.0000
# 2 83.4826 142.9037 50.7422 0.0000 -57.7881 0.0000
# 3 35.5325 50.7422 38.3498 0.0000 -34.1673 0.0000
# 4 0.0000 0.0000 0.0000 20.3679 0.0000 -19.4360
# 5 -49.3969 -57.7881 -34.1673 0.0000 37.9685 0.0000
# 6 0.0000 0.0000 0.0000 -19.4360 0.0000 31.3798
#
#
#
# Elastic Compliance Matrix: (Units=1/GPa)
#
#
# Indices 1 2 3 4 5 6 
#
# 1 0.098855 -0.012319 0.113924 0.000000 0.212379 0.000000
# 2 -0.012319 0.019803 -0.011168 0.000000 0.004063 0.000000
# 3 0.113924 -0.011168 0.263317 0.000000 0.368172 0.000000
# 4 0.000000 0.000000 0.000000 0.120054 0.000000 0.074359
# 5 0.212379 0.004063 0.368172 0.000000 0.640139 0.000000
# 6 0.000000 0.000000 0.000000 0.074359 0.000000 0.077924
#
#
# Mechanical properties :
#
#
# Convention : Reuss Voigt Hill
#
# Bulk Modulus (GPa) = 1.77668 67.38470 34.58069
# Shear Modulus (GPa) = 4.07553 24.42260 14.24906
#
# Velocity S-wave (km/s) = 1.53484 3.75724 2.86989
# Velocity P-wave (km/s) = 2.04156 7.60081 5.56508
#
# Compressibility (1/GPa) = 0.56284801
#
# Stress axis : x y z
#
# Youngs Moduli (GPa) = 10.11582 50.49741 3.79770
#
# Poissons Ratio (x) = 0.62208 -0.43265
# Poissons Ratio (y) = 0.12462 0.04241
# Poissons Ratio (z) = -1.15243 0.56397
#
# Static dielectric constant tensor:
#      x y z
#    x 3.195170 0.000000 -0.566670 
#    y 0.000000 3.558970 0.000000 
#    z -0.566670 0.000000 2.874110 
# 
# 
# High freq. dielectric constant tensor:
#      x y z
#    x 1.644620 0.000000 -0.045990 
#    y 0.000000 1.675910 0.000000 
#    z -0.045990 0.000000 1.618570 
# 
# From -- ./inp_files/56292.got.cif
#   From: 2010.06.25/outbox.cif.g09.slc.cpg/sg10_29_cif.got.tgz:56292.got - 2010.06.27 22:07:45.
