data_PCOD8067863
_publ_section_title
;
Structure prediction by ZEFSAII (Michael W. Deem and Ramdas Pophale) SiO2 
 PCOD8067863
Probable space group: P 2/M
;
_chemical_formula_sum "Si O2"
_cell_formula_units_Z 28
_cell_length_a 18.342250
_cell_length_b 8.856488
_cell_length_c 22.027544
_cell_angle_alpha 90.000000
_cell_angle_beta 25.781123
_cell_angle_gamma 90.000000
_cell_volume 1556.338404
_symmetry_space_group_name_H-M "P 2/M"
_symmetry_group_IT_number 10
_symmetry_cell_setting 'monoclinic'
loop_
_space_group_symop_operation_xyz
x,y,z
-x,y,-z
-x,-y,-z
x,-y,z
loop_
_atom_site_type_symbol
_atom_site_label
_atom_site_fract_x
_atom_site_fract_y
_atom_site_fract_z
Si Si1 0.523446 0.678923 0.080814
Si Si2 0.615365 0.678564 0.466310
Si Si3 0.754540 0.321184 0.797590
Si Si4 0.082521 0.678897 0.606734
Si Si5 0.987166 0.322003 0.205947
Si Si6 0.550959 0.679459 0.650472
Si Si7 0.324713 0.178031 0.916157
O O1 0.532977 0.500000 0.084800
O O2 0.338882 0.730149 0.194208
O O3 0.559346 0.760247 0.116755
O O4 0.656850 0.734587 0.930758
O O5 0.500000 0.751400 0.500000
O O6 0.600259 0.500000 0.476630
O O7 0.809191 0.723074 0.309181
O O8 0.551714 0.733276 0.579873
O O9 0.748365 0.500000 0.803833
O O10 0.948290 0.263499 0.656494
O O11 0.088134 0.500000 0.604517
O O12 0.016494 0.733364 0.721691
O O13 0.271857 0.733875 0.452004
O O14 0.021917 0.500000 0.175294
O O15 0.134577 0.235523 0.061201
O O16 0.527369 0.500000 0.674137
O O17 0.400245 0.764256 0.796246
O O18 0.325949 0.000000 0.917059
#
# Coordination Sequence:
#
# PCOD8067863 Si02
#       7
#     4   4   4   4   4   4   4
#     4   9  16  28  49  72  96 127 162 207 257 297
#     4   8  15  31  58  89 107 117 150 206 256 293
#     4   8  13  24  48  77  96 116 159 215 256 293
#     4   8  13  26  50  76  94 117 164 212 245 286
#     4   9  16  30  55  78  99 128 161 201 245 296
#     4   9  18  32  53  75  99 132 162 197 247 300
#     4  12  23  33  45  68 104 139 171 207 239 284
#
# _framework density 17.990943999999999
#
# number of rings (size 3 to 8) (size 9 to 14) (size 15 to 20)
#    0.000    3.000    1.429    3.857    0.000    0.000 
#    0.000    5.714    0.000   10.286    0.000    0.000 
#    0.000    0.000    0.000    0.000    0.000    0.000 
#
# Total GULP energy -346925.832938 kJ/mol
# GULP energy per Si atom -12390.208319 kJ/mol
# Density = 1.795000 g / cm^3
# Si number density = 17.990944 Si / 1000 Ang^3
#
#
#
# Elastic Constant Matrix: (Units=GPa)
#
#
# Indices 1 2 3 4 5 6 
#
# 1 119.0514 27.7921 59.5897 0.0000 -19.1907 0.0000
# 2 27.7921 52.7643 36.1087 0.0000 0.2956 0.0000
# 3 59.5897 36.1087 122.9381 0.0000 -6.0033 0.0000
# 4 0.0000 0.0000 0.0000 1.1166 0.0000 -4.0150
# 5 -19.1907 0.2956 -6.0033 0.0000 27.0122 0.0000
# 6 0.0000 0.0000 0.0000 -4.0150 0.0000 0.3284
#
#
#
# Elastic Compliance Matrix: (Units=1/GPa)
#
#
# Indices 1 2 3 4 5 6 
#
# 1 0.012975 -0.003566 -0.004842 0.000000 0.008181 0.000000
# 2 -0.003566 0.024790 -0.005752 0.000000 -0.004083 0.000000
# 3 -0.004842 -0.005752 0.012137 0.000000 -0.000680 0.000000
# 4 0.000000 0.000000 0.000000 -0.020846 0.000000 -0.254863
# 5 0.008181 -0.004083 -0.000680 0.000000 0.042726 0.000000
# 6 0.000000 0.000000 0.000000 -0.254863 0.000000 -0.070877
#
#
# Mechanical properties :
#
#
# Convention : Reuss Voigt Hill
#
# Bulk Modulus (GPa) = 46.33615 60.19275 53.26445
# Shear Modulus (GPa) = 137.28940 17.10897 77.19919
#
# Velocity S-wave (km/s) = 8.74505 3.08714 6.55768
# Velocity P-wave (km/s) = 11.30394 6.79979 9.32781
#
# Compressibility (1/GPa) = 0.02158142
#
# Stress axis : x y z
#
# Youngs Moduli (GPa) = 77.07393 40.33921 82.38998
#
# Poissons Ratio (x) = 0.14386 0.39893
# Poissons Ratio (y) = 0.27486 0.47390
# Poissons Ratio (z) = 0.37319 0.23203
#
# Static dielectric constant tensor:
#      x y z
#    x 3.696800 0.000000 -0.356460 
#    y 0.000000 2.770300 0.000000 
#    z -0.356460 0.000000 3.421800 
# 
# 
# High freq. dielectric constant tensor:
#      x y z
#    x 1.691490 0.000000 -0.019680 
#    y 0.000000 1.639790 0.000000 
#    z -0.019680 0.000000 1.692340 
# 
# From -- ./inp_files/78798.got.cif
#   From: 2010.06.25/outbox.cif.g09.slc.cpg/sg10_40_cif.got.tgz:78798.got - 2010.06.27 22:07:45.
