data_PCOD8067019
_publ_section_title
;
Structure prediction by ZEFSAII (Michael W. Deem and Ramdas Pophale) SiO2 
 PCOD8067019
Probable space group: P 2/M
;
_chemical_formula_sum "Si O2"
_cell_formula_units_Z 32
_cell_length_a 15.748664
_cell_length_b 9.061706
_cell_length_c 23.494119
_cell_angle_alpha 90.000000
_cell_angle_beta 152.011223
_cell_angle_gamma 90.000000
_cell_volume 1573.483203
_symmetry_space_group_name_H-M "P 2/M"
_symmetry_group_IT_number 10
_symmetry_cell_setting 'monoclinic'
loop_
_space_group_symop_operation_xyz
x,y,z
-x,y,-z
-x,-y,-z
x,-y,z
loop_
_atom_site_type_symbol
_atom_site_label
_atom_site_fract_x
_atom_site_fract_y
_atom_site_fract_z
Si Si1 0.296562 0.174622 0.657695
Si Si2 0.292765 0.667302 0.437749
Si Si3 0.956638 0.828089 0.393680
Si Si4 0.010682 0.826040 0.940035
Si Si5 0.950578 0.829474 0.264302
Si Si6 0.635410 0.674208 0.899292
Si Si7 0.300924 0.332350 0.308730
Si Si8 0.372294 0.672988 0.975442
O O1 0.189809 0.236906 0.649784
O O2 0.486508 0.260646 0.767748
O O3 0.165424 0.223870 0.527792
O O4 0.338882 0.000000 0.684179
O O5 0.235569 0.500000 0.418738
O O6 0.489174 0.700788 0.580529
O O7 0.279199 0.691507 0.362628
O O8 0.158816 0.784347 0.385944
O O9 0.884555 0.790942 0.288708
O O10 0.963568 0.000000 0.410683
O O11 0.822421 0.779867 0.799416
O O12 0.038597 0.000000 0.949352
O O13 0.000000 0.780907 0.000000
O O14 0.172487 0.744177 0.003144
O O15 0.828908 0.737610 0.149181
O O16 0.930348 0.000000 0.237309
O O17 0.652072 0.500000 0.901044
O O18 0.572490 0.713703 0.927085
O O19 0.250219 0.500000 0.261741
O O20 0.359884 0.500000 0.959623
O O21 0.500000 0.739267 0.000000
#
# Coordination Sequence:
#
# PCOD8067019 Si02
#       8
#     4   4   4   4   4   4   4   4
#     4   9  17  35  59  77 103 145 186 222 269 325
#     4   9  19  36  57  81 109 141 174 215 275 335
#     4   8  17  33  53  78 108 143 179 221 272 322
#     4  11  25  42  59  81 111 148 188 232 281 331
#     4  11  21  32  51  82 113 139 178 226 268 319
#     4  11  23  38  58  84 113 146 187 233 277 326
#     4   9  19  38  61  81 105 139 179 223 272 329
#     4  10  22  39  57  80 115 155 188 224 276 332
#
# _framework density 20.337046999999998
#
# number of rings (size 3 to 8) (size 9 to 14) (size 15 to 20)
#    0.000    2.250    0.000    4.125    0.000    7.250 
#    0.000    8.125    0.000    0.000    0.000    0.000 
#    0.000    0.000    0.000    0.000    0.000    0.000 
#
# Total GULP energy -396646.029014 kJ/mol
# GULP energy per Si atom -12395.188407 kJ/mol
# Density = 2.029076 g / cm^3
# Si number density = 20.337047 Si / 1000 Ang^3
#
#
#
# Elastic Constant Matrix: (Units=GPa)
#
#
# Indices 1 2 3 4 5 6 
#
# 1 53.9806 29.3362 14.7691 0.0000 7.5123 0.0000
# 2 29.3362 44.1086 34.0227 0.0000 -5.4823 0.0000
# 3 14.7691 34.0227 112.7573 0.0000 -0.0849 0.0000
# 4 0.0000 0.0000 0.0000 36.1048 0.0000 3.8533
# 5 7.5123 -5.4823 -0.0849 0.0000 25.6990 0.0000
# 6 0.0000 0.0000 0.0000 3.8533 0.0000 24.1133
#
#
#
# Elastic Compliance Matrix: (Units=1/GPa)
#
#
# Indices 1 2 3 4 5 6 
#
# 1 0.035218 -0.028530 0.003983 0.000000 -0.016368 0.000000
# 2 -0.028530 0.053708 -0.012454 0.000000 0.019756 0.000000
# 3 0.003983 -0.012454 0.012102 0.000000 -0.003781 0.000000
# 4 0.000000 0.000000 0.000000 0.028178 0.000000 -0.004503
# 5 -0.016368 0.019756 -0.003781 0.000000 0.047899 0.000000
# 6 0.000000 0.000000 0.000000 -0.004503 0.000000 0.042190
#
#
# Mechanical properties :
#
#
# Convention : Reuss Voigt Hill
#
# Bulk Modulus (GPa) = 37.00042 40.78916 38.89479
# Shear Modulus (GPa) = 16.53957 26.03133 21.28545
#
# Velocity S-wave (km/s) = 2.85489 3.58158 3.23868
# Velocity P-wave (km/s) = 5.39447 6.09949 5.75778
#
# Compressibility (1/GPa) = 0.02702672
#
# Stress axis : x y z
#
# Youngs Moduli (GPa) = 28.39439 18.61915 82.63269
#
# Poissons Ratio (x) = 0.53121 -0.32915
# Poissons Ratio (y) = 0.81010 1.02909
# Poissons Ratio (z) = -0.11310 0.23188
#
# Static dielectric constant tensor:
#      x y z
#    x -1.812620 0.000000 0.601800 
#    y 0.000000 3.444040 0.000000 
#    z 0.601800 0.000000 3.694600 
# 
# 
# High freq. dielectric constant tensor:
#      x y z
#    x 1.788030 0.000000 0.000580 
#    y 0.000000 1.776380 0.000000 
#    z 0.000580 0.000000 1.807930 
# 
# From -- ./inp_files/89636.got.cif
#   From: 2010.06.25/outbox.cif.g09.slc.cpg/sg10_45_cif.got.tgz:89636.got - 2010.06.27 22:07:45.
