data_PCOD8067765
_publ_section_title
;
Structure prediction by ZEFSAII (Michael W. Deem and Ramdas Pophale) SiO2 
 PCOD8067765
Probable space group: P 2/M
;
_chemical_formula_sum "Si O2"
_cell_formula_units_Z 28
_cell_length_a 16.814938
_cell_length_b 14.029595
_cell_length_c 16.884920
_cell_angle_alpha 90.000000
_cell_angle_beta 25.313905
_cell_angle_gamma 90.000000
_cell_volume 1703.154367
_symmetry_space_group_name_H-M "P 2/M"
_symmetry_group_IT_number 10
_symmetry_cell_setting 'monoclinic'
loop_
_space_group_symop_operation_xyz
x,y,z
-x,y,-z
-x,-y,-z
x,-y,z
loop_
_atom_site_type_symbol
_atom_site_label
_atom_site_fract_x
_atom_site_fract_y
_atom_site_fract_z
Si Si1 0.566938 0.887209 0.062013
Si Si2 0.796198 0.887797 0.703859
Si Si3 0.018457 0.111800 0.893944
Si Si4 0.764108 0.393681 0.291609
Si Si5 0.188962 0.392876 0.933749
Si Si6 0.333044 0.796893 0.864672
Si Si7 0.606879 0.206247 0.480898
O O1 0.361522 0.856651 0.217052
O O2 0.606727 0.823181 0.101908
O O3 0.574455 0.000000 0.074324
O O4 0.724761 0.859268 0.855618
O O5 0.000000 0.841983 0.500000
O O6 0.814903 0.000000 0.683014
O O7 0.192061 0.159526 0.695011
O O8 0.048171 0.000000 0.867813
O O9 0.840288 0.138699 0.003595
O O10 0.000000 0.152068 0.000000
O O11 0.685114 0.500000 0.375647
O O12 0.766554 0.366958 0.196905
O O13 0.626158 0.321268 0.459708
O O14 0.968355 0.385394 0.144797
O O15 0.256562 0.500000 0.894293
O O16 0.287326 0.315902 0.901741
O O17 0.500552 0.823514 0.655420
O O18 0.500000 0.166351 0.500000
#
# Coordination Sequence:
#
# PCOD8067765 Si02
#       7
#     4   4   4   4   4   4   4
#     4   9  19  33  51  80 107 131 162 203 253 304
#     4   8  15  33  59  79 100 126 158 202 256 314
#     4  11  23  37  48  61  93 142 187 220 249 284
#     4   9  17  32  52  72  93 128 181 231 273 308
#     4   9  17  31  53  72  96 134 174 221 272 310
#     4  12  22  34  52  75 108 135 173 219 261 303
#     4  12  22  33  50  70  95 136 186 223 254 305
#
# _framework density 16.440083000000001
#
# number of rings (size 3 to 8) (size 9 to 14) (size 15 to 20)
#    0.000    2.000    4.286    2.143    0.000    3.429 
#    0.000    1.429    0.000    0.000    0.000    2.000 
#    0.000    1.143    0.000    0.000    0.000    0.000 
#
# Total GULP energy -347164.827602 kJ/mol
# GULP energy per Si atom -12398.743843 kJ/mol
# Density = 1.640266 g / cm^3
# Si number density = 16.440083 Si / 1000 Ang^3
#
#
#
# Elastic Constant Matrix: (Units=GPa)
#
#
# Indices 1 2 3 4 5 6 
#
# 1 114.1270 40.3335 55.9272 0.0000 6.8535 0.0000
# 2 40.3335 72.2843 28.8619 0.0000 2.7326 0.0000
# 3 55.9272 28.8619 121.9938 0.0000 -6.8485 0.0000
# 4 0.0000 0.0000 0.0000 -55.9931 0.0000 -0.4952
# 5 6.8535 2.7326 -6.8485 0.0000 19.4310 0.0000
# 6 0.0000 0.0000 0.0000 -0.4952 0.0000 23.7594
#
#
#
# Elastic Compliance Matrix: (Units=1/GPa)
#
#
# Indices 1 2 3 4 5 6 
#
# 1 0.013570 -0.005225 -0.005318 0.000000 -0.005926 0.000000
# 2 -0.005225 0.017525 -0.001822 0.000000 -0.001264 0.000000
# 3 -0.005318 -0.001822 0.011412 0.000000 0.006154 0.000000
# 4 0.000000 0.000000 0.000000 -0.017856 0.000000 -0.000372
# 5 -0.005926 -0.001264 0.006154 0.000000 0.055901 0.000000
# 6 0.000000 0.000000 0.000000 -0.000372 0.000000 0.042081
#
#
# Mechanical properties :
#
#
# Convention : Reuss Voigt Hill
#
# Bulk Modulus (GPa) = 56.24935 62.07226 59.16081
# Shear Modulus (GPa) = 32.61850 9.65831 21.13841
#
# Velocity S-wave (km/s) = 4.45914 2.42644 3.58967
# Velocity P-wave (km/s) = 7.79749 6.75935 7.29691
#
# Compressibility (1/GPa) = 0.01777798
#
# Stress axis : x y z
#
# Youngs Moduli (GPa) = 73.68930 57.06196 87.63048
#
# Poissons Ratio (x) = 0.29814 0.46601
# Poissons Ratio (y) = 0.38501 0.15965
# Poissons Ratio (z) = 0.39187 0.10396
#
# Static dielectric constant tensor:
#      x y z
#    x 2.887580 0.000000 -0.200800 
#    y 0.000000 3.031650 0.000000 
#    z -0.200800 0.000000 3.382870 
# 
# 
# High freq. dielectric constant tensor:
#      x y z
#    x 1.598030 0.000000 -0.019680 
#    y 0.000000 1.617440 0.000000 
#    z -0.019680 0.000000 1.647120 
# 
# From -- ./inp_files/67563.got.cif
#   From: 2010.06.25/outbox.cif.g09.slc.cpg/sg10_34_cif.got.tgz:67563.got - 2010.06.27 22:07:45.
