data_PCOD8067467
_publ_section_title
;
Structure prediction by ZEFSAII (Michael W. Deem and Ramdas Pophale) SiO2 
 PCOD8067467
Probable space group: P 2/M
;
_chemical_formula_sum "Si O2"
_cell_formula_units_Z 28
_cell_length_a 8.891281
_cell_length_b 15.018978
_cell_length_c 12.361905
_cell_angle_alpha 90.000000
_cell_angle_beta 56.094619
_cell_angle_gamma 90.000000
_cell_volume 1370.084107
_symmetry_space_group_name_H-M "P 2/M"
_symmetry_group_IT_number 10
_symmetry_cell_setting 'monoclinic'
loop_
_space_group_symop_operation_xyz
x,y,z
-x,y,-z
-x,-y,-z
x,-y,z
loop_
_atom_site_type_symbol
_atom_site_label
_atom_site_fract_x
_atom_site_fract_y
_atom_site_fract_z
Si Si1 0.869819 0.211217 0.958706
Si Si2 0.309041 0.666219 0.126709
Si Si3 0.738922 0.815500 0.686839
Si Si4 0.979255 0.400196 0.382675
Si Si5 0.956511 0.892997 0.300192
Si Si6 0.556956 0.902789 0.097596
Si Si7 0.299095 0.248971 0.538022
O O1 0.816263 0.301812 0.921506
O O2 0.941604 0.132826 0.850431
O O3 0.700581 0.166698 0.086761
O O4 0.000000 0.242766 0.000000
O O5 0.348351 0.748831 0.189420
O O6 0.179323 0.598909 0.246132
O O7 0.500000 0.627139 0.000000
O O8 0.942351 0.847456 0.635866
O O9 0.614064 0.902861 0.751696
O O10 0.711080 0.768564 0.584874
O O11 0.899346 0.500000 0.405809
O O12 0.839351 0.331155 0.381490
O O13 0.000000 0.372027 0.500000
O O14 0.762942 0.842213 0.376594
O O15 0.936007 0.000000 0.319841
O O16 0.644172 0.000000 0.061311
O O17 0.500000 0.873965 0.000000
O O18 0.500000 0.273898 0.500000
#
# Coordination Sequence:
#
# PCOD8067467 Si02
#       7
#     4   4   4   4   4   4   4
#     4  11  22  35  57  88 122 168 209 259 315 378
#     4  11  20  39  68  96 123 160 207 261 316 379
#     4  11  20  38  61  87 118 167 215 258 311 375
#     4  11  23  45  74  99 125 164 213 264 320 390
#     4  11  23  40  60  85 123 171 220 266 314 371
#     4  11  20  33  54  83 114 157 214 256 299 364
#     4  12  26  41  63  92 127 167 215 264 323 383
#
# _framework density 20.436702
#
# number of rings (size 3 to 8) (size 9 to 14) (size 15 to 20)
#    0.000    0.857    8.571    1.286    2.000    3.714 
#    0.000    0.000    0.000    0.429    0.000    0.000 
#    0.000    0.000    0.000    0.000    0.000    0.000 
#
# Total GULP energy -346892.733315 kJ/mol
# GULP energy per Si atom -12389.026190 kJ/mol
# Density = 2.039019 g / cm^3
# Si number density = 20.436702 Si / 1000 Ang^3
#
#
#
# Elastic Constant Matrix: (Units=GPa)
#
#
# Indices 1 2 3 4 5 6 
#
# 1 109.6542 38.7719 40.6131 0.0000 -4.0643 0.0000
# 2 38.7719 86.7769 28.3019 0.0000 -4.6089 0.0000
# 3 40.6131 28.3019 75.9256 0.0000 -12.2150 0.0000
# 4 0.0000 0.0000 0.0000 19.5921 0.0000 -2.8314
# 5 -4.0643 -4.6089 -12.2150 0.0000 33.7113 0.0000
# 6 0.0000 0.0000 0.0000 -2.8314 0.0000 11.4088
#
#
#
# Elastic Compliance Matrix: (Units=1/GPa)
#
#
# Indices 1 2 3 4 5 6 
#
# 1 0.012437 -0.003856 -0.005372 0.000000 -0.000974 0.000000
# 2 -0.003856 0.014315 -0.003221 0.000000 0.000325 0.000000
# 3 -0.005372 -0.003221 0.018126 0.000000 0.005480 0.000000
# 4 0.000000 0.000000 0.000000 0.052940 0.000000 0.013138
# 5 -0.000974 0.000325 0.005480 0.000000 0.031576 0.000000
# 6 0.000000 0.000000 0.000000 0.013138 0.000000 0.090913
#
#
# Mechanical properties :
#
#
# Convention : Reuss Voigt Hill
#
# Bulk Modulus (GPa) = 50.05052 54.19226 52.12139
# Shear Modulus (GPa) = 19.85202 23.92040 21.88621
#
# Velocity S-wave (km/s) = 3.12009 3.42491 3.27605
# Velocity P-wave (km/s) = 6.12566 6.49729 6.31421
#
# Compressibility (1/GPa) = 0.01997981
#
# Stress axis : x y z
#
# Youngs Moduli (GPa) = 80.40806 69.85892 55.16857
#
# Poissons Ratio (x) = 0.26941 0.29634
# Poissons Ratio (y) = 0.31009 0.17768
# Poissons Ratio (z) = 0.43192 0.22500
#
# Static dielectric constant tensor:
#      x y z
#    x 5.226300 0.000000 -0.639330 
#    y 0.000000 3.453020 0.000000 
#    z -0.639330 0.000000 3.934450 
# 
# 
# High freq. dielectric constant tensor:
#      x y z
#    x 1.780350 0.000000 -0.016490 
#    y 0.000000 1.777290 0.000000 
#    z -0.016490 0.000000 1.806640 
# 
# From -- ./inp_files/25205.got.cif
#   From: 2010.06.25/outbox.cif.g09.slc.cpg/sg10_13_cif.got.tgz:25205.got - 2010.06.27 22:07:45.
