data_PCOD8067383
_publ_section_title
;
Structure prediction by ZEFSAII (Michael W. Deem and Ramdas Pophale) SiO2 
 PCOD8067383
Probable space group: P 2/M
;
_chemical_formula_sum "Si O2"
_cell_formula_units_Z 24
_cell_length_a 12.439414
_cell_length_b 9.019502
_cell_length_c 15.169649
_cell_angle_alpha 90.000000
_cell_angle_beta 62.036064
_cell_angle_gamma 90.000000
_cell_volume 1503.274111
_symmetry_space_group_name_H-M "P 2/M"
_symmetry_group_IT_number 10
_symmetry_cell_setting 'monoclinic'
loop_
_space_group_symop_operation_xyz
x,y,z
-x,y,-z
-x,-y,-z
x,-y,z
loop_
_atom_site_type_symbol
_atom_site_label
_atom_site_fract_x
_atom_site_fract_y
_atom_site_fract_z
Si Si1 0.683387 0.174472 0.772829
Si Si2 0.864699 0.175851 0.553256
Si Si3 0.569713 0.325110 0.170250
Si Si4 0.412566 0.824765 0.661332
Si Si5 0.328195 0.824601 0.508645
Si Si6 0.362022 0.163933 0.020847
O O1 0.798711 0.221309 0.669648
O O2 0.565976 0.261882 0.784470
O O3 0.715323 0.213388 0.862842
O O4 0.653339 0.000000 0.774524
O O5 0.788249 0.239767 0.499243
O O6 0.000000 0.245835 0.500000
O O7 0.873126 0.000000 0.542211
O O8 0.565256 0.500000 0.175300
O O9 0.632207 0.261703 0.234727
O O10 0.652866 0.276405 0.054794
O O11 0.325001 0.778958 0.613014
O O12 0.548523 0.769281 0.585531
O O13 0.407858 0.000000 0.680904
O O14 0.330106 0.000000 0.501258
O O15 0.321922 0.000000 0.004583
O O16 0.500000 0.160613 0.000000
#
# Coordination Sequence:
#
# PCOD8067383 Si02
#       6
#     4   4   4   4   4   4
#     4   9  16  28  43  59  84 115 142 167 203 252
#     4   9  15  24  43  69  89 105 135 177 210 239
#     4  11  19  25  38  62  87 111 138 174 215 247
#     4   9  15  26  43  59  82 114 143 167 198 254
#     4   8  14  24  41  62  82 110 142 169 202 245
#     4   8  15  26  40  57  80 112 142 167 202 254
#
# _framework density 15.965153000000001
#
# number of rings (size 3 to 8) (size 9 to 14) (size 15 to 20)
#    0.000    3.000    1.667    3.500    0.000    3.000 
#    0.000    1.667    0.000    0.500    0.000    1.167 
#    0.000    9.333    0.000    0.000    0.000    0.000 
#
# Total GULP energy -297386.824257 kJ/mol
# GULP energy per Si atom -12391.117677 kJ/mol
# Density = 1.592882 g / cm^3
# Si number density = 15.965153 Si / 1000 Ang^3
#
#
#
# Elastic Constant Matrix: (Units=GPa)
#
#
# Indices 1 2 3 4 5 6 
#
# 1 83.8551 18.1071 60.6297 0.0000 10.7485 0.0000
# 2 18.1071 56.7144 44.8178 0.0000 10.9016 0.0000
# 3 60.6297 44.8178 148.6218 0.0000 24.2586 0.0000
# 4 0.0000 0.0000 0.0000 4.6015 0.0000 0.5356
# 5 10.7485 10.9016 24.2586 0.0000 23.0986 0.0000
# 6 0.0000 0.0000 0.0000 0.5356 0.0000 5.0004
#
#
#
# Elastic Compliance Matrix: (Units=1/GPa)
#
#
# Indices 1 2 3 4 5 6 
#
# 1 0.016926 0.000134 -0.006818 0.000000 -0.000779 0.000000
# 2 0.000134 0.023515 -0.006426 0.000000 -0.004412 0.000000
# 3 -0.006818 -0.006426 0.012594 0.000000 -0.007021 0.000000
# 4 0.000000 0.000000 0.000000 0.220063 0.000000 -0.023571
# 5 -0.000779 -0.004412 -0.007021 0.000000 0.053111 0.000000
# 6 0.000000 0.000000 0.000000 -0.023571 0.000000 0.202509
#
#
# Mechanical properties :
#
#
# Convention : Reuss Voigt Hill
#
# Bulk Modulus (GPa) = 37.29272 59.58897 48.44085
# Shear Modulus (GPa) = 8.86720 17.58254 13.22487
#
# Velocity S-wave (km/s) = 2.35927 3.32220 2.88124
# Velocity P-wave (km/s) = 5.55257 7.21951 6.44020
#
# Compressibility (1/GPa) = 0.02681488
#
# Stress axis : x y z
#
# Youngs Moduli (GPa) = 59.08084 42.52545 79.40603
#
# Poissons Ratio (x) = -0.00568 0.54140
# Poissons Ratio (y) = -0.00790 0.51023
# Poissons Ratio (z) = 0.40282 0.27325
#
# Static dielectric constant tensor:
#      x y z
#    x 2.979610 0.000000 0.253740 
#    y 0.000000 2.643260 0.000000 
#    z 0.253740 0.000000 3.484780 
# 
# 
# High freq. dielectric constant tensor:
#      x y z
#    x 1.563010 0.000000 0.028220 
#    y 0.000000 1.574590 0.000000 
#    z 0.028220 0.000000 1.625570 
# 
# From -- ./inp_files/48654.got.cif
#   From: 2010.06.25/outbox.cif.g09.slc.cpg/sg10_25_cif.got.tgz:48654.got - 2010.06.27 22:07:45.
