data_PCOD8067379
_publ_section_title
;
Structure prediction by ZEFSAII (Michael W. Deem and Ramdas Pophale) SiO2 
 PCOD8067379
Probable space group: P 2/M
;
_chemical_formula_sum "Si O2"
_cell_formula_units_Z 32
_cell_length_a 15.082905
_cell_length_b 14.091692
_cell_length_c 10.124281
_cell_angle_alpha 90.000000
_cell_angle_beta 58.626412
_cell_angle_gamma 90.000000
_cell_volume 1837.231317
_symmetry_space_group_name_H-M "P 2/M"
_symmetry_group_IT_number 10
_symmetry_cell_setting 'monoclinic'
loop_
_space_group_symop_operation_xyz
x,y,z
-x,y,-z
-x,-y,-z
x,-y,z
loop_
_atom_site_type_symbol
_atom_site_label
_atom_site_fract_x
_atom_site_fract_y
_atom_site_fract_z
Si Si1 0.408351 0.728036 0.669961
Si Si2 0.923262 0.771426 0.174902
Si Si3 0.207417 0.607845 0.830007
Si Si4 0.740893 0.891879 0.232274
Si Si5 0.063069 0.231151 0.319776
Si Si6 0.754772 0.892089 0.915107
Si Si7 0.209481 0.392129 0.135656
Si Si8 0.404975 0.267842 0.974842
O O1 0.500000 0.702100 0.500000
O O2 0.321317 0.648580 0.714926
O O3 0.364499 0.832150 0.666896
O O4 0.446889 0.725887 0.791981
O O5 0.878188 0.666654 0.183005
O O6 0.831342 0.849108 0.253604
O O7 0.979644 0.768361 0.269299
O O8 0.000000 0.803613 0.000000
O O9 0.203363 0.500000 0.783340
O O10 0.179699 0.616809 0.005398
O O11 0.718400 0.000000 0.290634
O O12 0.778031 0.881599 0.052369
O O13 0.144387 0.145703 0.238865
O O14 0.125249 0.330563 0.280629
O O15 0.000000 0.212580 0.500000
O O16 0.733387 0.000000 0.889719
O O17 0.653017 0.832040 0.956005
O O18 0.204903 0.500000 0.190123
O O19 0.325673 0.353339 0.067386
O O20 0.500000 0.276932 0.000000
#
# Coordination Sequence:
#
# PCOD8067379 Si02
#       8
#     4   4   4   4   4   4   4   4
#     4   9  18  34  53  75 106 134 161 205 262 305
#     4  11  18  33  55  78  98 132 178 207 243 301
#     4   9  18  33  55  79 101 130 173 214 246 295
#     4   9  18  33  55  79 101 130 173 214 246 295
#     4  11  22  35  51  74 108 140 164 206 260 299
#     4   9  18  35  55  75 101 135 173 209 249 302
#     4   9  18  35  55  75 101 135 173 209 249 302
#     4   9  18  34  55  76  98 134 173 207 247 299
#
# _framework density 17.417513
#
# number of rings (size 3 to 8) (size 9 to 14) (size 15 to 20)
#    0.000    2.500    2.500    1.500    0.000    3.000 
#    9.000    0.000    0.000    0.000    0.000    0.000 
#    0.000    0.000    0.000    0.000    0.000    0.000 
#
# Total GULP energy -396817.886997 kJ/mol
# GULP energy per Si atom -12400.558969 kJ/mol
# Density = 1.737787 g / cm^3
# Si number density = 17.417513 Si / 1000 Ang^3
#
#
#
# Elastic Constant Matrix: (Units=GPa)
#
#
# Indices 1 2 3 4 5 6 
#
# 1 78.0757 -15.9916 18.0895 0.0000 19.2187 0.0000
# 2 -15.9916 60.6369 -11.2431 0.0000 8.9326 0.0000
# 3 18.0895 -11.2431 72.1925 0.0000 -4.9926 0.0000
# 4 0.0000 0.0000 0.0000 15.8000 0.0000 -0.2695
# 5 19.2187 8.9326 -4.9926 0.0000 19.5812 0.0000
# 6 0.0000 0.0000 0.0000 -0.2695 0.0000 13.1883
#
#
#
# Elastic Compliance Matrix: (Units=1/GPa)
#
#
# Indices 1 2 3 4 5 6 
#
# 1 0.023178 0.009138 -0.006358 0.000000 -0.028538 0.000000
# 2 0.009138 0.021644 -0.000226 0.000000 -0.018900 0.000000
# 3 -0.006358 -0.000226 0.016133 0.000000 0.010457 0.000000
# 4 0.000000 0.000000 0.000000 0.063313 0.000000 0.001294
# 5 -0.028538 -0.018900 0.010457 0.000000 0.090367 0.000000
# 6 0.000000 0.000000 0.000000 0.001294 0.000000 0.075851
#
#
# Mechanical properties :
#
#
# Convention : Reuss Voigt Hill
#
# Bulk Modulus (GPa) = 15.13744 21.40164 18.26954
# Shear Modulus (GPa) = 16.26546 24.38390 20.32468
#
# Velocity S-wave (km/s) = 3.05922 3.74567 3.41971
# Velocity P-wave (km/s) = 4.60307 5.56963 5.10926
#
# Compressibility (1/GPa) = 0.06606135
#
# Stress axis : x y z
#
# Youngs Moduli (GPa) = 43.14509 46.20280 61.98456
#
# Poissons Ratio (x) = -0.42219 0.39411
# Poissons Ratio (y) = -0.39425 0.01401
# Poissons Ratio (z) = 0.27433 0.01044
#
# Static dielectric constant tensor:
#      x y z
#    x 3.056280 0.000000 -0.140040 
#    y 0.000000 3.415830 0.000000 
#    z -0.140040 0.000000 2.846650 
# 
# 
# High freq. dielectric constant tensor:
#      x y z
#    x 1.669670 0.000000 -0.010540 
#    y 0.000000 1.679960 0.000000 
#    z -0.010540 0.000000 1.646660 
# 
# From -- ./inp_files/29508.got.cif
#   From: 2010.06.25/outbox.cif.g09.slc.cpg/sg10_15_cif.got.tgz:29508.got - 2010.06.27 22:07:45.
