data_PCOD8067846
_publ_section_title
;
Structure prediction by ZEFSAII (Michael W. Deem and Ramdas Pophale) SiO2 
 PCOD8067846
Probable space group: P 2/M
;
_chemical_formula_sum "Si O2"
_cell_formula_units_Z 16
_cell_length_a 8.486812
_cell_length_b 16.565975
_cell_length_c 9.743961
_cell_angle_alpha 90.000000
_cell_angle_beta 150.572359
_cell_angle_gamma 90.000000
_cell_volume 673.077531
_symmetry_space_group_name_H-M "P 2/M"
_symmetry_group_IT_number 10
_symmetry_cell_setting 'monoclinic'
loop_
_space_group_symop_operation_xyz
x,y,z
-x,y,-z
-x,-y,-z
x,-y,z
loop_
_atom_site_type_symbol
_atom_site_label
_atom_site_fract_x
_atom_site_fract_y
_atom_site_fract_z
Si Si1 0.033683 0.660034 0.366920
Si Si2 0.462824 0.092507 0.627934
Si Si3 0.706960 0.592506 0.872065
Si Si4 0.799841 0.839961 0.133078
O O1 0.403919 0.648413 0.605085
O O2 0.000000 0.636658 0.500000
O O3 0.918515 0.749996 0.249985
O O4 0.807435 0.601141 0.107357
O O5 0.500000 0.122242 0.500000
O O6 0.092726 0.101152 0.392654
O O7 0.572456 0.000000 0.728637
O O8 0.693761 0.148412 0.894922
O O9 0.615189 0.500000 0.771349
O O10 0.000000 0.622246 0.000000
O O11 0.500000 0.863338 0.000000
#
# Coordination Sequence:
#
# PCOD8067846 Si02
#       4
#     4   4   4   4
#     4  12  25  44  68  98 137 177 222 273 330 396
#     4  11  25  45  70 101 135 173 222 277 332 395
#     4  11  25  45  70 101 135 173 222 277 332 395
#     4  12  25  44  68  98 137 177 222 273 330 396
#
# _framework density 23.771408000000001
#
# number of rings (size 3 to 8) (size 9 to 14) (size 15 to 20)
#    0.000    0.500    0.000    9.000    0.000   14.000 
#    0.000    2.500    0.000    0.000    0.000    0.000 
#    0.000    0.000    0.000    0.000    0.000    0.000 
#
# Total GULP energy -198495.989380 kJ/mol
# GULP energy per Si atom -12405.999336 kJ/mol
# Density = 2.371730 g / cm^3
# Si number density = 23.771408 Si / 1000 Ang^3
#
#
#
# Elastic Constant Matrix: (Units=GPa)
#
#
# Indices 1 2 3 4 5 6 
#
# 1 72.7027 26.2193 17.6086 0.0000 6.5677 0.0000
# 2 26.2193 33.7995 10.5016 0.0000 -2.0138 0.0000
# 3 17.6086 10.5016 132.2486 0.0000 1.0502 0.0000
# 4 0.0000 0.0000 0.0000 43.5558 0.0000 2.5539
# 5 6.5677 -2.0138 1.0502 0.0000 52.5036 0.0000
# 6 0.0000 0.0000 0.0000 2.5539 0.0000 23.4911
#
#
#
# Elastic Compliance Matrix: (Units=1/GPa)
#
#
# Indices 1 2 3 4 5 6 
#
# 1 0.019824 -0.015119 -0.001415 0.000000 -0.003031 0.000000
# 2 -0.015119 0.041943 -0.001346 0.000000 0.003527 0.000000
# 3 -0.001415 -0.001346 0.007857 0.000000 -0.000032 0.000000
# 4 0.000000 0.000000 0.000000 0.023106 0.000000 -0.002512
# 5 -0.003031 0.003527 -0.000032 0.000000 0.019561 0.000000
# 6 0.000000 0.000000 0.000000 -0.002512 0.000000 0.042842
#
#
# Mechanical properties :
#
#
# Convention : Reuss Voigt Hill
#
# Bulk Modulus (GPa) = 29.52916 38.60107 34.06511
# Shear Modulus (GPa) = 24.73046 36.20485 30.46766
#
# Velocity S-wave (km/s) = 3.22894 3.90685 3.58396
# Velocity P-wave (km/s) = 5.13327 6.05186 5.61139
#
# Compressibility (1/GPa) = 0.03386483
#
# Stress axis : x y z
#
# Youngs Moduli (GPa) = 50.44511 23.84213 127.27509
#
# Poissons Ratio (x) = 0.36046 0.18007
# Poissons Ratio (y) = 0.76267 0.17125
# Poissons Ratio (z) = 0.07137 0.03208
#
# Static dielectric constant tensor:
#      x y z
#    x 4.439600 0.000000 0.028580 
#    y 0.000000 4.019970 0.000000 
#    z 0.028580 0.000000 4.662840 
# 
# 
# High freq. dielectric constant tensor:
#      x y z
#    x 1.948240 0.000000 0.002690 
#    y 0.000000 1.928740 0.000000 
#    z 0.002690 0.000000 1.969260 
# 
# From -- ./inp_files/19792.got.cif
#   From: 2010.06.25/outbox.cif.g09.slc.cpg/sg10_10_cif.got.tgz:19792.got - 2010.06.27 22:07:45.
