data_PCOD8067501
_publ_section_title
;
Structure prediction by ZEFSAII (Michael W. Deem and Ramdas Pophale) SiO2 
 PCOD8067501
Probable space group: P 2/M
;
_chemical_formula_sum "Si O2"
_cell_formula_units_Z 28
_cell_length_a 8.835636
_cell_length_b 15.720600
_cell_length_c 11.461350
_cell_angle_alpha 90.000000
_cell_angle_beta 56.552191
_cell_angle_gamma 90.000000
_cell_volume 1328.344990
_symmetry_space_group_name_H-M "P 2/M"
_symmetry_group_IT_number 10
_symmetry_cell_setting 'monoclinic'
loop_
_space_group_symop_operation_xyz
x,y,z
-x,y,-z
-x,-y,-z
x,-y,z
loop_
_atom_site_type_symbol
_atom_site_label
_atom_site_fract_x
_atom_site_fract_y
_atom_site_fract_z
Si Si1 0.466662 0.500000 0.376722
Si Si2 0.787739 0.500000 0.061568
Si Si3 0.199973 0.629613 0.378481
Si Si4 0.082752 0.805158 0.082518
Si Si5 0.429886 0.096633 0.900326
Si Si6 0.742680 0.829061 0.635791
Si Si7 0.708858 0.646394 0.915984
Si Si8 0.063114 0.099862 0.652896
O O1 0.500000 0.500000 0.500000
O O2 0.663499 0.500000 0.230180
O O3 0.351692 0.583544 0.391937
O O4 0.739952 0.582989 0.008541
O O5 0.000000 0.500000 0.000000
O O6 0.215871 0.729910 0.389415
O O7 0.230984 0.603178 0.230758
O O8 0.000000 0.598422 0.500000
O O9 0.176574 0.731486 0.116697
O O10 0.929800 0.849504 0.227798
O O11 0.220880 0.878272 0.984121
O O12 0.000000 0.765153 0.000000
O O13 0.538248 0.156891 0.764823
O O14 0.453144 0.000000 0.849271
O O15 0.500000 0.110942 0.000000
O O16 0.767871 0.869453 0.496912
O O17 0.874628 0.877917 0.668975
O O18 0.500000 0.673692 0.000000
O O19 0.074029 0.000000 0.671984
#
# Coordination Sequence:
#
# PCOD8067501 Si02
#       8
#     2   2   4   4   4   4   4   4
#     4  12  30  50  70 108 147 182 219 277 354 418
#     4  12  28  47  72 106 141 185 220 278 353 417
#     4  12  23  44  74 102 138 180 234 287 334 405
#     4  12  25  41  63  97 139 180 224 291 357 409
#     4  11  21  36  62  94 129 177 234 285 337 403
#     4  11  20  40  65 100 128 171 233 284 334 393
#     4  12  23  47  73  99 133 177 242 283 332 414
#     4  11  21  38  64  96 137 178 228 287 339 402
#
# _framework density 21.078861
#
# number of rings (size 3 to 8) (size 9 to 14) (size 15 to 20)
#    0.000    0.429    5.714    4.714    2.000    1.143 
#    2.571    0.714    0.000    1.714    0.000    0.000 
#    0.000    0.000    0.000    0.000    0.000    0.000 
#
# Total GULP energy -347337.788814 kJ/mol
# GULP energy per Si atom -12404.921029 kJ/mol
# Density = 2.103088 g / cm^3
# Si number density = 21.078861 Si / 1000 Ang^3
#
#
#
# Elastic Constant Matrix: (Units=GPa)
#
#
# Indices 1 2 3 4 5 6 
#
# 1 88.5743 26.2299 48.0089 0.0000 7.1447 0.0000
# 2 26.2299 112.0403 36.3628 0.0000 6.5155 0.0000
# 3 48.0089 36.3628 171.7430 0.0000 1.3572 0.0000
# 4 0.0000 0.0000 0.0000 28.2954 0.0000 1.4608
# 5 7.1447 6.5155 1.3572 0.0000 36.6718 0.0000
# 6 0.0000 0.0000 0.0000 1.4608 0.0000 -0.5968
#
#
#
# Elastic Compliance Matrix: (Units=1/GPa)
#
#
# Indices 1 2 3 4 5 6 
#
# 1 0.013937 -0.002013 -0.003452 0.000000 -0.002230 0.000000
# 2 -0.002013 0.009973 -0.001538 0.000000 -0.001323 0.000000
# 3 -0.003452 -0.001538 0.007108 0.000000 0.000683 0.000000
# 4 0.000000 0.000000 0.000000 0.031377 0.000000 0.076800
# 5 -0.002230 -0.001323 0.000683 0.000000 0.027913 0.000000
# 6 0.000000 0.000000 0.000000 0.076800 0.000000 -1.487590
#
#
# Mechanical properties :
#
#
# Convention : Reuss Voigt Hill
#
# Bulk Modulus (GPa) = 58.78498 65.95121 62.36809
# Shear Modulus (GPa) = -3.62949 30.32447 13.34749
#
# Velocity S-wave (km/s) = -1.31362 3.79703 2.51911
# Velocity P-wave (km/s) = 5.06437 7.11189 6.17361
#
# Compressibility (1/GPa) = 0.01701115
#
# Stress axis : x y z
#
# Youngs Moduli (GPa) = 71.75140 100.27292 140.68655
#
# Poissons Ratio (x) = 0.20182 0.48567
# Poissons Ratio (y) = 0.14442 0.21644
# Poissons Ratio (z) = 0.24770 0.15426
#
# Static dielectric constant tensor:
#      x y z
#    x 3.760210 0.000000 -0.053760 
#    y 0.000000 4.033720 0.000000 
#    z -0.053760 0.000000 4.191200 
# 
# 
# High freq. dielectric constant tensor:
#      x y z
#    x 1.795350 0.000000 -0.006350 
#    y 0.000000 1.838850 0.000000 
#    z -0.006350 0.000000 1.848400 
# 
# From -- ./inp_files/42917.got.cif
#   From: 2010.06.25/outbox.cif.g09.slc.cpg/sg10_22_cif.got.tgz:42917.got - 2010.06.27 22:07:45.
