data_PCOD8067054
_publ_section_title
;
Structure prediction by ZEFSAII (Michael W. Deem and Ramdas Pophale) SiO2 
 PCOD8067054
Probable space group: P 2/M
;
_chemical_formula_sum "Si O2"
_cell_formula_units_Z 26
_cell_length_a 5.443649
_cell_length_b 10.649983
_cell_length_c 21.750487
_cell_angle_alpha 90.000000
_cell_angle_beta 73.124769
_cell_angle_gamma 90.000000
_cell_volume 1206.680638
_symmetry_space_group_name_H-M "P 2/M"
_symmetry_group_IT_number 10
_symmetry_cell_setting 'monoclinic'
loop_
_space_group_symop_operation_xyz
x,y,z
-x,y,-z
-x,-y,-z
x,-y,z
loop_
_atom_site_type_symbol
_atom_site_label
_atom_site_fract_x
_atom_site_fract_y
_atom_site_fract_z
Si Si1 0.354817 0.639060 0.685084
Si Si2 0.751286 0.638909 0.449846
Si Si3 0.647039 0.855300 0.864746
Si Si4 0.810893 0.210335 0.617965
Si Si5 0.699023 0.000000 0.541211
Si Si6 0.004265 0.861018 0.730293
Si Si7 0.922925 0.850829 0.073707
O O1 0.327076 0.500000 0.717835
O O2 0.262256 0.631367 0.622224
O O3 0.651728 0.679031 0.662565
O O4 0.198659 0.747421 0.732668
O O5 0.500000 0.699493 0.500000
O O6 0.793314 0.500000 0.475058
O O7 0.992658 0.728127 0.445575
O O8 0.362346 0.794161 0.891210
O O9 0.744466 0.837180 0.787775
O O10 0.861353 0.795452 0.895242
O O11 0.618576 0.000000 0.885313
O O12 0.635353 0.119526 0.589143
O O13 0.948818 0.132657 0.661711
O O14 0.500000 0.000000 0.500000
O O15 0.000000 0.000000 0.500000
O O16 0.117543 0.000000 0.740250
O O17 0.914119 0.000000 0.081627
O O18 0.000000 0.808642 0.000000
#
# Coordination Sequence:
#
# PCOD8067054 Si02
#       7
#     4   4   4   4   2   4   4
#     4  10  23  39  61  87 119 157 202 256 315 377
#     4   9  20  39  63  89 114 148 196 251 314 382
#     4   9  18  30  50  82 117 161 206 246 297 361
#     4  11  24  40  63  85 119 158 201 257 318 374
#     4  12  32  46  64  92 124 160 205 255 317 387
#     4  10  22  39  61  88 121 162 204 257 308 375
#     4   9  16  28  47  77 121 166 203 243 296 357
#
# _framework density 21.546714000000001
#
# number of rings (size 3 to 8) (size 9 to 14) (size 15 to 20)
#    0.000    2.154    0.769    0.923    9.692    2.462 
#    0.000    2.308    0.000    1.385    0.000    0.000 
#    0.000    3.692    0.000    0.000    0.000    0.000 
#
# Total GULP energy -322239.262657 kJ/mol
# GULP energy per Si atom -12393.817794 kJ/mol
# Density = 2.149767 g / cm^3
# Si number density = 21.546714 Si / 1000 Ang^3
#
#
#
# Elastic Constant Matrix: (Units=GPa)
#
#
# Indices 1 2 3 4 5 6 
#
# 1 137.8401 38.0438 41.3898 0.0000 -23.6202 0.0000
# 2 38.0438 113.9583 30.4729 0.0000 -21.0254 0.0000
# 3 41.3898 30.4729 89.2138 0.0000 -20.6460 0.0000
# 4 0.0000 0.0000 0.0000 7.0426 0.0000 -6.9648
# 5 -23.6202 -21.0254 -20.6460 0.0000 41.6991 0.0000
# 6 0.0000 0.0000 0.0000 -6.9648 0.0000 18.3099
#
#
#
# Elastic Compliance Matrix: (Units=1/GPa)
#
#
# Indices 1 2 3 4 5 6 
#
# 1 0.009109 -0.001724 -0.002987 0.000000 0.002812 0.000000
# 2 -0.001724 0.010503 -0.002020 0.000000 0.003320 0.000000
# 3 -0.002987 -0.002020 0.014295 0.000000 0.004368 0.000000
# 4 0.000000 0.000000 0.000000 0.227616 0.000000 0.086581
# 5 0.002812 0.003320 0.004368 0.000000 0.029410 0.000000
# 6 0.000000 0.000000 0.000000 0.086581 0.000000 0.087549
#
#
# Mechanical properties :
#
#
# Convention : Reuss Voigt Hill
#
# Bulk Modulus (GPa) = 48.90506 62.31391 55.60949
# Shear Modulus (GPa) = 12.53889 28.81737 20.67813
#
# Velocity S-wave (km/s) = 2.41496 3.66107 3.10124
# Velocity P-wave (km/s) = 5.52472 6.84503 6.22000
#
# Compressibility (1/GPa) = 0.02044778
#
# Stress axis : x y z
#
# Youngs Moduli (GPa) = 109.77969 95.21027 69.95301
#
# Poissons Ratio (x) = 0.16410 0.20892
# Poissons Ratio (y) = 0.18921 0.14129
# Poissons Ratio (z) = 0.32787 0.19230
#
# Static dielectric constant tensor:
#      x y z
#    x 3.994220 0.000000 -0.149550 
#    y 0.000000 3.855070 0.000000 
#    z -0.149550 0.000000 3.700070 
# 
# 
# High freq. dielectric constant tensor:
#      x y z
#    x 1.849730 0.000000 -0.009000 
#    y 0.000000 1.804150 0.000000 
#    z -0.009000 0.000000 1.829090 
# 
# From -- ./inp_files/81065.got.cif
#   From: 2010.06.25/outbox.cif.g09.slc.cpg/sg10_41_cif.got.tgz:81065.got - 2010.06.27 22:07:45.
