data_PCOD8067287
_publ_section_title
;
Structure prediction by ZEFSAII (Michael W. Deem and Ramdas Pophale) SiO2 
 PCOD8067287
Probable space group: P 2/M
;
_chemical_formula_sum "Si O2"
_cell_formula_units_Z 24
_cell_length_a 23.534879
_cell_length_b 7.936935
_cell_length_c 12.086225
_cell_angle_alpha 90.000000
_cell_angle_beta 28.561529
_cell_angle_gamma 90.000000
_cell_volume 1079.384655
_symmetry_space_group_name_H-M "P 2/M"
_symmetry_group_IT_number 10
_symmetry_cell_setting 'monoclinic'
loop_
_space_group_symop_operation_xyz
x,y,z
-x,y,-z
-x,-y,-z
x,-y,z
loop_
_atom_site_type_symbol
_atom_site_label
_atom_site_fract_x
_atom_site_fract_y
_atom_site_fract_z
Si Si1 0.737754 0.808935 0.193191
Si Si2 0.485418 0.689324 0.335043
Si Si3 0.966399 0.198189 0.932666
Si Si4 0.751002 0.694495 0.940455
Si Si5 0.561202 0.000000 0.731812
Si Si6 0.313570 0.000000 0.273302
Si Si7 0.167877 0.691513 0.435206
O O1 0.618488 0.691780 0.393492
O O2 0.797846 0.793469 0.968556
O O3 0.697810 0.000000 0.283209
O O4 0.830710 0.757908 0.131574
O O5 0.495699 0.500000 0.268007
O O6 0.614748 0.752284 0.151168
O O7 0.430716 0.823841 0.344984
O O8 0.041407 0.296657 0.711252
O O9 0.993604 0.000000 0.874404
O O10 0.000000 0.259303 0.000000
O O11 0.756277 0.500000 0.961070
O O12 0.835089 0.735907 0.691195
O O13 0.677815 0.000000 0.609041
O O14 0.441629 0.000000 0.003532
O O15 0.252295 0.173802 0.347077
O O16 0.217732 0.500000 0.362995
#
# Coordination Sequence:
#
# PCOD8067287 Si02
#       7
#     4   4   4   4   2   2   4
#     4  11  24  38  65 100 129 176 224 267 330 391
#     4  11  23  41  65  97 135 173 218 270 326 392
#     4  10  24  45  67  94 131 171 220 275 325 389
#     4  10  23  42  63  95 133 169 217 273 328 391
#     4  11  24  40  65  98 135 180 215 263 339 386
#     4  11  24  42  65  97 138 172 218 278 321 383
#     4  11  24  43  70  96 128 176 220 267 330 387
#
# _framework density 22.234891999999999
#
# number of rings (size 3 to 8) (size 9 to 14) (size 15 to 20)
#    0.000    1.333    3.333    1.000    4.667    5.000 
#    0.000    5.000    0.000    0.000    0.000    0.000 
#    0.000    0.000    0.000    0.000    0.000    0.000 
#
# Total GULP energy -297434.339830 kJ/mol
# GULP energy per Si atom -12393.097493 kJ/mol
# Density = 2.218428 g / cm^3
# Si number density = 22.234892 Si / 1000 Ang^3
#
#
#
# Elastic Constant Matrix: (Units=GPa)
#
#
# Indices 1 2 3 4 5 6 
#
# 1 111.5851 33.1378 33.3490 0.0000 14.4203 0.0000
# 2 33.1378 95.7386 9.9992 0.0000 -0.2897 0.0000
# 3 33.3490 9.9992 105.5523 0.0000 12.2908 0.0000
# 4 0.0000 0.0000 0.0000 28.9180 0.0000 9.1604
# 5 14.4203 -0.2897 12.2908 0.0000 23.9977 0.0000
# 6 0.0000 0.0000 0.0000 9.1604 0.0000 4.0098
#
#
#
# Elastic Compliance Matrix: (Units=1/GPa)
#
#
# Indices 1 2 3 4 5 6 
#
# 1 0.011600 -0.003756 -0.002650 0.000000 -0.005659 0.000000
# 2 -0.003756 0.011776 -0.000222 0.000000 0.002512 0.000000
# 3 -0.002650 -0.000222 0.010791 0.000000 -0.003937 0.000000
# 4 0.000000 0.000000 0.000000 0.125138 0.000000 -0.285875
# 5 -0.005659 0.002512 -0.003937 0.000000 0.047117 0.000000
# 6 0.000000 0.000000 0.000000 -0.285875 0.000000 0.902465
#
#
# Mechanical properties :
#
#
# Convention : Reuss Voigt Hill
#
# Bulk Modulus (GPa) = 47.81966 51.76088 49.79027
# Shear Modulus (GPa) = 4.42826 27.14445 15.78635
#
# Velocity S-wave (km/s) = 1.41276 3.49779 2.66744
# Velocity P-wave (km/s) = 4.92082 6.29622 5.65053
#
# Compressibility (1/GPa) = 0.02091190
#
# Stress axis : x y z
#
# Youngs Moduli (GPa) = 86.20331 84.92028 92.67182
#
# Poissons Ratio (x) = 0.31892 0.24562
# Poissons Ratio (y) = 0.32374 0.02053
# Poissons Ratio (z) = 0.22848 0.01881
#
# Static dielectric constant tensor:
#      x y z
#    x 4.191130 0.000000 0.192100 
#    y 0.000000 3.855820 0.000000 
#    z 0.192100 0.000000 4.399880 
# 
# 
# High freq. dielectric constant tensor:
#      x y z
#    x 1.863020 0.000000 0.012230 
#    y 0.000000 1.874680 0.000000 
#    z 0.012230 0.000000 1.885790 
# 
# From -- ./inp_files/56574.got.cif
#   From: 2010.06.25/outbox.cif.g09.slc.cpg/sg10_29_cif.got.tgz:56574.got - 2010.06.27 22:07:45.
