data_PCOD8067098
_publ_section_title
;
Structure prediction by ZEFSAII (Michael W. Deem and Ramdas Pophale) SiO2 
 PCOD8067098
Probable space group: P 2/M
;
_chemical_formula_sum "Si O2"
_cell_formula_units_Z 32
_cell_length_a 21.771765
_cell_length_b 9.031811
_cell_length_c 26.269283
_cell_angle_alpha 90.000000
_cell_angle_beta 161.791632
_cell_angle_gamma 90.000000
_cell_volume 1614.098781
_symmetry_space_group_name_H-M "P 2/M"
_symmetry_group_IT_number 10
_symmetry_cell_setting 'monoclinic'
loop_
_space_group_symop_operation_xyz
x,y,z
-x,y,-z
-x,-y,-z
x,-y,z
loop_
_atom_site_type_symbol
_atom_site_label
_atom_site_fract_x
_atom_site_fract_y
_atom_site_fract_z
Si Si1 0.267793 0.171600 0.037931
Si Si2 0.190771 0.329940 0.180961
Si Si3 0.321128 0.325975 0.974441
Si Si4 0.840893 0.827210 0.739926
Si Si5 0.389310 0.329243 0.530544
Si Si6 0.343463 0.824814 0.599271
Si Si7 0.646155 0.327292 0.160483
Si Si8 0.024872 0.325326 0.650183
O O1 0.448816 0.228398 0.214406
O O2 0.291144 0.000000 0.044245
O O3 0.258241 0.252072 0.976847
O O4 0.070886 0.206881 0.913898
O O5 0.168192 0.500000 0.181269
O O6 0.222158 0.225972 0.254088
O O7 0.376729 0.310523 0.290427
O O8 0.000000 0.276373 0.000000
O O9 0.334368 0.500000 0.993733
O O10 0.156151 0.288776 0.802837
O O11 0.537601 0.264335 0.125863
O O12 0.715174 0.737222 0.600660
O O13 0.792946 0.000000 0.696374
O O14 0.328269 0.500000 0.487634
O O15 0.313151 0.244856 0.520098
O O16 0.176070 0.765599 0.505383
O O17 0.329291 0.000000 0.583026
O O18 0.669657 0.500000 0.186909
O O19 0.861108 0.268636 0.311787
O O20 0.500000 0.292540 0.000000
O O21 0.979860 0.500000 0.611694
#
# Coordination Sequence:
#
# PCOD8067098 Si02
#       8
#     4   4   4   4   4   4   4   4
#     4  10  23  39  52  73 108 146 180 219 267 318
#     4  10  22  40  61  86 116 147 179 219 266 315
#     4   9  17  31  55  82 104 134 177 222 267 318
#     4  11  23  39  60  84 111 145 184 223 265 316
#     4  11  23  39  60  85 111 140 178 223 269 316
#     4  11  23  38  54  75 107 144 182 222 266 318
#     4   7  12  26  49  77 106 133 168 217 267 315
#     4   9  17  32  55  81 107 136 174 221 271 321
#
# _framework density 19.825303999999999
#
# number of rings (size 3 to 8) (size 9 to 14) (size 15 to 20)
#    0.000    2.250    0.000    4.500    0.000    7.250 
#    0.000    1.250    0.000    6.000    0.000    0.000 
#    0.000    0.000    0.000    0.000    0.000    0.000 
#
# Total GULP energy -396685.186402 kJ/mol
# GULP energy per Si atom -12396.412075 kJ/mol
# Density = 1.978018 g / cm^3
# Si number density = 19.825304 Si / 1000 Ang^3
#
#
#
# Elastic Constant Matrix: (Units=GPa)
#
#
# Indices 1 2 3 4 5 6 
#
# 1 34.9071 14.3952 -3.0642 0.0000 13.4476 0.0000
# 2 14.3952 57.2697 28.1488 0.0000 5.9662 0.0000
# 3 -3.0642 28.1488 87.0840 0.0000 10.4679 0.0000
# 4 0.0000 0.0000 0.0000 29.3049 0.0000 6.4886
# 5 13.4476 5.9662 10.4679 0.0000 32.4570 0.0000
# 6 0.0000 0.0000 0.0000 6.4886 0.0000 78.1586
#
#
#
# Elastic Compliance Matrix: (Units=1/GPa)
#
#
# Indices 1 2 3 4 5 6 
#
# 1 0.040897 -0.012145 0.007421 0.000000 -0.017105 0.000000
# 2 -0.012145 0.024459 -0.008736 0.000000 0.003354 0.000000
# 3 0.007421 -0.008736 0.015339 0.000000 -0.006416 0.000000
# 4 0.000000 0.000000 0.000000 0.034763 0.000000 -0.002886
# 5 -0.017105 0.003354 -0.006416 0.000000 0.039350 0.000000
# 6 0.000000 0.000000 0.000000 -0.002886 0.000000 0.013034
#
#
# Mechanical properties :
#
#
# Convention : Reuss Voigt Hill
#
# Bulk Modulus (GPa) = 18.59642 28.69114 23.64378
# Shear Modulus (GPa) = 23.50856 37.30283 30.40569
#
# Velocity S-wave (km/s) = 3.44726 4.34242 3.92047
# Velocity P-wave (km/s) = 5.02447 6.29647 5.69609
#
# Compressibility (1/GPa) = 0.05377378
#
# Stress axis : x y z
#
# Youngs Moduli (GPa) = 24.45160 40.88514 65.19135
#
# Poissons Ratio (x) = 0.49656 -0.48378
# Poissons Ratio (y) = 0.29697 0.56954
# Poissons Ratio (z) = -0.18146 0.35719
#
# Static dielectric constant tensor:
#      x y z
#    x 3.703600 0.000000 0.303990 
#    y 0.000000 3.411320 0.000000 
#    z 0.303990 0.000000 3.786780 
# 
# 
# High freq. dielectric constant tensor:
#      x y z
#    x 1.778910 0.000000 0.021070 
#    y 0.000000 1.753250 0.000000 
#    z 0.021070 0.000000 1.777190 
# 
# From -- ./inp_files/93695.got.cif
#   From: 2010.06.25/outbox.cif.g09.slc.cpg/sg10_47_cif.got.tgz:93695.got - 2010.06.27 22:07:45.
