data_PCOD8067787
_publ_section_title
;
Structure prediction by ZEFSAII (Michael W. Deem and Ramdas Pophale) SiO2 
 PCOD8067787
Probable space group: P 2/M
;
_chemical_formula_sum "Si O2"
_cell_formula_units_Z 32
_cell_length_a 8.485604
_cell_length_b 23.425760
_cell_length_c 14.724547
_cell_angle_alpha 90.000000
_cell_angle_beta 149.052644
_cell_angle_gamma 90.000000
_cell_volume 1505.195572
_symmetry_space_group_name_H-M "P 2/M"
_symmetry_group_IT_number 10
_symmetry_cell_setting 'monoclinic'
loop_
_space_group_symop_operation_xyz
x,y,z
-x,y,-z
-x,-y,-z
x,-y,z
loop_
_atom_site_type_symbol
_atom_site_label
_atom_site_fract_x
_atom_site_fract_y
_atom_site_fract_z
Si Si1 0.152440 0.863562 0.978330
Si Si2 0.873121 0.863901 0.345929
Si Si3 0.150904 0.436138 0.172962
Si Si4 0.094630 0.753590 0.219471
Si Si5 0.144782 0.066429 0.316541
Si Si6 0.692492 0.649652 0.003940
Si Si7 0.315644 0.366295 0.637504
Si Si8 0.229876 0.749055 0.491333
O O1 0.510613 0.868648 0.170326
O O2 0.000000 0.853561 0.000000
O O3 0.103988 0.810599 0.886413
O O4 0.997902 0.918185 0.852480
O O5 0.000000 0.894139 0.500000
O O6 0.974182 0.897897 0.308166
O O7 0.003507 0.799176 0.412180
O O8 0.216364 0.500000 0.241257
O O9 0.468767 0.401079 0.325249
O O10 0.912548 0.405699 0.123838
O O11 0.000000 0.437844 0.000000
O O12 0.140809 0.733873 0.345016
O O13 0.414306 0.767774 0.327356
O O14 0.909838 0.702182 0.081988
O O15 0.500000 0.083340 0.500000
O O16 0.092439 0.000000 0.308262
O O17 0.500000 0.660421 0.000000
O O18 0.466320 0.643391 0.808866
O O19 0.199384 0.307178 0.536192
O O20 0.000000 0.401363 0.500000
#
# Coordination Sequence:
#
# PCOD8067787 Si02
#       8
#     4   4   4   4   4   4   4   4
#     4  12  27  43  69 102 139 181 227 277 341 407
#     4  12  26  43  67 103 138 180 229 278 340 405
#     4   9  20  42  66  90 127 175 225 276 329 394
#     4  11  24  39  63  92 134 173 218 271 337 402
#     4  11  25  49  75 101 138 181 231 286 337 395
#     4  11  24  39  63  97 131 172 221 270 338 401
#     4  11  23  39  63  96 130 171 222 273 334 400
#     4  11  23  41  63  91 135 175 214 279 334 398
#
# _framework density 21.259695000000001
#
# number of rings (size 3 to 8) (size 9 to 14) (size 15 to 20)
#    0.000    1.000    2.500    3.750    7.000    2.000 
#    0.000    0.000    0.000    5.250    0.000    0.000 
#    0.000    0.000    0.000    0.000    0.000    0.000 
#
# Total GULP energy -396794.222649 kJ/mol
# GULP energy per Si atom -12399.819458 kJ/mol
# Density = 2.121131 g / cm^3
# Si number density = 21.259695 Si / 1000 Ang^3
#
#
#
# Elastic Constant Matrix: (Units=GPa)
#
#
# Indices 1 2 3 4 5 6 
#
# 1 101.7365 40.4125 54.2013 0.0000 15.3093 0.0000
# 2 40.4125 106.0093 46.0697 0.0000 15.6249 0.0000
# 3 54.2013 46.0697 149.9009 0.0000 28.0667 0.0000
# 4 0.0000 0.0000 0.0000 14.5306 0.0000 -11.1022
# 5 15.3093 15.6249 28.0667 0.0000 34.7126 0.0000
# 6 0.0000 0.0000 0.0000 -11.1022 0.0000 10.5361
#
#
#
# Elastic Compliance Matrix: (Units=1/GPa)
#
#
# Indices 1 2 3 4 5 6 
#
# 1 0.013226 -0.003304 -0.003480 0.000000 -0.001532 0.000000
# 2 -0.003304 0.011913 -0.002045 0.000000 -0.002252 0.000000
# 3 -0.003480 -0.002045 0.009543 0.000000 -0.005260 0.000000
# 4 0.000000 0.000000 0.000000 0.353130 0.000000 0.372105
# 5 -0.001532 -0.002252 -0.005260 0.000000 0.034751 0.000000
# 6 0.000000 0.000000 0.000000 0.372105 0.000000 0.487011
#
#
# Mechanical properties :
#
#
# Convention : Reuss Voigt Hill
#
# Bulk Modulus (GPa) = 58.73958 71.00152 64.87055
# Shear Modulus (GPa) = 5.35959 26.42008 15.88983
#
# Velocity S-wave (km/s) = 1.58949 3.52906 2.73686
# Velocity P-wave (km/s) = 5.57299 7.07640 6.36921
#
# Compressibility (1/GPa) = 0.01702430
#
# Stress axis : x y z
#
# Youngs Moduli (GPa) = 75.60675 83.93981 104.78999
#
# Poissons Ratio (x) = 0.27733 0.36468
# Poissons Ratio (y) = 0.24979 0.21431
# Poissons Ratio (z) = 0.26312 0.17167
#
# Static dielectric constant tensor:
#      x y z
#    x 3.875840 0.000000 0.002030 
#    y 0.000000 3.813880 0.000000 
#    z 0.002030 0.000000 3.862760 
# 
# 
# High freq. dielectric constant tensor:
#      x y z
#    x 1.842370 0.000000 0.010030 
#    y 0.000000 1.818230 0.000000 
#    z 0.010030 0.000000 1.850370 
# 
# From -- ./inp_files/62716.got.cif
#   From: 2010.06.25/outbox.cif.g09.slc.cpg/sg10_32_cif.got.tgz:62716.got - 2010.06.27 22:07:45.
