data_PCOD8067156
_publ_section_title
;
Structure prediction by ZEFSAII (Michael W. Deem and Ramdas Pophale) SiO2 
 PCOD8067156
Probable space group: P 2/M
;
_chemical_formula_sum "Si O2"
_cell_formula_units_Z 20
_cell_length_a 8.764565
_cell_length_b 11.769780
_cell_length_c 9.705992
_cell_angle_alpha 90.000000
_cell_angle_beta 90.707843
_cell_angle_gamma 90.000000
_cell_volume 1001.164628
_symmetry_space_group_name_H-M "P 2/M"
_symmetry_group_IT_number 10
_symmetry_cell_setting 'monoclinic'
loop_
_space_group_symop_operation_xyz
x,y,z
-x,y,-z
-x,-y,-z
x,-y,z
loop_
_atom_site_type_symbol
_atom_site_label
_atom_site_fract_x
_atom_site_fract_y
_atom_site_fract_z
Si Si1 0.330961 0.238557 0.986826
Si Si2 0.045876 0.000000 0.771862
Si Si3 0.149487 0.369429 0.205917
Si Si4 0.233581 0.000000 0.054015
Si Si5 0.675186 0.630625 0.516473
Si Si6 0.150221 0.238872 0.711551
O O1 0.209998 0.314020 0.067134
O O2 0.337170 0.112412 0.052825
O O3 0.500000 0.291400 0.000000
O O4 0.281768 0.238907 0.827701
O O5 0.091678 0.889411 0.684165
O O6 0.865756 0.000000 0.806166
O O7 0.127715 0.000000 0.919426
O O8 0.117559 0.500000 0.174950
O O9 0.275776 0.353045 0.325504
O O10 0.990255 0.314917 0.244338
O O11 0.500000 0.667938 0.500000
O O12 0.697836 0.500000 0.468568
O O13 0.781068 0.712320 0.427685
#
# Coordination Sequence:
#
# PCOD8067156 Si02
#       6
#     4   2   4   2   4   4
#     4  11  22  36  59  88 117 149 188 237 284 333
#     4   9  18  34  59  85 112 146 188 236 281 327
#     4  11  23  38  58  85 115 151 193 234 281 337
#     4   9  17  36  57  82 115 151 186 226 284 343
#     4  10  22  41  61  82 115 154 188 230 287 343
#     4  11  21  38  61  85 114 149 195 235 278 336
#
# _framework density 19.976735000000001
#
# number of rings (size 3 to 8) (size 9 to 14) (size 15 to 20)
#    0.000    1.600    2.000    3.300    0.000    4.400 
#    0.000    3.500    0.000    0.000    0.000    0.000 
#    0.000    0.000    0.000    0.000    0.000    0.000 
#
# Total GULP energy -248083.837234 kJ/mol
# GULP energy per Si atom -12404.191862 kJ/mol
# Density = 1.993127 g / cm^3
# Si number density = 19.976735 Si / 1000 Ang^3
#
#
#
# Elastic Constant Matrix: (Units=GPa)
#
#
# Indices 1 2 3 4 5 6 
#
# 1 69.4702 8.0533 -7.3974 0.0000 -5.7423 0.0000
# 2 8.0533 117.0998 17.8661 0.0000 -14.1349 0.0000
# 3 -7.3974 17.8661 40.0617 0.0000 -10.3071 0.0000
# 4 0.0000 0.0000 0.0000 32.9578 0.0000 -4.9475
# 5 -5.7423 -14.1349 -10.3071 0.0000 36.1027 0.0000
# 6 0.0000 0.0000 0.0000 -4.9475 0.0000 34.0709
#
#
#
# Elastic Compliance Matrix: (Units=1/GPa)
#
#
# Indices 1 2 3 4 5 6 
#
# 1 0.015252 -0.001315 0.004203 0.000000 0.003111 0.000000
# 2 -0.001315 0.009511 -0.003864 0.000000 0.002411 0.000000
# 3 0.004203 -0.003864 0.029403 0.000000 0.007550 0.000000
# 4 0.000000 0.000000 0.000000 0.031018 0.000000 0.004504
# 5 0.003111 0.002411 0.007550 0.000000 0.031293 0.000000
# 6 0.000000 0.000000 0.000000 0.004504 0.000000 0.030005
#
#
# Mechanical properties :
#
#
# Convention : Reuss Voigt Hill
#
# Bulk Modulus (GPa) = 19.15169 29.29732 24.22450
# Shear Modulus (GPa) = 30.15002 34.50025 32.32513
#
# Velocity S-wave (km/s) = 3.88913 4.16025 4.02697
# Velocity P-wave (km/s) = 5.45664 6.14610 5.81160
#
# Compressibility (1/GPa) = 0.05221471
#
# Stress axis : x y z
#
# Youngs Moduli (GPa) = 65.56620 105.14446 34.00993
#
# Poissons Ratio (x) = 0.13823 -0.14294
# Poissons Ratio (y) = 0.08619 0.13141
# Poissons Ratio (z) = -0.27557 0.40625
#
# Static dielectric constant tensor:
#      x y z
#    x 3.580540 0.000000 -0.011300 
#    y 0.000000 3.834600 0.000000 
#    z -0.011300 0.000000 3.478300 
# 
# 
# High freq. dielectric constant tensor:
#      x y z
#    x 1.786180 0.000000 -0.002760 
#    y 0.000000 1.785960 0.000000 
#    z -0.002760 0.000000 1.765020 
# 
# From -- ./inp_files/17813.got.cif
#   From: 2010.06.25/outbox.cif.g09.slc.cpg/sg10_9_cif.got.tgz:17813.got - 2010.06.27 22:07:45.
