data_PCOD8067522
_publ_section_title
;
Structure prediction by ZEFSAII (Michael W. Deem and Ramdas Pophale) SiO2 
 PCOD8067522
Probable space group: P 2/M
;
_chemical_formula_sum "Si O2"
_cell_formula_units_Z 32
_cell_length_a 14.041895
_cell_length_b 9.114546
_cell_length_c 20.893206
_cell_angle_alpha 90.000000
_cell_angle_beta 132.227754
_cell_angle_gamma 90.000000
_cell_volume 1980.061459
_symmetry_space_group_name_H-M "P 2/M"
_symmetry_group_IT_number 10
_symmetry_cell_setting 'monoclinic'
loop_
_space_group_symop_operation_xyz
x,y,z
-x,y,-z
-x,-y,-z
x,-y,z
loop_
_atom_site_type_symbol
_atom_site_label
_atom_site_fract_x
_atom_site_fract_y
_atom_site_fract_z
Si Si1 0.942858 0.672615 0.156544
Si Si2 0.222446 0.329313 0.331521
Si Si3 0.629770 0.327385 0.843456
Si Si4 0.887624 0.169465 0.000000
Si Si5 0.708924 0.831574 0.100755
Si Si6 0.386735 0.834476 0.500000
Si Si7 0.440597 0.670687 0.331522
Si Si8 0.492586 0.831574 0.100755
O O1 0.929915 0.500000 0.138668
O O2 0.932467 0.754733 0.084977
O O3 0.832511 0.726785 0.155299
O O4 0.077937 0.714873 0.249117
O O5 0.236170 0.500000 0.352709
O O6 0.261974 0.244288 0.413927
O O7 0.312720 0.283830 0.312720
O O8 0.652579 0.500000 0.861333
O O9 0.579703 0.285128 0.750883
O O10 0.521914 0.273215 0.844701
O O11 0.762512 0.245267 0.915023
O O12 0.855972 0.000000 0.000000
O O13 0.000000 0.187882 0.000000
O O14 0.620260 0.783681 0.120260
O O15 0.752033 0.000000 0.127906
O O16 0.631926 0.811326 1.000000
O O17 0.500000 0.824854 0.500000
O O18 0.434120 0.755712 0.586073
O O19 0.349024 0.000000 0.500000
O O20 0.469248 0.500000 0.352710
O O21 0.503779 0.000000 0.127906
#
# Coordination Sequence:
#
# PCOD8067522 Si02
#       8
#     4   4   4   4   4   4   4   4
#     4  11  21  32  49  73  97 125 162 202 240 283
#     4   9  18  32  48  67  96 131 160 190 235 286
#     4  11  21  32  49  73  97 125 162 202 240 283
#     4  11  23  35  46  63  94 135 169 196 232 279
#     4   9  18  33  51  69  93 126 161 199 244 290
#     4   9  17  29  47  71  94 119 158 203 237 270
#     4   9  18  32  48  67  96 131 160 190 235 286
#     4   9  18  33  51  69  93 126 161 199 244 290
#
# _framework density 16.161113
#
# number of rings (size 3 to 8) (size 9 to 14) (size 15 to 20)
#    0.000    2.250    1.250    3.000    0.000    6.000 
#    0.000    3.750    0.000    0.000    0.000    0.875 
#    0.000    7.000    0.000    0.000    0.000    0.000 
#
# Total GULP energy -396857.396048 kJ/mol
# GULP energy per Si atom -12401.793626 kJ/mol
# Density = 1.612433 g / cm^3
# Si number density = 16.161113 Si / 1000 Ang^3
#
#
#
# Elastic Constant Matrix: (Units=GPa)
#
#
# Indices 1 2 3 4 5 6 
#
# 1 85.3418 50.1363 59.2126 0.0000 0.1780 0.0000
# 2 50.1363 95.2425 75.3416 0.0000 -0.9139 0.0000
# 3 59.2126 75.3416 133.8435 0.0000 -1.9362 0.0000
# 4 0.0000 0.0000 0.0000 10.2876 0.0000 0.5977
# 5 0.1780 -0.9139 -1.9362 0.0000 10.6852 0.0000
# 6 0.0000 0.0000 0.0000 0.5977 0.0000 26.7758
#
#
#
# Elastic Compliance Matrix: (Units=1/GPa)
#
#
# Indices 1 2 3 4 5 6 
#
# 1 0.018618 -0.005916 -0.004931 0.000000 -0.001710 0.000000
# 2 -0.005916 0.020809 -0.009093 0.000000 0.000231 0.000000
# 3 -0.004931 -0.009093 0.014800 0.000000 0.001986 0.000000
# 4 0.000000 0.000000 0.000000 0.097331 0.000000 -0.002173
# 5 -0.001710 0.000231 0.001986 0.000000 0.093996 0.000000
# 6 0.000000 0.000000 0.000000 -0.002173 0.000000 0.037396
#
#
# Mechanical properties :
#
#
# Convention : Reuss Voigt Hill
#
# Bulk Modulus (GPa) = 69.70229 75.97875 72.84052
# Shear Modulus (GPa) = 15.26194 18.19887 16.73041
#
# Velocity S-wave (km/s) = 3.07638 3.35937 3.22098
# Velocity P-wave (km/s) = 7.47276 7.88432 7.68130
#
# Compressibility (1/GPa) = 0.01434673
#
# Stress axis : x y z
#
# Youngs Moduli (GPa) = 53.71080 48.05600 67.56733
#
# Poissons Ratio (x) = 0.28432 0.33318
# Poissons Ratio (y) = 0.31778 0.61438
# Poissons Ratio (z) = 0.26485 0.43696
#
# Static dielectric constant tensor:
#      x y z
#    x 3.004920 0.000000 -0.001080 
#    y 0.000000 3.123350 0.000000 
#    z -0.001080 0.000000 3.034870 
# 
# 
# High freq. dielectric constant tensor:
#      x y z
#    x 1.604330 0.000000 -0.000210 
#    y 0.000000 1.630230 0.000000 
#    z -0.000210 0.000000 1.610230 
# 
# From -- ./inp_files/29490.got.cif
#   From: 2010.06.25/outbox.cif.g09.slc.cpg/sg10_15_cif.got.tgz:29490.got - 2010.06.27 22:07:45.
