data_PCOD8067769
_publ_section_title
;
Structure prediction by ZEFSAII (Michael W. Deem and Ramdas Pophale) SiO2 
 PCOD8067769
Probable space group: P 2/M
;
_chemical_formula_sum "Si O2"
_cell_formula_units_Z 28
_cell_length_a 10.019492
_cell_length_b 13.826422
_cell_length_c 22.817897
_cell_angle_alpha 90.000000
_cell_angle_beta 150.601759
_cell_angle_gamma 90.000000
_cell_volume 1551.685908
_symmetry_space_group_name_H-M "P 2/M"
_symmetry_group_IT_number 10
_symmetry_cell_setting 'monoclinic'
loop_
_space_group_symop_operation_xyz
x,y,z
-x,y,-z
-x,-y,-z
x,-y,z
loop_
_atom_site_type_symbol
_atom_site_label
_atom_site_fract_x
_atom_site_fract_y
_atom_site_fract_z
Si Si1 0.714470 0.112141 0.241031
Si Si2 0.715343 0.888160 0.376206
Si Si3 0.810451 0.787217 0.640452
Si Si4 0.115107 0.391061 0.801089
Si Si5 0.846771 0.197137 0.001258
Si Si6 0.261919 0.390790 0.988899
Si Si7 0.809060 0.885194 0.763258
O O1 0.643946 0.126060 0.281704
O O2 0.998628 0.164467 0.335550
O O3 0.739253 0.000000 0.233059
O O4 0.462790 0.161343 0.112364
O O5 0.479623 0.841727 0.325590
O O6 0.000000 0.835693 0.500000
O O7 0.737625 0.000000 0.402138
O O8 0.500000 0.792299 0.500000
O O9 0.867389 0.846009 0.721348
O O10 0.899471 0.676892 0.685576
O O11 0.018426 0.500000 0.751512
O O12 0.416108 0.374745 0.891614
O O13 0.118521 0.371056 0.871794
O O14 0.970550 0.147589 0.105578
O O15 0.858389 0.313812 0.011047
O O16 0.000000 0.165483 0.000000
O O17 0.197358 0.500000 0.985539
O O18 0.808770 0.000000 0.760864
#
# Coordination Sequence:
#
# PCOD8067769 Si02
#       7
#     4   4   4   4   4   4   4
#     4  11  23  37  55  82 116 153 192 235 279 331
#     4   9  18  35  55  73 103 153 200 230 265 319
#     4  12  24  38  58  85 115 151 194 237 281 334
#     4   9  18  36  61  84 107 141 185 232 287 347
#     4  12  22  36  60  87 113 146 190 238 289 341
#     4   9  18  36  61  84 109 141 181 233 291 347
#     4  11  23  37  55  82 116 153 192 235 279 331
#
# _framework density 18.044888
#
# number of rings (size 3 to 8) (size 9 to 14) (size 15 to 20)
#    0.000    1.571    4.286    2.571    0.000    4.000 
#    0.000    1.429    0.000    0.000    0.000    0.000 
#    0.000    9.143    0.000    0.000    0.000    0.000 
#
# Total GULP energy -347152.189961 kJ/mol
# GULP energy per Si atom -12398.292499 kJ/mol
# Density = 1.800382 g / cm^3
# Si number density = 18.044888 Si / 1000 Ang^3
#
#
#
# Elastic Constant Matrix: (Units=GPa)
#
#
# Indices 1 2 3 4 5 6 
#
# 1 40.7521 20.4759 2.0058 0.0000 8.8949 0.0000
# 2 20.4759 92.9934 7.2487 0.0000 -5.7668 0.0000
# 3 2.0058 7.2487 17.7206 0.0000 -8.6455 0.0000
# 4 0.0000 0.0000 0.0000 20.0070 0.0000 4.4829
# 5 8.8949 -5.7668 -8.6455 0.0000 21.6358 0.0000
# 6 0.0000 0.0000 0.0000 4.4829 0.0000 22.8443
#
#
#
# Elastic Compliance Matrix: (Units=1/GPa)
#
#
# Indices 1 2 3 4 5 6 
#
# 1 0.033276 -0.007757 -0.010281 0.000000 -0.019856 0.000000
# 2 -0.007757 0.012951 -0.001465 0.000000 0.006055 0.000000
# 3 -0.010281 -0.001465 0.074612 0.000000 0.033650 0.000000
# 4 0.000000 0.000000 0.000000 0.052281 0.000000 -0.010260
# 5 -0.019856 0.006055 0.033650 0.000000 0.069443 0.000000
# 6 0.000000 0.000000 0.000000 -0.010260 0.000000 0.045788
#
#
# Mechanical properties :
#
#
# Convention : Reuss Voigt Hill
#
# Bulk Modulus (GPa) = 12.22005 23.43632 17.82819
# Shear Modulus (GPa) = 14.09898 21.01314 17.55606
#
# Velocity S-wave (km/s) = 2.79826 3.41617 3.12254
# Velocity P-wave (km/s) = 4.15055 5.34568 4.78557
#
# Compressibility (1/GPa) = 0.08183270
#
# Stress axis : x y z
#
# Youngs Moduli (GPa) = 30.05163 77.21321 13.40270
#
# Poissons Ratio (x) = 0.59893 0.13779
# Poissons Ratio (y) = 0.23311 0.01964
# Poissons Ratio (z) = 0.30896 0.11315
#
# Static dielectric constant tensor:
#      x y z
#    x 3.278800 0.000000 0.117820 
#    y 0.000000 3.303320 0.000000 
#    z 0.117820 0.000000 3.366580 
# 
# 
# High freq. dielectric constant tensor:
#      x y z
#    x 1.695490 0.000000 0.003060 
#    y 0.000000 1.689060 0.000000 
#    z 0.003060 0.000000 1.700470 
# 
# From -- ./inp_files/43040.got.cif
#   From: 2010.06.25/outbox.cif.g09.slc.cpg/sg10_22_cif.got.tgz:43040.got - 2010.06.27 22:07:45.
