data_PCOD8067652
_publ_section_title
;
Structure prediction by ZEFSAII (Michael W. Deem and Ramdas Pophale) SiO2 
 PCOD8067652
Probable space group: P 2/M
;
_chemical_formula_sum "Si O2"
_cell_formula_units_Z 26
_cell_length_a 11.405823
_cell_length_b 21.446886
_cell_length_c 9.329717
_cell_angle_alpha 90.000000
_cell_angle_beta 140.147432
_cell_angle_gamma 90.000000
_cell_volume 1462.485431
_symmetry_space_group_name_H-M "P 2/M"
_symmetry_group_IT_number 10
_symmetry_cell_setting 'monoclinic'
loop_
_space_group_symop_operation_xyz
x,y,z
-x,y,-z
-x,-y,-z
x,-y,z
loop_
_atom_site_type_symbol
_atom_site_label
_atom_site_fract_x
_atom_site_fract_y
_atom_site_fract_z
Si Si1 0.500000 0.153060 0.000000
Si Si2 0.446943 0.573770 0.292134
Si Si3 0.248016 0.370800 0.619841
Si Si4 0.204659 0.073642 0.200549
Si Si5 0.852578 0.371724 0.166610
Si Si6 0.197575 0.252075 0.729350
Si Si7 0.473523 0.073678 0.699740
O O1 0.669837 0.195363 0.112338
O O2 0.560246 0.109409 0.185710
O O3 0.500000 0.597841 0.500000
O O4 0.455863 0.500000 0.293347
O O5 0.577786 0.602447 0.295494
O O6 0.244389 0.598101 0.062598
O O7 0.222655 0.402003 0.754166
O O8 0.271738 0.295956 0.667658
O O9 0.068922 0.385151 0.355663
O O10 0.310667 0.096241 0.442064
O O11 0.327708 0.092020 0.178532
O O12 0.187454 0.000000 0.191394
O O13 0.000000 0.103476 0.000000
O O14 0.820591 0.296606 0.146732
O O15 0.000000 0.224806 0.500000
O O16 0.462844 0.000000 0.717083
#
# Coordination Sequence:
#
# PCOD8067652 Si02
#       7
#     2   4   4   4   4   4   4
#     4  12  19  28  54  78 105 132 148 208 274 298
#     4  11  22  31  46  79 113 135 156 193 250 311
#     4   8  17  36  57  71  91 128 174 213 237 278
#     4   8  15  33  54  65  91 140 177 195 222 283
#     4   8  17  36  57  71  91 128 174 213 237 278
#     4   8  18  35  55  75  91 124 177 214 246 290
#     4   9  19  31  47  78 106 130 166 201 249 310
#
# _framework density 17.777954000000001
#
# number of rings (size 3 to 8) (size 9 to 14) (size 15 to 20)
#    0.923    2.154    0.000    2.538    0.000    3.692 
#    0.000    3.077   13.538    4.615    0.000    0.000 
#    0.000    0.000    0.000    0.000    0.000    0.000 
#
# Total GULP energy -322122.171512 kJ/mol
# GULP energy per Si atom -12389.314289 kJ/mol
# Density = 1.773749 g / cm^3
# Si number density = 17.777954 Si / 1000 Ang^3
#
#
#
# Elastic Constant Matrix: (Units=GPa)
#
#
# Indices 1 2 3 4 5 6 
#
# 1 27.2762 10.5099 21.6175 0.0000 4.8519 0.0000
# 2 10.5099 44.1955 27.2537 0.0000 -1.4992 0.0000
# 3 21.6175 27.2537 110.7327 0.0000 5.5375 0.0000
# 4 0.0000 0.0000 0.0000 38.0222 0.0000 28.2795
# 5 4.8519 -1.4992 5.5375 0.0000 29.6192 0.0000
# 6 0.0000 0.0000 0.0000 28.2795 0.0000 12.5594
#
#
#
# Elastic Compliance Matrix: (Units=1/GPa)
#
#
# Indices 1 2 3 4 5 6 
#
# 1 0.045995 -0.006870 -0.006959 0.000000 -0.006581 0.000000
# 2 -0.006870 0.027901 -0.005706 0.000000 0.003604 0.000000
# 3 -0.006959 -0.005706 0.011862 0.000000 -0.001367 0.000000
# 4 0.000000 0.000000 0.000000 -0.038981 0.000000 0.087771
# 5 -0.006581 0.003604 -0.001367 0.000000 0.035278 0.000000
# 6 0.000000 0.000000 0.000000 0.087771 0.000000 -0.118010
#
#
# Mechanical properties :
#
#
# Convention : Reuss Voigt Hill
#
# Bulk Modulus (GPa) = 21.41863 33.44073 27.42968
# Shear Modulus (GPa) = 267.66620 24.22838 145.94729
#
# Velocity S-wave (km/s) = 12.28363 3.69566 9.07043
# Velocity P-wave (km/s) = 14.60334 6.08782 11.18747
#
# Compressibility (1/GPa) = 0.04668833
#
# Stress axis : x y z
#
# Youngs Moduli (GPa) = 21.74135 35.84040 84.30143
#
# Poissons Ratio (x) = 0.24621 0.58669
# Poissons Ratio (y) = 0.14935 0.48105
# Poissons Ratio (z) = 0.15131 0.20452
#
# Static dielectric constant tensor:
#      x y z
#    x 3.084870 0.000000 0.200590 
#    y 0.000000 2.928770 0.000000 
#    z 0.200590 0.000000 3.457530 
# 
# 
# High freq. dielectric constant tensor:
#      x y z
#    x 1.665830 0.000000 0.017990 
#    y 0.000000 1.655650 0.000000 
#    z 0.017990 0.000000 1.697220 
# 
# From -- ./inp_files/26120.got.cif
#   From: 2010.06.25/outbox.cif.g09.slc.cpg/sg10_14_cif.got.tgz:26120.got - 2010.06.27 22:07:45.
