data_PCOD8067045
_publ_section_title
;
Structure prediction by ZEFSAII (Michael W. Deem and Ramdas Pophale) SiO2 
 PCOD8067045
Probable space group: P 2/M
;
_chemical_formula_sum "Si O2"
_cell_formula_units_Z 24
_cell_length_a 7.690212
_cell_length_b 18.618365
_cell_length_c 9.095958
_cell_angle_alpha 90.000000
_cell_angle_beta 48.792819
_cell_angle_gamma 90.000000
_cell_volume 979.801352
_symmetry_space_group_name_H-M "P 2/M"
_symmetry_group_IT_number 10
_symmetry_cell_setting 'monoclinic'
loop_
_space_group_symop_operation_xyz
x,y,z
-x,y,-z
-x,-y,-z
x,-y,z
loop_
_atom_site_type_symbol
_atom_site_label
_atom_site_fract_x
_atom_site_fract_y
_atom_site_fract_z
Si Si1 0.708219 0.585127 0.788929
Si Si2 0.775406 0.697895 0.216296
Si Si3 0.607005 0.919643 0.600406
Si Si4 0.041573 0.795965 0.634742
Si Si5 0.249049 0.175031 0.944486
Si Si6 0.775527 0.584290 0.427404
O O1 0.696643 0.500000 0.793379
O O2 0.674495 0.611220 0.639794
O O3 0.952828 0.606833 0.723390
O O4 0.500000 0.619269 0.000000
O O5 0.815250 0.741530 0.345769
O O6 0.629443 0.751997 0.191919
O O7 0.662941 0.624339 0.345374
O O8 0.000000 0.675111 0.000000
O O9 0.500000 0.919513 0.500000
O O10 0.831414 0.870490 0.472859
O O11 0.414873 0.891804 0.823609
O O12 0.677095 0.000000 0.609615
O O13 0.000000 0.758066 0.500000
O O14 0.800698 0.816193 0.853688
O O15 0.000000 0.166463 0.000000
O O16 0.738019 0.500000 0.422844
#
# Coordination Sequence:
#
# PCOD8067045 Si02
#       6
#     4   4   4   4   4   4
#     4   8  15  29  48  74 107 138 175 229 291 346
#     4   9  19  36  56  76 112 152 190 232 284 344
#     4  11  21  37  65  93 114 151 198 230 281 350
#     4  10  22  39  60  85 119 155 189 239 287 341
#     4   9  19  39  58  82 115 154 190 235 280 342
#     4   9  17  30  52  77 106 143 188 240 287 335
#
# _framework density 24.494758999999998
#
# number of rings (size 3 to 8) (size 9 to 14) (size 15 to 20)
#    0.000    3.000    3.333    1.000    2.333    2.333 
#    0.000    9.167    0.000    0.000    0.000    7.000 
#    0.000    0.000    0.000    0.000    0.000    0.000 
#
# Total GULP energy -297323.662340 kJ/mol
# GULP energy per Si atom -12388.485931 kJ/mol
# Density = 2.443901 g / cm^3
# Si number density = 24.494759 Si / 1000 Ang^3
#
#
#
# Elastic Constant Matrix: (Units=GPa)
#
#
# Indices 1 2 3 4 5 6 
#
# 1 47.4801 0.3473 33.0120 0.0000 14.9014 0.0000
# 2 0.3473 112.7257 49.5986 0.0000 11.7441 0.0000
# 3 33.0120 49.5986 194.6847 0.0000 14.1012 0.0000
# 4 0.0000 0.0000 0.0000 32.6676 0.0000 10.7138
# 5 14.9014 11.7441 14.1012 0.0000 34.0673 0.0000
# 6 0.0000 0.0000 0.0000 10.7138 0.0000 0.1072
#
#
#
# Elastic Compliance Matrix: (Units=1/GPa)
#
#
# Indices 1 2 3 4 5 6 
#
# 1 0.027872 0.003168 -0.004712 0.000000 -0.011333 0.000000
# 2 0.003168 0.010556 -0.002951 0.000000 -0.003803 0.000000
# 3 -0.004712 -0.002951 0.006664 0.000000 0.000320 0.000000
# 4 0.000000 0.000000 0.000000 -0.000963 0.000000 0.096274
# 5 -0.011333 -0.003803 0.000320 0.000000 0.035489 0.000000
# 6 0.000000 0.000000 0.000000 0.096274 0.000000 -0.293549
#
#
# Mechanical properties :
#
#
# Convention : Reuss Voigt Hill
#
# Bulk Modulus (GPa) = 27.69977 57.86739 42.78358
# Shear Modulus (GPa) = -25.91928 31.49724 2.78898
#
# Velocity S-wave (km/s) = -3.25646 3.58980 1.06821
# Velocity P-wave (km/s) = 1.67523 6.39202 4.36185
#
# Compressibility (1/GPa) = 0.03610139
#
# Stress axis : x y z
#
# Youngs Moduli (GPa) = 35.87891 94.73279 150.05542
#
# Poissons Ratio (x) = -0.30014 0.70712
# Poissons Ratio (y) = -0.11367 0.44282
# Poissons Ratio (z) = 0.16907 0.27956
#
# Static dielectric constant tensor:
#      x y z
#    x 2.907720 0.000000 -0.480450 
#    y 0.000000 4.484820 0.000000 
#    z -0.480450 0.000000 5.146710 
# 
# 
# High freq. dielectric constant tensor:
#      x y z
#    x 1.942720 0.000000 0.004240 
#    y 0.000000 1.961280 0.000000 
#    z 0.004240 0.000000 1.998340 
# 
# From -- ./inp_files/20130.got.cif
#   From: 2010.06.25/outbox.cif.g09.slc.cpg/sg10_11_cif.got.tgz:20130.got - 2010.06.27 22:07:45.
