data_PCOD8067344
_publ_section_title
;
Structure prediction by ZEFSAII (Michael W. Deem and Ramdas Pophale) SiO2 
 PCOD8067344
Probable space group: P 2/M
;
_chemical_formula_sum "Si O2"
_cell_formula_units_Z 28
_cell_length_a 15.515146
_cell_length_b 8.622289
_cell_length_c 11.786556
_cell_angle_alpha 90.000000
_cell_angle_beta 120.247826
_cell_angle_gamma 90.000000
_cell_volume 1362.090695
_symmetry_space_group_name_H-M "P 2/M"
_symmetry_group_IT_number 10
_symmetry_cell_setting 'monoclinic'
loop_
_space_group_symop_operation_xyz
x,y,z
-x,y,-z
-x,-y,-z
x,-y,z
loop_
_atom_site_type_symbol
_atom_site_label
_atom_site_fract_x
_atom_site_fract_y
_atom_site_fract_z
Si Si1 0.300735 0.317172 0.129268
Si Si2 0.383872 0.820584 0.410795
Si Si3 0.019866 0.177803 0.694608
Si Si4 0.161248 0.822158 0.583428
Si Si5 0.351565 0.320161 0.623205
Si Si6 0.475924 0.817214 0.112316
Si Si7 0.076813 0.680728 0.960813
O O1 0.305371 0.500000 0.109714
O O2 0.341506 0.281729 0.281112
O O3 0.364274 0.232281 0.072923
O O4 0.188196 0.249742 0.046241
O O5 0.500000 0.785000 0.500000
O O6 0.332053 0.772650 0.493964
O O7 0.362436 0.000000 0.370351
O O8 0.102988 0.223433 0.658125
O O9 0.032303 0.290987 0.807757
O O10 0.910137 0.204362 0.571501
O O11 0.033470 0.000000 0.741590
O O12 0.256868 0.711707 0.640415
O O13 0.197102 0.000000 0.612409
O O14 0.362017 0.500000 0.602176
O O15 0.450890 0.265597 0.751568
O O16 0.489188 0.000000 0.134745
O O17 0.500000 0.763946 0.000000
O O18 0.084360 0.500000 0.990598
O O19 0.000000 0.757555 0.000000
#
# Coordination Sequence:
#
# PCOD8067344 Si02
#       7
#     4   4   4   4   4   4   4
#     4  11  24  42  65  93 126 165 209 259 314 370
#     4  11  23  41  65  90 121 160 205 251 304 365
#     4   9  20  40  65  90 119 160 209 256 304 362
#     4   9  20  40  63  91 125 158 201 258 309 360
#     4  12  25  39  63  95 126 161 203 252 311 372
#     4  11  25  44  65  91 126 168 211 256 309 370
#     4  10  24  43  61  88 128 166 204 255 312 369
#
# _framework density 20.556632
#
# number of rings (size 3 to 8) (size 9 to 14) (size 15 to 20)
#    0.000    1.571    1.429    3.429    4.000    4.286 
#    0.000    1.429    0.000    0.000    0.000    0.000 
#    0.000    0.000    0.000    0.000    0.000    0.000 
#
# Total GULP energy -347332.341339 kJ/mol
# GULP energy per Si atom -12404.726476 kJ/mol
# Density = 2.050984 g / cm^3
# Si number density = 20.556632 Si / 1000 Ang^3
#
#
#
# Elastic Constant Matrix: (Units=GPa)
#
#
# Indices 1 2 3 4 5 6 
#
# 1 137.8050 22.1408 45.0035 0.0000 4.5944 0.0000
# 2 22.1408 37.1601 15.4519 0.0000 4.6080 0.0000
# 3 45.0035 15.4519 92.6572 0.0000 -12.6768 0.0000
# 4 0.0000 0.0000 0.0000 27.3653 0.0000 -1.5852
# 5 4.5944 4.6080 -12.6768 0.0000 31.5307 0.0000
# 6 0.0000 0.0000 0.0000 -1.5852 0.0000 28.6578
#
#
#
# Elastic Compliance Matrix: (Units=1/GPa)
#
#
# Indices 1 2 3 4 5 6 
#
# 1 0.009297 -0.003433 -0.004296 0.000000 -0.002580 0.000000
# 2 -0.003433 0.031510 -0.004390 0.000000 -0.005870 0.000000
# 3 -0.004296 -0.004390 0.014587 0.000000 0.007132 0.000000
# 4 0.000000 0.000000 0.000000 0.036660 0.000000 0.002028
# 5 -0.002580 -0.005870 0.007132 0.000000 0.035816 0.000000
# 6 0.000000 0.000000 0.000000 0.002028 0.000000 0.035007
#
#
# Mechanical properties :
#
#
# Convention : Reuss Voigt Hill
#
# Bulk Modulus (GPa) = 32.09784 48.09052 40.09418
# Shear Modulus (GPa) = 25.31633 29.84584 27.58108
#
# Velocity S-wave (km/s) = 3.51314 3.81449 3.66691
# Velocity P-wave (km/s) = 5.66608 6.54564 6.12168
#
# Compressibility (1/GPa) = 0.03115475
#
# Stress axis : x y z
#
# Youngs Moduli (GPa) = 107.55848 31.73644 68.55403
#
# Poissons Ratio (x) = 0.10896 0.29452
# Poissons Ratio (y) = 0.36926 0.30097
# Poissons Ratio (z) = 0.46209 0.13933
#
# Static dielectric constant tensor:
#      x y z
#    x 4.019340 0.000000 0.028300 
#    y 0.000000 3.537600 0.000000 
#    z 0.028300 0.000000 3.637730 
# 
# 
# High freq. dielectric constant tensor:
#      x y z
#    x 1.819480 0.000000 -0.001490 
#    y 0.000000 1.795490 0.000000 
#    z -0.001490 0.000000 1.804330 
# 
# From -- ./inp_files/50062.got.cif
#   From: 2010.06.25/outbox.cif.g09.slc.cpg/sg10_26_cif.got.tgz:50062.got - 2010.06.27 22:07:45.
