data_PCOD8067873
_publ_section_title
;
Structure prediction by ZEFSAII (Michael W. Deem and Ramdas Pophale) SiO2 
 PCOD8067873
Probable space group: P 2/M
;
_chemical_formula_sum "Si O2"
_cell_formula_units_Z 32
_cell_length_a 21.005631
_cell_length_b 9.772484
_cell_length_c 9.117990
_cell_angle_alpha 90.000000
_cell_angle_beta 90.009331
_cell_angle_gamma 90.000000
_cell_volume 1871.715367
_symmetry_space_group_name_H-M "P 2/M"
_symmetry_group_IT_number 10
_symmetry_cell_setting 'monoclinic'
loop_
_space_group_symop_operation_xyz
x,y,z
-x,y,-z
-x,-y,-z
x,-y,z
loop_
_atom_site_type_symbol
_atom_site_label
_atom_site_fract_x
_atom_site_fract_y
_atom_site_fract_z
Si Si1 0.376509 0.837181 0.165398
Si Si2 0.623448 0.837181 0.165493
Si Si3 0.136558 0.346285 0.675334
Si Si4 0.500021 0.836672 0.665851
Si Si5 0.999980 0.337856 0.339737
Si Si6 0.250507 0.158183 0.671815
Si Si7 0.136510 0.653716 0.324549
Si Si8 0.250462 0.158183 0.327990
O O1 0.437680 0.779257 0.251614
O O2 0.312799 0.786116 0.245635
O O3 0.378645 0.000000 0.166053
O O4 0.377588 0.780120 0.999954
O O5 0.562255 0.779254 0.251573
O O6 0.687134 0.786111 0.245875
O O7 0.621315 0.000000 0.166146
O O8 0.153078 0.500000 0.728946
O O9 0.190552 0.243494 0.732695
O O10 0.132450 0.343157 0.499943
O O11 0.067013 0.297900 0.739868
O O12 0.500000 0.780853 0.500000
O O13 0.500020 0.000000 0.666555
O O14 0.999994 0.500000 0.359067
O O15 0.066948 0.297880 0.260076
O O16 0.000000 0.267730 0.500000
O O17 0.261496 0.181587 0.499899
O O18 0.237367 0.000000 0.707853
O O19 0.153009 0.500000 0.270920
O O20 0.190492 0.756498 0.267150
O O21 0.237309 0.000000 0.291965
#
# Coordination Sequence:
#
# PCOD8067873 Si02
#       8
#     4   4   4   4   4   4   4   4
#     4   9  16  25  37  54  78 108 138 165 196 238
#     4   9  16  25  37  54  78 108 138 165 196 238
#     4   8  13  22  37  56  78 105 135 165 199 241
#     4   9  15  23  37  57  80 105 134 169 204 234
#     4   7  10  18  33  53  76 101 130 164 200 237
#     4   9  16  25  37  56  82 107 131 164 204 239
#     4   8  13  22  37  56  78 105 135 165 199 241
#     4   9  16  25  37  56  82 107 131 164 204 239
#
# _framework density 17.096616000000001
#
# number of rings (size 3 to 8) (size 9 to 14) (size 15 to 20)
#    0.000    3.500    0.000    2.625    0.000    4.500 
#    0.000    0.625    0.000    4.500    0.000    1.750 
#    0.000   14.000    0.000    0.000    0.000    0.000 
#
# Total GULP energy -396476.159825 kJ/mol
# GULP energy per Si atom -12389.879995 kJ/mol
# Density = 1.705770 g / cm^3
# Si number density = 17.096616 Si / 1000 Ang^3
#
#
#
# Elastic Constant Matrix: (Units=GPa)
#
#
# Indices 1 2 3 4 5 6 
#
# 1 212.5683 53.1153 62.0733 0.0000 -0.1148 0.0000
# 2 53.1153 36.7250 19.2026 0.0000 -0.0271 0.0000
# 3 62.0733 19.2026 68.5270 0.0000 -0.0587 0.0000
# 4 0.0000 0.0000 0.0000 4.9937 0.0000 0.0015
# 5 -0.1148 -0.0271 -0.0587 0.0000 4.7425 0.0000
# 6 0.0000 0.0000 0.0000 0.0015 0.0000 8.6599
#
#
#
# Elastic Compliance Matrix: (Units=1/GPa)
#
#
# Indices 1 2 3 4 5 6 
#
# 1 0.008648 -0.009856 -0.005072 0.000000 0.000090 0.000000
# 2 -0.009856 0.043136 -0.003160 0.000000 -0.000031 0.000000
# 3 -0.005072 -0.003160 0.020073 0.000000 0.000108 0.000000
# 4 0.000000 0.000000 0.000000 0.200254 0.000000 -0.000035
# 5 0.000090 -0.000031 0.000108 0.000000 0.210864 0.000000
# 6 0.000000 0.000000 0.000000 -0.000035 0.000000 0.115474
#
#
# Mechanical properties :
#
#
# Convention : Reuss Voigt Hill
#
# Bulk Modulus (GPa) = 28.02565 65.17806 46.60186
# Shear Modulus (GPa) = 7.73373 15.90782 11.82077
#
# Velocity S-wave (km/s) = 2.12917 3.05366 2.63232
# Velocity P-wave (km/s) = 4.74053 7.11613 6.04615
#
# Compressibility (1/GPa) = 0.03568160
#
# Stress axis : x y z
#
# Youngs Moduli (GPa) = 115.63089 23.18240 49.81923
#
# Poissons Ratio (x) = 0.22848 0.25268
# Poissons Ratio (y) = 1.13964 0.15743
# Poissons Ratio (z) = 0.58646 0.07326
#
# Static dielectric constant tensor:
#      x y z
#    x 3.706970 0.000000 -0.000240 
#    y 0.000000 2.715770 0.000000 
#    z -0.000240 0.000000 2.904300 
# 
# 
# High freq. dielectric constant tensor:
#      x y z
#    x 1.685710 0.000000 -0.000020 
#    y 0.000000 1.595710 0.000000 
#    z -0.000020 0.000000 1.620930 
# 
# From -- ./inp_files/32187.got.cif
#   From: 2010.06.25/outbox.cif.g09.slc.cpg/sg10_17_cif.got.tgz:32187.got - 2010.06.27 22:07:45.
