data_PCOD8067908
_publ_section_title
;
Structure prediction by ZEFSAII (Michael W. Deem and Ramdas Pophale) SiO2 
 PCOD8067908
Probable space group: P 2/M
;
_chemical_formula_sum "Si O2"
_cell_formula_units_Z 32
_cell_length_a 14.620104
_cell_length_b 18.917970
_cell_length_c 19.327465
_cell_angle_alpha 90.000000
_cell_angle_beta 20.345309
_cell_angle_gamma 90.000000
_cell_volume 1858.558019
_symmetry_space_group_name_H-M "P 2/M"
_symmetry_group_IT_number 10
_symmetry_cell_setting 'monoclinic'
loop_
_space_group_symop_operation_xyz
x,y,z
-x,y,-z
-x,-y,-z
x,-y,z
loop_
_atom_site_type_symbol
_atom_site_label
_atom_site_fract_x
_atom_site_fract_y
_atom_site_fract_z
Si Si1 0.928984 0.816831 0.189737
Si Si2 0.079200 0.665595 0.108318
Si Si3 0.924269 0.420377 0.681491
Si Si4 0.697363 0.579716 0.295770
Si Si5 0.233762 0.078523 0.888368
Si Si6 0.535537 0.579473 0.086215
Si Si7 0.687607 0.335475 0.514050
Si Si8 0.464860 0.815303 0.411451
O O1 0.718234 0.800255 0.279248
O O2 0.782468 0.836127 0.365091
O O3 0.112003 0.747659 0.065691
O O4 0.121405 0.881666 0.035492
O O5 0.364360 0.633624 0.925969
O O6 0.963212 0.621570 0.126275
O O7 0.879435 0.659623 0.313130
O O8 0.035809 0.500000 0.593487
O O9 0.733364 0.418482 0.882102
O O10 0.165806 0.365970 0.521633
O O11 0.756853 0.398384 0.732090
O O12 0.500000 0.581211 0.500000
O O13 0.772784 0.500000 0.222269
O O14 0.566269 0.616610 0.322067
O O15 0.478836 0.120663 0.681195
O O16 0.330258 0.000000 0.841136
O O17 0.000000 0.072558 0.000000
O O18 0.529095 0.500000 0.121294
O O19 0.598325 0.254555 0.588726
#
# Coordination Sequence:
#
# PCOD8067908 Si02
#       8
#     4   4   4   4   4   4   4   4
#     4   9  16  27  42  61  87 115 142 175 215 254
#     4   9  14  21  33  52  79 110 144 178 213 255
#     4   8  13  20  30  48  78 113 146 184 224 253
#     4   9  14  18  28  49  75 104 141 181 212 246
#     4   9  18  30  44  64  87 114 145 169 202 260
#     4   8  13  20  30  48  78 113 146 184 224 253
#     4   9  14  21  33  52  79 110 144 178 213 255
#     4   9  16  27  42  61  87 115 142 175 215 254
#
# _framework density 17.217649000000002
#
# number of rings (size 3 to 8) (size 9 to 14) (size 15 to 20)
#    0.000    3.250    1.250    1.500    0.000    3.500 
#    0.000    2.500    0.000    0.000    0.000    5.250 
#    0.000    4.000    0.000   10.000    0.000    0.250 
#
# Total GULP energy -396600.080731 kJ/mol
# GULP energy per Si atom -12393.752523 kJ/mol
# Density = 1.717846 g / cm^3
# Si number density = 17.217649 Si / 1000 Ang^3
#
#
#
# Elastic Constant Matrix: (Units=GPa)
#
#
# Indices 1 2 3 4 5 6 
#
# 1 51.5068 56.4169 39.8471 0.0000 -24.0120 0.0000
# 2 56.4169 163.2281 57.9474 0.0000 -12.5550 0.0000
# 3 39.8471 57.9474 53.1338 0.0000 -3.4718 0.0000
# 4 0.0000 0.0000 0.0000 -7.7276 0.0000 -19.2509
# 5 -24.0120 -12.5550 -3.4718 0.0000 24.1595 0.0000
# 6 0.0000 0.0000 0.0000 -19.2509 0.0000 2.8297
#
#
#
# Elastic Compliance Matrix: (Units=1/GPa)
#
#
# Indices 1 2 3 4 5 6 
#
# 1 0.453860 -0.023983 -0.288258 0.000000 0.397201 0.000000
# 2 -0.023983 0.011596 0.004215 0.000000 -0.017205 0.000000
# 3 -0.288258 0.004215 0.213830 0.000000 -0.253578 0.000000
# 4 0.000000 0.000000 0.000000 -0.007210 0.000000 -0.049051
# 5 0.397201 -0.017205 -0.253578 0.000000 0.390785 0.000000
# 6 0.000000 0.000000 0.000000 -0.049051 0.000000 0.019690
#
#
# Mechanical properties :
#
#
# Convention : Reuss Voigt Hill
#
# Bulk Modulus (GPa) = 15.81417 64.03239 39.92328
# Shear Modulus (GPa) = 2.90752 11.42948 7.16850
#
# Velocity S-wave (km/s) = 1.30090 2.57927 2.04267
# Velocity P-wave (km/s) = 3.38545 6.79271 5.36666
#
# Compressibility (1/GPa) = 0.06323441
#
# Stress axis : x y z
#
# Youngs Moduli (GPa) = 2.20332 86.23708 4.67662
#
# Poissons Ratio (x) = 2.06823 1.34807
# Poissons Ratio (y) = 0.05284 -0.01971
# Poissons Ratio (z) = 0.63512 -0.36351
#
# Static dielectric constant tensor:
#      x y z
#    x 3.130380 0.000000 -0.196410 
#    y 0.000000 3.315470 0.000000 
#    z -0.196410 0.000000 3.070920 
# 
# 
# High freq. dielectric constant tensor:
#      x y z
#    x 1.629960 0.000000 0.005170 
#    y 0.000000 1.649830 0.000000 
#    z 0.005170 0.000000 1.644810 
# 
# From -- ./inp_files/85490.got.cif
#   From: 2010.06.25/outbox.cif.g09.slc.cpg/sg10_43_cif.got.tgz:85490.got - 2010.06.27 22:07:45.
