data_PCOD8067074
_publ_section_title
;
Structure prediction by ZEFSAII (Michael W. Deem and Ramdas Pophale) SiO2 
 PCOD8067074
Probable space group: P 2/M
;
_chemical_formula_sum "Si O2"
_cell_formula_units_Z 28
_cell_length_a 19.786701
_cell_length_b 7.909787
_cell_length_c 14.015004
_cell_angle_alpha 90.000000
_cell_angle_beta 35.544505
_cell_angle_gamma 90.000000
_cell_volume 1275.140355
_symmetry_space_group_name_H-M "P 2/M"
_symmetry_group_IT_number 10
_symmetry_cell_setting 'monoclinic'
loop_
_space_group_symop_operation_xyz
x,y,z
-x,y,-z
-x,-y,-z
x,-y,z
loop_
_atom_site_type_symbol
_atom_site_label
_atom_site_fract_x
_atom_site_fract_y
_atom_site_fract_z
Si Si1 0.519319 0.301663 0.868214
Si Si2 0.952804 0.500000 0.411181
Si Si3 0.609797 0.692022 0.426715
Si Si4 0.814400 0.500000 0.741769
Si Si5 0.789351 0.193923 0.075702
Si Si6 0.298436 0.191604 0.031511
Si Si7 0.712902 0.699110 0.501619
Si Si8 0.956812 0.189921 0.268928
O O1 0.489953 0.500000 0.895921
O O2 0.436507 0.199808 0.890103
O O3 0.648174 0.264199 0.677297
O O4 0.500000 0.238436 0.000000
O O5 0.832350 0.500000 0.607598
O O6 0.954134 0.326570 0.353838
O O7 0.062981 0.500000 0.350080
O O8 0.500000 0.783983 0.500000
O O9 0.573275 0.500000 0.486580
O O10 0.725269 0.698214 0.229592
O O11 0.636042 0.769239 0.501156
O O12 0.749422 0.325989 0.837957
O O13 0.740849 0.252001 0.028188
O O14 0.756806 0.000000 0.130324
O O15 0.927969 0.226174 0.926841
O O16 0.253039 0.000000 0.102451
O O17 0.738325 0.500000 0.462036
O O18 0.836211 0.795229 0.350216
O O19 0.968553 0.000000 0.298042
#
# Coordination Sequence:
#
# PCOD8067074 Si02
#       8
#     4   2   4   2   4   4   4   4
#     4  10  22  39  64  92 126 173 218 266 324 388
#     4  11  24  42  65  94 131 178 219 260 329 388
#     4  10  22  39  65  97 127 167 214 267 326 386
#     4  11  24  40  66  96 128 174 218 270 330 376
#     4  10  23  41  63  94 126 164 212 264 321 386
#     4  11  23  40  64  96 128 164 218 268 322 390
#     4  10  22  40  61  95 134 169 221 272 322 389
#     4  11  24  42  66  95 132 172 216 268 321 387
#
# _framework density 21.958366000000002
#
# number of rings (size 3 to 8) (size 9 to 14) (size 15 to 20)
#    0.000    1.571    2.857    0.857    4.000    4.000 
#    0.000    4.286    0.000    0.000    0.000    0.000 
#    0.000    0.000    0.000    0.000    0.000    0.000 
#
# Total GULP energy -347041.180235 kJ/mol
# GULP energy per Si atom -12394.327866 kJ/mol
# Density = 2.190839 g / cm^3
# Si number density = 21.958366 Si / 1000 Ang^3
#
#
#
# Elastic Constant Matrix: (Units=GPa)
#
#
# Indices 1 2 3 4 5 6 
#
# 1 95.6797 14.5198 66.4509 0.0000 -16.1906 0.0000
# 2 14.5198 82.0005 29.8550 0.0000 7.0773 0.0000
# 3 66.4509 29.8550 138.6698 0.0000 1.5151 0.0000
# 4 0.0000 0.0000 0.0000 9.6271 0.0000 -19.0866
# 5 -16.1906 7.0773 1.5151 0.0000 34.3429 0.0000
# 6 0.0000 0.0000 0.0000 -19.0866 0.0000 -4.0428
#
#
#
# Elastic Compliance Matrix: (Units=1/GPa)
#
#
# Indices 1 2 3 4 5 6 
#
# 1 0.018073 -0.000862 -0.008574 0.000000 0.009076 0.000000
# 2 -0.000862 0.013510 -0.002462 0.000000 -0.003082 0.000000
# 3 -0.008574 -0.002462 0.011895 0.000000 -0.004060 0.000000
# 4 0.000000 0.000000 0.000000 0.010026 0.000000 -0.047336
# 5 0.009076 -0.003082 -0.004060 0.000000 0.034211 0.000000
# 6 0.000000 0.000000 0.000000 -0.047336 0.000000 -0.023876
#
#
# Mechanical properties :
#
#
# Convention : Reuss Voigt Hill
#
# Bulk Modulus (GPa) = 50.80904 59.77793 55.29349
# Shear Modulus (GPa) = 53.08063 21.68707 37.38385
#
# Velocity S-wave (km/s) = 4.92197 3.14609 4.13060
# Velocity P-wave (km/s) = 7.44917 6.36236 6.92711
#
# Compressibility (1/GPa) = 0.01968154
#
# Stress axis : x y z
#
# Youngs Moduli (GPa) = 55.33072 74.01928 84.07160
#
# Poissons Ratio (x) = 0.06379 0.72086
# Poissons Ratio (y) = 0.04768 0.20698
# Poissons Ratio (z) = 0.47442 0.18223
#
# Static dielectric constant tensor:
#      x y z
#    x 4.396920 0.000000 -0.188270 
#    y 0.000000 3.764670 0.000000 
#    z -0.188270 0.000000 4.138560 
# 
# 
# High freq. dielectric constant tensor:
#      x y z
#    x 1.862960 0.000000 -0.015200 
#    y 0.000000 1.852290 0.000000 
#    z -0.015200 0.000000 1.865800 
# 
# From -- ./inp_files/70228.got.cif
#   From: 2010.06.25/outbox.cif.g09.slc.cpg/sg10_36_cif.got.tgz:70228.got - 2010.06.27 22:07:45.
