data_PCOD8067367
_publ_section_title
;
Structure prediction by ZEFSAII (Michael W. Deem and Ramdas Pophale) SiO2 
 PCOD8067367
Probable space group: P 2/M
;
_chemical_formula_sum "Si O2"
_cell_formula_units_Z 18
_cell_length_a 10.301037
_cell_length_b 15.949352
_cell_length_c 5.001795
_cell_angle_alpha 90.000000
_cell_angle_beta 102.615362
_cell_angle_gamma 90.000000
_cell_volume 801.930278
_symmetry_space_group_name_H-M "P 2/M"
_symmetry_group_IT_number 10
_symmetry_cell_setting 'monoclinic'
loop_
_space_group_symop_operation_xyz
x,y,z
-x,y,-z
-x,-y,-z
x,-y,z
loop_
_atom_site_type_symbol
_atom_site_label
_atom_site_fract_x
_atom_site_fract_y
_atom_site_fract_z
Si Si1 0.753110 0.812533 0.120291
Si Si2 0.000000 0.722533 0.000000
Si Si3 0.188766 0.407459 0.311933
Si Si4 0.648956 0.363996 0.105042
Si Si5 0.653836 0.097225 0.579034
O O1 0.653043 0.734790 0.041314
O O2 0.743064 0.849293 0.413725
O O3 0.902433 0.781391 0.127256
O O4 0.709442 0.885413 0.898464
O O5 0.073223 0.662533 0.249870
O O6 0.130146 0.500000 0.352092
O O7 0.300616 0.380418 0.573287
O O8 0.256713 0.413947 0.053283
O O9 0.500000 0.397322 0.000000
O O10 0.500000 0.124600 0.500000
O O11 0.669837 0.000000 0.516831
#
# Coordination Sequence:
#
# PCOD8067367 Si02
#       5
#     4   2   4   4   4
#     4  11  23  41  64  92 127 168 212 259 308 375
#     4  10  25  44  65  92 128 176 224 260 307 376
#     4  11  24  41  63  90 125 168 214 267 318 375
#     4  11  23  39  63  94 125 164 211 264 328 381
#     4  11  23  41  67  97 127 161 205 260 321 379
#
# _framework density 22.445838999999999
#
# number of rings (size 3 to 8) (size 9 to 14) (size 15 to 20)
#    0.000    1.111    0.000    7.000    0.000   12.444 
#    0.000    8.889    0.000    0.000    0.000    0.000 
#    0.000    0.000    0.000    0.000    0.000    0.000 
#
# Total GULP energy -223281.673660 kJ/mol
# GULP energy per Si atom -12404.537426 kJ/mol
# Density = 2.239475 g / cm^3
# Si number density = 22.445839 Si / 1000 Ang^3
#
#
#
# Elastic Constant Matrix: (Units=GPa)
#
#
# Indices 1 2 3 4 5 6 
#
# 1 97.8368 46.9590 10.3463 0.0000 3.0331 0.0000
# 2 46.9590 107.3314 19.5868 0.0000 -5.1947 0.0000
# 3 10.3463 19.5868 92.7741 0.0000 3.4155 0.0000
# 4 0.0000 0.0000 0.0000 32.4623 0.0000 -2.0184
# 5 3.0331 -5.1947 3.4155 0.0000 38.7533 0.0000
# 6 0.0000 0.0000 0.0000 -2.0184 0.0000 7.9211
#
#
#
# Elastic Compliance Matrix: (Units=1/GPa)
#
#
# Indices 1 2 3 4 5 6 
#
# 1 0.013064 -0.005770 -0.000173 0.000000 -0.001781 0.000000
# 2 -0.005770 0.012325 -0.002043 0.000000 0.002284 0.000000
# 3 -0.000173 -0.002043 0.011276 0.000000 -0.001254 0.000000
# 4 0.000000 0.000000 0.000000 0.031301 0.000000 0.007976
# 5 -0.001781 0.002284 -0.001254 0.000000 0.026360 0.000000
# 6 0.000000 0.000000 0.000000 0.007976 0.000000 0.128278
#
#
# Mechanical properties :
#
#
# Convention : Reuss Voigt Hill
#
# Bulk Modulus (GPa) = 48.32683 50.19181 49.25932
# Shear Modulus (GPa) = 20.36882 30.56402 25.46642
#
# Velocity S-wave (km/s) = 3.01568 3.69410 3.37199
# Velocity P-wave (km/s) = 5.80543 6.37220 6.09541
#
# Compressibility (1/GPa) = 0.02069244
#
# Stress axis : x y z
#
# Youngs Moduli (GPa) = 76.54480 81.13686 88.68712
#
# Poissons Ratio (x) = 0.46819 0.01535
# Poissons Ratio (y) = 0.44169 0.18115
# Poissons Ratio (z) = 0.01325 0.16573
#
# Static dielectric constant tensor:
#      x y z
#    x 3.988590 0.000000 -0.067940 
#    y 0.000000 4.042460 0.000000 
#    z -0.067940 0.000000 3.953800 
# 
# 
# High freq. dielectric constant tensor:
#      x y z
#    x 1.879220 0.000000 -0.006090 
#    y 0.000000 1.890230 0.000000 
#    z -0.006090 0.000000 1.891750 
# 
# From -- ./inp_files/3795.got.cif
#   From: 2010.06.25/outbox.cif.g09.slc.cpg/sg10_2_cif.got.tgz:3795.got - 2010.06.27 22:07:45.
