data_PCOD8067141
_publ_section_title
;
Structure prediction by ZEFSAII (Michael W. Deem and Ramdas Pophale) SiO2 
 PCOD8067141
Probable space group: P 2/M
;
_chemical_formula_sum "Si O2"
_cell_formula_units_Z 28
_cell_length_a 26.929523
_cell_length_b 7.854426
_cell_length_c 9.965224
_cell_angle_alpha 90.000000
_cell_angle_beta 137.483635
_cell_angle_gamma 90.000000
_cell_volume 1424.455402
_symmetry_space_group_name_H-M "P 2/M"
_symmetry_group_IT_number 10
_symmetry_cell_setting 'monoclinic'
loop_
_space_group_symop_operation_xyz
x,y,z
-x,y,-z
-x,-y,-z
x,-y,z
loop_
_atom_site_type_symbol
_atom_site_label
_atom_site_fract_x
_atom_site_fract_y
_atom_site_fract_z
Si Si1 0.163994 0.191982 0.344460
Si Si2 0.835493 0.808226 0.164382
Si Si3 0.429347 0.500000 0.266730
Si Si4 0.322629 0.805994 0.052795
Si Si5 0.429386 0.500000 0.951926
Si Si6 0.076406 0.307084 0.412937
Si Si7 0.677234 0.806159 0.259174
Si Si8 0.912759 0.692056 0.064499
O O1 0.115031 0.306447 0.344954
O O2 0.249336 0.247600 0.514660
O O3 0.158493 0.000000 0.387354
O O4 0.134708 0.201081 0.135092
O O5 0.877265 0.799976 0.388809
O O6 0.873175 0.689517 0.129476
O O7 0.839996 0.000000 0.120020
O O8 0.750758 0.754346 0.013597
O O9 0.500000 0.500000 0.500000
O O10 0.385030 0.671119 0.216639
O O11 0.450689 0.500000 0.151844
O O12 0.347951 0.000000 0.138021
O O13 0.303536 0.791029 0.858662
O O14 0.385260 0.671373 0.825935
O O15 0.500000 0.500000 0.000000
O O16 0.071594 0.500000 0.455791
O O17 0.994453 0.228792 0.238948
O O18 0.651865 0.000000 0.244596
O O19 0.918465 0.500000 0.022153
#
# Coordination Sequence:
#
# PCOD8067141 Si02
#       8
#     4   4   2   4   2   4   4   4
#     4  11  22  38  60  85 114 155 205 249 296 351
#     4  11  22  38  60  85 114 155 205 249 296 351
#     4  10  22  40  64  92 119 153 188 228 289 353
#     4   9  19  37  62  90 117 153 199 240 283 348
#     4  10  22  40  64  92 119 153 188 228 289 353
#     4  11  23  37  59  83 115 156 205 250 300 354
#     4   9  19  37  62  90 117 153 199 240 283 348
#     4  11  25  39  51  83 123 160 195 252 310 350
#
# _framework density 19.656635000000001
#
# number of rings (size 3 to 8) (size 9 to 14) (size 15 to 20)
#    0.000    1.714    1.429    2.571    4.000    6.286 
#    2.571    0.000    0.000    0.000    0.000    0.000 
#    0.000    0.000    0.000    0.000    0.000    0.000 
#
# Total GULP energy -347274.651327 kJ/mol
# GULP energy per Si atom -12402.666119 kJ/mol
# Density = 1.961190 g / cm^3
# Si number density = 19.656635 Si / 1000 Ang^3
#
#
#
# Elastic Constant Matrix: (Units=GPa)
#
#
# Indices 1 2 3 4 5 6 
#
# 1 127.9698 48.2368 57.0369 0.0000 19.1516 0.0000
# 2 48.2368 93.0825 47.5091 0.0000 22.0146 0.0000
# 3 57.0369 47.5091 135.8762 0.0000 21.0373 0.0000
# 4 0.0000 0.0000 0.0000 23.6409 0.0000 -0.9059
# 5 19.1516 22.0146 21.0373 0.0000 31.1403 0.0000
# 6 0.0000 0.0000 0.0000 -0.9059 0.0000 20.9888
#
#
#
# Elastic Compliance Matrix: (Units=1/GPa)
#
#
# Indices 1 2 3 4 5 6 
#
# 1 0.010799 -0.003591 -0.002951 0.000000 -0.002109 0.000000
# 2 -0.003591 0.015737 -0.002920 0.000000 -0.006944 0.000000
# 3 -0.002951 -0.002920 0.010072 0.000000 -0.002926 0.000000
# 4 0.000000 0.000000 0.000000 0.042370 0.000000 0.001829
# 5 -0.002109 -0.006944 -0.002926 0.000000 0.040295 0.000000
# 6 0.000000 0.000000 0.000000 0.001829 0.000000 0.047723
#
#
# Mechanical properties :
#
#
# Convention : Reuss Voigt Hill
#
# Bulk Modulus (GPa) = 56.54784 73.61046 65.07915
# Shear Modulus (GPa) = 26.06688 28.76372 27.41530
#
# Velocity S-wave (km/s) = 3.64553 3.82947 3.73863
# Velocity P-wave (km/s) = 6.82277 7.55530 7.19836
#
# Compressibility (1/GPa) = 0.01768414
#
# Stress axis : x y z
#
# Youngs Moduli (GPa) = 92.60233 63.54573 99.28375
#
# Poissons Ratio (x) = 0.22821 0.29297
# Poissons Ratio (y) = 0.33256 0.28988
# Poissons Ratio (z) = 0.27325 0.18554
#
# Static dielectric constant tensor:
#      x y z
#    x 3.338330 0.000000 0.105360 
#    y 0.000000 3.698040 0.000000 
#    z 0.105360 0.000000 3.411270 
# 
# 
# High freq. dielectric constant tensor:
#      x y z
#    x 1.753480 0.000000 0.004470 
#    y 0.000000 1.776750 0.000000 
#    z 0.004470 0.000000 1.755860 
# 
# From -- ./inp_files/37431.got.cif
#   From: 2010.06.25/outbox.cif.g09.slc.cpg/sg10_19_cif.got.tgz:37431.got - 2010.06.27 22:07:45.
