data_PCOD8067897
_publ_section_title
;
Structure prediction by ZEFSAII (Michael W. Deem and Ramdas Pophale) SiO2 
 PCOD8067897
Probable space group: P 2/M
;
_chemical_formula_sum "Si O2"
_cell_formula_units_Z 28
_cell_length_a 9.843073
_cell_length_b 9.283749
_cell_length_c 30.407630
_cell_angle_alpha 90.000000
_cell_angle_beta 142.965566
_cell_angle_gamma 90.000000
_cell_volume 1673.577553
_symmetry_space_group_name_H-M "P 2/M"
_symmetry_group_IT_number 10
_symmetry_cell_setting 'monoclinic'
loop_
_space_group_symop_operation_xyz
x,y,z
-x,y,-z
-x,-y,-z
x,-y,z
loop_
_atom_site_type_symbol
_atom_site_label
_atom_site_fract_x
_atom_site_fract_y
_atom_site_fract_z
Si Si1 0.339225 0.163837 0.284979
Si Si2 0.753098 0.834267 0.444939
Si Si3 0.651594 0.337814 0.995796
Si Si4 0.464820 0.667289 0.441508
Si Si5 0.696882 0.163026 0.142977
Si Si6 0.942909 0.333709 0.720525
Si Si7 0.990033 0.158985 0.130389
O O1 0.607872 0.180449 0.361927
O O2 0.223882 0.286578 0.283938
O O3 0.253381 0.187532 0.212160
O O4 0.265599 0.000000 0.280401
O O5 0.632440 0.754082 0.453606
O O6 0.000000 0.767118 0.500000
O O7 0.776259 0.000000 0.465211
O O8 0.686471 0.500000 0.988149
O O9 0.536139 0.246510 0.927110
O O10 0.500000 0.332139 0.000000
O O11 0.897641 0.272026 0.070898
O O12 0.500000 0.722860 0.500000
O O13 0.527915 0.500000 0.452908
O O14 0.199548 0.692045 0.361032
O O15 0.827352 0.239880 0.217398
O O16 0.852646 0.169769 0.140343
O O17 0.638329 0.000000 0.141350
O O18 0.009296 0.500000 0.744224
O O19 0.959416 0.000000 0.101949
#
# Coordination Sequence:
#
# PCOD8067897 Si02
#       7
#     4   4   4   4   4   4   4
#     4   8  14  24  36  50  71  99 128 159 198 243
#     4   9  17  29  45  65  87 111 142 179 216 254
#     4   9  15  20  27  41  61  86 119 157 192 226
#     4   9  18  31  45  62  85 113 144 177 214 256
#     4   9  15  22  31  43  63  91 122 155 192 236
#     4   9  15  23  36  52  70  94 127 165 200 236
#     4   8  13  20  29  41  60  89 122 153 188 231
#
# _framework density 16.730626000000001
#
# number of rings (size 3 to 8) (size 9 to 14) (size 15 to 20)
#    0.000    3.286    0.000    2.143    0.000    6.286 
#    0.000    0.000    0.000    0.000    0.000    0.000 
#    0.000    0.000    0.000    1.286    0.000   28.286 
#
# Total GULP energy -346865.478322 kJ/mol
# GULP energy per Si atom -12388.052797 kJ/mol
# Density = 1.669255 g / cm^3
# Si number density = 16.730626 Si / 1000 Ang^3
#
#
#
# Elastic Constant Matrix: (Units=GPa)
#
#
# Indices 1 2 3 4 5 6 
#
# 1 22.7840 18.2068 31.8411 0.0000 1.3327 0.0000
# 2 18.2068 107.9190 75.5055 0.0000 -3.3478 0.0000
# 3 31.8411 75.5055 174.8281 0.0000 1.8528 0.0000
# 4 0.0000 0.0000 0.0000 29.8980 0.0000 -0.9337
# 5 1.3327 -3.3478 1.8528 0.0000 11.6452 0.0000
# 6 0.0000 0.0000 0.0000 -0.9337 0.0000 7.4176
#
#
#
# Elastic Compliance Matrix: (Units=1/GPa)
#
#
# Indices 1 2 3 4 5 6 
#
# 1 0.060291 -0.003928 -0.009215 0.000000 -0.006563 0.000000
# 2 -0.003928 0.013801 -0.005301 0.000000 0.005260 0.000000
# 3 -0.009215 -0.005301 0.009709 0.000000 -0.002014 0.000000
# 4 0.000000 0.000000 0.000000 0.033579 0.000000 0.004227
# 5 -0.006563 0.005260 -0.002014 0.000000 0.088456 0.000000
# 6 0.000000 0.000000 0.000000 0.004227 0.000000 0.135346
#
#
# Mechanical properties :
#
#
# Convention : Reuss Voigt Hill
#
# Bulk Modulus (GPa) = 21.31581 61.84867 41.58224
# Shear Modulus (GPa) = 12.69984 21.79067 17.24525
#
# Velocity S-wave (km/s) = 2.75812 3.61285 3.21403
# Velocity P-wave (km/s) = 4.78657 7.37910 6.21942
#
# Compressibility (1/GPa) = 0.04691353
#
# Stress axis : x y z
#
# Youngs Moduli (GPa) = 16.58628 72.46017 102.99988
#
# Poissons Ratio (x) = 0.28463 0.94910
# Poissons Ratio (y) = 0.06515 0.54596
# Poissons Ratio (z) = 0.15284 0.38408
#
# Static dielectric constant tensor:
#      x y z
#    x 2.302680 0.000000 0.017390 
#    y 0.000000 3.248710 0.000000 
#    z 0.017390 0.000000 3.793240 
# 
# 
# High freq. dielectric constant tensor:
#      x y z
#    x 1.534430 0.000000 0.000750 
#    y 0.000000 1.654910 0.000000 
#    z 0.000750 0.000000 1.676630 
# 
# From -- ./inp_files/75744.got.cif
#   From: 2010.06.25/outbox.cif.g09.slc.cpg/sg10_38_cif.got.tgz:75744.got - 2010.06.27 22:07:45.
