data_PCOD8067442
_publ_section_title
;
Structure prediction by ZEFSAII (Michael W. Deem and Ramdas Pophale) SiO2 
 PCOD8067442
Probable space group: P 2/M
;
_chemical_formula_sum "Si O2"
_cell_formula_units_Z 24
_cell_length_a 18.836598
_cell_length_b 14.023903
_cell_length_c 15.130249
_cell_angle_alpha 90.000000
_cell_angle_beta 19.982578
_cell_angle_gamma 90.000000
_cell_volume 1365.859836
_symmetry_space_group_name_H-M "P 2/M"
_symmetry_group_IT_number 10
_symmetry_cell_setting 'monoclinic'
loop_
_space_group_symop_operation_xyz
x,y,z
-x,y,-z
-x,-y,-z
x,-y,z
loop_
_atom_site_type_symbol
_atom_site_label
_atom_site_fract_x
_atom_site_fract_y
_atom_site_fract_z
Si Si1 0.045847 0.107834 0.711709
Si Si2 0.405014 0.392616 0.250718
Si Si3 0.853222 0.888019 0.751544
Si Si4 0.819513 0.606981 0.654619
Si Si5 0.540735 0.208003 0.718606
Si Si6 0.600753 0.109726 0.289918
O O1 0.232587 0.170784 0.525350
O O2 0.976763 0.138623 0.694979
O O3 0.125316 0.000000 0.618591
O O4 0.849133 0.120791 0.007356
O O5 0.350934 0.500000 0.347617
O O6 0.229992 0.351686 0.386057
O O7 0.436334 0.322250 0.297256
O O8 0.616592 0.395255 0.950223
O O9 0.000000 0.854436 0.500000
O O10 0.801440 0.000000 0.806612
O O11 0.632098 0.832856 0.010518
O O12 0.899254 0.500000 0.543043
O O13 0.000000 0.662338 0.500000
O O14 0.486401 0.180756 0.682211
O O15 0.500000 0.139800 0.500000
O O16 0.544896 0.000000 0.329656
#
# Coordination Sequence:
#
# PCOD8067442 Si02
#       6
#     4   4   4   4   4   4
#     4   9  18  32  50  73  97 123 159 198 239 292
#     4   9  19  31  44  69  99 128 167 210 245 282
#     4   9  19  33  46  67 103 139 168 198 233 285
#     4   8  15  30  48  63  87 126 169 211 249 278
#     4  11  20  31  50  72  98 131 166 203 246 295
#     4   9  19  36  56  78 101 121 151 203 258 305
#
# _framework density 17.571349999999999
#
# number of rings (size 3 to 8) (size 9 to 14) (size 15 to 20)
#    0.000    2.833    0.000    3.500    0.000    7.333 
#    0.000    5.000    0.000    0.500    0.000    1.167 
#    0.000    0.000    0.000    0.000    0.000    0.000 
#
# Total GULP energy -297390.817115 kJ/mol
# GULP energy per Si atom -12391.284046 kJ/mol
# Density = 1.753136 g / cm^3
# Si number density = 17.571350 Si / 1000 Ang^3
#
#
#
# Elastic Constant Matrix: (Units=GPa)
#
#
# Indices 1 2 3 4 5 6 
#
# 1 84.2702 54.7783 51.7267 0.0000 -0.6333 0.0000
# 2 54.7783 81.4913 28.4605 0.0000 -4.0888 0.0000
# 3 51.7267 28.4605 95.9014 0.0000 5.0041 0.0000
# 4 0.0000 0.0000 0.0000 3.0587 0.0000 -3.2643
# 5 -0.6333 -4.0888 5.0041 0.0000 33.1410 0.0000
# 6 0.0000 0.0000 0.0000 -3.2643 0.0000 24.1711
#
#
#
# Elastic Compliance Matrix: (Units=1/GPa)
#
#
# Indices 1 2 3 4 5 6 
#
# 1 0.028502 -0.015363 -0.010829 0.000000 0.000284 0.000000
# 2 -0.015363 0.022150 0.001598 0.000000 0.002198 0.000000
# 3 -0.010829 0.001598 0.015920 0.000000 -0.002414 0.000000
# 4 0.000000 0.000000 0.000000 0.381985 0.000000 0.051587
# 5 0.000284 0.002198 -0.002414 0.000000 0.030815 0.000000
# 6 0.000000 0.000000 0.000000 0.051587 0.000000 0.048338
#
#
# Mechanical properties :
#
#
# Convention : Reuss Voigt Hill
#
# Bulk Modulus (GPa) = 57.52092 59.06599 58.29345
# Shear Modulus (GPa) = 8.58085 20.52065 14.55075
#
# Velocity S-wave (km/s) = 2.21225 3.42109 2.88079
# Velocity P-wave (km/s) = 6.27153 7.02090 6.65677
#
# Compressibility (1/GPa) = 0.01738498
#
# Stress axis : x y z
#
# Youngs Moduli (GPa) = 35.08521 45.14616 62.81466
#
# Poissons Ratio (x) = 0.69357 0.68021
# Poissons Ratio (y) = 0.53901 -0.10038
# Poissons Ratio (z) = 0.37993 -0.07215
#
# Static dielectric constant tensor:
#      x y z
#    x 3.566870 0.000000 -0.161610 
#    y 0.000000 3.290330 0.000000 
#    z -0.161610 0.000000 3.288290 
# 
# 
# High freq. dielectric constant tensor:
#      x y z
#    x 1.667120 0.000000 -0.023310 
#    y 0.000000 1.664270 0.000000 
#    z -0.023310 0.000000 1.667820 
# 
# From -- ./inp_files/51493.got.cif
#   From: 2010.06.25/outbox.cif.g09.slc.cpg/sg10_26_cif.got.tgz:51493.got - 2010.06.27 22:07:45.
