data_PCOD8067692
_publ_section_title
;
Structure prediction by ZEFSAII (Michael W. Deem and Ramdas Pophale) SiO2 
 PCOD8067692
Probable space group: P 2/M
;
_chemical_formula_sum "Si O2"
_cell_formula_units_Z 20
_cell_length_a 12.264737
_cell_length_b 11.987921
_cell_length_c 16.284692
_cell_angle_alpha 90.000000
_cell_angle_beta 154.544868
_cell_angle_gamma 90.000000
_cell_volume 1029.087424
_symmetry_space_group_name_H-M "P 2/M"
_symmetry_group_IT_number 10
_symmetry_cell_setting 'monoclinic'
loop_
_space_group_symop_operation_xyz
x,y,z
-x,y,-z
-x,-y,-z
x,-y,z
loop_
_atom_site_type_symbol
_atom_site_label
_atom_site_fract_x
_atom_site_fract_y
_atom_site_fract_z
Si Si1 0.951062 0.500000 0.263740
Si Si2 0.000000 0.332653 0.000000
Si Si3 0.123522 0.130379 0.497570
Si Si4 0.783473 0.500000 0.726529
Si Si5 0.409666 0.272945 0.155179
Si Si6 0.758192 0.738546 0.135949
Si Si7 0.731385 0.500000 0.369411
O O1 0.788506 0.607937 0.177135
O O2 0.020204 0.500000 0.215122
O O3 0.206277 0.500000 0.491641
O O4 0.839645 0.396088 0.822006
O O5 0.783850 0.266964 0.900904
O O6 0.407783 0.172846 0.696495
O O7 0.000000 0.162557 0.500000
O O8 0.988446 0.192362 0.330521
O O9 0.116166 0.000000 0.474506
O O10 0.500000 0.500000 0.500000
O O11 0.559295 0.389723 0.237519
O O12 0.249002 0.240362 0.965833
O O13 0.500000 0.783160 0.000000
O O14 0.000000 0.500000 0.500000
#
# Coordination Sequence:
#
# PCOD8067692 Si02
#       7
#     2   2   4   2   4   4   2
#     4  12  21  37  59  96 136 165 201 249 311 380
#     4  11  24  40  61  90 132 176 219 251 304 388
#     4  11  25  45  67  93 124 164 216 272 326 378
#     4  11  22  37  57  91 129 173 211 251 296 371
#     4  12  23  42  64  95 132 169 212 259 318 383
#     4  12  23  39  64  99 131 164 205 261 326 387
#     4  12  22  37  64  95 135 173 199 254 330 386
#
# _framework density 19.434694
#
# number of rings (size 3 to 8) (size 9 to 14) (size 15 to 20)
#    0.000    0.400    6.000    5.100    0.000    1.200 
#    0.000    0.500    0.000    1.200    0.000    0.000 
#    0.000    0.000    0.000    0.000    0.000    0.000 
#
# Total GULP energy -247955.249321 kJ/mol
# GULP energy per Si atom -12397.762466 kJ/mol
# Density = 1.939046 g / cm^3
# Si number density = 19.434694 Si / 1000 Ang^3
#
#
#
# Elastic Constant Matrix: (Units=GPa)
#
#
# Indices 1 2 3 4 5 6 
#
# 1 141.3400 42.4013 47.6613 0.0000 -0.9656 0.0000
# 2 42.4013 74.4904 48.9490 0.0000 -3.3602 0.0000
# 3 47.6613 48.9490 141.7703 0.0000 -20.9345 0.0000
# 4 0.0000 0.0000 0.0000 -57.8572 0.0000 51.3872
# 5 -0.9656 -3.3602 -20.9345 0.0000 43.1776 0.0000
# 6 0.0000 0.0000 0.0000 51.3872 0.0000 -19.8561
#
#
#
# Elastic Compliance Matrix: (Units=1/GPa)
#
#
# Indices 1 2 3 4 5 6 
#
# 1 0.008837 -0.003917 -0.001760 0.000000 -0.000961 0.000000
# 2 -0.003917 0.019213 -0.005503 0.000000 -0.001261 0.000000
# 3 -0.001760 -0.005503 0.010207 0.000000 0.004481 0.000000
# 4 0.000000 0.000000 0.000000 0.013310 0.000000 0.034446
# 5 -0.000961 -0.001261 0.004481 0.000000 0.025213 0.000000
# 6 0.000000 0.000000 0.000000 0.034446 0.000000 0.038783
#
#
# Mechanical properties :
#
#
# Convention : Reuss Voigt Hill
#
# Bulk Modulus (GPa) = 62.90461 70.62487 66.76474
# Shear Modulus (GPa) = 34.91038 7.66548 21.28793
#
# Velocity S-wave (km/s) = 4.24287 1.98816 3.31321
# Velocity P-wave (km/s) = 7.51266 6.45669 7.00460
#
# Compressibility (1/GPa) = 0.01589709
#
# Stress axis : x y z
#
# Youngs Moduli (GPa) = 113.15733 52.04682 97.96872
#
# Poissons Ratio (x) = 0.20386 0.17247
# Poissons Ratio (y) = 0.44322 0.53914
# Poissons Ratio (z) = 0.19921 0.28642
#
# Static dielectric constant tensor:
#      x y z
#    x 3.068410 0.000000 -0.240350 
#    y 0.000000 3.332350 0.000000 
#    z -0.240350 0.000000 3.779100 
# 
# 
# High freq. dielectric constant tensor:
#      x y z
#    x 1.758430 0.000000 -0.011910 
#    y 0.000000 1.726730 0.000000 
#    z -0.011910 0.000000 1.782600 
# 
# From -- ./inp_files/64733.got.cif
#   From: 2010.06.25/outbox.cif.g09.slc.cpg/sg10_33_cif.got.tgz:64733.got - 2010.06.27 22:07:45.
