data_PCOD8067195
_publ_section_title
;
Structure prediction by ZEFSAII (Michael W. Deem and Ramdas Pophale) SiO2 
 PCOD8067195
Probable space group: P 2/M
;
_chemical_formula_sum "Si O2"
_cell_formula_units_Z 32
_cell_length_a 11.816993
_cell_length_b 8.639373
_cell_length_c 28.665770
_cell_angle_alpha 90.000000
_cell_angle_beta 30.852662
_cell_angle_gamma 90.000000
_cell_volume 1500.818072
_symmetry_space_group_name_H-M "P 2/M"
_symmetry_group_IT_number 10
_symmetry_cell_setting 'monoclinic'
loop_
_space_group_symop_operation_xyz
x,y,z
-x,y,-z
-x,-y,-z
x,-y,z
loop_
_atom_site_type_symbol
_atom_site_label
_atom_site_fract_x
_atom_site_fract_y
_atom_site_fract_z
Si Si1 0.467740 0.820662 0.772881
Si Si2 0.929044 0.678936 0.320236
Si Si3 0.095434 0.319519 0.415781
Si Si4 0.694927 0.180563 0.320783
Si Si5 0.614854 0.178651 0.823209
Si Si6 0.124477 0.680072 0.832930
Si Si7 0.750276 0.180194 0.471003
Si Si8 0.648162 0.818701 0.991189
O O1 0.647768 0.723945 0.679597
O O2 0.478936 0.788322 0.824208
O O3 0.224340 0.767677 0.842658
O O4 0.504496 0.000000 0.748482
O O5 0.903145 0.500000 0.317057
O O6 0.890668 0.778849 0.287296
O O7 0.750835 0.726645 0.422361
O O8 0.171399 0.713948 0.253785
O O9 0.059948 0.500000 0.417558
O O10 0.000000 0.275384 0.500000
O O11 0.968927 0.217419 0.422609
O O12 0.719093 0.280196 0.265866
O O13 0.462818 0.231902 0.424778
O O14 0.704409 0.000000 0.304905
O O15 0.689114 0.000000 0.800083
O O16 0.468005 0.225741 0.919335
O O17 0.127998 0.500000 0.842211
O O18 0.878806 0.731918 0.907862
O O19 0.744674 0.000000 0.460573
O O20 0.695591 0.000000 0.970466
O O21 0.500000 0.762244 0.000000
#
# Coordination Sequence:
#
# PCOD8067195 Si02
#       8
#     4   4   4   4   4   4   4   4
#     4  11  23  41  65  91 126 171 218 264 315 382
#     4  12  24  38  62  94 131 168 208 265 327 382
#     4  11  23  38  59  89 126 167 214 271 327 379
#     4  11  24  42  64  89 124 169 218 266 317 384
#     4  10  22  41  67  96 127 169 219 267 315 381
#     4  12  26  43  65  95 131 165 208 266 326 384
#     4  11  23  39  60  88 122 167 219 264 314 382
#     4  10  22  43  71  99 128 166 211 261 319 385
#
# _framework density 21.321704
#
# number of rings (size 3 to 8) (size 9 to 14) (size 15 to 20)
#    0.000    1.000    1.250    5.625    0.000    9.250 
#    0.000    2.500    0.000    0.000    0.000    0.000 
#    0.000    0.000    0.000    0.000    0.000    0.000 
#
# Total GULP energy -397054.734634 kJ/mol
# GULP energy per Si atom -12407.960457 kJ/mol
# Density = 2.127317 g / cm^3
# Si number density = 21.321704 Si / 1000 Ang^3
#
#
#
# Elastic Constant Matrix: (Units=GPa)
#
#
# Indices 1 2 3 4 5 6 
#
# 1 130.5833 27.7459 42.3880 0.0000 -1.0314 0.0000
# 2 27.7459 66.8261 32.8488 0.0000 1.2730 0.0000
# 3 42.3880 32.8488 101.0088 0.0000 5.9745 0.0000
# 4 0.0000 0.0000 0.0000 26.5053 0.0000 1.1069
# 5 -1.0314 1.2730 5.9745 0.0000 37.8728 0.0000
# 6 0.0000 0.0000 0.0000 1.1069 0.0000 17.7863
#
#
#
# Elastic Compliance Matrix: (Units=1/GPa)
#
#
# Indices 1 2 3 4 5 6 
#
# 1 0.009173 -0.002271 -0.003159 0.000000 0.000825 0.000000
# 2 -0.002271 0.018378 -0.005030 0.000000 0.000114 0.000000
# 3 -0.003159 -0.005030 0.012978 0.000000 -0.001964 0.000000
# 4 0.000000 0.000000 0.000000 0.037827 0.000000 -0.002354
# 5 0.000825 0.000114 -0.001964 0.000000 0.026733 0.000000
# 6 0.000000 0.000000 0.000000 -0.002354 0.000000 0.056370
#
#
# Mechanical properties :
#
#
# Convention : Reuss Voigt Hill
#
# Bulk Modulus (GPa) = 51.00290 56.04263 53.52277
# Shear Modulus (GPa) = 26.46703 29.46190 27.96447
#
# Velocity S-wave (km/s) = 3.52706 3.72126 3.62546
# Velocity P-wave (km/s) = 6.36863 6.69366 6.53317
#
# Compressibility (1/GPa) = 0.01960673
#
# Stress axis : x y z
#
# Youngs Moduli (GPa) = 109.02055 54.41401 77.05334
#
# Poissons Ratio (x) = 0.12358 0.24345
# Poissons Ratio (y) = 0.24759 0.38760
# Poissons Ratio (z) = 0.34444 0.27371
#
# Static dielectric constant tensor:
#      x y z
#    x 4.019710 0.000000 0.079040 
#    y 0.000000 3.709740 0.000000 
#    z 0.079040 0.000000 3.844330 
# 
# 
# High freq. dielectric constant tensor:
#      x y z
#    x 1.851740 0.000000 0.001970 
#    y 0.000000 1.833430 0.000000 
#    z 0.001970 0.000000 1.835130 
# 
# From -- ./inp_files/94942.got.cif
#   From: 2010.06.25/outbox.cif.g09.slc.cpg/sg10_48_cif.got.tgz:94942.got - 2010.06.27 22:07:45.
