data_PCOD8067749
_publ_section_title
;
Structure prediction by ZEFSAII (Michael W. Deem and Ramdas Pophale) SiO2 
 PCOD8067749
Probable space group: P 2/M
;
_chemical_formula_sum "Si O2"
_cell_formula_units_Z 24
_cell_length_a 9.402013
_cell_length_b 18.411932
_cell_length_c 10.011736
_cell_angle_alpha 90.000000
_cell_angle_beta 136.256872
_cell_angle_gamma 90.000000
_cell_volume 1198.327604
_symmetry_space_group_name_H-M "P 2/M"
_symmetry_group_IT_number 10
_symmetry_cell_setting 'monoclinic'
loop_
_space_group_symop_operation_xyz
x,y,z
-x,y,-z
-x,-y,-z
x,-y,z
loop_
_atom_site_type_symbol
_atom_site_label
_atom_site_fract_x
_atom_site_fract_y
_atom_site_fract_z
Si Si1 0.848758 0.338554 0.514639
Si Si2 0.948051 0.585476 0.115692
Si Si3 0.577321 0.312865 0.905526
Si Si4 0.517980 0.919586 0.355715
Si Si5 0.170999 0.826266 0.008644
Si Si6 0.085093 0.171363 0.416283
O O1 0.612018 0.340593 0.311609
O O2 0.913474 0.257736 0.598784
O O3 0.000000 0.367155 0.500000
O O4 0.871728 0.388638 0.661607
O O5 0.921214 0.500000 0.107839
O O6 0.736731 0.621314 0.021483
O O7 0.000000 0.609683 0.000000
O O8 0.681298 0.242334 0.912543
O O9 0.500000 0.291375 0.000000
O O10 0.500000 0.923899 0.500000
O O11 0.301798 0.893992 0.149281
O O12 0.689431 0.861281 0.436255
O O13 0.569660 0.000000 0.333732
O O14 0.000000 0.802860 0.000000
O O15 0.063630 0.856298 0.801654
O O16 0.000000 0.146114 0.500000
#
# Coordination Sequence:
#
# PCOD8067749 Si02
#       6
#     4   4   4   4   4   4
#     4  11  22  42  68  97 127 171 217 265 323 385
#     4  11  26  45  64  98 138 170 214 272 324 380
#     4  12  23  42  71 100 130 167 221 273 321 381
#     4  11  25  43  64  97 133 170 219 270 321 388
#     4  12  24  41  69  98 126 174 220 261 323 386
#     4  11  23  42  68  97 133 166 214 275 326 378
#
# _framework density 20.027913000000002
#
# number of rings (size 3 to 8) (size 9 to 14) (size 15 to 20)
#    0.000    0.667    6.667    1.500    0.000    3.333 
#    0.000    2.500    0.000    0.000    0.000    0.000 
#    0.000    0.000    0.000    0.000    0.000    0.000 
#
# Total GULP energy -297712.995460 kJ/mol
# GULP energy per Si atom -12404.708144 kJ/mol
# Density = 1.998233 g / cm^3
# Si number density = 20.027913 Si / 1000 Ang^3
#
#
#
# Elastic Constant Matrix: (Units=GPa)
#
#
# Indices 1 2 3 4 5 6 
#
# 1 109.0677 36.9310 46.1953 0.0000 -7.3477 0.0000
# 2 36.9310 69.1457 28.1191 0.0000 -10.8589 0.0000
# 3 46.1953 28.1191 159.9984 0.0000 -3.1037 0.0000
# 4 0.0000 0.0000 0.0000 32.2094 0.0000 4.0306
# 5 -7.3477 -10.8589 -3.1037 0.0000 37.7501 0.0000
# 6 0.0000 0.0000 0.0000 4.0306 0.0000 10.2622
#
#
#
# Elastic Compliance Matrix: (Units=1/GPa)
#
#
# Indices 1 2 3 4 5 6 
#
# 1 0.012091 -0.005328 -0.002543 0.000000 0.000612 0.000000
# 2 -0.005328 0.018639 -0.001656 0.000000 0.004188 0.000000
# 3 -0.002543 -0.001656 0.007268 0.000000 -0.000374 0.000000
# 4 0.000000 0.000000 0.000000 0.032652 0.000000 -0.012824
# 5 0.000612 0.004188 -0.000374 0.000000 0.027783 0.000000
# 6 0.000000 0.000000 0.000000 -0.012824 0.000000 0.102482
#
#
# Mechanical properties :
#
#
# Convention : Reuss Voigt Hill
#
# Bulk Modulus (GPa) = 52.78544 62.30027 57.54286
# Shear Modulus (GPa) = 22.09630 31.17543 26.63587
#
# Velocity S-wave (km/s) = 3.32516 3.94966 3.65079
# Velocity P-wave (km/s) = 6.41525 7.20930 6.82383
#
# Compressibility (1/GPa) = 0.01894462
#
# Stress axis : x y z
#
# Youngs Moduli (GPa) = 82.70790 53.65088 137.58872
#
# Poissons Ratio (x) = 0.28583 0.34985
# Poissons Ratio (y) = 0.44063 0.22789
# Poissons Ratio (z) = 0.21030 0.08886
#
# Static dielectric constant tensor:
#      x y z
#    x 3.711940 0.000000 -0.045730 
#    y 0.000000 3.573780 0.000000 
#    z -0.045730 0.000000 3.882450 
# 
# 
# High freq. dielectric constant tensor:
#      x y z
#    x 1.786040 0.000000 0.000200 
#    y 0.000000 1.771010 0.000000 
#    z 0.000200 0.000000 1.803190 
# 
# From -- ./inp_files/20259.got.cif
#   From: 2010.06.25/outbox.cif.g09.slc.cpg/sg10_11_cif.got.tgz:20259.got - 2010.06.27 22:07:45.
