data_PCOD8067594
_publ_section_title
;
Structure prediction by ZEFSAII (Michael W. Deem and Ramdas Pophale) SiO2 
 PCOD8067594
Probable space group: P 2/M
;
_chemical_formula_sum "Si O2"
_cell_formula_units_Z 32
_cell_length_a 31.245029
_cell_length_b 8.578895
_cell_length_c 12.001449
_cell_angle_alpha 90.000000
_cell_angle_beta 30.181089
_cell_angle_gamma 90.000000
_cell_volume 1617.278429
_symmetry_space_group_name_H-M "P 2/M"
_symmetry_group_IT_number 10
_symmetry_cell_setting 'monoclinic'
loop_
_space_group_symop_operation_xyz
x,y,z
-x,y,-z
-x,-y,-z
x,-y,z
loop_
_atom_site_type_symbol
_atom_site_label
_atom_site_fract_x
_atom_site_fract_y
_atom_site_fract_z
Si Si1 0.295532 0.178356 0.826790
Si Si2 0.625636 0.180715 0.973570
Si Si3 0.403929 0.317324 0.192848
Si Si4 0.475405 0.319958 0.431424
Si Si5 0.083586 0.315874 0.677879
Si Si6 0.232753 0.683857 0.188068
Si Si7 0.893820 0.684431 0.124095
Si Si8 0.262310 0.177944 0.654002
O O1 0.376663 0.289177 0.637584
O O2 0.245708 0.199304 0.823008
O O3 0.324051 0.000000 0.781638
O O4 0.235433 0.231568 0.063082
O O5 0.638055 0.230940 0.818055
O O6 0.685509 0.279117 0.920608
O O7 0.647359 0.000000 0.938255
O O8 0.528239 0.215535 0.225988
O O9 0.404544 0.500000 0.166846
O O10 0.343627 0.280083 0.433445
O O11 0.500000 0.257759 0.000000
O O12 0.500000 0.270326 0.500000
O O13 0.495686 0.500000 0.361697
O O14 0.089470 0.500000 0.670071
O O15 0.148026 0.251137 0.439722
O O16 0.112154 0.255135 0.735181
O O17 0.986819 0.267430 0.867243
O O18 0.229261 0.500000 0.176011
O O19 0.878633 0.500000 0.149804
O O20 0.823953 0.772171 0.210594
O O21 0.283364 0.000000 0.576874
#
# Coordination Sequence:
#
# PCOD8067594 Si02
#       8
#     4   4   4   4   4   4   4   4
#     4  11  24  40  57  80 115 157 197 240 290 347
#     4  12  24  37  58  86 119 153 188 234 292 350
#     4  11  24  41  61  85 114 150 195 241 285 337
#     4  11  22  37  58  83 111 148 196 246 285 331
#     4   8  17  34  60  91 117 142 183 238 290 341
#     4  11  21  36  58  86 117 149 192 243 288 338
#     4   9  17  36  64  89 114 149 188 231 288 349
#     4  11  24  40  58  84 118 154 194 237 289 349
#
# _framework density 19.786327
#
# number of rings (size 3 to 8) (size 9 to 14) (size 15 to 20)
#    0.000    1.500    1.250    5.250    0.000    6.500 
#    0.000    3.750    0.000    3.750    0.000    0.000 
#    0.000    0.000    0.000    0.000    0.000    0.000 
#
# Total GULP energy -396917.594582 kJ/mol
# GULP energy per Si atom -12403.674831 kJ/mol
# Density = 1.974129 g / cm^3
# Si number density = 19.786327 Si / 1000 Ang^3
#
#
#
# Elastic Constant Matrix: (Units=GPa)
#
#
# Indices 1 2 3 4 5 6 
#
# 1 114.9959 29.6850 56.6872 0.0000 2.0373 0.0000
# 2 29.6850 54.7944 18.5321 0.0000 5.3335 0.0000
# 3 56.6872 18.5321 137.8621 0.0000 6.8590 0.0000
# 4 0.0000 0.0000 0.0000 20.2499 0.0000 6.9739
# 5 2.0373 5.3335 6.8590 0.0000 34.5378 0.0000
# 6 0.0000 0.0000 0.0000 6.9739 0.0000 28.2975
#
#
#
# Elastic Compliance Matrix: (Units=1/GPa)
#
#
# Indices 1 2 3 4 5 6 
#
# 1 0.012170 -0.005214 -0.004350 0.000000 0.000951 0.000000
# 2 -0.005214 0.021564 -0.000610 0.000000 -0.002901 0.000000
# 3 -0.004350 -0.000610 0.009198 0.000000 -0.001476 0.000000
# 4 0.000000 0.000000 0.000000 0.053963 0.000000 -0.013299
# 5 0.000951 -0.002901 -0.001476 0.000000 0.029639 0.000000
# 6 0.000000 0.000000 0.000000 -0.013299 0.000000 0.038616
#
#
# Mechanical properties :
#
#
# Convention : Reuss Voigt Hill
#
# Bulk Modulus (GPa) = 44.28435 57.49568 50.89002
# Shear Modulus (GPa) = 25.90318 30.13358 28.01838
#
# Velocity S-wave (km/s) = 3.62214 3.90673 3.76712
# Velocity P-wave (km/s) = 6.31847 7.03359 6.68560
#
# Compressibility (1/GPa) = 0.02258134
#
# Stress axis : x y z
#
# Youngs Moduli (GPa) = 82.17181 46.37436 108.72015
#
# Poissons Ratio (x) = 0.24180 0.47298
# Poissons Ratio (y) = 0.42846 0.06636
# Poissons Ratio (z) = 0.35748 0.02830
#
# Static dielectric constant tensor:
#      x y z
#    x 3.645500 0.000000 0.166430 
#    y 0.000000 3.456760 0.000000 
#    z 0.166430 0.000000 3.917180 
# 
# 
# High freq. dielectric constant tensor:
#      x y z
#    x 1.768530 0.000000 0.008190 
#    y 0.000000 1.765200 0.000000 
#    z 0.008190 0.000000 1.773950 
# 
# From -- ./inp_files/55338.got.cif
#   From: 2010.06.25/outbox.cif.g09.slc.cpg/sg10_28_cif.got.tgz:55338.got - 2010.06.27 22:07:45.
