data_PCOD8067207
_publ_section_title
;
Structure prediction by ZEFSAII (Michael W. Deem and Ramdas Pophale) SiO2 
 PCOD8067207
Probable space group: P 2/M
;
_chemical_formula_sum "Si O2"
_cell_formula_units_Z 28
_cell_length_a 9.688426
_cell_length_b 8.512298
_cell_length_c 28.957404
_cell_angle_alpha 90.000000
_cell_angle_beta 33.604096
_cell_angle_gamma 90.000000
_cell_volume 1321.718350
_symmetry_space_group_name_H-M "P 2/M"
_symmetry_group_IT_number 10
_symmetry_cell_setting 'monoclinic'
loop_
_space_group_symop_operation_xyz
x,y,z
-x,y,-z
-x,-y,-z
x,-y,z
loop_
_atom_site_type_symbol
_atom_site_label
_atom_site_fract_x
_atom_site_fract_y
_atom_site_fract_z
Si Si1 0.986743 0.818181 0.813171
Si Si2 0.446267 0.318459 0.123020
Si Si3 0.219723 0.681982 0.350473
Si Si4 0.541759 0.816638 0.631183
Si Si5 0.687739 0.184484 0.488008
Si Si6 0.084659 0.317834 0.068542
Si Si7 0.407455 0.180824 0.824945
O O1 0.811847 0.710586 0.830783
O O2 0.927121 0.789402 0.883091
O O3 0.267874 0.766716 0.724021
O O4 0.941977 0.000000 0.813605
O O5 0.470694 0.500000 0.129671
O O6 0.442190 0.216016 0.170415
O O7 0.673577 0.264941 0.027231
O O8 0.270845 0.500000 0.327311
O O9 0.254318 0.724134 0.394943
O O10 0.421489 0.782628 0.266504
O O11 0.944816 0.723681 0.409539
O O12 0.569295 0.768783 0.570130
O O13 0.592087 0.000000 0.624229
O O14 0.500000 0.238462 0.500000
O O15 0.743045 0.000000 0.469247
O O16 0.100698 0.500000 0.078298
O O17 0.840998 0.286870 0.105518
O O18 0.328437 0.000000 0.844484
#
# Coordination Sequence:
#
# PCOD8067207 Si02
#       7
#     4   4   4   4   4   4   4
#     4  11  23  39  64  96 129 171 220 266 312 375
#     4  11  25  42  62  92 132 172 211 265 329 384
#     4  12  25  42  66  96 129 169 214 260 319 380
#     4  10  22  42  66  95 128 169 216 261 312 373
#     4  10  23  43  69  98 131 168 207 257 317 378
#     4  11  23  42  65  92 128 170 215 266 325 383
#     4  12  25  42  66  94 126 167 218 269 321 383
#
# _framework density 21.184543000000001
#
# number of rings (size 3 to 8) (size 9 to 14) (size 15 to 20)
#    0.000    1.000    1.429    5.143    2.000    8.857 
#    0.000    0.000    0.000    0.000    0.000    0.000 
#    0.000    0.000    0.000    0.000    0.000    0.000 
#
# Total GULP energy -347453.667885 kJ/mol
# GULP energy per Si atom -12409.059567 kJ/mol
# Density = 2.113633 g / cm^3
# Si number density = 21.184543 Si / 1000 Ang^3
#
#
#
# Elastic Constant Matrix: (Units=GPa)
#
#
# Indices 1 2 3 4 5 6 
#
# 1 131.3184 22.5887 35.9541 0.0000 -8.3628 0.0000
# 2 22.5887 60.8503 28.4017 0.0000 -0.4829 0.0000
# 3 35.9541 28.4017 71.6517 0.0000 -3.8597 0.0000
# 4 0.0000 0.0000 0.0000 25.5514 0.0000 -2.9646
# 5 -8.3628 -0.4829 -3.8597 0.0000 33.3771 0.0000
# 6 0.0000 0.0000 0.0000 -2.9646 0.0000 35.2222
#
#
#
# Elastic Compliance Matrix: (Units=1/GPa)
#
#
# Indices 1 2 3 4 5 6 
#
# 1 0.009045 -0.001559 -0.003824 0.000000 0.001802 0.000000
# 2 -0.001559 0.020446 -0.007374 0.000000 -0.000947 0.000000
# 3 -0.003824 -0.007374 0.018858 0.000000 0.001116 0.000000
# 4 0.000000 0.000000 0.000000 0.039523 0.000000 0.003327
# 5 0.001802 -0.000947 0.001116 0.000000 0.030527 0.000000
# 6 0.000000 0.000000 0.000000 0.003327 0.000000 0.028671
#
#
# Mechanical properties :
#
#
# Convention : Reuss Voigt Hill
#
# Bulk Modulus (GPa) = 43.78786 48.63438 46.21112
# Shear Modulus (GPa) = 27.74773 30.62188 29.18480
#
# Velocity S-wave (km/s) = 3.62306 3.80607 3.71569
# Velocity P-wave (km/s) = 6.18196 6.50556 6.34582
#
# Compressibility (1/GPa) = 0.02283738
#
# Stress axis : x y z
#
# Youngs Moduli (GPa) = 110.56050 48.90829 53.02784
#
# Poissons Ratio (x) = 0.07623 0.20277
# Poissons Ratio (y) = 0.17232 0.39101
# Poissons Ratio (z) = 0.42276 0.36063
#
# Static dielectric constant tensor:
#      x y z
#    x 3.890280 0.000000 -0.015430 
#    y 0.000000 3.679670 0.000000 
#    z -0.015430 0.000000 3.873740 
# 
# 
# High freq. dielectric constant tensor:
#      x y z
#    x 1.843370 0.000000 -0.000150 
#    y 0.000000 1.826790 0.000000 
#    z -0.000150 0.000000 1.836500 
# 
# From -- ./inp_files/91949.got.cif
#   From: 2010.06.25/outbox.cif.g09.slc.cpg/sg10_46_cif.got.tgz:91949.got - 2010.06.27 22:07:45.
