data_PCOD8067385
_publ_section_title
;
Structure prediction by ZEFSAII (Michael W. Deem and Ramdas Pophale) SiO2 
 PCOD8067385
Probable space group: P 2/M
;
_chemical_formula_sum "Si O2"
_cell_formula_units_Z 28
_cell_length_a 13.686687
_cell_length_b 9.359859
_cell_length_c 14.435704
_cell_angle_alpha 90.000000
_cell_angle_beta 103.678167
_cell_angle_gamma 90.000000
_cell_volume 1796.845276
_symmetry_space_group_name_H-M "P 2/M"
_symmetry_group_IT_number 10
_symmetry_cell_setting 'monoclinic'
loop_
_space_group_symop_operation_xyz
x,y,z
-x,y,-z
-x,-y,-z
x,-y,z
loop_
_atom_site_type_symbol
_atom_site_label
_atom_site_fract_x
_atom_site_fract_y
_atom_site_fract_z
Si Si1 0.757860 0.663613 0.221002
Si Si2 0.067896 0.340230 0.886340
Si Si3 0.919566 0.831637 0.603961
Si Si4 0.140521 0.831290 0.606598
Si Si5 0.387226 0.329564 0.967463
Si Si6 0.772338 0.336181 0.921878
Si Si7 0.123612 0.169317 0.202797
O O1 0.741375 0.500000 0.246249
O O2 0.856035 0.682583 0.180616
O O3 0.769771 0.755477 0.317091
O O4 0.662297 0.721381 0.140543
O O5 0.020815 0.500000 0.870683
O O6 0.982090 0.221820 0.862056
O O7 0.125816 0.322067 0.995984
O O8 0.852168 0.785849 0.500324
O O9 0.868222 0.780540 0.687936
O O10 0.033398 0.772994 0.620752
O O11 0.930904 0.000000 0.605416
O O12 0.152461 0.000000 0.622331
O O13 0.384254 0.500000 0.968415
O O14 0.500000 0.268381 0.000000
O O15 0.322014 0.275174 0.040455
O O16 0.753397 0.500000 0.888955
O O17 0.784377 0.241370 0.832124
O O18 0.129976 0.000000 0.193459
#
# Coordination Sequence:
#
# PCOD8067385 Si02
#       7
#     4   4   4   4   4   4   4
#     4   9  16  26  43  67  88 106 138 181 215 244
#     4   9  17  28  39  55  85 118 141 166 203 246
#     4   8  16  27  40  57  81 116 152 177 199 242
#     4   9  15  28  44  57  80 116 150 175 206 249
#     4   8  15  30  50  67  84 110 141 171 210 263
#     4   9  18  30  43  60  83 111 141 171 207 252
#     4  11  19  27  40  60  84 113 147 176 201 237
#
# _framework density 15.582867
#
# number of rings (size 3 to 8) (size 9 to 14) (size 15 to 20)
#    0.000    3.000    1.429    3.429    0.000    2.286 
#    0.000    5.000    0.000    1.714    0.000    1.000 
#    0.000    8.000    0.000    0.000    0.000    0.000 
#
# Total GULP energy -347026.716317 kJ/mol
# GULP energy per Si atom -12393.811297 kJ/mol
# Density = 1.554740 g / cm^3
# Si number density = 15.582867 Si / 1000 Ang^3
#
#
#
# Elastic Constant Matrix: (Units=GPa)
#
#
# Indices 1 2 3 4 5 6 
#
# 1 74.2885 27.5757 57.4969 0.0000 3.5402 0.0000
# 2 27.5757 48.4369 43.0882 0.0000 -2.8354 0.0000
# 3 57.4969 43.0882 127.4643 0.0000 -5.6282 0.0000
# 4 0.0000 0.0000 0.0000 25.3741 0.0000 -1.1086
# 5 3.5402 -2.8354 -5.6282 0.0000 17.2367 0.0000
# 6 0.0000 0.0000 0.0000 -1.1086 0.0000 6.4554
#
#
#
# Elastic Compliance Matrix: (Units=1/GPa)
#
#
# Indices 1 2 3 4 5 6 
#
# 1 0.022699 -0.005687 -0.008689 0.000000 -0.008435 0.000000
# 2 -0.005687 0.030993 -0.007747 0.000000 0.003737 0.000000
# 3 -0.008689 -0.007747 0.014617 0.000000 0.005283 0.000000
# 4 0.000000 0.000000 0.000000 0.039708 0.000000 0.006819
# 5 -0.008435 0.003737 0.005283 0.000000 0.062088 0.000000
# 6 0.000000 0.000000 0.000000 0.006819 0.000000 0.156081
#
#
# Mechanical properties :
#
#
# Convention : Reuss Voigt Hill
#
# Bulk Modulus (GPa) = 41.55683 56.27901 48.91792
# Shear Modulus (GPa) = 13.21168 17.94850 15.58009
#
# Velocity S-wave (km/s) = 2.91492 3.39751 3.16543
# Velocity P-wave (km/s) = 6.16889 7.18228 6.69479
#
# Compressibility (1/GPa) = 0.02406343
#
# Stress axis : x y z
#
# Youngs Moduli (GPa) = 44.05458 32.26529 68.41437
#
# Poissons Ratio (x) = 0.18349 0.59446
# Poissons Ratio (y) = 0.25054 0.52998
# Poissons Ratio (z) = 0.38280 0.24995
#
# Static dielectric constant tensor:
#      x y z
#    x 2.816870 0.000000 -0.094550 
#    y 0.000000 2.726770 0.000000 
#    z -0.094550 0.000000 3.238170 
# 
# 
# High freq. dielectric constant tensor:
#      x y z
#    x 1.556380 0.000000 -0.009750 
#    y 0.000000 1.574200 0.000000 
#    z -0.009750 0.000000 1.601840 
# 
# From -- ./inp_files/65743.got.cif
#   From: 2010.06.25/outbox.cif.g09.slc.cpg/sg10_33_cif.got.tgz:65743.got - 2010.06.27 22:07:45.
