data_PCOD8067752
_publ_section_title
;
Structure prediction by ZEFSAII (Michael W. Deem and Ramdas Pophale) SiO2 
 PCOD8067752
Probable space group: P 2/M
;
_chemical_formula_sum "Si O2"
_cell_formula_units_Z 16
_cell_length_a 9.229229
_cell_length_b 10.914773
_cell_length_c 12.286944
_cell_angle_alpha 90.000000
_cell_angle_beta 145.501645
_cell_angle_gamma 90.000000
_cell_volume 701.025624
_symmetry_space_group_name_H-M "P 2/M"
_symmetry_group_IT_number 10
_symmetry_cell_setting 'monoclinic'
loop_
_space_group_symop_operation_xyz
x,y,z
-x,y,-z
-x,-y,-z
x,-y,z
loop_
_atom_site_type_symbol
_atom_site_label
_atom_site_fract_x
_atom_site_fract_y
_atom_site_fract_z
Si Si1 0.961962 0.746257 0.097916
Si Si2 0.191722 0.000000 0.300594
Si Si3 0.977488 0.361233 0.644932
Si Si4 0.765953 0.000000 0.431188
Si Si5 0.380257 0.746130 0.739909
O O1 0.104110 0.671931 0.281945
O O2 0.669604 0.723196 0.953189
O O3 0.074284 0.883509 0.165848
O O4 0.000000 0.691433 0.000000
O O5 0.500000 0.000000 0.500000
O O6 0.103085 0.000000 0.369757
O O7 0.079341 0.500000 0.700610
O O8 0.193319 0.267946 0.729291
O O9 0.720108 0.348122 0.413996
O O10 0.602185 0.120016 0.304525
O O11 0.000000 0.000000 0.500000
#
# Coordination Sequence:
#
# PCOD8067752 Si02
#       5
#     4   2   4   2   4
#     4  12  26  42  68 101 134 176 222 271 333 404
#     4  12  24  45  69  96 142 177 211 269 344 411
#     4  11  25  45  70  96 133 183 225 276 330 386
#     4  12  19  37  69 100 128 167 212 275 335 392
#     4  11  22  43  69 100 136 170 222 277 338 395
#
# _framework density 22.823702000000001
#
# number of rings (size 3 to 8) (size 9 to 14) (size 15 to 20)
#    0.000    0.500    5.000    4.875    0.000    3.500 
#    0.000    5.000    0.000    0.000    0.000    0.000 
#    0.000    0.000    0.000    0.000    0.000    0.000 
#
# Total GULP energy -198311.723323 kJ/mol
# GULP energy per Si atom -12394.482708 kJ/mol
# Density = 2.277175 g / cm^3
# Si number density = 22.823702 Si / 1000 Ang^3
#
#
#
# Elastic Constant Matrix: (Units=GPa)
#
#
# Indices 1 2 3 4 5 6 
#
# 1 106.0231 19.5111 51.8330 0.0000 -32.3098 0.0000
# 2 19.5111 106.7140 14.3199 0.0000 -8.7067 0.0000
# 3 51.8330 14.3199 96.1647 0.0000 -4.7814 0.0000
# 4 0.0000 0.0000 0.0000 14.0723 0.0000 -2.5899
# 5 -32.3098 -8.7067 -4.7814 0.0000 57.6193 0.0000
# 6 0.0000 0.0000 0.0000 -2.5899 0.0000 17.2124
#
#
#
# Elastic Compliance Matrix: (Units=1/GPa)
#
#
# Indices 1 2 3 4 5 6 
#
# 1 0.016100 -0.001190 -0.008094 0.000000 0.008176 0.000000
# 2 -0.001190 0.009753 -0.000774 0.000000 0.000742 0.000000
# 3 -0.008094 -0.000774 0.014706 0.000000 -0.003435 0.000000
# 4 0.000000 0.000000 0.000000 0.073086 0.000000 0.010997
# 5 0.008176 0.000742 -0.003435 0.000000 0.021767 0.000000
# 6 0.000000 0.000000 0.000000 0.010997 0.000000 0.059752
#
#
# Mechanical properties :
#
#
# Convention : Reuss Voigt Hill
#
# Bulk Modulus (GPa) = 48.91847 53.35886 51.13867
# Shear Modulus (GPa) = 22.51302 32.66332 27.58817
#
# Velocity S-wave (km/s) = 3.14409 3.78711 3.48048
# Velocity P-wave (km/s) = 5.88728 6.52322 6.21339
#
# Compressibility (1/GPa) = 0.02044218
#
# Stress axis : x y z
#
# Youngs Moduli (GPa) = 62.11330 102.53399 67.99997
#
# Poissons Ratio (x) = 0.12205 0.55039
# Poissons Ratio (y) = 0.07394 0.05262
# Poissons Ratio (z) = 0.50274 0.07934
#
# Static dielectric constant tensor:
#      x y z
#    x 3.899250 0.000000 -0.118520 
#    y 0.000000 3.624270 0.000000 
#    z -0.118520 0.000000 4.000880 
# 
# 
# High freq. dielectric constant tensor:
#      x y z
#    x 1.896890 0.000000 -0.022430 
#    y 0.000000 1.885250 0.000000 
#    z -0.022430 0.000000 1.910140 
# 
# From -- ./inp_files/41838.got.cif
#   From: 2010.06.25/outbox.cif.g09.slc.cpg/sg10_21_cif.got.tgz:41838.got - 2010.06.27 22:07:45.
