data_PCOD8067117
_publ_section_title
;
Structure prediction by ZEFSAII (Michael W. Deem and Ramdas Pophale) SiO2 
 PCOD8067117
Probable space group: P 2/M
;
_chemical_formula_sum "Si O2"
_cell_formula_units_Z 18
_cell_length_a 18.704159
_cell_length_b 8.060157
_cell_length_c 5.019778
_cell_angle_alpha 90.000000
_cell_angle_beta 106.407739
_cell_angle_gamma 90.000000
_cell_volume 725.954998
_symmetry_space_group_name_H-M "P 2/M"
_symmetry_group_IT_number 10
_symmetry_cell_setting 'monoclinic'
loop_
_space_group_symop_operation_xyz
x,y,z
-x,y,-z
-x,-y,-z
x,-y,z
loop_
_atom_site_type_symbol
_atom_site_label
_atom_site_fract_x
_atom_site_fract_y
_atom_site_fract_z
Si Si1 0.044843 0.302393 0.295199
Si Si2 0.210304 0.306891 0.555770
Si Si3 0.701854 0.192922 0.856088
Si Si4 0.553345 0.000000 0.311080
Si Si5 0.587730 0.679852 0.125495
O O1 0.046022 0.500000 0.284574
O O2 0.129580 0.235669 0.386986
O O3 0.000000 0.235843 0.500000
O O4 0.000000 0.227499 0.000000
O O5 0.204917 0.500000 0.624840
O O6 0.236626 0.209610 0.845749
O O7 0.268876 0.281702 0.379207
O O8 0.626070 0.280427 0.882217
O O9 0.683777 0.000000 0.780589
O O10 0.500000 0.000000 0.500000
O O11 0.604734 0.167897 0.352487
O O12 0.500000 0.000000 0.000000
O O13 0.617588 0.500000 0.260615
O O14 0.500000 0.667532 0.000000
#
# Coordination Sequence:
#
# PCOD8067117 Si02
#       5
#     4   4   4   2   4
#     4   9  17  32  59  94 127 162 211 272 329 386
#     4  11  23  41  67  98 131 171 224 277 331 402
#     4  12  25  43  65  93 135 179 220 275 341 403
#     4  10  22  40  62  90 126 160 202 264 328 380
#     4  10  22  43  69  97 128 171 225 277 333 401
#
# _framework density 24.794927000000001
#
# number of rings (size 3 to 8) (size 9 to 14) (size 15 to 20)
#    0.000    1.556    1.111    4.000    0.000    7.556 
#    0.000    4.444    0.000   13.333    0.000    0.000 
#    0.000    0.000    0.000    0.000    0.000    0.000 
#
# Total GULP energy -223170.394890 kJ/mol
# GULP energy per Si atom -12398.355272 kJ/mol
# Density = 2.473849 g / cm^3
# Si number density = 24.794927 Si / 1000 Ang^3
#
#
#
# Elastic Constant Matrix: (Units=GPa)
#
#
# Indices 1 2 3 4 5 6 
#
# 1 132.1747 10.6866 -10.2638 0.0000 -8.6701 0.0000
# 2 10.6866 164.0736 19.0330 0.0000 -21.0253 0.0000
# 3 -10.2638 19.0330 66.5408 0.0000 -23.6329 0.0000
# 4 0.0000 0.0000 0.0000 35.8225 0.0000 -9.0990
# 5 -8.6701 -21.0253 -23.6329 0.0000 48.8901 0.0000
# 6 0.0000 0.0000 0.0000 -9.0990 0.0000 58.9597
#
#
#
# Elastic Compliance Matrix: (Units=1/GPa)
#
#
# Indices 1 2 3 4 5 6 
#
# 1 0.007919 -0.000479 0.002154 0.000000 0.002240 0.000000
# 2 -0.000479 0.006539 -0.001178 0.000000 0.002158 0.000000
# 3 0.002154 -0.001178 0.018898 0.000000 0.009010 0.000000
# 4 0.000000 0.000000 0.000000 0.029054 0.000000 0.004484
# 5 0.002240 0.002158 0.009010 0.000000 0.026135 0.000000
# 6 0.000000 0.000000 0.000000 0.004484 0.000000 0.017653
#
#
# Mechanical properties :
#
#
# Convention : Reuss Voigt Hill
#
# Bulk Modulus (GPa) = 29.11217 44.63342 36.87280
# Shear Modulus (GPa) = 42.86237 51.62334 47.24285
#
# Velocity S-wave (km/s) = 4.16224 4.56786 4.36976
# Velocity P-wave (km/s) = 5.90472 6.77204 6.35320
#
# Compressibility (1/GPa) = 0.03434989
#
# Stress axis : x y z
#
# Youngs Moduli (GPa) = 126.28512 152.92475 52.91679
#
# Poissons Ratio (x) = 0.07319 -0.11397
# Poissons Ratio (y) = 0.06044 0.06233
# Poissons Ratio (z) = -0.27198 0.18012
#
# Static dielectric constant tensor:
#      x y z
#    x 5.279530 0.000000 0.474090 
#    y 0.000000 11.380570 0.000000 
#    z 0.474090 0.000000 4.936250 
# 
# 
# High freq. dielectric constant tensor:
#      x y z
#    x 2.005890 0.000000 0.005130 
#    y 0.000000 1.977470 0.000000 
#    z 0.005130 0.000000 1.992210 
# 
# From -- ./inp_files/10589.got.cif
#   From: 2010.06.25/outbox.cif.g09.slc.cpg/sg10_6_cif.got.tgz:10589.got - 2010.06.27 22:07:45.
