data_PCOD8067483
_publ_section_title
;
Structure prediction by ZEFSAII (Michael W. Deem and Ramdas Pophale) SiO2 
 PCOD8067483
Probable space group: P 2/M
;
_chemical_formula_sum "Si O2"
_cell_formula_units_Z 24
_cell_length_a 14.829074
_cell_length_b 13.442113
_cell_length_c 12.781491
_cell_angle_alpha 90.000000
_cell_angle_beta 30.462225
_cell_angle_gamma 90.000000
_cell_volume 1291.651967
_symmetry_space_group_name_H-M "P 2/M"
_symmetry_group_IT_number 10
_symmetry_cell_setting 'monoclinic'
loop_
_space_group_symop_operation_xyz
x,y,z
-x,y,-z
-x,-y,-z
x,-y,z
loop_
_atom_site_type_symbol
_atom_site_label
_atom_site_fract_x
_atom_site_fract_y
_atom_site_fract_z
Si Si1 0.000027 0.384991 0.876512
Si Si2 0.702278 0.242230 0.492965
Si Si3 0.702373 0.242217 0.102348
Si Si4 0.710964 0.889208 0.672780
Si Si5 0.791845 0.116144 0.208143
Si Si6 0.711011 0.889208 0.905200
O O1 0.000002 0.500000 0.846320
O O2 0.177760 0.337578 0.650980
O O3 0.822353 0.337550 0.006362
O O4 0.000000 0.367249 0.000000
O O5 0.499951 0.279095 0.712631
O O6 0.782923 0.188675 0.515483
O O7 0.703524 0.162866 0.398505
O O8 0.703609 0.162825 0.194300
O O9 0.782992 0.188680 0.918540
O O10 0.771992 0.855283 0.727979
O O11 0.786233 0.000000 0.574014
O O12 0.499976 0.892857 0.876859
O O13 0.750576 0.000000 0.249437
O O14 0.000000 0.140855 0.000000
O O15 0.786295 0.000000 0.853398
#
# Coordination Sequence:
#
# PCOD8067483 Si02
#       6
#     4   4   4   4   4   4
#     4  11  24  42  57  76 107 137 178 236 286 328
#     4  11  20  35  58  81 107 142 181 221 268 320
#     4  11  20  35  58  81 107 142 181 221 268 320
#     4   8  15  29  51  81 115 148 179 211 251 308
#     4  11  21  33  51  79 117 150 173 210 264 320
#     4   8  15  29  51  81 115 148 179 211 251 308
#
# _framework density 18.580857999999999
#
# number of rings (size 3 to 8) (size 9 to 14) (size 15 to 20)
#    0.000    2.000    3.333    2.500    0.000    3.333 
#    0.000    2.500    0.000    4.000    0.000    4.667 
#    0.000    0.000    0.000    0.000    0.000    0.000 
#
# Total GULP energy -297587.071000 kJ/mol
# GULP energy per Si atom -12399.461292 kJ/mol
# Density = 1.853857 g / cm^3
# Si number density = 18.580858 Si / 1000 Ang^3
#
#
#
# Elastic Constant Matrix: (Units=GPa)
#
#
# Indices 1 2 3 4 5 6 
#
# 1 48.2256 67.2724 106.5732 0.0000 46.5815 0.0000
# 2 67.2724 137.8782 56.3970 0.0000 12.9175 0.0000
# 3 106.5732 56.3970 24.0148 0.0000 -17.7682 0.0000
# 4 0.0000 0.0000 0.0000 14.8782 0.0000 8.1115
# 5 46.5815 12.9175 -17.7682 0.0000 30.3859 0.0000
# 6 0.0000 0.0000 0.0000 8.1115 0.0000 21.5111
#
#
#
# Elastic Compliance Matrix: (Units=1/GPa)
#
#
# Indices 1 2 3 4 5 6 
#
# 1 0.001488 -0.005151 0.009558 0.000000 0.005497 0.000000
# 2 -0.005151 0.011865 -0.005102 0.000000 -0.000131 0.000000
# 3 0.009558 -0.005102 0.003466 0.000000 -0.010458 0.000000
# 4 0.000000 0.000000 0.000000 0.084606 0.000000 -0.031903
# 5 0.005497 -0.000131 -0.010458 0.000000 0.018423 0.000000
# 6 0.000000 0.000000 0.000000 -0.031903 0.000000 0.058518
#
#
# Mechanical properties :
#
#
# Convention : Reuss Voigt Hill
#
# Bulk Modulus (GPa) = 64.80467 74.51152 69.65809
# Shear Modulus (GPa) = 27.04192 12.01346 19.52769
#
# Velocity S-wave (km/s) = 3.81906 2.54549 3.24536
# Velocity P-wave (km/s) = 7.37562 6.98768 7.18427
#
# Compressibility (1/GPa) = 0.01543099
#
# Stress axis : x y z
#
# Youngs Moduli (GPa) = 671.82467 84.28190 288.53285
#
# Poissons Ratio (x) = 0.43413 -2.75791
# Poissons Ratio (y) = 3.46056 1.47196
# Poissons Ratio (z) = -6.42156 0.42997
#
# Static dielectric constant tensor:
#      x y z
#    x 3.598760 0.000000 0.202930 
#    y 0.000000 3.250170 0.000000 
#    z 0.202930 0.000000 3.432970 
# 
# 
# High freq. dielectric constant tensor:
#      x y z
#    x 1.725170 0.000000 0.003260 
#    y 0.000000 1.691750 0.000000 
#    z 0.003260 0.000000 1.722490 
# 
# From -- ./inp_files/51504.got.cif
#   From: 2010.06.25/outbox.cif.g09.slc.cpg/sg10_26_cif.got.tgz:51504.got - 2010.06.27 22:07:45.
