data_PCOD8067780
_publ_section_title
;
Structure prediction by ZEFSAII (Michael W. Deem and Ramdas Pophale) SiO2 
 PCOD8067780
Probable space group: P 2/M
;
_chemical_formula_sum "Si O2"
_cell_formula_units_Z 26
_cell_length_a 9.569356
_cell_length_b 20.034592
_cell_length_c 8.969876
_cell_angle_alpha 90.000000
_cell_angle_beta 52.139694
_cell_angle_gamma 90.000000
_cell_volume 1357.709933
_symmetry_space_group_name_H-M "P 2/M"
_symmetry_group_IT_number 10
_symmetry_cell_setting 'monoclinic'
loop_
_space_group_symop_operation_xyz
x,y,z
-x,y,-z
-x,-y,-z
x,-y,z
loop_
_atom_site_type_symbol
_atom_site_label
_atom_site_fract_x
_atom_site_fract_y
_atom_site_fract_z
Si Si1 0.693253 0.072115 0.316225
Si Si2 0.797369 0.685552 0.082680
Si Si3 0.500000 0.350024 0.500000
Si Si4 0.992099 0.923247 0.676332
Si Si5 0.761386 0.577906 0.537491
Si Si6 0.850572 0.578812 0.810298
Si Si7 0.828727 0.831582 0.007939
O O1 0.500000 0.063315 0.500000
O O2 0.818484 0.090795 0.373015
O O3 0.757791 0.000000 0.207819
O O4 0.682040 0.128653 0.197622
O O5 0.658086 0.689940 0.312455
O O6 0.757214 0.622807 0.000160
O O7 0.772614 0.755461 0.010769
O O8 0.000000 0.678039 0.000000
O O9 0.409188 0.392558 0.430196
O O10 0.000000 0.903483 0.500000
O O11 0.852690 0.871759 0.839168
O O12 0.930240 0.000000 0.737497
O O13 0.748679 0.500000 0.530544
O O14 0.758351 0.597193 0.713877
O O15 0.943288 0.600051 0.337539
O O16 0.829133 0.500000 0.862245
O O17 0.000000 0.833951 0.000000
#
# Coordination Sequence:
#
# PCOD8067780 Si02
#       7
#     4   4   2   4   4   4   4
#     4   9  17  31  55  82 107 140 180 224 270 318
#     4  11  23  39  56  85 115 155 189 236 285 333
#     4  12  23  36  60  86 113 144 192 238 276 340
#     4   9  17  33  57  84 108 139 183 226 270 326
#     4   9  19  37  62  88 110 142 187 237 291 342
#     4   9  19  39  61  82 115 151 185 233 290 343
#     4   9  19  35  54  77 111 148 185 218 272 330
#
# _framework density 19.149892000000001
#
# number of rings (size 3 to 8) (size 9 to 14) (size 15 to 20)
#    0.000    2.462    1.538    1.615    1.077    4.000 
#    2.769    2.308    3.385    3.692    0.000    0.000 
#    0.000    0.000    0.000    0.000    0.000    0.000 
#
# Total GULP energy -322177.298835 kJ/mol
# GULP energy per Si atom -12391.434571 kJ/mol
# Density = 1.910631 g / cm^3
# Si number density = 19.149892 Si / 1000 Ang^3
#
#
#
# Elastic Constant Matrix: (Units=GPa)
#
#
# Indices 1 2 3 4 5 6 
#
# 1 78.2491 39.7430 36.9498 0.0000 4.2103 0.0000
# 2 39.7430 101.6588 65.0380 0.0000 20.2762 0.0000
# 3 36.9498 65.0380 124.9079 0.0000 12.6078 0.0000
# 4 0.0000 0.0000 0.0000 -178.3024 0.0000 -29.9770
# 5 4.2103 20.2762 12.6078 0.0000 26.4494 0.0000
# 6 0.0000 0.0000 0.0000 -29.9770 0.0000 8.4854
#
#
#
# Elastic Compliance Matrix: (Units=1/GPa)
#
#
# Indices 1 2 3 4 5 6 
#
# 1 0.016524 -0.005544 -0.002274 0.000000 0.002704 0.000000
# 2 -0.005544 0.018437 -0.006957 0.000000 -0.009935 0.000000
# 3 -0.002274 -0.006957 0.012319 0.000000 -0.000177 0.000000
# 4 0.000000 0.000000 0.000000 -0.003519 0.000000 -0.012430
# 5 0.002704 -0.009935 -0.000177 0.000000 0.045078 0.000000
# 6 0.000000 0.000000 0.000000 -0.012430 0.000000 0.073935
#
#
# Mechanical properties :
#
#
# Convention : Reuss Voigt Hill
#
# Bulk Modulus (GPa) = 56.40523 65.36414 60.88469
# Shear Modulus (GPa) = 25.22262 -17.80117 3.71073
#
# Velocity S-wave (km/s) = 3.63315 -3.05219 1.39353
# Velocity P-wave (km/s) = 6.86427 4.66753 5.86958
#
# Compressibility (1/GPa) = 0.01772885
#
# Stress axis : x y z
#
# Youngs Moduli (GPa) = 60.51769 54.23970 81.17657
#
# Poissons Ratio (x) = 0.30073 0.18461
# Poissons Ratio (y) = 0.33554 0.56473
# Poissons Ratio (z) = 0.13762 0.37734
#
# Static dielectric constant tensor:
#      x y z
#    x 3.094640 0.000000 0.112220 
#    y 0.000000 3.657280 0.000000 
#    z 0.112220 0.000000 3.450170 
# 
# 
# High freq. dielectric constant tensor:
#      x y z
#    x 1.725060 0.000000 0.002570 
#    y 0.000000 1.741090 0.000000 
#    z 0.002570 0.000000 1.743860 
# 
# From -- ./inp_files/20432.got.cif
#   From: 2010.06.25/outbox.cif.g09.slc.cpg/sg10_11_cif.got.tgz:20432.got - 2010.06.27 22:07:45.
