data_PCOD8067932
_publ_section_title
;
Structure prediction by ZEFSAII (Michael W. Deem and Ramdas Pophale) SiO2 
 PCOD8067932
Probable space group: P 2/M
;
_chemical_formula_sum "Si O2"
_cell_formula_units_Z 28
_cell_length_a 18.705726
_cell_length_b 9.834089
_cell_length_c 18.705628
_cell_angle_alpha 90.000000
_cell_angle_beta 29.313094
_cell_angle_gamma 90.000000
_cell_volume 1684.636492
_symmetry_space_group_name_H-M "P 2/M"
_symmetry_group_IT_number 10
_symmetry_cell_setting 'monoclinic'
loop_
_space_group_symop_operation_xyz
x,y,z
-x,y,-z
-x,-y,-z
x,-y,z
loop_
_atom_site_type_symbol
_atom_site_label
_atom_site_fract_x
_atom_site_fract_y
_atom_site_fract_z
Si Si1 0.840989 0.662420 0.659011
Si Si2 0.519162 0.651441 0.683037
Si Si3 0.549170 0.156830 0.378753
Si Si4 0.410068 0.338365 0.225148
Si Si5 0.183044 0.651443 0.019157
Si Si6 0.725143 0.661634 0.910071
Si Si7 0.878754 0.843169 0.049168
O O1 0.840420 0.500000 0.659580
O O2 0.725606 0.719607 0.701717
O O3 0.798278 0.719611 0.774398
O O4 0.000000 0.719289 0.500000
O O5 0.570344 0.500000 0.615101
O O6 0.544368 0.755133 0.596003
O O7 0.608508 0.702597 0.675050
O O8 0.351108 0.646898 0.851103
O O9 0.500000 0.202916 0.500000
O O10 0.721255 0.184495 0.221254
O O11 0.510748 0.000000 0.398066
O O12 0.415864 0.500000 0.214795
O O13 0.560981 0.278630 0.060984
O O14 0.115109 0.500000 0.070341
O O15 0.096005 0.755129 0.044368
O O16 0.175056 0.702597 0.108504
O O17 0.714789 0.500000 0.915868
O O18 0.898069 0.000000 0.010747
O O19 0.000000 0.797088 0.000000
#
# Coordination Sequence:
#
# PCOD8067932 Si02
#       7
#     4   4   4   4   4   4   4
#     4   9  15  21  31  51  80 107 126 152 194 235
#     4   8  14  25  41  60  81 105 134 167 200 234
#     4   9  17  29  44  61  81 105 133 165 200 238
#     4   8  13  22  36  52  71  99 133 162 188 225
#     4   8  14  25  41  60  81 105 134 167 200 234
#     4   8  13  22  36  52  71  99 133 162 188 225
#     4   9  17  29  44  61  81 105 133 165 200 238
#
# _framework density 16.620795999999999
#
# number of rings (size 3 to 8) (size 9 to 14) (size 15 to 20)
#    0.000    3.571    0.000    2.143    0.000    2.286 
#    0.000    1.429    0.000    1.714    0.000    1.000 
#    0.000    8.000    0.000    0.000    0.000    0.000 
#
# Total GULP energy -347015.025775 kJ/mol
# GULP energy per Si atom -12393.393778 kJ/mol
# Density = 1.658297 g / cm^3
# Si number density = 16.620796 Si / 1000 Ang^3
#
#
#
# Elastic Constant Matrix: (Units=GPa)
#
#
# Indices 1 2 3 4 5 6 
#
# 1 172.0935 55.1180 67.6460 0.0000 22.6326 0.0000
# 2 55.1180 41.3451 27.0847 0.0000 11.7620 0.0000
# 3 67.6460 27.0847 77.8120 0.0000 16.9206 0.0000
# 4 0.0000 0.0000 0.0000 8.5692 0.0000 -1.4336
# 5 22.6326 11.7620 16.9206 0.0000 27.6453 0.0000
# 6 0.0000 0.0000 0.0000 -1.4336 0.0000 5.1480
#
#
#
# Elastic Compliance Matrix: (Units=1/GPa)
#
#
# Indices 1 2 3 4 5 6 
#
# 1 0.012216 -0.011876 -0.006241 0.000000 -0.001128 0.000000
# 2 -0.011876 0.044355 -0.003605 0.000000 -0.006942 0.000000
# 3 -0.006241 -0.003605 0.020864 0.000000 -0.006127 0.000000
# 4 0.000000 0.000000 0.000000 0.122400 0.000000 0.034086
# 5 -0.001128 -0.006942 -0.006127 0.000000 0.043800 0.000000
# 6 0.000000 0.000000 0.000000 0.034086 0.000000 0.203741
#
#
# Mechanical properties :
#
#
# Convention : Reuss Voigt Hill
#
# Bulk Modulus (GPa) = 29.41890 65.66087 47.53988
# Shear Modulus (GPa) = 9.95716 17.69929 13.82823
#
# Velocity S-wave (km/s) = 2.45026 3.26680 2.88754
# Velocity P-wave (km/s) = 5.07381 7.33624 6.30729
#
# Compressibility (1/GPa) = 0.03399175
#
# Stress axis : x y z
#
# Youngs Moduli (GPa) = 81.86012 22.54512 47.92917
#
# Poissons Ratio (x) = 0.26775 0.29912
# Poissons Ratio (y) = 0.97218 0.17279
# Poissons Ratio (z) = 0.51087 0.08128
#
# Static dielectric constant tensor:
#      x y z
#    x 3.487490 0.000000 0.185940 
#    y 0.000000 2.806050 0.000000 
#    z 0.185940 0.000000 3.044200 
# 
# 
# High freq. dielectric constant tensor:
#      x y z
#    x 1.651230 0.000000 0.015060 
#    y 0.000000 1.586810 0.000000 
#    z 0.015060 0.000000 1.615330 
# 
# From -- ./inp_files/67098.got.cif
#   From: 2010.06.25/outbox.cif.g09.slc.cpg/sg10_34_cif.got.tgz:67098.got - 2010.06.27 22:07:45.
