data_PCOD8067368
_publ_section_title
;
Structure prediction by ZEFSAII (Michael W. Deem and Ramdas Pophale) SiO2 
 PCOD8067368
Probable space group: P 2/M
;
_chemical_formula_sum "Si O2"
_cell_formula_units_Z 28
_cell_length_a 11.449519
_cell_length_b 21.059034
_cell_length_c 11.084782
_cell_angle_alpha 90.000000
_cell_angle_beta 26.917341
_cell_angle_gamma 90.000000
_cell_volume 1209.950908
_symmetry_space_group_name_H-M "P 2/M"
_symmetry_group_IT_number 10
_symmetry_cell_setting 'monoclinic'
loop_
_space_group_symop_operation_xyz
x,y,z
-x,y,-z
-x,-y,-z
x,-y,z
loop_
_atom_site_type_symbol
_atom_site_label
_atom_site_fract_x
_atom_site_fract_y
_atom_site_fract_z
Si Si1 0.017770 0.889695 0.610582
Si Si2 0.445649 0.824867 0.337696
Si Si3 0.219430 0.725115 0.703835
Si Si4 0.724597 0.762233 0.883345
Si Si5 0.487647 0.428623 0.153817
Si Si6 0.994443 0.355836 0.299250
Si Si7 0.186350 0.070315 0.942327
O O1 0.837912 0.829869 0.743672
O O2 0.939822 0.924454 0.806883
O O3 0.000000 0.930546 0.500000
O O4 0.310464 0.865971 0.357501
O O5 0.230281 0.790088 0.616171
O O6 0.615985 0.768924 0.120337
O O7 0.608332 0.874014 0.268139
O O8 0.500000 0.711094 0.500000
O O9 0.134729 0.663135 0.708230
O O10 0.000000 0.741706 0.000000
O O11 0.942937 0.707817 0.681842
O O12 0.500000 0.740254 0.000000
O O13 0.489892 0.500000 0.204078
O O14 0.214310 0.397117 0.437594
O O15 0.500000 0.429191 0.000000
O O16 0.738486 0.392612 0.974648
O O17 0.314018 0.000000 0.820278
O O18 0.000000 0.077076 0.000000
#
# Coordination Sequence:
#
# PCOD8067368 Si02
#       7
#     4   4   4   4   4   4   4
#     4  11  23  40  68 103 142 181 230 300 374 444
#     4  11  24  41  70  99 139 187 229 296 373 439
#     4  12  27  44  69 104 144 183 236 302 366 435
#     4  11  22  39  64 102 143 179 224 288 369 444
#     4  11  25  44  70 104 146 192 239 290 352 427
#     4  12  24  43  69 104 142 190 237 297 354 426
#     4  10  26  48  68  97 137 190 255 307 358 438
#
# _framework density 23.141435000000001
#
# number of rings (size 3 to 8) (size 9 to 14) (size 15 to 20)
#    0.000    0.857    2.857    3.857    4.000    4.286 
#    0.000    2.143    0.000    9.000    0.000    0.000 
#    0.000    0.000    0.000    0.000    0.000    0.000 
#
# Total GULP energy -347093.674434 kJ/mol
# GULP energy per Si atom -12396.202658 kJ/mol
# Density = 2.308876 g / cm^3
# Si number density = 23.141435 Si / 1000 Ang^3
#
#
#
# Elastic Constant Matrix: (Units=GPa)
#
#
# Indices 1 2 3 4 5 6 
#
# 1 143.3755 46.4292 40.4134 0.0000 -5.5838 0.0000
# 2 46.4292 125.8568 47.8577 0.0000 -5.7269 0.0000
# 3 40.4134 47.8577 131.4258 0.0000 -2.8642 0.0000
# 4 0.0000 0.0000 0.0000 -3.2747 0.0000 2.8582
# 5 -5.5838 -5.7269 -2.8642 0.0000 45.3705 0.0000
# 6 0.0000 0.0000 0.0000 2.8582 0.0000 13.0618
#
#
#
# Elastic Compliance Matrix: (Units=1/GPa)
#
#
# Indices 1 2 3 4 5 6 
#
# 1 0.008235 -0.002382 -0.001652 0.000000 0.000609 0.000000
# 2 -0.002382 0.009953 -0.002875 0.000000 0.000782 0.000000
# 3 -0.001652 -0.002875 0.009164 0.000000 0.000012 0.000000
# 4 0.000000 0.000000 0.000000 -0.256404 0.000000 0.056106
# 5 0.000609 0.000782 0.000012 0.000000 0.022215 0.000000
# 6 0.000000 0.000000 0.000000 0.056106 0.000000 0.064282
#
#
# Mechanical properties :
#
#
# Convention : Reuss Voigt Hill
#
# Bulk Modulus (GPa) = 73.88300 74.45098 74.16699
# Shear Modulus (GPa) = -40.24936 28.76204 -5.74366
#
# Velocity S-wave (km/s) = -4.17499 3.52928 -1.57714
# Velocity P-wave (km/s) = 2.95894 6.98926 5.36680
#
# Compressibility (1/GPa) = 0.01353491
#
# Stress axis : x y z
#
# Youngs Moduli (GPa) = 121.42691 100.47114 109.12494
#
# Poissons Ratio (x) = 0.23936 0.18023
# Poissons Ratio (y) = 0.28928 0.31371
# Poissons Ratio (z) = 0.20055 0.28883
#
# Static dielectric constant tensor:
#      x y z
#    x 4.352090 0.000000 0.102410 
#    y 0.000000 4.213170 0.000000 
#    z 0.102410 0.000000 4.352520 
# 
# 
# High freq. dielectric constant tensor:
#      x y z
#    x 1.928160 0.000000 -0.006960 
#    y 0.000000 1.896530 0.000000 
#    z -0.006960 0.000000 1.923710 
# 
# From -- ./inp_files/48015.got.cif
#   From: 2010.06.25/outbox.cif.g09.slc.cpg/sg10_25_cif.got.tgz:48015.got - 2010.06.27 22:07:45.
