data_PCOD8067516
_publ_section_title
;
Structure prediction by ZEFSAII (Michael W. Deem and Ramdas Pophale) SiO2 
 PCOD8067516
Probable space group: P 2/M
;
_chemical_formula_sum "Si O2"
_cell_formula_units_Z 26
_cell_length_a 5.128261
_cell_length_b 16.611537
_cell_length_c 23.644863
_cell_angle_alpha 90.000000
_cell_angle_beta 71.028346
_cell_angle_gamma 90.000000
_cell_volume 1904.849762
_symmetry_space_group_name_H-M "P 2/M"
_symmetry_group_IT_number 10
_symmetry_cell_setting 'monoclinic'
loop_
_space_group_symop_operation_xyz
x,y,z
-x,y,-z
-x,-y,-z
x,-y,z
loop_
_atom_site_type_symbol
_atom_site_label
_atom_site_fract_x
_atom_site_fract_y
_atom_site_fract_z
Si Si1 0.381727 0.595616 0.239335
Si Si2 0.812974 0.000000 0.458825
Si Si3 0.986328 0.403864 0.170079
Si Si4 0.685761 0.338145 0.431329
Si Si5 0.264283 0.593175 0.373726
Si Si6 0.810045 0.828376 0.458857
Si Si7 0.197402 0.595983 0.035116
O O1 0.383565 0.500000 0.236793
O O2 0.174344 0.630513 0.207214
O O3 0.285129 0.624145 0.307888
O O4 0.681901 0.629796 0.202991
O O5 0.500000 0.000000 0.500000
O O6 0.884931 0.914396 0.422334
O O7 0.000000 0.000000 0.500000
O O8 0.989565 0.500000 0.169315
O O9 0.096525 0.370257 0.102578
O O10 0.500000 0.348764 0.500000
O O11 0.487720 0.355554 0.392641
O O12 0.819118 0.248320 0.416369
O O13 0.948442 0.397276 0.416494
O O14 0.347936 0.500000 0.373905
O O15 0.500000 0.837799 0.500000
O O16 0.000000 0.810725 0.500000
O O17 0.195691 0.500000 0.036299
O O18 0.500000 0.629231 0.000000
O O19 0.000000 0.629146 0.000000
#
# Coordination Sequence:
#
# PCOD8067516 Si02
#       7
#     4   2   4   4   4   4   4
#     4   9  17  28  39  49  60  80 114 150 179 206
#     4   8  14  24  42  62  78  94 110 128 154 204
#     4   9  15  24  37  49  63  83 106 136 172 209
#     4  11  21  32  44  57  74  93 114 147 192 237
#     4  11  22  33  43  54  69  92 125 161 191 224
#     4   9  16  28  43  60  78  94 111 132 166 217
#     4   9  15  21  30  47  68  85 100 121 158 212
#
# _framework density 13.649369
#
# number of rings (size 3 to 8) (size 9 to 14) (size 15 to 20)
#    0.000    2.462    0.000    4.615    0.000    8.000 
#    0.000    0.000    0.000    0.000    0.000    0.000 
#    0.000    0.000    0.000    0.000    0.000    0.000 
#
# Total GULP energy -322136.079952 kJ/mol
# GULP energy per Si atom -12389.849229 kJ/mol
# Density = 1.361830 g / cm^3
# Si number density = 13.649369 Si / 1000 Ang^3
#
#
#
# Elastic Constant Matrix: (Units=GPa)
#
#
# Indices 1 2 3 4 5 6 
#
# 1 117.9780 18.2590 40.3609 0.0000 10.3813 0.0000
# 2 18.2590 42.4882 28.1734 0.0000 6.5066 0.0000
# 3 40.3609 28.1734 80.4879 0.0000 8.1399 0.0000
# 4 0.0000 0.0000 0.0000 0.4826 0.0000 1.8444
# 5 10.3813 6.5066 8.1399 0.0000 27.7749 0.0000
# 6 0.0000 0.0000 0.0000 1.8444 0.0000 13.2343
#
#
#
# Elastic Compliance Matrix: (Units=1/GPa)
#
#
# Indices 1 2 3 4 5 6 
#
# 1 0.010424 -0.001063 -0.004623 0.000000 -0.002292 0.000000
# 2 -0.001063 0.031232 -0.009996 0.000000 -0.003990 0.000000
# 3 -0.004623 -0.009996 0.018374 0.000000 -0.001315 0.000000
# 4 0.000000 0.000000 0.000000 4.434321 0.000000 -0.618000
# 5 -0.002292 -0.003990 -0.001315 0.000000 0.038181 0.000000
# 6 0.000000 0.000000 0.000000 -0.618000 0.000000 0.161691
#
#
# Mechanical properties :
#
#
# Convention : Reuss Voigt Hill
#
# Bulk Modulus (GPa) = 34.88403 46.06008 40.47206
# Shear Modulus (GPa) = 1.05593 18.57574 9.81584
#
# Velocity S-wave (km/s) = 0.88051 3.69307 2.68459
# Velocity P-wave (km/s) = 5.16202 7.21134 6.27096
#
# Compressibility (1/GPa) = 0.02866641
#
# Stress axis : x y z
#
# Youngs Moduli (GPa) = 95.93240 32.01870 54.42358
#
# Poissons Ratio (x) = 0.03404 0.25161
# Poissons Ratio (y) = 0.10197 0.54400
# Poissons Ratio (z) = 0.44352 0.32005
#
# Static dielectric constant tensor:
#      x y z
#    x 2.948130 0.000000 0.030790 
#    y 0.000000 2.791700 0.000000 
#    z 0.030790 0.000000 2.667500 
# 
# 
# High freq. dielectric constant tensor:
#      x y z
#    x 1.550880 0.000000 0.004460 
#    y 0.000000 1.460560 0.000000 
#    z 0.004460 0.000000 1.497750 
# 
# From -- ./inp_files/81395.got.cif
#   From: 2010.06.25/outbox.cif.g09.slc.cpg/sg10_41_cif.got.tgz:81395.got - 2010.06.27 22:07:45.
