data_PCOD8067995
_publ_section_title
;
Structure prediction by ZEFSAII (Michael W. Deem and Ramdas Pophale) SiO2 
 PCOD8067995
Probable space group: P 2/M
;
_chemical_formula_sum "Si O2"
_cell_formula_units_Z 32
_cell_length_a 9.896109
_cell_length_b 9.182012
_cell_length_c 24.299142
_cell_angle_alpha 90.000000
_cell_angle_beta 114.021754
_cell_angle_gamma 90.000000
_cell_volume 2016.740293
_symmetry_space_group_name_H-M "P 2/M"
_symmetry_group_IT_number 10
_symmetry_cell_setting 'monoclinic'
loop_
_space_group_symop_operation_xyz
x,y,z
-x,y,-z
-x,-y,-z
x,-y,z
loop_
_atom_site_type_symbol
_atom_site_label
_atom_site_fract_x
_atom_site_fract_y
_atom_site_fract_z
Si Si1 0.190441 0.836787 0.338283
Si Si2 0.455801 0.664355 0.116244
Si Si3 0.487265 0.836790 0.338439
Si Si4 0.777022 0.664356 0.116080
Si Si5 0.568866 0.328441 0.569081
Si Si6 0.338786 0.835076 0.000083
Si Si7 0.579355 0.829445 0.235057
Si Si8 0.108367 0.170558 0.765100
O O1 0.306995 0.839570 0.306408
O O2 0.263600 0.736657 0.398391
O O3 0.034302 0.772665 0.292071
O O4 0.167272 0.000000 0.357926
O O5 0.397571 0.500000 0.114986
O O6 0.613912 0.663516 0.113667
O O7 0.341277 0.752123 0.058908
O O8 0.467535 0.743649 0.176862
O O9 0.533951 0.736631 0.398525
O O10 0.551356 0.772721 0.292324
O O11 0.549626 0.000000 0.358143
O O12 0.832669 0.500000 0.114766
O O13 0.886743 0.743657 0.176646
O O14 0.776564 0.752117 0.058683
O O15 0.500000 0.278962 0.500000
O O16 0.575977 0.500000 0.576210
O O17 0.283557 0.000000 0.000109
O O18 0.500000 0.835361 0.000000
O O19 0.748779 0.795223 0.248239
O O20 0.543360 0.000000 0.223412
O O21 0.095720 0.000000 0.776760
#
# Coordination Sequence:
#
# PCOD8067995 Si02
#       8
#     4   4   4   4   4   4   4   4
#     4   8  16  29  45  66  88 112 143 175 209 248
#     4   9  16  24  35  54  81 111 142 177 217 258
#     4   8  16  29  45  66  88 112 143 175 209 248
#     4   9  16  24  35  54  81 111 142 177 217 258
#     4   9  17  29  47  69  89 110 141 178 211 245
#     4   9  15  23  35  51  74 107 146 183 218 256
#     4   9  16  27  43  63  88 115 142 174 213 256
#     4   9  16  27  43  63  88 115 142 174 213 256
#
# _framework density 15.867189
#
# number of rings (size 3 to 8) (size 9 to 14) (size 15 to 20)
#    0.750    2.500    0.000    1.125    0.000    6.500 
#    0.000    0.000    0.000    0.750    0.000    6.125 
#    0.000    7.000    0.000    0.000    0.000    0.000 
#
# Total GULP energy -396529.863840 kJ/mol
# GULP energy per Si atom -12391.558245 kJ/mol
# Density = 1.583107 g / cm^3
# Si number density = 15.867189 Si / 1000 Ang^3
#
#
#
# Elastic Constant Matrix: (Units=GPa)
#
#
# Indices 1 2 3 4 5 6 
#
# 1 32.3765 22.8377 42.2559 0.0000 0.1911 0.0000
# 2 22.8377 100.1191 79.2610 0.0000 0.2352 0.0000
# 3 42.2559 79.2610 163.9232 0.0000 0.5269 0.0000
# 4 0.0000 0.0000 0.0000 29.7744 0.0000 0.0008
# 5 0.1911 0.2352 0.5269 0.0000 13.0658 0.0000
# 6 0.0000 0.0000 0.0000 0.0008 0.0000 10.7472
#
#
#
# Elastic Compliance Matrix: (Units=1/GPa)
#
#
# Indices 1 2 3 4 5 6 
#
# 1 0.046751 -0.001820 -0.011171 0.000000 -0.000200 0.000000
# 2 -0.001820 0.016254 -0.007390 0.000000 0.000032 0.000000
# 3 -0.011171 -0.007390 0.012554 0.000000 -0.000210 0.000000
# 4 0.000000 0.000000 0.000000 0.033586 0.000000 -0.000002
# 5 -0.000200 0.000032 -0.000210 0.000000 0.076546 0.000000
# 6 0.000000 0.000000 0.000000 -0.000002 0.000000 0.093048
#
#
# Mechanical properties :
#
#
# Convention : Reuss Voigt Hill
#
# Bulk Modulus (GPa) = 28.73818 65.01421 46.87619
# Shear Modulus (GPa) = 15.10122 20.85509 17.97815
#
# Velocity S-wave (km/s) = 3.08835 3.62933 3.36972
# Velocity P-wave (km/s) = 5.55592 7.65674 6.68932
#
# Compressibility (1/GPa) = 0.03479692
#
# Stress axis : x y z
#
# Youngs Moduli (GPa) = 21.38988 61.52489 79.65676
#
# Poissons Ratio (x) = 0.11199 0.88982
# Poissons Ratio (y) = 0.03893 0.58866
# Poissons Ratio (z) = 0.23894 0.45466
#
# Static dielectric constant tensor:
#      x y z
#    x 2.567500 0.000000 0.000160 
#    y 0.000000 3.085000 0.000000 
#    z 0.000160 0.000000 3.028730 
# 
# 
# High freq. dielectric constant tensor:
#      x y z
#    x 1.550640 0.000000 0.000020 
#    y 0.000000 1.617160 0.000000 
#    z 0.000020 0.000000 1.606170 
# 
# From -- ./inp_files/88451.got.cif
#   From: 2010.06.25/outbox.cif.g09.slc.cpg/sg10_45_cif.got.tgz:88451.got - 2010.06.27 22:07:45.
