data_PCOD8067680
_publ_section_title
;
Structure prediction by ZEFSAII (Michael W. Deem and Ramdas Pophale) SiO2 
 PCOD8067680
Probable space group: P 2/M
;
_chemical_formula_sum "Si O2"
_cell_formula_units_Z 28
_cell_length_a 26.431306
_cell_length_b 11.111031
_cell_length_c 26.901320
_cell_angle_alpha 90.000000
_cell_angle_beta 11.040066
_cell_angle_gamma 90.000000
_cell_volume 1512.881399
_symmetry_space_group_name_H-M "P 2/M"
_symmetry_group_IT_number 10
_symmetry_cell_setting 'monoclinic'
loop_
_space_group_symop_operation_xyz
x,y,z
-x,y,-z
-x,-y,-z
x,-y,z
loop_
_atom_site_type_symbol
_atom_site_label
_atom_site_fract_x
_atom_site_fract_y
_atom_site_fract_z
Si Si1 0.546436 0.856395 0.510664
Si Si2 0.548483 0.748823 0.011142
Si Si3 0.103530 0.143213 0.012080
Si Si4 0.825569 0.241173 0.455653
Si Si5 0.275428 0.142536 0.954258
Si Si6 0.847641 0.500000 0.465631
Si Si7 0.583235 0.500000 0.033685
Si Si8 0.898211 0.859067 0.493643
O O1 0.500000 0.806290 0.500000
O O2 0.318344 0.806028 0.766349
O O3 0.547627 0.000000 0.508852
O O4 0.821476 0.806370 0.266782
O O5 0.548059 0.615851 0.033566
O O6 0.822939 0.814083 0.755950
O O7 0.500000 0.737168 0.000000
O O8 0.319824 0.830104 0.255039
O O9 0.166022 0.189752 0.007090
O O10 0.107435 0.000000 0.007625
O O11 0.579099 0.181888 0.665322
O O12 0.807985 0.385037 0.468373
O O13 0.818317 0.206812 0.520177
O O14 0.100480 0.198025 0.166812
O O15 0.260050 0.000000 0.973281
O O16 0.135111 0.500000 0.212171
O O17 0.638039 0.500000 0.711450
O O18 0.909266 0.000000 0.472517
#
# Coordination Sequence:
#
# PCOD8067680 Si02
#       8
#     4   4   4   4   4   2   2   4
#     4   9  15  24  40  63  97 144 192 227 259 309
#     4  12  25  42  65  90 115 148 184 227 279 327
#     4   9  17  28  42  67 102 142 184 224 268 316
#     4  12  23  41  60  84 109 145 189 229 279 332
#     4  11  22  36  57  83 115 150 187 230 277 336
#     4  12  24  42  67  82 112 142 183 236 280 326
#     4  12  21  46  64  88 112 142 184 232 277 328
#     4  12  25  42  62  87 120 151 184 224 272 337
#
# _framework density 18.507729999999999
#
# number of rings (size 3 to 8) (size 9 to 14) (size 15 to 20)
#    0.000    1.000    2.857    5.357    0.000    5.714 
#    0.000    2.143    0.000    0.000    0.000    0.000 
#    0.000    0.000    0.000   45.000    0.000   20.000 
#
# Total GULP energy -347338.746250 kJ/mol
# GULP energy per Si atom -12404.955223 kJ/mol
# Density = 1.846561 g / cm^3
# Si number density = 18.507730 Si / 1000 Ang^3
#
#
#
# Elastic Constant Matrix: (Units=GPa)
#
#
# Indices 1 2 3 4 5 6 
#
# 1 105.5716 21.5667 30.1699 0.0000 -12.7448 0.0000
# 2 21.5667 112.1608 12.5363 0.0000 -9.9507 0.0000
# 3 30.1699 12.5363 134.6568 0.0000 1.1329 0.0000
# 4 0.0000 0.0000 0.0000 24.3184 0.0000 -13.1368
# 5 -12.7448 -9.9507 1.1329 0.0000 48.6920 0.0000
# 6 0.0000 0.0000 0.0000 -13.1368 0.0000 17.8852
#
#
#
# Elastic Compliance Matrix: (Units=1/GPa)
#
#
# Indices 1 2 3 4 5 6 
#
# 1 0.010756 -0.001587 -0.002284 0.000000 0.002544 0.000000
# 2 -0.001587 0.009416 -0.000534 0.000000 0.001521 0.000000
# 3 -0.002284 -0.000534 0.007995 0.000000 -0.000893 0.000000
# 4 0.000000 0.000000 0.000000 0.068169 0.000000 0.050071
# 5 0.002544 0.001521 -0.000893 0.000000 0.021535 0.000000
# 6 0.000000 0.000000 0.000000 0.050071 0.000000 0.092690
#
#
# Mechanical properties :
#
#
# Convention : Reuss Voigt Hill
#
# Bulk Modulus (GPa) = 51.65893 53.43722 52.54808
# Shear Modulus (GPa) = 22.14131 37.38689 29.76410
#
# Velocity S-wave (km/s) = 3.46255 4.49939 4.01459
# Velocity P-wave (km/s) = 6.63011 7.47852 7.06706
#
# Compressibility (1/GPa) = 0.01935774
#
# Stress axis : x y z
#
# Youngs Moduli (GPa) = 92.96937 106.20684 125.07632
#
# Poissons Ratio (x) = 0.16858 0.28562
# Poissons Ratio (y) = 0.14757 0.06676
# Poissons Ratio (z) = 0.21230 0.05669
#
# Static dielectric constant tensor:
#      x y z
#    x 3.357400 0.000000 -0.037510 
#    y 0.000000 3.307110 0.000000 
#    z -0.037510 0.000000 3.652620 
# 
# 
# High freq. dielectric constant tensor:
#      x y z
#    x 1.725430 0.000000 -0.001110 
#    y 0.000000 1.683480 0.000000 
#    z -0.001110 0.000000 1.743620 
# 
# From -- ./inp_files/94029.got.cif
#   From: 2010.06.25/outbox.cif.g09.slc.cpg/sg10_48_cif.got.tgz:94029.got - 2010.06.27 22:07:45.
