data_PCOD8067285
_publ_section_title
;
Structure prediction by ZEFSAII (Michael W. Deem and Ramdas Pophale) SiO2 
 PCOD8067285
Probable space group: P 2/M
;
_chemical_formula_sum "Si O2"
_cell_formula_units_Z 28
_cell_length_a 10.956282
_cell_length_b 8.804120
_cell_length_c 14.970885
_cell_angle_alpha 90.000000
_cell_angle_beta 66.468542
_cell_angle_gamma 90.000000
_cell_volume 1324.008149
_symmetry_space_group_name_H-M "P 2/M"
_symmetry_group_IT_number 10
_symmetry_cell_setting 'monoclinic'
loop_
_space_group_symop_operation_xyz
x,y,z
-x,y,-z
-x,-y,-z
x,-y,z
loop_
_atom_site_type_symbol
_atom_site_label
_atom_site_fract_x
_atom_site_fract_y
_atom_site_fract_z
Si Si1 0.652462 0.321949 0.952944
Si Si2 0.392847 0.828978 0.361300
Si Si3 0.037836 0.168452 0.591065
Si Si4 0.153848 0.179900 0.955789
Si Si5 0.300742 0.324785 0.553819
Si Si6 0.310626 0.829520 0.737098
Si Si7 0.786042 0.676132 0.727814
O O1 0.651956 0.500000 0.973458
O O2 0.704633 0.282047 0.839658
O O3 0.500000 0.258982 0.000000
O O4 0.754723 0.247829 0.992876
O O5 0.403451 0.769193 0.460891
O O6 0.537320 0.829396 0.273504
O O7 0.300222 0.716387 0.333459
O O8 0.332582 0.000000 0.378972
O O9 0.919521 0.225084 0.689245
O O10 0.000000 0.160412 0.500000
O O11 0.154221 0.290286 0.561308
O O12 0.080335 0.000000 0.612256
O O13 0.216619 0.232023 0.843233
O O14 0.158598 0.000000 0.965590
O O15 0.000000 0.238067 0.000000
O O16 0.337134 0.500000 0.533194
O O17 0.301829 0.281188 0.656535
O O18 0.267937 0.000000 0.721572
O O19 0.823764 0.500000 0.712729
#
# Coordination Sequence:
#
# PCOD8067285 Si02
#       7
#     4   4   4   4   4   4   4
#     4  10  23  43  66  95 131 168 209 261 322 382
#     4  11  22  39  62  90 124 166 207 248 305 366
#     4  11  23  40  62  87 120 164 205 247 307 370
#     4  10  23  43  66  95 126 164 216 269 318 371
#     4  12  25  39  61  91 124 160 203 253 307 368
#     4  10  23  42  63  88 124 164 207 256 304 366
#     4  11  23  38  62  94 126 160 205 256 308 365
#
# _framework density 21.147907
#
# number of rings (size 3 to 8) (size 9 to 14) (size 15 to 20)
#    0.000    1.286    1.429    3.857    2.000    5.714 
#    0.000    0.000    0.000    0.000    0.000    0.000 
#    0.000    0.000    0.000    0.000    0.000    0.000 
#
# Total GULP energy -347214.954467 kJ/mol
# GULP energy per Si atom -12400.534088 kJ/mol
# Density = 2.109977 g / cm^3
# Si number density = 21.147907 Si / 1000 Ang^3
#
#
#
# Elastic Constant Matrix: (Units=GPa)
#
#
# Indices 1 2 3 4 5 6 
#
# 1 98.2419 27.4409 48.8500 0.0000 -5.2507 0.0000
# 2 27.4409 78.9566 42.9539 0.0000 -2.6985 0.0000
# 3 48.8500 42.9539 145.2037 0.0000 -16.0616 0.0000
# 4 0.0000 0.0000 0.0000 43.4054 0.0000 -7.9696
# 5 -5.2507 -2.6985 -16.0616 0.0000 39.9508 0.0000
# 6 0.0000 0.0000 0.0000 -7.9696 0.0000 47.1581
#
#
#
# Elastic Compliance Matrix: (Units=1/GPa)
#
#
# Indices 1 2 3 4 5 6 
#
# 1 0.012617 -0.002476 -0.003503 0.000000 0.000083 0.000000
# 2 -0.002476 0.015606 -0.003875 0.000000 -0.000829 0.000000
# 3 -0.003503 -0.003875 0.009557 0.000000 0.003120 0.000000
# 4 0.000000 0.000000 0.000000 0.023776 0.000000 0.004018
# 5 0.000083 -0.000829 0.003120 0.000000 0.026240 0.000000
# 6 0.000000 0.000000 0.000000 0.004018 0.000000 0.021884
#
#
# Mechanical properties :
#
#
# Convention : Reuss Voigt Hill
#
# Bulk Modulus (GPa) = 55.33877 62.32129 58.83003
# Shear Modulus (GPa) = 36.92431 39.64669 38.28550
#
# Velocity S-wave (km/s) = 4.18305 4.33452 4.25946
# Velocity P-wave (km/s) = 7.03952 7.38809 7.21591
#
# Compressibility (1/GPa) = 0.01807052
#
# Stress axis : x y z
#
# Youngs Moduli (GPa) = 79.25883 64.07957 104.63806
#
# Poissons Ratio (x) = 0.15869 0.36654
# Poissons Ratio (y) = 0.19628 0.40547
# Poissons Ratio (z) = 0.27764 0.24831
#
# Static dielectric constant tensor:
#      x y z
#    x 3.980150 0.000000 -0.247720 
#    y 0.000000 3.816410 0.000000 
#    z -0.247720 0.000000 4.016900 
# 
# 
# High freq. dielectric constant tensor:
#      x y z
#    x 1.835670 0.000000 -0.011050 
#    y 0.000000 1.823510 0.000000 
#    z -0.011050 0.000000 1.840330 
# 
# From -- ./inp_files/49397.got.cif
#   From: 2010.06.25/outbox.cif.g09.slc.cpg/sg10_25_cif.got.tgz:49397.got - 2010.06.27 22:07:45.
