data_PCOD8067636
_publ_section_title
;
Structure prediction by ZEFSAII (Michael W. Deem and Ramdas Pophale) SiO2 
 PCOD8067636
Probable space group: P 2/M
;
_chemical_formula_sum "Si O2"
_cell_formula_units_Z 20
_cell_length_a 10.015220
_cell_length_b 7.620639
_cell_length_c 19.769936
_cell_angle_alpha 90.000000
_cell_angle_beta 138.679289
_cell_angle_gamma 90.000000
_cell_volume 996.278615
_symmetry_space_group_name_H-M "P 2/M"
_symmetry_group_IT_number 10
_symmetry_cell_setting 'monoclinic'
loop_
_space_group_symop_operation_xyz
x,y,z
-x,y,-z
-x,-y,-z
x,-y,z
loop_
_atom_site_type_symbol
_atom_site_label
_atom_site_fract_x
_atom_site_fract_y
_atom_site_fract_z
Si Si1 0.857574 0.197194 0.239762
Si Si2 0.019948 0.500000 0.619236
Si Si3 0.051734 0.295741 0.871211
Si Si4 0.333994 0.500000 0.621003
Si Si5 0.376342 0.803768 0.237008
Si Si6 0.583527 0.704212 0.897769
O O1 0.981717 0.324919 0.336385
O O2 0.956851 0.197166 0.203494
O O3 0.627396 0.262133 0.144771
O O4 0.869670 0.000000 0.273886
O O5 0.220280 0.500000 0.649537
O O6 0.818078 0.500000 0.498959
O O7 0.079330 0.500000 0.866784
O O8 0.850431 0.258479 0.836239
O O9 0.239035 0.224455 0.986589
O O10 0.469378 0.674009 0.666576
O O11 0.412780 0.807772 0.170872
O O12 0.413145 0.000000 0.279115
O O13 0.614363 0.500000 0.893114
#
# Coordination Sequence:
#
# PCOD8067636 Si02
#       6
#     4   2   4   2   4   4
#     4  12  23  40  64  94 127 162 208 253 306 365
#     4  11  24  45  68  92 121 156 207 263 314 362
#     4  11  23  39  63  91 131 172 203 246 302 368
#     4  11  24  45  68  92 121 156 207 263 314 362
#     4  12  23  40  64  94 127 162 208 253 306 365
#     4  11  21  39  63  91 129 172 209 244 298 364
#
# _framework density 20.074705999999999
#
# number of rings (size 3 to 8) (size 9 to 14) (size 15 to 20)
#    0.000    0.600    6.000    2.400    0.000    8.800 
#    0.000    4.000    0.000    2.400    0.000    0.000 
#    0.000    0.000    0.000    0.000    0.000    0.000 
#
# Total GULP energy -248144.881441 kJ/mol
# GULP energy per Si atom -12407.244072 kJ/mol
# Density = 2.002901 g / cm^3
# Si number density = 20.074706 Si / 1000 Ang^3
#
#
#
# Elastic Constant Matrix: (Units=GPa)
#
#
# Indices 1 2 3 4 5 6 
#
# 1 65.4718 8.0857 21.9987 0.0000 0.0205 0.0000
# 2 8.0857 127.6772 53.8493 0.0000 4.5591 0.0000
# 3 21.9987 53.8493 109.5855 0.0000 0.4913 0.0000
# 4 0.0000 0.0000 0.0000 6.2326 0.0000 -1.5832
# 5 0.0205 4.5591 0.4913 0.0000 19.8597 0.0000
# 6 0.0000 0.0000 0.0000 -1.5832 0.0000 26.1591
#
#
#
# Elastic Compliance Matrix: (Units=1/GPa)
#
#
# Indices 1 2 3 4 5 6 
#
# 1 0.016398 0.000443 -0.003509 0.000000 -0.000032 0.000000
# 2 0.000443 0.009984 -0.004985 0.000000 -0.002169 0.000000
# 3 -0.003509 -0.004985 0.012276 0.000000 0.000844 0.000000
# 4 0.000000 0.000000 0.000000 0.162951 0.000000 0.009862
# 5 -0.000032 -0.002169 0.000844 0.000000 0.050830 0.000000
# 6 0.000000 0.000000 0.000000 0.009862 0.000000 0.038824
#
#
# Mechanical properties :
#
#
# Convention : Reuss Voigt Hill
#
# Bulk Modulus (GPa) = 44.33714 52.28911 48.31312
# Shear Modulus (GPa) = 15.87875 25.03701 20.45788
#
# Velocity S-wave (km/s) = 2.81549 3.53539 3.19578
# Velocity P-wave (km/s) = 5.71868 6.53981 6.14298
#
# Compressibility (1/GPa) = 0.02255446
#
# Stress axis : x y z
#
# Youngs Moduli (GPa) = 60.98228 100.15733 81.46157
#
# Poissons Ratio (x) = -0.04434 0.28587
# Poissons Ratio (y) = -0.02700 0.40611
# Poissons Ratio (z) = 0.21400 0.49932
#
# Static dielectric constant tensor:
#      x y z
#    x 3.599080 0.000000 0.041930 
#    y 0.000000 3.732520 0.000000 
#    z 0.041930 0.000000 3.461570 
# 
# 
# High freq. dielectric constant tensor:
#      x y z
#    x 1.788980 0.000000 0.001510 
#    y 0.000000 1.796340 0.000000 
#    z 0.001510 0.000000 1.766280 
# 
# From -- ./inp_files/74471.got.cif
#   From: 2010.06.25/outbox.cif.g09.slc.cpg/sg10_38_cif.got.tgz:74471.got - 2010.06.27 22:07:45.
