data_PCOD8067472
_publ_section_title
;
Structure prediction by ZEFSAII (Michael W. Deem and Ramdas Pophale) SiO2 
 PCOD8067472
Probable space group: P 2/M
;
_chemical_formula_sum "Si O2"
_cell_formula_units_Z 32
_cell_length_a 9.862651
_cell_length_b 13.762231
_cell_length_c 24.185774
_cell_angle_alpha 90.000000
_cell_angle_beta 35.028482
_cell_angle_gamma 90.000000
_cell_volume 1884.264908
_symmetry_space_group_name_H-M "P 2/M"
_symmetry_group_IT_number 10
_symmetry_cell_setting 'monoclinic'
loop_
_space_group_symop_operation_xyz
x,y,z
-x,y,-z
-x,-y,-z
x,-y,z
loop_
_atom_site_type_symbol
_atom_site_label
_atom_site_fract_x
_atom_site_fract_y
_atom_site_fract_z
Si Si1 0.434571 0.885342 0.581581
Si Si2 0.734578 0.884537 0.584116
Si Si3 0.447153 0.111893 0.787391
Si Si4 0.527558 0.200081 0.875761
Si Si5 0.054072 0.888917 0.203592
Si Si6 0.996840 0.604299 0.064688
Si Si7 0.989106 0.803904 0.899496
Si Si8 0.481624 0.605404 0.069421
O O1 0.500000 0.839601 0.500000
O O2 0.605293 0.842215 0.572554
O O3 0.162745 0.858906 0.684541
O O4 0.472206 0.000000 0.567009
O O5 0.590943 0.851585 0.686058
O O6 0.000000 0.842746 0.500000
O O7 0.738172 0.000000 0.579584
O O8 0.526757 0.181526 0.810688
O O9 0.168468 0.119846 0.867127
O O10 0.503036 0.000000 0.783751
O O11 0.699824 0.122181 0.846492
O O12 0.631300 0.307927 0.855871
O O13 0.262294 0.187368 0.986507
O O14 0.048695 0.820932 0.152216
O O15 0.027294 0.000000 0.192964
O O16 0.860742 0.500000 0.119231
O O17 0.893537 0.695929 0.132987
O O18 0.000000 0.634954 0.000000
O O19 0.260499 0.586890 0.994926
O O20 0.345591 0.500000 0.119190
O O21 0.500000 0.641116 0.000000
#
# Coordination Sequence:
#
# PCOD8067472 Si02
#       8
#     4   4   4   4   4   4   4   4
#     4   9  18  33  52  70  90 121 162 211 258 285
#     4   9  18  33  52  70  90 121 163 211 255 286
#     4  11  22  34  47  69 102 137 171 203 235 283
#     4  11  22  32  47  72 100 137 173 197 233 287
#     4  11  22  34  47  69 102 135 169 205 235 280
#     4   9  17  30  49  70  90 119 162 211 254 282
#     4  11  20  34  49  66 100 139 171 199 235 286
#     4   9  17  32  51  68  90 123 166 213 254 282
#
# _framework density 16.982749999999999
#
# number of rings (size 3 to 8) (size 9 to 14) (size 15 to 20)
#    0.000    2.000    1.250    4.500    1.750    3.000 
#    0.000    0.000    0.000    0.000    0.000    0.000 
#    0.000    6.000    0.000    0.000    0.000    0.000 
#
# Total GULP energy -396577.194397 kJ/mol
# GULP energy per Si atom -12393.037325 kJ/mol
# Density = 1.694410 g / cm^3
# Si number density = 16.982750 Si / 1000 Ang^3
#
#
#
# Elastic Constant Matrix: (Units=GPa)
#
#
# Indices 1 2 3 4 5 6 
#
# 1 127.3123 27.6361 55.2387 0.0000 18.4781 0.0000
# 2 27.6361 59.5190 42.7994 0.0000 7.9809 0.0000
# 3 55.2387 42.7994 93.1890 0.0000 16.4309 0.0000
# 4 0.0000 0.0000 0.0000 2.7380 0.0000 5.5488
# 5 18.4781 7.9809 16.4309 0.0000 32.4063 0.0000
# 6 0.0000 0.0000 0.0000 5.5488 0.0000 23.5260
#
#
#
# Elastic Compliance Matrix: (Units=1/GPa)
#
#
# Indices 1 2 3 4 5 6 
#
# 1 0.010885 -0.000584 -0.005617 0.000000 -0.003215 0.000000
# 2 -0.000584 0.025122 -0.011157 0.000000 -0.000197 0.000000
# 3 -0.005617 -0.011157 0.019916 0.000000 -0.004147 0.000000
# 4 0.000000 0.000000 0.000000 0.699644 0.000000 -0.165017
# 5 -0.003215 -0.000197 -0.004147 0.000000 0.034843 0.000000
# 6 0.000000 0.000000 0.000000 -0.165017 0.000000 0.081427
#
#
# Mechanical properties :
#
#
# Convention : Reuss Voigt Hill
#
# Bulk Modulus (GPa) = 47.15505 59.04098 53.09802
# Shear Modulus (GPa) = 5.47272 22.02379 13.74825
#
# Velocity S-wave (km/s) = 1.79708 3.60506 2.84833
# Velocity P-wave (km/s) = 5.66857 7.22284 6.49238
#
# Compressibility (1/GPa) = 0.02120664
#
# Stress axis : x y z
#
# Youngs Moduli (GPa) = 91.86666 39.80621 50.21082
#
# Poissons Ratio (x) = 0.02324 0.28206
# Poissons Ratio (y) = 0.05363 0.56020
# Poissons Ratio (z) = 0.51605 0.44412
#
# Static dielectric constant tensor:
#      x y z
#    x 3.400880 0.000000 0.047500 
#    y 0.000000 3.426430 0.000000 
#    z 0.047500 0.000000 3.037190 
# 
# 
# High freq. dielectric constant tensor:
#      x y z
#    x 1.681640 0.000000 0.009910 
#    y 0.000000 1.629220 0.000000 
#    z 0.009910 0.000000 1.618280 
# 
# From -- ./inp_files/61527.got.cif
#   From: 2010.06.25/outbox.cif.g09.slc.cpg/sg10_31_cif.got.tgz:61527.got - 2010.06.27 22:07:45.
