data_PCOD8067816
_publ_section_title
;
Structure prediction by ZEFSAII (Michael W. Deem and Ramdas Pophale) SiO2 
 PCOD8067816
Probable space group: P 2/M
;
_chemical_formula_sum "Si O2"
_cell_formula_units_Z 20
_cell_length_a 9.573556
_cell_length_b 9.005479
_cell_length_c 27.152925
_cell_angle_alpha 90.000000
_cell_angle_beta 151.817540
_cell_angle_gamma 90.000000
_cell_volume 1105.597751
_symmetry_space_group_name_H-M "P 2/M"
_symmetry_group_IT_number 10
_symmetry_cell_setting 'monoclinic'
loop_
_space_group_symop_operation_xyz
x,y,z
-x,y,-z
-x,-y,-z
x,-y,z
loop_
_atom_site_type_symbol
_atom_site_label
_atom_site_fract_x
_atom_site_fract_y
_atom_site_fract_z
Si Si1 0.777397 0.826682 0.675935
Si Si2 0.839673 0.675551 0.500000
Si Si3 0.370606 0.176045 0.909761
Si Si4 0.897720 0.173318 0.324065
Si Si5 0.678196 0.823955 0.909760
O O1 0.493364 0.733492 0.602174
O O2 0.027102 0.784627 0.793906
O O3 0.891455 0.786171 0.656582
O O4 0.698095 0.000000 0.653577
O O5 0.832460 0.500000 0.500001
O O6 0.000000 0.731385 0.500000
O O7 0.017506 0.733493 0.602174
O O8 0.564693 0.243471 0.925877
O O9 0.406151 0.000000 0.921449
O O10 0.500000 0.246858 0.000000
O O11 0.557574 0.215375 0.206094
O O12 0.930210 0.000000 0.346422
O O13 0.701090 0.000000 0.921447
O O14 0.000000 0.753143 0.000000
#
# Coordination Sequence:
#
# PCOD8067816 Si02
#       5
#     4   4   4   4   4
#     4   9  18  33  53  76 100 127 162 201 239 286
#     4  11  24  37  48  68  98 129 164 207 250 290
#     4   8  14  25  43  70 101 127 152 187 232 281
#     4   9  18  33  53  76 100 127 162 201 239 286
#     4   8  14  25  43  70 101 127 152 187 232 281
#
# _framework density 18.089762
#
# number of rings (size 3 to 8) (size 9 to 14) (size 15 to 20)
#    0.000    3.000    0.000    3.600    0.000    6.400 
#    0.000    4.000    0.000    1.200    0.000    0.000 
#    0.000    0.000    0.000    0.000    0.000    0.000 
#
# Total GULP energy -247895.846743 kJ/mol
# GULP energy per Si atom -12394.792337 kJ/mol
# Density = 1.804859 g / cm^3
# Si number density = 18.089762 Si / 1000 Ang^3
#
#
#
# Elastic Constant Matrix: (Units=GPa)
#
#
# Indices 1 2 3 4 5 6 
#
# 1 117.2175 39.4383 94.3054 0.0000 -1.9294 0.0000
# 2 39.4383 37.0789 37.0797 0.0000 0.0812 0.0000
# 3 94.3054 37.0797 165.9548 0.0000 0.2430 0.0000
# 4 0.0000 0.0000 0.0000 -4.7686 0.0000 0.8985
# 5 -1.9294 0.0812 0.2430 0.0000 39.2717 0.0000
# 6 0.0000 0.0000 0.0000 0.8985 0.0000 21.2090
#
#
#
# Elastic Compliance Matrix: (Units=1/GPa)
#
#
# Indices 1 2 3 4 5 6 
#
# 1 0.019305 -0.012315 -0.008220 0.000000 0.001025 0.000000
# 2 -0.012315 0.042586 -0.002516 0.000000 -0.000678 0.000000
# 3 -0.008220 -0.002516 0.011260 0.000000 -0.000468 0.000000
# 4 0.000000 0.000000 0.000000 -0.208043 0.000000 0.008814
# 5 0.001025 -0.000678 -0.000468 0.000000 0.025518 0.000000
# 6 0.000000 0.000000 0.000000 0.008814 0.000000 0.046776
#
#
# Mechanical properties :
#
#
# Convention : Reuss Voigt Hill
#
# Bulk Modulus (GPa) = 36.97117 73.54422 55.25770
# Shear Modulus (GPa) = -668.50113 21.10426 -323.69844
#
# Velocity S-wave (km/s) = -19.24445 3.41932 -13.39136
# Velocity P-wave (km/s) = 21.75584 7.50549 14.43925
#
# Compressibility (1/GPa) = 0.02704810
#
# Stress axis : x y z
#
# Youngs Moduli (GPa) = 51.80059 23.48201 88.81278
#
# Poissons Ratio (x) = 0.28919 0.73004
# Poissons Ratio (y) = 0.63794 0.22344
# Poissons Ratio (z) = 0.42580 0.05908
#
# Static dielectric constant tensor:
#      x y z
#    x 3.660130 0.000000 0.001990 
#    y 0.000000 2.840930 0.000000 
#    z 0.001990 0.000000 3.602510 
# 
# 
# High freq. dielectric constant tensor:
#      x y z
#    x 1.700040 0.000000 -0.000660 
#    y 0.000000 1.650220 0.000000 
#    z -0.000660 0.000000 1.719090 
# 
# From -- ./inp_files/31423.got.cif
#   From: 2010.06.25/outbox.cif.g09.slc.cpg/sg10_16_cif.got.tgz:31423.got - 2010.06.27 22:07:45.
