data_PCOD8067397
_publ_section_title
;
Structure prediction by ZEFSAII (Michael W. Deem and Ramdas Pophale) SiO2 
 PCOD8067397
Probable space group: P 2/M
;
_chemical_formula_sum "Si O2"
_cell_formula_units_Z 24
_cell_length_a 8.888134
_cell_length_b 12.097286
_cell_length_c 20.168487
_cell_angle_alpha 90.000000
_cell_angle_beta 38.334113
_cell_angle_gamma 90.000000
_cell_volume 1345.042320
_symmetry_space_group_name_H-M "P 2/M"
_symmetry_group_IT_number 10
_symmetry_cell_setting 'monoclinic'
loop_
_space_group_symop_operation_xyz
x,y,z
-x,y,-z
-x,-y,-z
x,-y,z
loop_
_atom_site_type_symbol
_atom_site_label
_atom_site_fract_x
_atom_site_fract_y
_atom_site_fract_z
Si Si1 0.006504 0.500000 0.599221
Si Si2 0.065829 0.674115 0.905518
Si Si3 0.460829 0.500000 0.804544
Si Si4 0.280265 0.732711 0.702788
Si Si5 0.787406 0.875549 0.392409
Si Si6 0.667029 0.500000 0.008088
Si Si7 0.831715 0.736276 0.499961
Si Si8 0.278139 0.500000 0.630267
O O1 0.722069 0.500000 0.678934
O O2 0.136919 0.605742 0.522377
O O3 0.037606 0.500000 0.668055
O O4 0.307746 0.604459 0.834621
O O5 0.143033 0.756122 0.819903
O O6 0.840577 0.606293 0.953317
O O7 0.000000 0.729624 0.000000
O O8 0.506424 0.500000 0.867895
O O9 0.144775 0.814907 0.699299
O O10 0.559254 0.765384 0.614753
O O11 0.271377 0.606379 0.679871
O O12 0.500000 0.873977 0.500000
O O13 0.910905 0.804804 0.407822
O O14 0.890652 0.000000 0.356695
O O15 0.500000 0.500000 0.000000
O O16 0.000000 0.780363 0.500000
O O17 0.500000 0.500000 0.500000
#
# Coordination Sequence:
#
# PCOD8067397 Si02
#       8
#     2   4   2   4   4   2   4   2
#     4  12  20  29  46  75 110 130 164 194 237 301
#     4   9  19  35  47  65  99 134 168 209 251 287
#     4   9  19  31  43  65 104 139 158 196 244 292
#     4  11  19  33  53  70  99 137 168 199 249 296
#     4   9  19  35  51  70  97 130 169 205 239 293
#     4   9  18  28  44  67  92 131 174 200 231 288
#     4  11  21  31  48  77 107 134 162 197 241 300
#     4  12  18  30  46  74 104 135 164 199 239 295
#
# _framework density 17.843305999999998
#
# number of rings (size 3 to 8) (size 9 to 14) (size 15 to 20)
#    0.000    1.833    3.333    3.750    2.333    0.333 
#    0.000    0.000    0.000    0.500    0.000    0.000 
#    0.000   19.333    0.000    0.000    0.000    5.833 
#
# Total GULP energy -297430.429801 kJ/mol
# GULP energy per Si atom -12392.934575 kJ/mol
# Density = 1.780269 g / cm^3
# Si number density = 17.843306 Si / 1000 Ang^3
#
#
#
# Elastic Constant Matrix: (Units=GPa)
#
#
# Indices 1 2 3 4 5 6 
#
# 1 138.5323 33.5497 42.2008 0.0000 20.9760 0.0000
# 2 33.5497 88.5645 27.4458 0.0000 18.9346 0.0000
# 3 42.2008 27.4458 95.2030 0.0000 27.4300 0.0000
# 4 0.0000 0.0000 0.0000 6.9126 0.0000 1.3608
# 5 20.9760 18.9346 27.4300 0.0000 38.7583 0.0000
# 6 0.0000 0.0000 0.0000 1.3608 0.0000 1.2721
#
#
#
# Elastic Compliance Matrix: (Units=1/GPa)
#
#
# Indices 1 2 3 4 5 6 
#
# 1 0.008852 -0.002104 -0.002805 0.000000 -0.001778 0.000000
# 2 -0.002104 0.013536 -0.001749 0.000000 -0.004236 0.000000
# 3 -0.002805 -0.001749 0.014531 0.000000 -0.007911 0.000000
# 4 0.000000 0.000000 0.000000 0.183259 0.000000 -0.196049
# 5 -0.001778 -0.004236 -0.007911 0.000000 0.034431 0.000000
# 6 0.000000 0.000000 0.000000 -0.196049 0.000000 0.995855
#
#
# Mechanical properties :
#
#
# Convention : Reuss Voigt Hill
#
# Bulk Modulus (GPa) = 42.36837 58.74360 50.55599
# Shear Modulus (GPa) = 3.93191 23.99549 13.96370
#
# Velocity S-wave (km/s) = 1.48605 3.67112 2.80049
# Velocity P-wave (km/s) = 5.17114 7.13883 6.23312
#
# Compressibility (1/GPa) = 0.02360251
#
# Stress axis : x y z
#
# Youngs Moduli (GPa) = 112.97286 73.87759 68.81887
#
# Poissons Ratio (x) = 0.15543 0.19304
# Poissons Ratio (y) = 0.23768 0.12037
# Poissons Ratio (z) = 0.31689 0.12922
#
# Static dielectric constant tensor:
#      x y z
#    x 3.587050 0.000000 0.202320 
#    y 0.000000 3.045580 0.000000 
#    z 0.202320 0.000000 3.284480 
# 
# 
# High freq. dielectric constant tensor:
#      x y z
#    x 1.708750 0.000000 0.016170 
#    y 0.000000 1.640850 0.000000 
#    z 0.016170 0.000000 1.675550 
# 
# From -- ./inp_files/42053.got.cif
#   From: 2010.06.25/outbox.cif.g09.slc.cpg/sg10_22_cif.got.tgz:42053.got - 2010.06.27 22:07:45.
