data_PCOD8067597
_publ_section_title
;
Structure prediction by ZEFSAII (Michael W. Deem and Ramdas Pophale) SiO2 
 PCOD8067597
Probable space group: P 2/M
;
_chemical_formula_sum "Si O2"
_cell_formula_units_Z 28
_cell_length_a 16.639901
_cell_length_b 8.290559
_cell_length_c 19.202377
_cell_angle_alpha 90.000000
_cell_angle_beta 31.102882
_cell_angle_gamma 90.000000
_cell_volume 1368.434783
_symmetry_space_group_name_H-M "P 2/M"
_symmetry_group_IT_number 10
_symmetry_cell_setting 'monoclinic'
loop_
_space_group_symop_operation_xyz
x,y,z
-x,y,-z
-x,-y,-z
x,-y,z
loop_
_atom_site_type_symbol
_atom_site_label
_atom_site_fract_x
_atom_site_fract_y
_atom_site_fract_z
Si Si1 0.164359 0.192077 0.405212
Si Si2 0.598315 0.685573 0.244630
Si Si3 0.264665 0.813331 0.482594
Si Si4 0.535270 0.191857 0.897524
Si Si5 0.730351 0.185852 0.008917
Si Si6 0.136391 0.688981 0.850295
Si Si7 0.935375 0.313763 0.248061
O O1 0.198985 0.253354 0.457855
O O2 0.299730 0.257197 0.253564
O O3 0.000000 0.262974 0.500000
O O4 0.158522 0.000000 0.408917
O O5 0.626981 0.500000 0.202704
O O6 0.417360 0.716279 0.392785
O O7 0.661059 0.799175 0.137301
O O8 0.694568 0.727964 0.243175
O O9 0.134852 0.790376 0.637426
O O10 0.308862 0.000000 0.442230
O O11 0.398859 0.251303 0.948345
O O12 0.540670 0.000000 0.895357
O O13 0.500000 0.263311 0.000000
O O14 0.773344 0.000000 0.962658
O O15 0.879395 0.297121 0.887848
O O16 0.103694 0.500000 0.868113
O O17 0.127997 0.759045 0.778193
O O18 0.000000 0.765009 0.000000
O O19 0.888946 0.500000 0.292588
#
# Coordination Sequence:
#
# PCOD8067597 Si02
#       7
#     4   4   4   4   4   4   4
#     4   9  18  33  55  82 114 153 192 232 280 341
#     4  11  21  38  64  86 113 158 199 235 285 348
#     4  11  23  40  59  87 122 152 192 244 295 342
#     4   9  18  32  54  85 116 148 191 236 279 339
#     4  11  21  36  59  90 121 151 191 243 295 339
#     4   9  18  36  60  85 112 150 199 239 276 343
#     4  11  23  40  61  86 116 154 200 240 285 349
#
# _framework density 20.461334999999998
#
# number of rings (size 3 to 8) (size 9 to 14) (size 15 to 20)
#    0.000    1.857    2.857    1.714    2.000    0.571 
#    0.000    6.429    0.000    5.143    0.000    0.000 
#    0.000    0.000    0.000    0.000    0.000    0.000 
#
# Total GULP energy -347264.237883 kJ/mol
# GULP energy per Si atom -12402.294210 kJ/mol
# Density = 2.041476 g / cm^3
# Si number density = 20.461335 Si / 1000 Ang^3
#
#
#
# Elastic Constant Matrix: (Units=GPa)
#
#
# Indices 1 2 3 4 5 6 
#
# 1 177.0537 17.6748 95.4355 0.0000 -9.3089 0.0000
# 2 17.6748 29.4712 4.5698 0.0000 -2.8321 0.0000
# 3 95.4355 4.5698 129.9915 0.0000 5.1227 0.0000
# 4 0.0000 0.0000 0.0000 68.1396 0.0000 54.1760
# 5 -9.3089 -2.8321 5.1227 0.0000 44.7383 0.0000
# 6 0.0000 0.0000 0.0000 54.1760 0.0000 97.2288
#
#
#
# Elastic Compliance Matrix: (Units=1/GPa)
#
#
# Indices 1 2 3 4 5 6 
#
# 1 0.010315 -0.004761 -0.007512 0.000000 0.002705 0.000000
# 2 -0.004761 0.036554 0.002168 0.000000 0.001075 0.000000
# 3 -0.007512 0.002168 0.013247 0.000000 -0.002943 0.000000
# 4 0.000000 0.000000 0.000000 0.026349 0.000000 -0.014681
# 5 0.002705 0.001075 -0.002943 0.000000 0.023320 0.000000
# 6 0.000000 0.000000 0.000000 -0.014681 0.000000 0.018466
#
#
# Mechanical properties :
#
#
# Convention : Reuss Voigt Hill
#
# Bulk Modulus (GPa) = 25.05877 63.54186 44.30031
# Shear Modulus (GPa) = 30.90959 56.61043 43.76001
#
# Velocity S-wave (km/s) = 3.89090 5.26565 4.62959
# Velocity P-wave (km/s) = 5.69728 8.25176 7.09050
#
# Compressibility (1/GPa) = 0.03990618
#
# Stress axis : x y z
#
# Youngs Moduli (GPa) = 96.95051 27.35679 75.48608
#
# Poissons Ratio (x) = 0.13025 0.56704
# Poissons Ratio (y) = 0.46160 -0.16366
# Poissons Ratio (z) = 0.72827 -0.05931
#
# Static dielectric constant tensor:
#      x y z
#    x 3.972200 0.000000 -0.036290 
#    y 0.000000 3.204250 0.000000 
#    z -0.036290 0.000000 3.716080 
# 
# 
# High freq. dielectric constant tensor:
#      x y z
#    x 1.813250 0.000000 -0.004050 
#    y 0.000000 1.760000 0.000000 
#    z -0.004050 0.000000 1.802900 
# 
# From -- ./inp_files/85605.got.cif
#   From: 2010.06.25/outbox.cif.g09.slc.cpg/sg10_43_cif.got.tgz:85605.got - 2010.06.27 22:07:45.
