data_PCOD8067945
_publ_section_title
;
Structure prediction by ZEFSAII (Michael W. Deem and Ramdas Pophale) SiO2 
 PCOD8067945
Probable space group: P 2/M
;
_chemical_formula_sum "Si O2"
_cell_formula_units_Z 32
_cell_length_a 12.650894
_cell_length_b 9.263206
_cell_length_c 22.196042
_cell_angle_alpha 90.000000
_cell_angle_beta 53.607065
_cell_angle_gamma 90.000000
_cell_volume 2093.804526
_symmetry_space_group_name_H-M "P 2/M"
_symmetry_group_IT_number 10
_symmetry_cell_setting 'monoclinic'
loop_
_space_group_symop_operation_xyz
x,y,z
-x,y,-z
-x,-y,-z
x,-y,z
loop_
_atom_site_type_symbol
_atom_site_label
_atom_site_fract_x
_atom_site_fract_y
_atom_site_fract_z
Si Si1 0.029699 0.166081 0.862262
Si Si2 0.177136 0.834471 0.698218
Si Si3 0.711144 0.166305 0.579250
Si Si4 0.875718 0.661010 0.997820
Si Si5 0.096557 0.662769 0.411117
Si Si6 0.269268 0.669888 0.840495
Si Si7 0.105147 0.829927 0.593000
Si Si8 0.586177 0.831071 0.301029
O O1 0.046210 0.181303 0.784317
O O2 0.145658 0.259048 0.850347
O O3 0.892804 0.230383 0.935093
O O4 0.041740 0.000000 0.878226
O O5 0.149281 0.763709 0.642619
O O6 0.307054 0.769621 0.686932
O O7 0.210192 0.000000 0.674488
O O8 0.768541 0.260456 0.614693
O O9 0.778726 0.206015 0.493091
O O10 0.557400 0.199781 0.624138
O O11 0.737216 0.000000 0.586825
O O12 0.864619 0.500000 0.975010
O O13 0.745945 0.697428 0.082029
O O14 0.000000 0.673161 0.000000
O O15 0.127299 0.500000 0.379607
O O16 0.000000 0.664917 0.500000
O O17 0.029470 0.750230 0.379499
O O18 0.271527 0.500000 0.826037
O O19 0.397446 0.746471 0.768394
O O20 0.075058 0.000000 0.605986
O O21 0.610677 0.000000 0.280139
#
# Coordination Sequence:
#
# PCOD8067945 Si02
#       8
#     4   4   4   4   4   4   4   4
#     4   9  15  23  36  54  76 102 133 166 200 235
#     4   8  15  26  39  58  84 111 136 165 198 234
#     4   9  17  28  44  63  80 104 137 170 203 241
#     4   8  14  23  34  50  72  99 133 167 196 232
#     4   9  17  29  44  61  80 100 128 171 214 244
#     4   9  16  25  36  51  74 105 137 165 197 236
#     4   9  16  28  45  61  80 107 137 167 202 241
#     4   9  17  28  40  58  84 109 137 169 199 236
#
# _framework density 15.283184
#
# number of rings (size 3 to 8) (size 9 to 14) (size 15 to 20)
#    0.000    3.250    0.000    2.625    0.000    5.250 
#    0.000    5.625    0.000    0.000    0.000    7.000 
#    0.000    1.000    0.000   11.250    0.000    7.625 
#
# Total GULP energy -396459.960909 kJ/mol
# GULP energy per Si atom -12389.373778 kJ/mol
# Density = 1.524840 g / cm^3
# Si number density = 15.283184 Si / 1000 Ang^3
#
#
#
# Elastic Constant Matrix: (Units=GPa)
#
#
# Indices 1 2 3 4 5 6 
#
# 1 67.2511 33.1091 46.1986 0.0000 8.3681 0.0000
# 2 33.1091 69.5069 45.4633 0.0000 3.1802 0.0000
# 3 46.1986 45.4633 96.5266 0.0000 6.1805 0.0000
# 4 0.0000 0.0000 0.0000 20.1271 0.0000 -4.2319
# 5 8.3681 3.1802 6.1805 0.0000 3.7055 0.0000
# 6 0.0000 0.0000 0.0000 -4.2319 0.0000 7.6128
#
#
#
# Elastic Compliance Matrix: (Units=1/GPa)
#
#
# Indices 1 2 3 4 5 6 
#
# 1 0.029567 -0.006710 -0.007931 0.000000 -0.047783 0.000000
# 2 -0.006710 0.022325 -0.007889 0.000000 0.009153 0.000000
# 3 -0.007931 -0.007889 0.018239 0.000000 -0.005740 0.000000
# 4 0.000000 0.000000 0.000000 0.056260 0.000000 0.031275
# 5 -0.047783 0.009153 -0.005740 0.000000 0.379493 0.000000
# 6 0.000000 0.000000 0.000000 0.031275 0.000000 0.148743
#
#
# Mechanical properties :
#
#
# Convention : Reuss Voigt Hill
#
# Bulk Modulus (GPa) = 39.88856 53.64740 46.76798
# Shear Modulus (GPa) = 7.06169 13.52332 10.29251
#
# Velocity S-wave (km/s) = 2.15188 2.97787 2.59791
# Velocity P-wave (km/s) = 5.68598 6.85580 6.29811
#
# Compressibility (1/GPa) = 0.02506984
#
# Stress axis : x y z
#
# Youngs Moduli (GPa) = 33.82108 44.79290 54.82715
#
# Poissons Ratio (x) = 0.30057 0.43485
# Poissons Ratio (y) = 0.22695 0.43255
# Poissons Ratio (z) = 0.26824 0.35339
#
# Static dielectric constant tensor:
#      x y z
#    x 2.646770 0.000000 0.006310 
#    y 0.000000 3.021850 0.000000 
#    z 0.006310 0.000000 3.498500 
# 
# 
# High freq. dielectric constant tensor:
#      x y z
#    x 1.530680 0.000000 -0.000730 
#    y 0.000000 1.583360 0.000000 
#    z -0.000730 0.000000 1.586220 
# 
# From -- ./inp_files/83334.got.cif
#   From: 2010.06.25/outbox.cif.g09.slc.cpg/sg10_42_cif.got.tgz:83334.got - 2010.06.27 22:07:45.
