data_PCOD8067794
_publ_section_title
;
Structure prediction by ZEFSAII (Michael W. Deem and Ramdas Pophale) SiO2 
 PCOD8067794
Probable space group: P 2/M
;
_chemical_formula_sum "Si O2"
_cell_formula_units_Z 20
_cell_length_a 11.922025
_cell_length_b 11.095286
_cell_length_c 9.409558
_cell_angle_alpha 90.000000
_cell_angle_beta 50.549759
_cell_angle_gamma 90.000000
_cell_volume 961.112988
_symmetry_space_group_name_H-M "P 2/M"
_symmetry_group_IT_number 10
_symmetry_cell_setting 'monoclinic'
loop_
_space_group_symop_operation_xyz
x,y,z
-x,y,-z
-x,-y,-z
x,-y,z
loop_
_atom_site_type_symbol
_atom_site_label
_atom_site_fract_x
_atom_site_fract_y
_atom_site_fract_z
Si Si1 0.640498 0.747229 0.982946
Si Si2 0.127439 0.500000 0.592622
Si Si3 0.071543 0.138690 0.302233
Si Si4 0.365967 0.139588 0.712504
Si Si5 0.210517 0.500000 0.207670
Si Si6 0.900247 0.275863 0.206018
O O1 0.599757 0.780755 0.176653
O O2 0.500000 0.756263 0.000000
O O3 0.755938 0.842976 0.828660
O O4 0.708417 0.614429 0.922653
O O5 0.217375 0.500000 0.373632
O O6 0.173940 0.383234 0.645613
O O7 0.955055 0.500000 0.708774
O O8 0.000000 0.198857 0.500000
O O9 0.010869 0.200999 0.212335
O O10 0.029624 0.000000 0.329333
O O11 0.500000 0.154941 0.500000
O O12 0.222159 0.186260 0.751301
O O13 0.342247 0.000000 0.774254
O O14 0.000000 0.329961 0.000000
#
# Coordination Sequence:
#
# PCOD8067794 Si02
#       6
#     4   2   4   4   2   4
#     4  12  26  45  70  98 141 179 233 279 340 406
#     4  11  23  40  76 101 133 178 223 287 346 399
#     4  11  24  41  68 101 133 179 232 282 337 402
#     4  11  27  47  68  99 141 184 222 277 346 404
#     4  11  23  46  68 102 135 176 229 286 339 400
#     4  12  23  43  70 101 136 173 231 281 341 401
#
# _framework density 20.809208999999999
#
# number of rings (size 3 to 8) (size 9 to 14) (size 15 to 20)
#    0.000    0.600    4.000    3.000    5.600    3.200 
#    0.000    1.000    0.000    0.000    0.000    0.000 
#    0.000    0.000    0.000    0.000    0.000    0.000 
#
# Total GULP energy -248116.208549 kJ/mol
# GULP energy per Si atom -12405.810427 kJ/mol
# Density = 2.076185 g / cm^3
# Si number density = 20.809209 Si / 1000 Ang^3
#
#
#
# Elastic Constant Matrix: (Units=GPa)
#
#
# Indices 1 2 3 4 5 6 
#
# 1 116.5563 41.0391 40.7462 0.0000 3.4733 0.0000
# 2 41.0391 124.2522 59.6792 0.0000 17.5751 0.0000
# 3 40.7462 59.6792 132.7688 0.0000 17.1256 0.0000
# 4 0.0000 0.0000 0.0000 38.7725 0.0000 4.3963
# 5 3.4733 17.5751 17.1256 0.0000 34.1488 0.0000
# 6 0.0000 0.0000 0.0000 4.3963 0.0000 9.1676
#
#
#
# Elastic Compliance Matrix: (Units=1/GPa)
#
#
# Indices 1 2 3 4 5 6 
#
# 1 0.010182 -0.002511 -0.002170 0.000000 0.001345 0.000000
# 2 -0.002511 0.011216 -0.003805 0.000000 -0.003609 0.000000
# 3 -0.002170 -0.003805 0.010293 0.000000 -0.002983 0.000000
# 4 0.000000 0.000000 0.000000 0.027274 0.000000 -0.013079
# 5 0.001345 -0.003609 -0.002983 0.000000 0.032500 0.000000
# 6 0.000000 0.000000 0.000000 -0.013079 0.000000 0.115352
#
#
# Mechanical properties :
#
#
# Convention : Reuss Voigt Hill
#
# Bulk Modulus (GPa) = 67.94097 72.94515 70.44306
# Shear Modulus (GPa) = 21.86313 31.89196 26.87755
#
# Velocity S-wave (km/s) = 3.24489 3.91908 3.59781
# Velocity P-wave (km/s) = 6.83808 7.45716 7.15432
#
# Compressibility (1/GPa) = 0.01471866
#
# Stress axis : x y z
#
# Youngs Moduli (GPa) = 98.21162 89.16075 97.15420
#
# Poissons Ratio (x) = 0.22390 0.21078
# Poissons Ratio (y) = 0.24663 0.36970
# Poissons Ratio (z) = 0.21307 0.33928
#
# Static dielectric constant tensor:
#      x y z
#    x 3.810940 0.000000 0.084890 
#    y 0.000000 3.965820 0.000000 
#    z 0.084890 0.000000 4.102120 
# 
# 
# High freq. dielectric constant tensor:
#      x y z
#    x 1.814390 0.000000 0.008900 
#    y 0.000000 1.824860 0.000000 
#    z 0.008900 0.000000 1.830360 
# 
# From -- ./inp_files/23885.got.cif
#   From: 2010.06.25/outbox.cif.g09.slc.cpg/sg10_12_cif.got.tgz:23885.got - 2010.06.27 22:07:45.
