data_PCOD8067812
_publ_section_title
;
Structure prediction by ZEFSAII (Michael W. Deem and Ramdas Pophale) SiO2 
 PCOD8067812
Probable space group: P 2/M
;
_chemical_formula_sum "Si O2"
_cell_formula_units_Z 24
_cell_length_a 24.971235
_cell_length_b 8.938942
_cell_length_c 12.237963
_cell_angle_alpha 90.000000
_cell_angle_beta 28.635843
_cell_angle_gamma 90.000000
_cell_volume 1309.149526
_symmetry_space_group_name_H-M "P 2/M"
_symmetry_group_IT_number 10
_symmetry_cell_setting 'monoclinic'
loop_
_space_group_symop_operation_xyz
x,y,z
-x,y,-z
-x,-y,-z
x,-y,z
loop_
_atom_site_type_symbol
_atom_site_label
_atom_site_fract_x
_atom_site_fract_y
_atom_site_fract_z
Si Si1 0.181251 0.677161 0.156140
Si Si2 0.921067 0.678915 0.236807
Si Si3 0.982044 0.677172 0.364080
Si Si4 0.518629 0.322836 0.143985
Si Si5 0.328163 0.322829 0.325706
Si Si6 0.581136 0.176018 0.256581
O O1 0.201923 0.500000 0.119728
O O2 0.101610 0.727361 0.198255
O O3 0.120873 0.730704 0.375885
O O4 0.297781 0.758965 0.934102
O O5 0.920692 0.500000 0.237929
O O6 0.796474 0.742419 0.440053
O O7 0.967018 0.742413 0.269496
O O8 0.000000 0.741854 0.000000
O O9 0.978703 0.500000 0.368591
O O10 0.523556 0.500000 0.154794
O O11 0.401465 0.272634 0.298667
O O12 0.529642 0.241052 0.238494
O O13 0.617629 0.269293 0.885622
O O14 0.325992 0.500000 0.326706
O O15 0.500000 0.223308 0.500000
O O16 0.591135 0.000000 0.226575
#
# Coordination Sequence:
#
# PCOD8067812 Si02
#       6
#     4   4   4   4   4   4
#     4   9  17  32  54  74  93 123 164 206 244 287
#     4   9  15  22  36  64 102 131 144 172 234 299
#     4   8  15  28  48  75 100 121 154 201 244 282
#     4   9  17  32  54  74  93 123 164 206 244 287
#     4   8  15  28  48  75 100 121 154 201 244 282
#     4  11  24  37  47  67 102 137 168 208 254 293
#
# _framework density 18.332512999999999
#
# number of rings (size 3 to 8) (size 9 to 14) (size 15 to 20)
#    0.000    3.000    0.000    3.500    0.000    5.333 
#    0.000    6.667    0.000    0.000    0.000    0.000 
#    0.000    6.667    0.000    0.000    0.000    0.000 
#
# Total GULP energy -297498.260851 kJ/mol
# GULP energy per Si atom -12395.760869 kJ/mol
# Density = 1.829079 g / cm^3
# Si number density = 18.332513 Si / 1000 Ang^3
#
#
#
# Elastic Constant Matrix: (Units=GPa)
#
#
# Indices 1 2 3 4 5 6 
#
# 1 173.1029 34.7233 127.7515 0.0000 -6.5117 0.0000
# 2 34.7233 31.1997 37.2193 0.0000 1.2811 0.0000
# 3 127.7515 37.2193 165.5452 0.0000 2.7505 0.0000
# 4 0.0000 0.0000 0.0000 11.9912 0.0000 6.9716
# 5 -6.5117 1.2811 2.7505 0.0000 20.9430 0.0000
# 6 0.0000 0.0000 0.0000 6.9716 0.0000 -1.7445
#
#
#
# Elastic Compliance Matrix: (Units=1/GPa)
#
#
# Indices 1 2 3 4 5 6 
#
# 1 0.014446 -0.003974 -0.010356 0.000000 0.006095 0.000000
# 2 -0.003974 0.044932 -0.006984 0.000000 -0.003067 0.000000
# 3 -0.010356 -0.006984 0.015683 0.000000 -0.004852 0.000000
# 4 0.000000 0.000000 0.000000 0.025092 0.000000 0.100280
# 5 0.006095 -0.003067 -0.004852 0.000000 0.050469 0.000000
# 6 0.000000 0.000000 0.000000 0.100280 0.000000 -0.172480
#
#
# Mechanical properties :
#
#
# Convention : Reuss Voigt Hill
#
# Bulk Modulus (GPa) = 30.83274 85.47067 58.15170
# Shear Modulus (GPa) = 158.32087 17.58153 87.95120
#
# Velocity S-wave (km/s) = 9.30313 3.10019 6.93395
# Velocity P-wave (km/s) = 11.50012 7.71612 9.79263
#
# Compressibility (1/GPa) = 0.03243306
#
# Stress axis : x y z
#
# Youngs Moduli (GPa) = 69.22325 22.25579 63.76268
#
# Poissons Ratio (x) = 0.08844 0.66032
# Poissons Ratio (y) = 0.27509 0.44534
# Poissons Ratio (z) = 0.71686 0.15544
#
# Static dielectric constant tensor:
#      x y z
#    x 3.775260 0.000000 -0.079020 
#    y 0.000000 2.784480 0.000000 
#    z -0.079020 0.000000 3.619680 
# 
# 
# High freq. dielectric constant tensor:
#      x y z
#    x 1.727340 0.000000 -0.006300 
#    y 0.000000 1.648780 0.000000 
#    z -0.006300 0.000000 1.714930 
# 
# From -- ./inp_files/56549.got.cif
#   From: 2010.06.25/outbox.cif.g09.slc.cpg/sg10_29_cif.got.tgz:56549.got - 2010.06.27 22:07:45.
