data_PCOD8067426
_publ_section_title
;
Structure prediction by ZEFSAII (Michael W. Deem and Ramdas Pophale) SiO2 
 PCOD8067426
Probable space group: P 2/M
;
_chemical_formula_sum "Si O2"
_cell_formula_units_Z 32
_cell_length_a 16.576165
_cell_length_b 12.904343
_cell_length_c 9.110435
_cell_angle_alpha 90.000000
_cell_angle_beta 90.017233
_cell_angle_gamma 90.000000
_cell_volume 1948.763126
_symmetry_space_group_name_H-M "P 2/M"
_symmetry_group_IT_number 10
_symmetry_cell_setting 'monoclinic'
loop_
_space_group_symop_operation_xyz
x,y,z
-x,y,-z
-x,-y,-z
x,-y,z
loop_
_atom_site_type_symbol
_atom_site_label
_atom_site_fract_x
_atom_site_fract_y
_atom_site_fract_z
Si Si1 0.467650 0.734942 0.651042
Si Si2 0.414272 0.381273 0.924887
Si Si3 0.708893 0.787956 0.976535
Si Si4 0.796472 0.886730 0.239199
Si Si5 0.659944 0.889493 0.471364
Si Si6 0.220160 0.121888 0.288073
Si Si7 0.444479 0.117539 0.135063
Si Si8 0.089329 0.876612 0.521580
O O1 0.500000 0.682643 0.500000
O O2 0.427774 0.649236 0.755186
O O3 0.395785 0.807656 0.604009
O O4 0.537096 0.804510 0.729279
O O5 0.387314 0.500000 0.933697
O O6 0.500000 0.361551 0.000000
O O7 0.342576 0.318176 0.006640
O O8 0.776966 0.797461 0.849528
O O9 0.645739 0.877429 0.930003
O O10 0.756142 0.807297 0.127068
O O11 0.739377 0.904144 0.376629
O O12 0.877778 0.841281 0.316412
O O13 0.811627 0.000000 0.164015
O O14 0.692494 0.861153 0.633357
O O15 0.613707 0.000000 0.479481
O O16 0.145938 0.161593 0.387853
O O17 0.209154 0.000000 0.244503
O O18 0.463503 0.000000 0.183958
O O19 0.500000 0.153468 0.000000
O O20 0.000000 0.829477 0.500000
O O21 0.087534 0.000000 0.520517
#
# Coordination Sequence:
#
# PCOD8067426 Si02
#       8
#     4   4   4   4   4   4   4   4
#     4  12  21  32  49  68  90 122 162 205 250 292
#     4  11  24  42  53  62  86 126 173 215 264 305
#     4  12  18  32  49  68  91 124 160 211 253 276
#     4   9  16  26  46  71  96 129 160 189 227 277
#     4   9  17  29  42  65 100 128 152 187 232 283
#     4   9  18  28  46  75 104 134 160 190 230 279
#     4  11  20  30  45  69  99 132 164 192 236 295
#     4   8  15  30  47  68 106 148 167 174 209 275
#
# _framework density 16.420672
#
# number of rings (size 3 to 8) (size 9 to 14) (size 15 to 20)
#    0.000    1.875    3.750    3.750    0.000    4.250 
#    0.000    0.625    0.000    3.000    0.000    0.000 
#    0.000    3.000    0.000    0.000    0.000    0.000 
#
# Total GULP energy -396449.472305 kJ/mol
# GULP energy per Si atom -12389.046010 kJ/mol
# Density = 1.638330 g / cm^3
# Si number density = 16.420672 Si / 1000 Ang^3
#
#
#
# Elastic Constant Matrix: (Units=GPa)
#
#
# Indices 1 2 3 4 5 6 
#
# 1 84.5228 27.0970 34.3860 0.0000 9.8254 0.0000
# 2 27.0970 71.5675 36.6480 0.0000 -0.3030 0.0000
# 3 34.3860 36.6480 98.5793 0.0000 3.3083 0.0000
# 4 0.0000 0.0000 0.0000 2.6370 0.0000 -6.6454
# 5 9.8254 -0.3030 3.3083 0.0000 24.3295 0.0000
# 6 0.0000 0.0000 0.0000 -6.6454 0.0000 6.6116
#
#
#
# Elastic Compliance Matrix: (Units=1/GPa)
#
#
# Indices 1 2 3 4 5 6 
#
# 1 0.015243 -0.003916 -0.003669 0.000000 -0.005706 0.000000
# 2 -0.003916 0.018293 -0.005521 0.000000 0.002560 0.000000
# 3 -0.003669 -0.005521 0.013491 0.000000 -0.000421 0.000000
# 4 0.000000 0.000000 0.000000 -0.247380 0.000000 -0.248645
# 5 -0.005706 0.002560 -0.000421 0.000000 0.043496 0.000000
# 6 0.000000 0.000000 0.000000 -0.248645 0.000000 -0.098668
#
#
# Mechanical properties :
#
#
# Convention : Reuss Voigt Hill
#
# Bulk Modulus (GPa) = 48.04491 50.10352 49.07422
# Shear Modulus (GPa) = -22.48459 17.15154 -2.66653
#
# Velocity S-wave (km/s) = -3.70440 3.23539 -1.27570
# Velocity P-wave (km/s) = 3.32047 6.67351 5.27073
#
# Compressibility (1/GPa) = 0.02081386
#
# Stress axis : x y z
#
# Youngs Moduli (GPa) = 65.60503 54.66425 74.12575
#
# Poissons Ratio (x) = 0.21408 0.27200
# Poissons Ratio (y) = 0.25693 0.40922
# Poissons Ratio (z) = 0.24074 0.30178
#
# Static dielectric constant tensor:
#      x y z
#    x 3.230800 0.000000 -0.148090 
#    y 0.000000 2.683080 0.000000 
#    z -0.148090 0.000000 3.590240 
# 
# 
# High freq. dielectric constant tensor:
#      x y z
#    x 1.614180 0.000000 0.002880 
#    y 0.000000 1.574510 0.000000 
#    z 0.002880 0.000000 1.648150 
# 
# From -- ./inp_files/32176.got.cif
#   From: 2010.06.25/outbox.cif.g09.slc.cpg/sg10_17_cif.got.tgz:32176.got - 2010.06.27 22:07:45.
