data_PCOD8067274
_publ_section_title
;
Structure prediction by ZEFSAII (Michael W. Deem and Ramdas Pophale) SiO2 
 PCOD8067274
Probable space group: P 2/M
;
_chemical_formula_sum "Si O2"
_cell_formula_units_Z 28
_cell_length_a 24.956434
_cell_length_b 8.447351
_cell_length_c 9.045885
_cell_angle_alpha 90.000000
_cell_angle_beta 44.458363
_cell_angle_gamma 90.000000
_cell_volume 1335.655752
_symmetry_space_group_name_H-M "P 2/M"
_symmetry_group_IT_number 10
_symmetry_cell_setting 'monoclinic'
loop_
_space_group_symop_operation_xyz
x,y,z
-x,y,-z
-x,-y,-z
x,-y,z
loop_
_atom_site_type_symbol
_atom_site_label
_atom_site_fract_x
_atom_site_fract_y
_atom_site_fract_z
Si Si1 0.142948 0.182852 0.388557
Si Si2 0.280173 0.318501 0.612176
Si Si3 0.582645 0.182837 0.484015
Si Si4 0.292452 0.817027 0.273116
Si Si5 0.139225 0.183454 0.057215
Si Si6 0.002412 0.683243 0.825643
Si Si7 0.579781 0.314927 0.174377
O O1 0.229141 0.212255 0.272459
O O2 0.137618 0.238324 0.230042
O O3 0.087048 0.289137 0.596859
O O4 0.118964 0.000000 0.453257
O O5 0.303314 0.500000 0.588460
O O6 0.347426 0.210279 0.543897
O O7 0.268516 0.281203 0.463567
O O8 0.200749 0.287211 0.850080
O O9 0.607593 0.230996 0.269865
O O10 0.509744 0.284666 0.679219
O O11 0.559182 0.000000 0.532487
O O12 0.299019 0.000000 0.303906
O O13 0.373544 0.756224 0.054022
O O14 0.056096 0.211055 0.152238
O O15 0.162030 0.000000 0.999068
O O16 0.979708 0.500000 0.855308
O O17 0.000000 0.738491 0.000000
O O18 0.595448 0.500000 0.157552
#
# Coordination Sequence:
#
# PCOD8067274 Si02
#       7
#     4   4   4   4   4   4   4
#     4  10  23  41  63  89 118 155 201 248 295 356
#     4  12  25  41  61  90 124 158 201 254 309 361
#     4  11  22  40  64  90 121 162 207 249 300 365
#     4  11  23  41  63  89 122 162 204 248 304 368
#     4  11  23  41  64  90 120 157 202 248 299 363
#     4  11  24  40  60  89 124 159 198 246 300 356
#     4  11  22  39  63  93 125 159 201 253 307 357
#
# _framework density 20.963487000000001
#
# number of rings (size 3 to 8) (size 9 to 14) (size 15 to 20)
#    0.000    1.000    0.000    8.143    0.000    9.143 
#    0.000    2.857    0.000    0.000    0.000    0.000 
#    0.000    0.000    0.000    0.000    0.000    0.000 
#
# Total GULP energy -347469.006636 kJ/mol
# GULP energy per Si atom -12409.607380 kJ/mol
# Density = 2.091577 g / cm^3
# Si number density = 20.963487 Si / 1000 Ang^3
#
#
#
# Elastic Constant Matrix: (Units=GPa)
#
#
# Indices 1 2 3 4 5 6 
#
# 1 56.9777 10.8237 26.7506 0.0000 -0.6156 0.0000
# 2 10.8237 74.7966 28.5173 0.0000 5.6439 0.0000
# 3 26.7506 28.5173 138.9116 0.0000 12.0121 0.0000
# 4 0.0000 0.0000 0.0000 27.3551 0.0000 -8.8508
# 5 -0.6156 5.6439 12.0121 0.0000 32.2504 0.0000
# 6 0.0000 0.0000 0.0000 -8.8508 0.0000 25.6943
#
#
#
# Elastic Compliance Matrix: (Units=1/GPa)
#
#
# Indices 1 2 3 4 5 6 
#
# 1 0.019574 -0.001606 -0.003613 0.000000 0.002000 0.000000
# 2 -0.001606 0.014705 -0.002567 0.000000 -0.001648 0.000000
# 3 -0.003613 -0.002567 0.008668 0.000000 -0.002848 0.000000
# 4 0.000000 0.000000 0.000000 0.041142 0.000000 0.014172
# 5 0.002000 -0.001648 -0.002848 0.000000 0.032395 0.000000
# 6 0.000000 0.000000 0.000000 0.014172 0.000000 0.043801
#
#
# Mechanical properties :
#
#
# Convention : Reuss Voigt Hill
#
# Bulk Modulus (GPa) = 36.52961 44.76323 40.64642
# Shear Modulus (GPa) = 27.02996 30.69958 28.86477
#
# Velocity S-wave (km/s) = 3.59469 3.83094 3.71470
# Velocity P-wave (km/s) = 5.89001 6.40058 6.15060
#
# Compressibility (1/GPa) = 0.02737505
#
# Stress axis : x y z
#
# Youngs Moduli (GPa) = 51.08946 68.00376 115.36972
#
# Poissons Ratio (x) = 0.10922 0.41678
# Poissons Ratio (y) = 0.08205 0.29616
# Poissons Ratio (z) = 0.18457 0.17457
#
# Static dielectric constant tensor:
#      x y z
#    x 3.763340 0.000000 0.064120 
#    y 0.000000 3.771400 0.000000 
#    z 0.064120 0.000000 3.770110 
# 
# 
# High freq. dielectric constant tensor:
#      x y z
#    x 1.826570 0.000000 -0.000580 
#    y 0.000000 1.828910 0.000000 
#    z -0.000580 0.000000 1.829980 
# 
# From -- ./inp_files/37108.got.cif
#   From: 2010.06.25/outbox.cif.g09.slc.cpg/sg10_19_cif.got.tgz:37108.got - 2010.06.27 22:07:45.
