data_PCOD8067818
_publ_section_title
;
Structure prediction by ZEFSAII (Michael W. Deem and Ramdas Pophale) SiO2 
 PCOD8067818
Probable space group: P 2/M
;
_chemical_formula_sum "Si O2"
_cell_formula_units_Z 32
_cell_length_a 22.525797
_cell_length_b 9.529678
_cell_length_c 27.510093
_cell_angle_alpha 90.000000
_cell_angle_beta 17.657655
_cell_angle_gamma 90.000000
_cell_volume 1791.283177
_symmetry_space_group_name_H-M "P 2/M"
_symmetry_group_IT_number 10
_symmetry_cell_setting 'monoclinic'
loop_
_space_group_symop_operation_xyz
x,y,z
-x,y,-z
-x,-y,-z
x,-y,z
loop_
_atom_site_type_symbol
_atom_site_label
_atom_site_fract_x
_atom_site_fract_y
_atom_site_fract_z
Si Si1 0.683176 0.345090 0.571427
Si Si2 0.082573 0.162538 0.544634
Si Si3 0.047331 0.336578 0.062049
Si Si4 0.425211 0.162536 0.201728
Si Si5 0.326522 0.162599 0.673324
Si Si6 0.333925 0.832960 0.165941
Si Si7 0.389003 0.336578 0.720101
Si Si8 0.335795 0.345088 0.919082
O O1 0.775825 0.500000 0.493793
O O2 0.852611 0.239226 0.456248
O O3 0.585522 0.298206 0.596834
O O4 0.514134 0.349023 0.742927
O O5 0.233863 0.189853 0.383204
O O6 0.874984 0.224547 0.689245
O O7 0.066901 0.000000 0.570147
O O8 0.985206 0.500000 0.109266
O O9 0.196142 0.305150 0.902099
O O10 0.144294 0.298204 0.038414
O O11 0.862466 0.237207 0.201292
O O12 0.380383 0.224527 0.183452
O O13 0.616208 0.239211 0.074571
O O14 0.480195 0.000000 0.156524
O O15 0.500000 0.179123 0.500000
O O16 0.390718 0.237199 0.672590
O O17 0.278740 0.000000 0.721068
O O18 0.326006 0.000000 0.173839
O O19 0.500000 0.777488 0.000000
O O20 0.391324 0.500000 0.702816
O O21 0.303473 0.500000 0.966517
#
# Coordination Sequence:
#
# PCOD8067818 Si02
#       8
#     4   4   4   4   4   4   4   4
#     4   8  15  29  49  73  98 120 147 189 237 282
#     4   9  16  27  46  70  92 117 153 193 229 271
#     4   9  18  34  56  78  98 125 163 202 241 291
#     4   9  16  27  46  70  92 117 153 193 229 271
#     4  11  24  37  48  70 104 135 164 201 242 284
#     4   9  17  29  44  63  90 124 158 191 230 274
#     4   9  18  34  56  78  98 125 163 202 241 291
#     4   8  15  29  49  73  98 120 147 189 237 282
#
# _framework density 17.86429
#
# number of rings (size 3 to 8) (size 9 to 14) (size 15 to 20)
#    0.000    3.000    0.000    2.625    0.000    5.500 
#    0.000    4.375    0.000    9.000    0.000    0.000 
#    0.000    0.000    0.000    0.000    0.000    0.000 
#
# Total GULP energy -396698.645407 kJ/mol
# GULP energy per Si atom -12396.832669 kJ/mol
# Density = 1.782363 g / cm^3
# Si number density = 17.864290 Si / 1000 Ang^3
#
#
#
# Elastic Constant Matrix: (Units=GPa)
#
#
# Indices 1 2 3 4 5 6 
#
# 1 139.2032 79.2620 78.0057 0.0000 -41.7680 0.0000
# 2 79.2620 88.9780 54.4025 0.0000 -17.8133 0.0000
# 3 78.0057 54.4025 64.0267 0.0000 -11.9610 0.0000
# 4 0.0000 0.0000 0.0000 19.9792 0.0000 -4.6495
# 5 -41.7680 -17.8133 -11.9610 0.0000 21.8901 0.0000
# 6 0.0000 0.0000 0.0000 -4.6495 0.0000 26.8592
#
#
#
# Elastic Compliance Matrix: (Units=1/GPa)
#
#
# Indices 1 2 3 4 5 6 
#
# 1 0.156389 -0.009425 -0.142788 0.000000 0.212712 0.000000
# 2 -0.009425 0.025709 -0.010929 0.000000 -0.003034 0.000000
# 3 -0.142788 -0.010929 0.162942 0.000000 -0.192311 0.000000
# 4 0.000000 0.000000 0.000000 0.052153 0.000000 0.009028
# 5 0.212712 -0.003034 -0.192311 0.000000 0.344003 0.000000
# 6 0.000000 0.000000 0.000000 0.009028 0.000000 0.038794
#
#
# Mechanical properties :
#
#
# Convention : Reuss Voigt Hill
#
# Bulk Modulus (GPa) = 53.31611 79.50536 66.41074
# Shear Modulus (GPa) = 4.49427 19.11488 11.80458
#
# Velocity S-wave (km/s) = 1.58784 3.27464 2.57338
# Velocity P-wave (km/s) = 5.76815 7.67460 6.78863
#
# Compressibility (1/GPa) = 0.01875606
#
# Stress axis : x y z
#
# Youngs Moduli (GPa) = 6.39430 38.89684 6.13716
#
# Poissons Ratio (x) = 0.36660 0.87632
# Poissons Ratio (y) = 0.06027 0.06707
# Poissons Ratio (z) = 0.91303 0.42510
#
# Static dielectric constant tensor:
#      x y z
#    x 3.527780 0.000000 -0.264510 
#    y 0.000000 3.305080 0.000000 
#    z -0.264510 0.000000 3.147610 
# 
# 
# High freq. dielectric constant tensor:
#      x y z
#    x 1.699150 0.000000 -0.020120 
#    y 0.000000 1.673680 0.000000 
#    z -0.020120 0.000000 1.670180 
# 
# From -- ./inp_files/93679.got.cif
#   From: 2010.06.25/outbox.cif.g09.slc.cpg/sg10_47_cif.got.tgz:93679.got - 2010.06.27 22:07:45.
