data_PCOD8067020
_publ_section_title
;
Structure prediction by ZEFSAII (Michael W. Deem and Ramdas Pophale) SiO2 
 PCOD8067020
Probable space group: P 2/M
;
_chemical_formula_sum "Si O2"
_cell_formula_units_Z 28
_cell_length_a 11.767536
_cell_length_b 7.700557
_cell_length_c 15.865345
_cell_angle_alpha 90.000000
_cell_angle_beta 114.258027
_cell_angle_gamma 90.000000
_cell_volume 1310.724120
_symmetry_space_group_name_H-M "P 2/M"
_symmetry_group_IT_number 10
_symmetry_cell_setting 'monoclinic'
loop_
_space_group_symop_operation_xyz
x,y,z
-x,y,-z
-x,-y,-z
x,-y,z
loop_
_atom_site_type_symbol
_atom_site_label
_atom_site_fract_x
_atom_site_fract_y
_atom_site_fract_z
Si Si1 0.399310 0.000000 0.077751
Si Si2 0.034418 0.701806 0.102030
Si Si3 0.319965 0.803176 0.473072
Si Si4 0.126865 0.706192 0.788314
Si Si5 0.325570 0.000000 0.863854
Si Si6 0.955374 0.702414 0.576825
Si Si7 0.542177 0.205339 0.645651
Si Si8 0.689981 0.693042 0.842557
O O1 0.332804 0.826929 0.090065
O O2 0.545415 0.000000 0.149983
O O3 0.374254 0.000000 0.972528
O O4 0.003991 0.500000 0.089058
O O5 0.179667 0.739892 0.164321
O O6 0.952876 0.774718 0.155302
O O7 0.000000 0.785406 0.000000
O O8 0.174567 0.790868 0.442434
O O9 0.363192 0.721953 0.397534
O O10 0.402138 0.732528 0.576992
O O11 0.363614 0.000000 0.479062
O O12 0.159196 0.500000 0.803547
O O13 0.052051 0.747302 0.679809
O O14 0.250516 0.823181 0.820777
O O15 0.929481 0.500000 0.562833
O O16 0.000000 0.775488 0.500000
O O17 0.578254 0.302975 0.741821
O O18 0.555232 0.000000 0.667388
O O19 0.698340 0.500000 0.885136
#
# Coordination Sequence:
#
# PCOD8067020 Si02
#       8
#     2   4   4   4   2   4   4   4
#     4  11  26  45  61  90 125 154 210 270 291 373
#     4   9  18  34  60  93 123 154 197 250 314 380
#     4   9  19  34  58  85 119 163 200 246 306 360
#     4  10  22  42  65  92 128 162 205 262 309 372
#     4  11  26  45  66  87 117 167 214 251 316 363
#     4  10  22  39  57  84 123 162 206 258 301 355
#     4   9  18  36  56  86 126 157 196 252 302 363
#     4  11  22  38  64  93 125 165 199 248 323 374
#
# _framework density 21.362237
#
# number of rings (size 3 to 8) (size 9 to 14) (size 15 to 20)
#    0.000    2.143    0.714    2.571    1.000    6.571 
#    0.000    5.714    0.000    0.000    0.000    0.000 
#    0.000    0.000    0.000    0.000    0.000    0.000 
#
# Total GULP energy -347053.742549 kJ/mol
# GULP energy per Si atom -12394.776520 kJ/mol
# Density = 2.131362 g / cm^3
# Si number density = 21.362237 Si / 1000 Ang^3
#
#
#
# Elastic Constant Matrix: (Units=GPa)
#
#
# Indices 1 2 3 4 5 6 
#
# 1 97.4271 41.9441 17.4512 0.0000 11.1651 0.0000
# 2 41.9441 76.7680 18.5194 0.0000 5.3786 0.0000
# 3 17.4512 18.5194 106.4496 0.0000 6.3606 0.0000
# 4 0.0000 0.0000 0.0000 21.4999 0.0000 1.5897
# 5 11.1651 5.3786 6.3606 0.0000 35.3888 0.0000
# 6 0.0000 0.0000 0.0000 1.5897 0.0000 22.6520
#
#
#
# Elastic Compliance Matrix: (Units=1/GPa)
#
#
# Indices 1 2 3 4 5 6 
#
# 1 0.013850 -0.007145 -0.000840 0.000000 -0.003133 0.000000
# 2 -0.007145 0.017380 -0.001849 0.000000 -0.000055 0.000000
# 3 -0.000840 -0.001849 0.009928 0.000000 -0.001238 0.000000
# 4 0.000000 0.000000 0.000000 0.046755 0.000000 -0.003281
# 5 -0.003133 -0.000055 -0.001238 0.000000 0.029477 0.000000
# 6 0.000000 0.000000 0.000000 -0.003281 0.000000 0.044376
#
#
# Mechanical properties :
#
#
# Convention : Reuss Voigt Hill
#
# Bulk Modulus (GPa) = 46.53615 48.49712 47.51664
# Shear Modulus (GPa) = 26.51169 29.42348 27.96758
#
# Velocity S-wave (km/s) = 3.52668 3.71531 3.62222
# Velocity P-wave (km/s) = 6.19798 6.41531 6.30758
#
# Compressibility (1/GPa) = 0.02148867
#
# Stress axis : x y z
#
# Youngs Moduli (GPa) = 72.20436 57.53759 100.72984
#
# Poissons Ratio (x) = 0.41110 0.08464
# Poissons Ratio (y) = 0.51589 0.18625
# Poissons Ratio (z) = 0.06067 0.10639
#
# Static dielectric constant tensor:
#      x y z
#    x 3.873230 0.000000 -0.023680 
#    y 0.000000 3.644470 0.000000 
#    z -0.023680 0.000000 3.988350 
# 
# 
# High freq. dielectric constant tensor:
#      x y z
#    x 1.830970 0.000000 0.009770 
#    y 0.000000 1.823650 0.000000 
#    z 0.009770 0.000000 1.847120 
# 
# From -- ./inp_files/63535.got.cif
#   From: 2010.06.25/outbox.cif.g09.slc.cpg/sg10_32_cif.got.tgz:63535.got - 2010.06.27 22:07:45.
