data_PCOD8067689
_publ_section_title
;
Structure prediction by ZEFSAII (Michael W. Deem and Ramdas Pophale) SiO2 
 PCOD8067689
Probable space group: P 2/M
;
_chemical_formula_sum "Si O2"
_cell_formula_units_Z 28
_cell_length_a 23.226681
_cell_length_b 11.530560
_cell_length_c 19.124352
_cell_angle_alpha 90.000000
_cell_angle_beta 17.835091
_cell_angle_gamma 90.000000
_cell_volume 1568.702645
_symmetry_space_group_name_H-M "P 2/M"
_symmetry_group_IT_number 10
_symmetry_cell_setting 'monoclinic'
loop_
_space_group_symop_operation_xyz
x,y,z
-x,y,-z
-x,-y,-z
x,-y,z
loop_
_atom_site_type_symbol
_atom_site_label
_atom_site_fract_x
_atom_site_fract_y
_atom_site_fract_z
Si Si1 0.898556 0.000000 0.007792
Si Si2 0.591506 0.364099 0.824880
Si Si3 0.300888 0.000000 0.615307
Si Si4 0.529322 0.242950 0.616541
Si Si5 0.129687 0.241037 0.028137
Si Si6 0.004644 0.633275 0.306711
Si Si7 0.406376 0.364915 0.896087
Si Si8 0.891860 0.623017 0.193721
O O1 0.742127 0.000000 0.251117
O O2 0.873532 0.894737 0.983258
O O3 0.104677 0.000000 0.802049
O O4 0.557131 0.500000 0.867496
O O5 0.484906 0.318295 0.879050
O O6 0.812989 0.334432 0.568272
O O7 0.500000 0.306220 0.000000
O O8 0.427256 0.107789 0.444652
O O9 0.500921 0.279596 0.730135
O O10 0.705605 0.312527 0.384026
O O11 0.346344 0.281153 0.784116
O O12 0.021074 0.276503 0.224068
O O13 0.027251 0.300091 0.082973
O O14 0.997375 0.500000 0.287031
O O15 0.180025 0.648381 0.156654
O O16 0.462168 0.500000 0.817561
O O17 0.844138 0.500000 0.286738
O O18 0.000000 0.592920 0.000000
#
# Coordination Sequence:
#
# PCOD8067689 Si02
#       8
#     2   4   2   4   4   4   4   4
#     4  11  23  39  57  78 105 138 178 228 284 327
#     4   9  17  29  48  76 109 142 171 202 248 307
#     4  11  23  39  57  78 105 138 178 228 284 327
#     4  11  22  37  57  78 103 139 180 223 270 319
#     4  11  22  37  57  78 103 139 180 223 270 319
#     4   9  18  32  51  77 107 138 173 212 256 310
#     4   9  18  32  51  77 107 138 173 212 256 310
#     4  11  23  36  51  74 104 137 174 219 269 321
#
# _framework density 17.849145
#
# number of rings (size 3 to 8) (size 9 to 14) (size 15 to 20)
#    0.000    1.857    1.429    3.000    0.000    6.286 
#    0.000    4.286    0.000    0.000    0.000    2.000 
#    0.000    4.571    0.000    0.000    0.000    0.000 
#
# Total GULP energy -347054.310200 kJ/mol
# GULP energy per Si atom -12394.796793 kJ/mol
# Density = 1.780852 g / cm^3
# Si number density = 17.849145 Si / 1000 Ang^3
#
#
#
# Elastic Constant Matrix: (Units=GPa)
#
#
# Indices 1 2 3 4 5 6 
#
# 1 30.1688 21.2324 33.4692 0.0000 7.0452 0.0000
# 2 21.2324 96.8889 37.8910 0.0000 8.3500 0.0000
# 3 33.4692 37.8910 115.5833 0.0000 1.3151 0.0000
# 4 0.0000 0.0000 0.0000 286.5013 0.0000 287.3990
# 5 7.0452 8.3500 1.3151 0.0000 28.2256 0.0000
# 6 0.0000 0.0000 0.0000 287.3990 0.0000 334.6902
#
#
#
# Elastic Compliance Matrix: (Units=1/GPa)
#
#
# Indices 1 2 3 4 5 6 
#
# 1 0.055411 -0.005652 -0.014061 0.000000 -0.011503 0.000000
# 2 -0.005652 0.012735 -0.002513 0.000000 -0.002240 0.000000
# 3 -0.014061 -0.002513 0.013506 0.000000 0.003624 0.000000
# 4 0.000000 0.000000 0.000000 0.025182 0.000000 -0.021624
# 5 -0.011503 -0.002240 0.003624 0.000000 0.038794 0.000000
# 6 0.000000 0.000000 0.000000 -0.021624 0.000000 0.021556
#
#
# Mechanical properties :
#
#
# Convention : Reuss Voigt Hill
#
# Bulk Modulus (GPa) = 26.88220 47.53625 37.20923
# Shear Modulus (GPa) = 22.31778 139.88665 81.10222
#
# Velocity S-wave (km/s) = 3.53987 8.86238 6.74805
# Velocity P-wave (km/s) = 5.63924 11.46352 9.03364
#
# Compressibility (1/GPa) = 0.03719933
#
# Stress axis : x y z
#
# Youngs Moduli (GPa) = 18.04702 78.52078 74.04125
#
# Poissons Ratio (x) = 0.44383 1.04112
# Poissons Ratio (y) = 0.10201 0.18605
# Poissons Ratio (z) = 0.25376 0.19730
#
# Static dielectric constant tensor:
#      x y z
#    x 2.336900 0.000000 0.273290 
#    y 0.000000 3.361340 0.000000 
#    z 0.273290 0.000000 3.346440 
# 
# 
# High freq. dielectric constant tensor:
#      x y z
#    x 1.684870 0.000000 -0.019090 
#    y 0.000000 1.668350 0.000000 
#    z -0.019090 0.000000 1.702720 
# 
# From -- ./inp_files/79542.got.cif
#   From: 2010.06.25/outbox.cif.g09.slc.cpg/sg10_40_cif.got.tgz:79542.got - 2010.06.27 22:07:45.
