data_PCOD8067260
_publ_section_title
;
Structure prediction by ZEFSAII (Michael W. Deem and Ramdas Pophale) SiO2 
 PCOD8067260
Probable space group: P 2/M
;
_chemical_formula_sum "Si O2"
_cell_formula_units_Z 32
_cell_length_a 21.970170
_cell_length_b 9.187062
_cell_length_c 15.050947
_cell_angle_alpha 90.000000
_cell_angle_beta 147.128778
_cell_angle_gamma 90.000000
_cell_volume 1648.829905
_symmetry_space_group_name_H-M "P 2/M"
_symmetry_group_IT_number 10
_symmetry_cell_setting 'monoclinic'
loop_
_space_group_symop_operation_xyz
x,y,z
-x,y,-z
-x,-y,-z
x,-y,z
loop_
_atom_site_type_symbol
_atom_site_label
_atom_site_fract_x
_atom_site_fract_y
_atom_site_fract_z
Si Si1 0.942465 0.169448 0.608526
Si Si2 0.638309 0.668102 0.019681
Si Si3 0.242527 0.669941 0.325379
Si Si4 0.386049 0.666917 0.669731
Si Si5 0.797790 0.163346 0.887952
Si Si6 0.700426 0.170449 0.266637
Si Si7 0.812278 0.171865 0.108991
Si Si8 0.057988 0.165751 0.197049
O O1 0.834192 0.198463 0.414099
O O2 0.919403 0.235468 0.677735
O O3 0.060016 0.224772 0.710962
O O4 0.962575 0.000000 0.651920
O O5 0.668511 0.500000 0.070985
O O6 0.631935 0.744445 0.107894
O O7 0.731733 0.741516 0.074406
O O8 0.519146 0.688802 0.826528
O O9 0.230033 0.500000 0.297215
O O10 0.337504 0.710166 0.514034
O O11 0.274564 0.737290 0.268280
O O12 0.123269 0.734004 0.208332
O O13 0.356180 0.500000 0.657841
O O14 0.333920 0.772809 0.679038
O O15 0.752029 0.000000 0.823381
O O16 0.784266 0.215467 0.973146
O O17 0.926684 0.170962 0.015570
O O18 0.672394 0.000000 0.226465
O O19 0.796629 0.000000 0.106413
O O20 0.102942 0.000000 0.243778
#
# Coordination Sequence:
#
# PCOD8067260 Si02
#       8
#     4   4   4   4   4   4   4   4
#     4   8  16  32  56  84 113 143 173 220 277 325
#     4  11  24  41  58  77 109 151 188 227 280 330
#     4  11  21  32  51  80 111 144 184 225 269 323
#     4  10  23  41  56  77 114 153 184 224 278 330
#     4   9  19  34  55  80 110 146 180 220 273 328
#     4  11  21  36  62  90 111 137 182 231 278 331
#     4   9  19  39  61  81 109 145 189 228 265 322
#     4   9  16  31  52  77 111 148 179 211 268 334
#
# _framework density 19.407703000000001
#
# number of rings (size 3 to 8) (size 9 to 14) (size 15 to 20)
#    0.000    2.250    1.250    3.375    0.000    6.000 
#    0.000    6.250    0.000    3.750    0.000    0.000 
#    0.000    0.000    0.000    0.000    0.000    0.000 
#
# Total GULP energy -396724.842286 kJ/mol
# GULP energy per Si atom -12397.651321 kJ/mol
# Density = 1.936353 g / cm^3
# Si number density = 19.407703 Si / 1000 Ang^3
#
#
#
# Elastic Constant Matrix: (Units=GPa)
#
#
# Indices 1 2 3 4 5 6 
#
# 1 41.6629 24.4961 14.2843 0.0000 5.3525 0.0000
# 2 24.4961 78.7189 32.7761 0.0000 -5.3272 0.0000
# 3 14.2843 32.7761 73.4894 0.0000 -10.4953 0.0000
# 4 0.0000 0.0000 0.0000 39.1224 0.0000 3.9524
# 5 5.3525 -5.3272 -10.4953 0.0000 23.5738 0.0000
# 6 0.0000 0.0000 0.0000 3.9524 0.0000 35.8586
#
#
#
# Elastic Compliance Matrix: (Units=1/GPa)
#
#
# Indices 1 2 3 4 5 6 
#
# 1 0.032091 -0.009185 -0.003714 0.000000 -0.011016 0.000000
# 2 -0.009185 0.018234 -0.005831 0.000000 0.003610 0.000000
# 3 -0.003714 -0.005831 0.018007 0.000000 0.007543 0.000000
# 4 0.000000 0.000000 0.000000 0.025849 0.000000 -0.002849
# 5 -0.011016 0.003610 0.007543 0.000000 0.049095 0.000000
# 6 0.000000 0.000000 0.000000 -0.002849 0.000000 0.028201
#
#
# Mechanical properties :
#
#
# Convention : Reuss Voigt Hill
#
# Bulk Modulus (GPa) = 32.39307 37.44268 34.91787
# Shear Modulus (GPa) = 22.80709 27.86528 25.33619
#
# Velocity S-wave (km/s) = 3.43177 3.79329 3.61705
# Velocity P-wave (km/s) = 5.69472 6.20644 5.95608
#
# Compressibility (1/GPa) = 0.03087081
#
# Stress axis : x y z
#
# Youngs Moduli (GPa) = 31.16100 54.84239 55.53293
#
# Poissons Ratio (x) = 0.50374 0.20626
# Poissons Ratio (y) = 0.28622 0.32384
# Poissons Ratio (z) = 0.11574 0.31981
#
# Static dielectric constant tensor:
#      x y z
#    x 3.357680 0.000000 -0.100830 
#    y 0.000000 3.420080 0.000000 
#    z -0.100830 0.000000 3.698720 
# 
# 
# High freq. dielectric constant tensor:
#      x y z
#    x 1.741920 0.000000 -0.011840 
#    y 0.000000 1.740400 0.000000 
#    z -0.011840 0.000000 1.760460 
# 
# From -- ./inp_files/70045.got.cif
#   From: 2010.06.25/outbox.cif.g09.slc.cpg/sg10_36_cif.got.tgz:70045.got - 2010.06.27 22:07:45.
