data_PCOD8067197
_publ_section_title
;
Structure prediction by ZEFSAII (Michael W. Deem and Ramdas Pophale) SiO2 
 PCOD8067197
Probable space group: P 2/M
;
_chemical_formula_sum "Si O2"
_cell_formula_units_Z 32
_cell_length_a 13.445492
_cell_length_b 8.667010
_cell_length_c 13.105793
_cell_angle_alpha 90.000000
_cell_angle_beta 88.731839
_cell_angle_gamma 90.000000
_cell_volume 1526.872989
_symmetry_space_group_name_H-M "P 2/M"
_symmetry_group_IT_number 10
_symmetry_cell_setting 'monoclinic'
loop_
_space_group_symop_operation_xyz
x,y,z
-x,y,-z
-x,-y,-z
x,-y,z
loop_
_atom_site_type_symbol
_atom_site_label
_atom_site_fract_x
_atom_site_fract_y
_atom_site_fract_z
Si Si1 0.890089 0.177445 0.256439
Si Si2 0.972007 0.332955 0.611803
Si Si3 0.610133 0.316579 0.467396
Si Si4 0.680365 0.319080 0.245796
Si Si5 0.042055 0.320876 0.104636
Si Si6 0.242285 0.179410 0.368266
Si Si7 0.248500 0.822296 0.137173
Si Si8 0.386878 0.325100 0.971715
O O1 0.795040 0.276294 0.227961
O O2 0.932427 0.225219 0.364971
O O3 0.986287 0.219033 0.188371
O O4 0.860363 0.000000 0.250217
O O5 0.966635 0.500000 0.672161
O O6 0.868282 0.246253 0.626928
O O7 0.000000 0.380842 0.500000
O O8 0.500000 0.257858 0.500000
O O9 0.615001 0.500000 0.466824
O O10 0.636703 0.249286 0.353302
O O11 0.687948 0.259369 0.549902
O O12 0.668752 0.500000 0.254518
O O13 0.624287 0.260703 0.144465
O O14 0.018334 0.500000 0.118726
O O15 0.158363 0.289751 0.111306
O O16 0.000000 0.258638 0.000000
O O17 0.285417 0.207695 0.252771
O O18 0.237533 0.000000 0.395287
O O19 0.215870 0.000000 0.125438
O O20 0.333917 0.784805 0.054284
O O21 0.343946 0.500000 0.978684
O O22 0.500000 0.323247 0.000000
#
# Coordination Sequence:
#
# PCOD8067197 Si02
#       8
#     4   4   4   4   4   4   4   4
#     4  12  24  38  59  90 125 166 207 248 308 372
#     4  11  23  39  62  91 124 166 212 257 305 364
#     4  10  23  42  68  96 123 164 214 266 321 376
#     4  10  22  42  63  92 129 162 209 264 314 378
#     4  11  23  39  62  91 124 166 212 257 305 364
#     4  11  24  41  62  94 132 169 210 260 318 380
#     4  11  24  41  62  94 132 169 210 260 318 380
#     4  10  23  42  68  96 123 164 214 266 321 376
#
# _framework density 20.957867
#
# number of rings (size 3 to 8) (size 9 to 14) (size 15 to 20)
#    0.000    1.250    1.250    4.125    1.750   11.000 
#    0.000    0.000    0.000    0.000    0.000    0.000 
#    0.000    0.000    0.000    0.000    0.000    0.000 
#
# Total GULP energy -396662.673779 kJ/mol
# GULP energy per Si atom -12395.708556 kJ/mol
# Density = 2.091017 g / cm^3
# Si number density = 20.957867 Si / 1000 Ang^3
#
#
#
# Elastic Constant Matrix: (Units=GPa)
#
#
# Indices 1 2 3 4 5 6 
#
# 1 99.8633 15.0104 45.6759 0.0000 14.0499 0.0000
# 2 15.0104 34.7578 37.9377 0.0000 -2.1870 0.0000
# 3 45.6759 37.9377 131.5357 0.0000 11.7148 0.0000
# 4 0.0000 0.0000 0.0000 19.0341 0.0000 -27.9380
# 5 14.0499 -2.1870 11.7148 0.0000 37.8529 0.0000
# 6 0.0000 0.0000 0.0000 -27.9380 0.0000 -21.8206
#
#
#
# Elastic Compliance Matrix: (Units=1/GPa)
#
#
# Indices 1 2 3 4 5 6 
#
# 1 0.012375 -0.001802 -0.003454 0.000000 -0.003628 0.000000
# 2 -0.001802 0.043790 -0.012637 0.000000 0.007110 0.000000
# 3 -0.003454 -0.012637 0.012749 0.000000 -0.003394 0.000000
# 4 0.000000 0.000000 0.000000 0.018247 0.000000 -0.023362
# 5 -0.003628 0.007110 -0.003394 0.000000 0.029226 0.000000
# 6 0.000000 0.000000 0.000000 -0.023362 0.000000 -0.015917
#
#
# Mechanical properties :
#
#
# Convention : Reuss Voigt Hill
#
# Bulk Modulus (GPa) = 30.18761 51.48942 40.83851
# Shear Modulus (GPa) = 33.94453 18.18213 26.06333
#
# Velocity S-wave (km/s) = 4.02886 2.94863 3.53031
# Velocity P-wave (km/s) = 6.00646 6.01780 6.01213
#
# Compressibility (1/GPa) = 0.03312617
#
# Stress axis : x y z
#
# Youngs Moduli (GPa) = 80.80814 22.83648 78.43701
#
# Poissons Ratio (x) = 0.04116 0.27094
# Poissons Ratio (y) = 0.14564 0.99123
# Poissons Ratio (z) = 0.27913 0.28859
#
# Static dielectric constant tensor:
#      x y z
#    x 3.625600 0.000000 0.015440 
#    y 0.000000 3.727250 0.000000 
#    z 0.015440 0.000000 4.320700 
# 
# 
# High freq. dielectric constant tensor:
#      x y z
#    x 1.817230 0.000000 0.003900 
#    y 0.000000 1.816140 0.000000 
#    z 0.003900 0.000000 1.844020 
# 
# From -- ./inp_files/63765.got.cif
#   From: 2010.06.25/outbox.cif.g09.slc.cpg/sg10_32_cif.got.tgz:63765.got - 2010.06.27 22:07:45.
