data_PCOD8067226
_publ_section_title
;
Structure prediction by ZEFSAII (Michael W. Deem and Ramdas Pophale) SiO2 
 PCOD8067226
Probable space group: P 2/M
;
_chemical_formula_sum "Si O2"
_cell_formula_units_Z 14
_cell_length_a 7.637684
_cell_length_b 16.329469
_cell_length_c 7.943536
_cell_angle_alpha 90.000000
_cell_angle_beta 35.684288
_cell_angle_gamma 90.000000
_cell_volume 577.900890
_symmetry_space_group_name_H-M "P 2/M"
_symmetry_group_IT_number 10
_symmetry_cell_setting 'monoclinic'
loop_
_space_group_symop_operation_xyz
x,y,z
-x,y,-z
-x,-y,-z
x,-y,z
loop_
_atom_site_type_symbol
_atom_site_label
_atom_site_fract_x
_atom_site_fract_y
_atom_site_fract_z
Si Si1 0.321010 0.644730 0.298136
Si Si2 0.661200 0.500000 0.202394
Si Si3 0.174156 0.771960 0.705829
Si Si4 0.815427 0.909263 0.811199
O O1 0.562711 0.579530 0.175346
O O2 0.224043 0.710975 0.511957
O O3 0.000000 0.603102 0.500000
O O4 0.500000 0.685767 0.000000
O O5 0.500000 0.500000 0.500000
O O6 0.000000 0.500000 0.000000
O O7 0.500000 0.805621 0.500000
O O8 0.970011 0.849488 0.822563
O O9 0.000000 0.728150 0.000000
O O10 0.000000 0.917233 0.500000
O O11 0.775272 0.000000 0.924811
O O12 0.500000 0.871085 0.000000
#
# Coordination Sequence:
#
# PCOD8067226 Si02
#       4
#     4   2   4   4
#     4  12  26  47  73 101 138 184 232 276 338 416
#     4  12  26  48  74 104 139 174 225 288 346 400
#     4  12  26  43  67 105 144 179 226 287 351 402
#     4  10  22  43  69  97 134 183 233 280 337 409
#
# _framework density 24.225608999999999
#
# number of rings (size 3 to 8) (size 9 to 14) (size 15 to 20)
#    0.000    0.571    0.000    7.714    0.000    5.714 
#    0.000    0.000    0.000    0.000    0.000    0.000 
#    0.000    0.000    0.000    0.000    0.000    0.000 
#
# Total GULP energy -173519.858397 kJ/mol
# GULP energy per Si atom -12394.275600 kJ/mol
# Density = 2.417047 g / cm^3
# Si number density = 24.225609 Si / 1000 Ang^3
#
#
#
# Elastic Constant Matrix: (Units=GPa)
#
#
# Indices 1 2 3 4 5 6 
#
# 1 173.3364 77.3478 87.0246 0.0000 -34.6628 0.0000
# 2 77.3478 120.8812 48.3566 0.0000 -4.5643 0.0000
# 3 87.0246 48.3566 201.9756 0.0000 -3.6773 0.0000
# 4 0.0000 0.0000 0.0000 -21.8943 0.0000 -57.5261
# 5 -34.6628 -4.5643 -3.6773 0.0000 78.0529 0.0000
# 6 0.0000 0.0000 0.0000 -57.5261 0.0000 -32.8106
#
#
#
# Elastic Compliance Matrix: (Units=1/GPa)
#
#
# Indices 1 2 3 4 5 6 
#
# 1 0.010622 -0.005349 -0.003219 0.000000 0.004253 0.000000
# 2 -0.005349 0.011857 -0.000565 0.000000 -0.001709 0.000000
# 3 -0.003219 -0.000565 0.006452 0.000000 -0.001159 0.000000
# 4 0.000000 0.000000 0.000000 0.012664 0.000000 -0.022203
# 5 0.004253 -0.001709 -0.001159 0.000000 0.014546 0.000000
# 6 0.000000 0.000000 0.000000 -0.022203 0.000000 0.008450
#
#
# Mechanical properties :
#
#
# Convention : Reuss Voigt Hill
#
# Bulk Modulus (GPa) = 93.75816 102.40569 98.08193
# Shear Modulus (GPa) = 57.86218 23.56720 40.71469
#
# Velocity S-wave (km/s) = 4.89250 3.12239 4.10402
# Velocity P-wave (km/s) = 8.40842 7.44060 7.93927
#
# Compressibility (1/GPa) = 0.01066574
#
# Stress axis : x y z
#
# Youngs Moduli (GPa) = 94.14103 84.34114 154.98556
#
# Poissons Ratio (x) = 0.45111 0.49887
# Poissons Ratio (y) = 0.50353 0.08760
# Poissons Ratio (z) = 0.30302 0.04767
#
# Static dielectric constant tensor:
#      x y z
#    x 4.836020 0.000000 -0.090630 
#    y 0.000000 4.376180 0.000000 
#    z -0.090630 0.000000 4.797340 
# 
# 
# High freq. dielectric constant tensor:
#      x y z
#    x 1.979180 0.000000 -0.010370 
#    y 0.000000 1.945160 0.000000 
#    z -0.010370 0.000000 1.993120 
# 
# From -- ./inp_files/19446.got.cif
#   From: 2010.06.25/outbox.cif.g09.slc.cpg/sg10_10_cif.got.tgz:19446.got - 2010.06.27 22:07:45.
