data_PCOD8067938
_publ_section_title
;
Structure prediction by ZEFSAII (Michael W. Deem and Ramdas Pophale) SiO2 
 PCOD8067938
Probable space group: P 2/M
;
_chemical_formula_sum "Si O2"
_cell_formula_units_Z 32
_cell_length_a 21.486154
_cell_length_b 9.874483
_cell_length_c 20.032817
_cell_angle_alpha 90.000000
_cell_angle_beta 151.624803
_cell_angle_gamma 90.000000
_cell_volume 2019.905916
_symmetry_space_group_name_H-M "P 2/M"
_symmetry_group_IT_number 10
_symmetry_cell_setting 'monoclinic'
loop_
_space_group_symop_operation_xyz
x,y,z
-x,y,-z
-x,-y,-z
x,-y,z
loop_
_atom_site_type_symbol
_atom_site_label
_atom_site_fract_x
_atom_site_fract_y
_atom_site_fract_z
Si Si1 0.885510 0.661328 0.939396
Si Si2 0.449397 0.649828 0.249340
Si Si3 0.824903 0.156057 0.146399
Si Si4 0.405174 0.339060 0.353889
Si Si5 0.858468 0.650866 0.061936
Si Si6 0.391348 0.160970 0.848231
Si Si7 0.124816 0.838777 0.657098
Si Si8 0.519556 0.844993 0.834615
O O1 0.882191 0.500000 0.932813
O O2 0.743794 0.718253 0.781205
O O3 0.914874 0.704042 0.044011
O O4 0.000000 0.720769 0.000000
O O5 0.510675 0.500000 0.297145
O O6 0.469896 0.701394 0.344258
O O7 0.518759 0.754542 0.265139
O O8 0.296481 0.643092 0.090513
O O9 0.896175 0.245582 0.156700
O O10 0.877036 0.207254 0.267379
O O11 0.862668 0.000000 0.168933
O O12 0.668746 0.174723 0.998799
O O13 0.500000 0.276421 0.500000
O O14 0.398506 0.500000 0.353693
O O15 0.913033 0.500000 0.129968
O O16 0.251289 0.220074 0.738051
O O17 0.424354 0.203958 0.803943
O O18 0.393087 0.000000 0.856127
O O19 0.500000 0.223253 0.000000
O O20 0.000000 0.779956 0.500000
O O21 0.127523 0.000000 0.657243
O O22 0.493344 0.000000 0.790185
#
# Coordination Sequence:
#
# PCOD8067938 Si02
#       8
#     4   4   4   4   4   4   4   4
#     4   8  13  22  38  59  78  97 128 167 196 222
#     4   8  14  24  38  58  83 106 128 160 199 235
#     4   9  15  24  40  61  80 100 131 167 197 231
#     4   8  13  22  38  58  77 100 131 162 192 228
#     4   8  14  24  39  59  81 104 130 161 198 236
#     4   9  14  23  39  59  79  99 129 168 201 227
#     4   9  16  25  39  59  80 102 132 167 199 232
#     4   9  15  23  40  62  80 100 130 167 200 231
#
# _framework density 15.842321999999999
#
# number of rings (size 3 to 8) (size 9 to 14) (size 15 to 20)
#    0.000    3.500    1.250    1.500    0.000    0.000 
#    0.000    0.000    2.750    2.250    0.000    0.000 
#    0.000    0.000    0.000    0.000    0.000    0.000 
#
# Total GULP energy -396542.161156 kJ/mol
# GULP energy per Si atom -12391.942536 kJ/mol
# Density = 1.580626 g / cm^3
# Si number density = 15.842322 Si / 1000 Ang^3
#
#
#
# Elastic Constant Matrix: (Units=GPa)
#
#
# Indices 1 2 3 4 5 6 
#
# 1 150.0149 45.5503 67.1187 0.0000 -20.0900 0.0000
# 2 45.5503 38.3668 24.9906 0.0000 -12.4210 0.0000
# 3 67.1187 24.9906 88.6343 0.0000 -16.6581 0.0000
# 4 0.0000 0.0000 0.0000 8.9748 0.0000 -7.2418
# 5 -20.0900 -12.4210 -16.6581 0.0000 26.0581 0.0000
# 6 0.0000 0.0000 0.0000 -7.2418 0.0000 21.3449
#
#
#
# Elastic Compliance Matrix: (Units=1/GPa)
#
#
# Indices 1 2 3 4 5 6 
#
# 1 0.013069 -0.010971 -0.006697 0.000000 0.000565 0.000000
# 2 -0.010971 0.044030 -0.001991 0.000000 0.011257 0.000000
# 3 -0.006697 -0.001991 0.017919 0.000000 0.005343 0.000000
# 4 0.000000 0.000000 0.000000 0.153426 0.000000 0.052054
# 5 0.000565 0.011257 0.005343 0.000000 0.047593 0.000000
# 6 0.000000 0.000000 0.000000 0.052054 0.000000 0.064510
#
#
# Mechanical properties :
#
#
# Convention : Reuss Voigt Hill
#
# Bulk Modulus (GPa) = 28.01080 61.37058 44.69069
# Shear Modulus (GPa) = 12.76269 20.56598 16.66434
#
# Velocity S-wave (km/s) = 2.84140 3.60692 3.24680
# Velocity P-wave (km/s) = 5.33705 7.49459 6.50588
#
# Compressibility (1/GPa) = 0.03570052
#
# Stress axis : x y z
#
# Youngs Moduli (GPa) = 76.51457 22.71155 55.80540
#
# Poissons Ratio (x) = 0.24917 0.37375
# Poissons Ratio (y) = 0.83945 0.11111
# Poissons Ratio (z) = 0.51244 0.04522
#
# Static dielectric constant tensor:
#      x y z
#    x 3.282050 0.000000 -0.148500 
#    y 0.000000 2.714310 0.000000 
#    z -0.148500 0.000000 3.011890 
# 
# 
# High freq. dielectric constant tensor:
#      x y z
#    x 1.614920 0.000000 -0.018220 
#    y 0.000000 1.553830 0.000000 
#    z -0.018220 0.000000 1.582020 
# 
# From -- ./inp_files/55546.got.cif
#   From: 2010.06.25/outbox.cif.g09.slc.cpg/sg10_28_cif.got.tgz:55546.got - 2010.06.27 22:07:45.
