data_PCOD8067120
_publ_section_title
;
Structure prediction by ZEFSAII (Michael W. Deem and Ramdas Pophale) SiO2 
 PCOD8067120
Probable space group: P 2/M
;
_chemical_formula_sum "Si O2"
_cell_formula_units_Z 28
_cell_length_a 9.941278
_cell_length_b 12.375176
_cell_length_c 15.893215
_cell_angle_alpha 90.000000
_cell_angle_beta 51.543810
_cell_angle_gamma 90.000000
_cell_volume 1531.135648
_symmetry_space_group_name_H-M "P 2/M"
_symmetry_group_IT_number 10
_symmetry_cell_setting 'monoclinic'
loop_
_space_group_symop_operation_xyz
x,y,z
-x,y,-z
-x,-y,-z
x,-y,z
loop_
_atom_site_type_symbol
_atom_site_label
_atom_site_fract_x
_atom_site_fract_y
_atom_site_fract_z
Si Si1 0.777377 0.192235 0.748357
Si Si2 0.417329 0.872728 0.337361
Si Si3 0.219412 0.805312 0.743592
Si Si4 0.151735 0.127198 0.587237
Si Si5 0.308786 0.624935 0.097153
Si Si6 0.301869 0.000000 0.097776
Si Si7 0.002177 0.000000 0.900205
Si Si8 0.000081 0.625041 0.903551
O O1 0.639655 0.175803 0.729017
O O2 0.758558 0.310733 0.795377
O O3 0.967320 0.177534 0.636562
O O4 0.748500 0.106442 0.832704
O O5 0.591431 0.813040 0.292851
O O6 0.275061 0.846785 0.462082
O O7 0.450178 0.000000 0.316635
O O8 0.231313 0.818079 0.638772
O O9 0.144128 0.688334 0.795083
O O10 0.095053 0.894262 0.830586
O O11 0.132354 0.000000 0.610785
O O12 0.308855 0.500000 0.123647
O O13 0.187476 0.645832 0.063661
O O14 0.500000 0.664848 0.000000
O O15 0.195045 0.000000 0.052972
O O16 0.500000 0.000000 0.000000
O O17 0.000000 0.000000 0.000000
O O18 0.052237 0.500000 0.878344
O O19 0.000000 0.665685 0.000000
#
# Coordination Sequence:
#
# PCOD8067120 Si02
#       8
#     4   4   4   4   4   2   2   4
#     4  12  21  39  58  87 120 152 192 241 297 343
#     4  11  24  36  61  90 117 157 200 242 284 352
#     4  12  21  39  58  87 120 152 192 241 297 343
#     4  11  20  40  61  84 119 155 200 242 292 352
#     4  10  22  40  63  88 116 155 198 239 288 350
#     4  12  24  36  55  83 118 152 185 235 295 354
#     4  12  24  36  55  83 118 152 185 235 295 354
#     4  10  22  40  63  88 116 155 198 239 288 350
#
# _framework density 18.28708
#
# number of rings (size 3 to 8) (size 9 to 14) (size 15 to 20)
#    0.000    0.857    5.714    1.714    4.000    2.286 
#    0.000    0.000    0.000    5.143    0.000    0.000 
#    0.000    0.000    0.000    0.000    0.000    0.000 
#
# Total GULP energy -347372.938671 kJ/mol
# GULP energy per Si atom -12406.176381 kJ/mol
# Density = 1.824546 g / cm^3
# Si number density = 18.287080 Si / 1000 Ang^3
#
#
#
# Elastic Constant Matrix: (Units=GPa)
#
#
# Indices 1 2 3 4 5 6 
#
# 1 123.4874 25.7363 32.9368 0.0000 -21.8734 0.0000
# 2 25.7363 74.9795 37.6813 0.0000 -6.9293 0.0000
# 3 32.9368 37.6813 75.6673 0.0000 -8.1551 0.0000
# 4 0.0000 0.0000 0.0000 24.5307 0.0000 0.0553
# 5 -21.8734 -6.9293 -8.1551 0.0000 34.9026 0.0000
# 6 0.0000 0.0000 0.0000 0.0553 0.0000 26.5081
#
#
#
# Elastic Compliance Matrix: (Units=1/GPa)
#
#
# Indices 1 2 3 4 5 6 
#
# 1 0.010183 -0.001417 -0.003149 0.000000 0.005365 0.000000
# 2 -0.001417 0.018063 -0.008296 0.000000 0.000759 0.000000
# 3 -0.003149 -0.008296 0.018801 0.000000 0.000773 0.000000
# 4 0.000000 0.000000 0.000000 0.040766 0.000000 -0.000085
# 5 0.005365 0.000759 0.000773 0.000000 0.032345 0.000000
# 6 0.000000 0.000000 0.000000 -0.000085 0.000000 0.037725
#
#
# Mechanical properties :
#
#
# Convention : Reuss Voigt Hill
#
# Bulk Modulus (GPa) = 46.89796 51.87143 49.38469
# Shear Modulus (GPa) = 26.21720 29.04026 27.62873
#
# Velocity S-wave (km/s) = 3.79046 3.98932 3.89116
# Velocity P-wave (km/s) = 6.69760 7.04601 6.87401
#
# Compressibility (1/GPa) = 0.02132289
#
# Stress axis : x y z
#
# Youngs Moduli (GPa) = 98.19823 55.36178 53.18843
#
# Poissons Ratio (x) = 0.07846 0.16748
# Poissons Ratio (y) = 0.13917 0.44127
# Poissons Ratio (z) = 0.30920 0.45930
#
# Static dielectric constant tensor:
#      x y z
#    x 3.636980 0.000000 -0.039460 
#    y 0.000000 3.330290 0.000000 
#    z -0.039460 0.000000 3.389180 
# 
# 
# High freq. dielectric constant tensor:
#      x y z
#    x 1.732070 0.000000 0.000960 
#    y 0.000000 1.695540 0.000000 
#    z 0.000960 0.000000 1.706270 
# 
# From -- ./inp_files/61175.got.cif
#   From: 2010.06.25/outbox.cif.g09.slc.cpg/sg10_31_cif.got.tgz:61175.got - 2010.06.27 22:07:45.
