data_PCOD8067894
_publ_section_title
;
Structure prediction by ZEFSAII (Michael W. Deem and Ramdas Pophale) SiO2 
 PCOD8067894
Probable space group: P 2/M
;
_chemical_formula_sum "Si O2"
_cell_formula_units_Z 32
_cell_length_a 21.358675
_cell_length_b 9.548140
_cell_length_c 21.358149
_cell_angle_alpha 90.000000
_cell_angle_beta 27.019730
_cell_angle_gamma 90.000000
_cell_volume 1978.776972
_symmetry_space_group_name_H-M "P 2/M"
_symmetry_group_IT_number 10
_symmetry_cell_setting 'monoclinic'
loop_
_space_group_symop_operation_xyz
x,y,z
-x,y,-z
-x,-y,-z
x,-y,z
loop_
_atom_site_type_symbol
_atom_site_label
_atom_site_fract_x
_atom_site_fract_y
_atom_site_fract_z
Si Si1 0.188464 0.343944 0.007157
Si Si2 0.695053 0.342914 0.876395
Si Si3 0.623597 0.657084 0.804944
Si Si4 0.507119 0.343943 0.688496
Si Si5 0.573977 0.666813 0.372772
Si Si6 0.245961 0.157849 0.066184
Si Si7 0.127216 0.666815 0.926039
Si Si8 0.433843 0.157848 0.254020
O O1 0.137163 0.500000 0.071592
O O2 0.158421 0.237732 0.090716
O O3 0.349521 0.351179 0.849556
O O4 0.111066 0.289619 0.013426
O O5 0.753959 0.500000 0.833217
O O6 0.708149 0.297275 0.791844
O O7 0.779061 0.235510 0.845226
O O8 0.536909 0.341649 0.036906
O O9 0.666773 0.500000 0.746037
O O10 0.654754 0.764499 0.720947
O O11 0.571551 0.500000 0.637196
O O12 0.513398 0.289622 0.611088
O O13 0.590685 0.237738 0.658443
O O14 0.500000 0.730298 0.500000
O O15 0.580102 0.500000 0.370591
O O16 0.729829 0.726573 0.229817
O O17 0.189893 0.000000 0.121788
O O18 0.406062 0.158448 0.906084
O O19 0.129396 0.500000 0.919917
O O20 0.000000 0.730289 0.000000
O O21 0.378239 0.000000 0.310089
#
# Coordination Sequence:
#
# PCOD8067894 Si02
#       8
#     4   4   4   4   4   4   4   4
#     4   8  13  21  32  44  59  81 108 137 169 206
#     4   8  13  20  28  37  51  74 104 136 169 205
#     4   8  13  20  28  37  51  74 104 136 169 205
#     4   8  13  21  32  44  59  81 108 137 169 206
#     4   8  13  21  34  52  71  90 115 148 183 217
#     4   9  15  20  27  40  57  77 103 137 173 205
#     4   8  13  21  34  52  71  90 115 148 183 217
#     4   9  15  20  27  40  57  77 103 137 173 205
#
# _framework density 16.171606000000001
#
# number of rings (size 3 to 8) (size 9 to 14) (size 15 to 20)
#    0.000    3.750    0.000    3.000    0.000    3.500 
#    0.000    2.500    0.000    0.750    0.000    0.000 
#    0.000    0.000    0.000    0.000    0.000    1.250 
#
# Total GULP energy -396486.966209 kJ/mol
# GULP energy per Si atom -12390.217694 kJ/mol
# Density = 1.613480 g / cm^3
# Si number density = 16.171606 Si / 1000 Ang^3
#
#
#
# Elastic Constant Matrix: (Units=GPa)
#
#
# Indices 1 2 3 4 5 6 
#
# 1 143.4697 74.0691 38.7286 0.0000 39.5177 0.0000
# 2 74.0691 97.5045 23.3352 0.0000 24.4903 0.0000
# 3 38.7286 23.3352 28.1651 0.0000 16.1375 0.0000
# 4 0.0000 0.0000 0.0000 3.6307 0.0000 2.1598
# 5 39.5177 24.4903 16.1375 0.0000 22.7135 0.0000
# 6 0.0000 0.0000 0.0000 2.1598 0.0000 8.1032
#
#
#
# Elastic Compliance Matrix: (Units=1/GPa)
#
#
# Indices 1 2 3 4 5 6 
#
# 1 0.017600 -0.007060 -0.008717 0.000000 -0.016815 0.000000
# 2 -0.007060 0.017327 -0.001655 0.000000 -0.005223 0.000000
# 3 -0.008717 -0.001655 0.066029 0.000000 -0.029962 0.000000
# 4 0.000000 0.000000 0.000000 0.327327 0.000000 -0.087244
# 5 -0.016815 -0.005223 -0.029962 0.000000 0.100201 0.000000
# 6 0.000000 0.000000 0.000000 -0.087244 0.000000 0.146661
#
#
# Mechanical properties :
#
#
# Convention : Reuss Voigt Hill
#
# Bulk Modulus (GPa) = 15.13033 60.15612 37.64323
# Shear Modulus (GPa) = 6.83022 15.75658 11.29340
#
# Velocity S-wave (km/s) = 2.05737 3.12482 2.64549
# Velocity P-wave (km/s) = 3.87558 7.09216 5.71484
#
# Compressibility (1/GPa) = 0.06609240
#
# Stress axis : x y z
#
# Youngs Moduli (GPa) = 56.81975 57.71321 15.14476
#
# Poissons Ratio (x) = 0.40745 0.13201
# Poissons Ratio (y) = 0.40114 0.02507
# Poissons Ratio (z) = 0.49528 0.09552
#
# Static dielectric constant tensor:
#      x y z
#    x 3.383010 0.000000 0.392690 
#    y 0.000000 3.029810 0.000000 
#    z 0.392690 0.000000 2.569420 
# 
# 
# High freq. dielectric constant tensor:
#      x y z
#    x 1.627200 0.000000 0.040740 
#    y 0.000000 1.597700 0.000000 
#    z 0.040740 0.000000 1.542780 
# 
# From -- ./inp_files/86410.got.cif
#   From: 2010.06.25/outbox.cif.g09.slc.cpg/sg10_44_cif.got.tgz:86410.got - 2010.06.27 22:07:45.
