data_PCOD8067404
_publ_section_title
;
Structure prediction by ZEFSAII (Michael W. Deem and Ramdas Pophale) SiO2 
 PCOD8067404
Probable space group: P 2/M
;
_chemical_formula_sum "Si O2"
_cell_formula_units_Z 16
_cell_length_a 20.033674
_cell_length_b 7.574239
_cell_length_c 9.471268
_cell_angle_alpha 90.000000
_cell_angle_beta 30.916077
_cell_angle_gamma 90.000000
_cell_volume 738.391382
_symmetry_space_group_name_H-M "P 2/M"
_symmetry_group_IT_number 10
_symmetry_cell_setting 'monoclinic'
loop_
_space_group_symop_operation_xyz
x,y,z
-x,y,-z
-x,-y,-z
x,-y,z
loop_
_atom_site_type_symbol
_atom_site_label
_atom_site_fract_x
_atom_site_fract_y
_atom_site_fract_z
Si Si1 0.870069 0.000000 0.646888
Si Si2 0.189326 0.795120 0.722717
Si Si3 0.415144 0.000000 0.794623
Si Si4 0.478230 0.701704 0.201719
Si Si5 0.058687 0.696525 0.679071
O O1 0.865305 0.823644 0.563215
O O2 0.000000 0.000000 0.500000
O O3 0.736110 0.000000 0.979196
O O4 0.327439 0.718193 0.517066
O O5 0.136480 0.689831 0.684333
O O6 0.199978 0.000000 0.664467
O O7 0.088627 0.766468 0.033551
O O8 0.500000 0.000000 0.500000
O O9 0.440763 0.826551 0.841874
O O10 0.524860 0.500000 0.139277
O O11 0.500000 0.760873 0.000000
O O12 0.055819 0.500000 0.620026
#
# Coordination Sequence:
#
# PCOD8067404 Si02
#       5
#     2   4   2   4   4
#     4  12  28  46  67  92 129 182 232 271 319 396
#     4  11  19  37  70 104 135 169 209 279 345 396
#     4  12  29  47  69  99 142 186 224 277 342 408
#     4  11  24  43  72 103 136 178 229 283 341 405
#     4  11  22  40  66 100 136 170 218 278 336 392
#
# _framework density 21.668725999999999
#
# number of rings (size 3 to 8) (size 9 to 14) (size 15 to 20)
#    0.000    0.750    3.750    5.625    3.500    4.000 
#    0.000    0.000    0.000    0.000    0.000    0.000 
#    0.000    0.000    0.000    0.000    0.000    0.000 
#
# Total GULP energy -198464.225993 kJ/mol
# GULP energy per Si atom -12404.014125 kJ/mol
# Density = 2.161941 g / cm^3
# Si number density = 21.668726 Si / 1000 Ang^3
#
#
#
# Elastic Constant Matrix: (Units=GPa)
#
#
# Indices 1 2 3 4 5 6 
#
# 1 81.8722 35.9911 44.1183 0.0000 -15.4872 0.0000
# 2 35.9911 158.7287 35.9562 0.0000 10.0600 0.0000
# 3 44.1183 35.9562 140.4922 0.0000 -14.6269 0.0000
# 4 0.0000 0.0000 0.0000 6.3924 0.0000 -7.0506
# 5 -15.4872 10.0600 -14.6269 0.0000 42.4824 0.0000
# 6 0.0000 0.0000 0.0000 -7.0506 0.0000 11.6287
#
#
#
# Elastic Compliance Matrix: (Units=1/GPa)
#
#
# Indices 1 2 3 4 5 6 
#
# 1 0.016789 -0.003288 -0.003850 0.000000 0.005573 0.000000
# 2 -0.003288 0.007546 -0.001255 0.000000 -0.003418 0.000000
# 3 -0.003850 -0.001255 0.008850 0.000000 0.001941 0.000000
# 4 0.000000 0.000000 0.000000 0.472243 0.000000 0.286326
# 5 0.005573 -0.003418 0.001941 0.000000 0.027048 0.000000
# 6 0.000000 0.000000 0.000000 0.286326 0.000000 0.259596
#
#
# Mechanical properties :
#
#
# Convention : Reuss Voigt Hill
#
# Bulk Modulus (GPa) = 60.97807 68.13605 64.55706
# Shear Modulus (GPa) = 6.14005 29.76921 17.95463
#
# Velocity S-wave (km/s) = 1.68516 3.71055 2.88166
# Velocity P-wave (km/s) = 5.65584 7.06189 6.39761
#
# Compressibility (1/GPa) = 0.01639934
#
# Stress axis : x y z
#
# Youngs Moduli (GPa) = 59.56446 132.51414 112.99294
#
# Poissons Ratio (x) = 0.43567 0.43507
# Poissons Ratio (y) = 0.19583 0.14177
# Poissons Ratio (z) = 0.22935 0.16627
#
# Static dielectric constant tensor:
#      x y z
#    x 3.590230 0.000000 -0.143420 
#    y 0.000000 3.964950 0.000000 
#    z -0.143420 0.000000 4.170970 
# 
# 
# High freq. dielectric constant tensor:
#      x y z
#    x 1.818290 0.000000 -0.020460 
#    y 0.000000 1.868120 0.000000 
#    z -0.020460 0.000000 1.860870 
# 
# From -- ./inp_files/33373.got.cif
#   From: 2010.06.25/outbox.cif.g09.slc.cpg/sg10_17_cif.got.tgz:33373.got - 2010.06.27 22:07:45.
