data_PCOD8067773
_publ_section_title
;
Structure prediction by ZEFSAII (Michael W. Deem and Ramdas Pophale) SiO2 
 PCOD8067773
Probable space group: P 2/M
;
_chemical_formula_sum "Si O2"
_cell_formula_units_Z 28
_cell_length_a 19.505549
_cell_length_b 8.435778
_cell_length_c 15.471903
_cell_angle_alpha 90.000000
_cell_angle_beta 143.539177
_cell_angle_gamma 90.000000
_cell_volume 1512.909852
_symmetry_space_group_name_H-M "P 2/M"
_symmetry_group_IT_number 10
_symmetry_cell_setting 'monoclinic'
loop_
_space_group_symop_operation_xyz
x,y,z
-x,y,-z
-x,-y,-z
x,-y,z
loop_
_atom_site_type_symbol
_atom_site_label
_atom_site_fract_x
_atom_site_fract_y
_atom_site_fract_z
Si Si1 0.855453 0.688993 0.035134
Si Si2 0.864135 0.327569 0.857146
Si Si3 0.279796 0.817660 0.944774
Si Si4 0.879992 0.689077 0.686426
Si Si5 0.130541 0.316463 0.645916
Si Si6 0.254655 0.182421 0.610120
Si Si7 0.489911 0.316077 0.890914
O O1 0.839706 0.500000 0.022340
O O2 0.766852 0.774068 0.008412
O O3 0.986307 0.733187 0.194341
O O4 0.825683 0.756765 0.907932
O O5 0.804359 0.500000 0.794375
O O6 0.837596 0.243973 0.737949
O O7 0.000000 0.352635 0.000000
O O8 0.180848 0.786962 0.774295
O O9 0.316441 0.000000 0.979140
O O10 0.390578 0.711272 0.037012
O O11 0.863370 0.500000 0.664067
O O12 0.802228 0.777500 0.538572
O O13 0.137096 0.500000 0.679613
O O14 0.201190 0.292264 0.630000
O O15 0.000000 0.260532 0.500000
O O16 0.390751 0.216688 0.742482
O O17 0.232528 0.000000 0.610741
O O18 0.457176 0.500000 0.854187
O O19 0.500000 0.257314 0.000000
#
# Coordination Sequence:
#
# PCOD8067773 Si02
#       7
#     4   4   4   4   4   4   4
#     4   9  17  32  55  82 112 146 184 222 262 313
#     4   7  12  26  51  80 107 140 183 225 259 301
#     4  12  24  36  54  80 111 141 174 220 274 324
#     4   9  17  32  55  82 112 146 184 222 262 313
#     4  11  23  38  55  76 105 143 183 219 258 309
#     4  12  24  36  54  80 111 141 174 220 274 324
#     4  11  23  41  63  78  96 135 188 230 265 315
#
# _framework density 18.507380999999999
#
# number of rings (size 3 to 8) (size 9 to 14) (size 15 to 20)
#    0.000    1.857    1.429    6.000    0.000    5.714 
#    0.000    0.714    0.000    3.429    0.000    6.000 
#    0.000    0.000    0.000    0.000    0.000    0.000 
#
# Total GULP energy -347115.002749 kJ/mol
# GULP energy per Si atom -12396.964384 kJ/mol
# Density = 1.846526 g / cm^3
# Si number density = 18.507381 Si / 1000 Ang^3
#
#
#
# Elastic Constant Matrix: (Units=GPa)
#
#
# Indices 1 2 3 4 5 6 
#
# 1 125.6553 14.7270 47.9434 0.0000 -12.6447 0.0000
# 2 14.7270 48.3952 14.9665 0.0000 -1.2269 0.0000
# 3 47.9434 14.9665 37.0072 0.0000 2.3182 0.0000
# 4 0.0000 0.0000 0.0000 2.6940 0.0000 2.4514
# 5 -12.6447 -1.2269 2.3182 0.0000 31.6325 0.0000
# 6 0.0000 0.0000 0.0000 2.4514 0.0000 11.6063
#
#
#
# Elastic Compliance Matrix: (Units=1/GPa)
#
#
# Indices 1 2 3 4 5 6 
#
# 1 0.018186 0.002473 -0.025137 0.000000 0.009208 0.000000
# 2 0.002473 0.024037 -0.013105 0.000000 0.002881 0.000000
# 3 -0.025137 -0.013105 0.065851 0.000000 -0.015383 0.000000
# 4 0.000000 0.000000 0.000000 0.459513 0.000000 -0.097055
# 5 0.009208 0.002881 -0.015383 0.000000 0.036533 0.000000
# 6 0.000000 0.000000 0.000000 -0.097055 0.000000 0.106659
#
#
# Mechanical properties :
#
#
# Convention : Reuss Voigt Hill
#
# Bulk Modulus (GPa) = 27.37120 40.70352 34.03736
# Shear Modulus (GPa) = 6.29330 18.08127 12.18728
#
# Velocity S-wave (km/s) = 1.84602 3.12905 2.56893
# Velocity P-wave (km/s) = 4.40059 5.92415 5.21827
#
# Compressibility (1/GPa) = 0.03653476
#
# Stress axis : x y z
#
# Youngs Moduli (GPa) = 54.98701 41.60325 15.18568
#
# Poissons Ratio (x) = -0.10289 0.38173
# Poissons Ratio (y) = -0.13599 0.19902
# Poissons Ratio (z) = 1.38223 0.54523
#
# Static dielectric constant tensor:
#      x y z
#    x 3.603540 0.000000 -0.277360 
#    y 0.000000 3.186110 0.000000 
#    z -0.277360 0.000000 3.454120 
# 
# 
# High freq. dielectric constant tensor:
#      x y z
#    x 1.719720 0.000000 -0.015430 
#    y 0.000000 1.702100 0.000000 
#    z -0.015430 0.000000 1.703800 
# 
# From -- ./inp_files/68669.got.cif
#   From: 2010.06.25/outbox.cif.g09.slc.cpg/sg10_35_cif.got.tgz:68669.got - 2010.06.27 22:07:45.
