data_PCOD8067849
_publ_section_title
;
Structure prediction by ZEFSAII (Michael W. Deem and Ramdas Pophale) SiO2 
 PCOD8067849
Probable space group: P 2/M
;
_chemical_formula_sum "Si O2"
_cell_formula_units_Z 16
_cell_length_a 5.052433
_cell_length_b 22.202208
_cell_length_c 5.491529
_cell_angle_alpha 90.000000
_cell_angle_beta 90.277172
_cell_angle_gamma 90.000000
_cell_volume 616.005982
_symmetry_space_group_name_H-M "P 2/M"
_symmetry_group_IT_number 10
_symmetry_cell_setting 'monoclinic'
loop_
_space_group_symop_operation_xyz
x,y,z
-x,y,-z
-x,-y,-z
x,-y,z
loop_
_atom_site_type_symbol
_atom_site_label
_atom_site_fract_x
_atom_site_fract_y
_atom_site_fract_z
Si Si1 0.171875 0.000000 0.254665
Si Si2 0.255971 0.500000 0.325541
Si Si3 0.764074 0.180722 0.154268
Si Si4 0.243656 0.309403 0.654345
Si Si5 0.500000 0.597031 0.000000
Si Si6 0.500000 0.096086 0.500000
O O1 0.367158 0.057607 0.278809
O O2 0.000000 0.000000 0.500000
O O3 0.000000 0.000000 0.000000
O O4 0.500000 0.500000 0.500000
O O5 0.287311 0.558435 0.154225
O O6 0.000000 0.500000 0.500000
O O7 0.855590 0.247782 0.225013
O O8 0.727533 0.138049 0.387264
O O9 0.500000 0.185338 0.000000
O O10 0.000000 0.151140 0.000000
O O11 0.500000 0.292681 0.500000
O O12 0.309617 0.361746 0.840881
O O13 0.000000 0.335866 0.500000
#
# Coordination Sequence:
#
# PCOD8067849 Si02
#       6
#     2   2   4   4   2   2
#     4  11  30  55  85 124 170 228 296 358 432 502
#     4  11  28  55  81 114 153 211 278 335 407 492
#     4  12  28  50  82 121 169 218 274 339 421 506
#     4  12  27  49  77 122 167 212 269 332 413 502
#     4  11  28  52  82 116 162 213 264 346 414 485
#     4  11  30  52  82 120 170 219 284 350 422 505
#
# _framework density 25.973776000000001
#
# number of rings (size 3 to 8) (size 9 to 14) (size 15 to 20)
#    0.000    0.500    2.500    2.250    7.000    9.000 
#    0.000    3.750    0.000    0.000    0.000    0.000 
#    0.000    0.000    0.000    0.000    0.000    0.000 
#
# Total GULP energy -198437.045737 kJ/mol
# GULP energy per Si atom -12402.315359 kJ/mol
# Density = 2.591466 g / cm^3
# Si number density = 25.973776 Si / 1000 Ang^3
#
#
#
# Elastic Constant Matrix: (Units=GPa)
#
#
# Indices 1 2 3 4 5 6 
#
# 1 178.4868 55.0534 85.6884 0.0000 1.3618 0.0000
# 2 55.0534 187.3834 79.4791 0.0000 2.5308 0.0000
# 3 85.6884 79.4791 169.1502 0.0000 -6.9273 0.0000
# 4 0.0000 0.0000 0.0000 0.2860 0.0000 -17.2475
# 5 1.3618 2.5308 -6.9273 0.0000 78.6547 0.0000
# 6 0.0000 0.0000 0.0000 -17.2475 0.0000 14.4234
#
#
#
# Elastic Compliance Matrix: (Units=1/GPa)
#
#
# Indices 1 2 3 4 5 6 
#
# 1 0.007497 -0.000723 -0.003475 0.000000 -0.000413 0.000000
# 2 -0.000723 0.006754 -0.002826 0.000000 -0.000454 0.000000
# 3 -0.003475 -0.002826 0.009039 0.000000 0.000947 0.000000
# 4 0.000000 0.000000 0.000000 -0.049168 0.000000 -0.058795
# 5 -0.000413 -0.000454 0.000947 0.000000 0.012819 0.000000
# 6 0.000000 0.000000 0.000000 -0.058795 0.000000 -0.000975
#
#
# Mechanical properties :
#
#
# Convention : Reuss Voigt Hill
#
# Bulk Modulus (GPa) = 108.20141 108.38466 108.29304
# Shear Modulus (GPa) = 1615.97405 39.65946 827.81676
#
# Velocity S-wave (km/s) = 24.97012 3.91180 17.87189
# Velocity P-wave (km/s) = 29.54811 7.88809 21.62536
#
# Compressibility (1/GPa) = 0.00924202
#
# Stress axis : x y z
#
# Youngs Moduli (GPa) = 133.38389 148.06598 110.63452
#
# Poissons Ratio (x) = 0.10708 0.38446
# Poissons Ratio (y) = 0.09646 0.31261
# Poissons Ratio (z) = 0.46351 0.41838
#
# Static dielectric constant tensor:
#      x y z
#    x 4.500230 0.000000 0.178470 
#    y 0.000000 4.920110 0.000000 
#    z 0.178470 0.000000 4.786300 
# 
# 
# High freq. dielectric constant tensor:
#      x y z
#    x 2.051890 0.000000 0.000480 
#    y 0.000000 2.057780 0.000000 
#    z 0.000480 0.000000 2.048240 
# 
# From -- ./inp_files/1248.got.cif
#   From: 2010.06.25/outbox.cif.g09.slc.cpg/sg10_1_cif.got.tgz:1248.got - 2010.06.27 22:07:45.
