data_PCOD8067424
_publ_section_title
;
Structure prediction by ZEFSAII (Michael W. Deem and Ramdas Pophale) SiO2 
 PCOD8067424
Probable space group: P 2/M
;
_chemical_formula_sum "Si O2"
_cell_formula_units_Z 28
_cell_length_a 18.473483
_cell_length_b 8.778598
_cell_length_c 22.438318
_cell_angle_alpha 90.000000
_cell_angle_beta 25.497136
_cell_angle_gamma 90.000000
_cell_volume 1566.401461
_symmetry_space_group_name_H-M "P 2/M"
_symmetry_group_IT_number 10
_symmetry_cell_setting 'monoclinic'
loop_
_space_group_symop_operation_xyz
x,y,z
-x,y,-z
-x,-y,-z
x,-y,z
loop_
_atom_site_type_symbol
_atom_site_label
_atom_site_fract_x
_atom_site_fract_y
_atom_site_fract_z
Si Si1 0.612184 0.320720 0.969067
Si Si2 0.424873 0.681226 0.870979
Si Si3 0.664715 0.680414 0.591702
Si Si4 0.230626 0.679983 0.710310
Si Si5 0.016803 0.321080 0.284387
Si Si6 0.480825 0.680300 0.421821
Si Si7 0.924576 0.820857 0.884427
O O1 0.583587 0.500000 0.989493
O O2 0.808503 0.280561 0.812113
O O3 0.500000 0.244622 0.000000
O O4 0.553536 0.257574 0.077283
O O5 0.410044 0.500000 0.882006
O O6 0.582216 0.740450 0.714470
O O7 0.255143 0.746058 0.968415
O O8 0.650360 0.500000 0.601098
O O9 0.860992 0.729010 0.442222
O O10 0.561045 0.748303 0.612327
O O11 0.197770 0.500000 0.732494
O O12 0.340995 0.737271 0.572277
O O13 0.332072 0.727260 0.695109
O O14 0.052982 0.767216 0.840615
O O15 0.008832 0.500000 0.274998
O O16 0.002884 0.232893 0.232879
O O17 0.469277 0.500000 0.429075
O O18 0.904041 0.000000 0.900352
#
# Coordination Sequence:
#
# PCOD8067424 Si02
#       7
#     4   4   4   4   4   4   4
#     4   8  14  26  45  71  99 124 150 181 222 272
#     4   9  18  31  49  68  91 124 156 191 231 273
#     4   9  15  27  48  73  92 114 157 199 231 268
#     4   9  15  27  47  68  89 118 154 195 237 270
#     4   9  16  29  51  71  91 121 155 193 229 271
#     4   8  14  24  45  71  91 113 150 199 236 268
#     4  11  20  30  45  67  94 124 159 196 228 273
#
# _framework density 17.875368000000002
#
# number of rings (size 3 to 8) (size 9 to 14) (size 15 to 20)
#    0.000    3.000    1.429    3.000    0.000    0.000 
#    0.000    3.571    0.000   15.429    0.000    0.000 
#    0.000    9.143    0.000    0.000    0.000    0.000 
#
# Total GULP energy -346976.622392 kJ/mol
# GULP energy per Si atom -12392.022228 kJ/mol
# Density = 1.783468 g / cm^3
# Si number density = 17.875368 Si / 1000 Ang^3
#
#
#
# Elastic Constant Matrix: (Units=GPa)
#
#
# Indices 1 2 3 4 5 6 
#
# 1 131.2061 10.2752 68.1327 0.0000 -13.7894 0.0000
# 2 10.2752 26.8762 13.3333 0.0000 -1.1825 0.0000
# 3 68.1327 13.3333 139.0584 0.0000 -0.4506 0.0000
# 4 0.0000 0.0000 0.0000 4.9925 0.0000 1.1281
# 5 -13.7894 -1.1825 -0.4506 0.0000 23.6764 0.0000
# 6 0.0000 0.0000 0.0000 1.1281 0.0000 3.6725
#
#
#
# Elastic Compliance Matrix: (Units=1/GPa)
#
#
# Indices 1 2 3 4 5 6 
#
# 1 0.011152 -0.001349 -0.005314 0.000000 0.006326 0.000000
# 2 -0.001349 0.039313 -0.003105 0.000000 0.001119 0.000000
# 3 -0.005314 -0.003105 0.010083 0.000000 -0.003058 0.000000
# 4 0.000000 0.000000 0.000000 0.215240 0.000000 -0.066115
# 5 0.006326 0.001119 -0.003058 0.000000 0.045918 0.000000
# 6 0.000000 0.000000 0.000000 -0.066115 0.000000 0.292605
#
#
# Mechanical properties :
#
#
# Convention : Reuss Voigt Hill
#
# Bulk Modulus (GPa) = 24.38331 53.40259 38.89295
# Shear Modulus (GPa) = 7.72181 20.16157 13.94169
#
# Velocity S-wave (km/s) = 2.08067 3.36206 2.79577
# Velocity P-wave (km/s) = 4.40938 6.70903 5.67687
#
# Compressibility (1/GPa) = 0.04101165
#
# Stress axis : x y z
#
# Youngs Moduli (GPa) = 89.67382 25.43693 99.18044
#
# Poissons Ratio (x) = 0.03431 0.52704
# Poissons Ratio (y) = 0.12095 0.30795
# Poissons Ratio (z) = 0.47652 0.07898
#
# Static dielectric constant tensor:
#      x y z
#    x 3.650270 0.000000 -0.036720 
#    y 0.000000 2.766330 0.000000 
#    z -0.036720 0.000000 3.474980 
# 
# 
# High freq. dielectric constant tensor:
#      x y z
#    x 1.685410 0.000000 -0.016010 
#    y 0.000000 1.636990 0.000000 
#    z -0.016010 0.000000 1.683180 
# 
# From -- ./inp_files/38025.got.cif
#   From: 2010.06.25/outbox.cif.g09.slc.cpg/sg10_20_cif.got.tgz:38025.got - 2010.06.27 22:07:45.
