data_PCOD8067018
_publ_section_title
;
Structure prediction by ZEFSAII (Michael W. Deem and Ramdas Pophale) SiO2 
 PCOD8067018
Probable space group: P 2/M
;
_chemical_formula_sum "Si O2"
_cell_formula_units_Z 24
_cell_length_a 11.796980
_cell_length_b 14.231380
_cell_length_c 13.789910
_cell_angle_alpha 90.000000
_cell_angle_beta 148.643869
_cell_angle_gamma 90.000000
_cell_volume 1204.702511
_symmetry_space_group_name_H-M "P 2/M"
_symmetry_group_IT_number 10
_symmetry_cell_setting 'monoclinic'
loop_
_space_group_symop_operation_xyz
x,y,z
-x,y,-z
-x,-y,-z
x,-y,z
loop_
_atom_site_type_symbol
_atom_site_label
_atom_site_fract_x
_atom_site_fract_y
_atom_site_fract_z
Si Si1 0.793612 0.110043 0.910745
Si Si2 0.361021 0.796164 0.602219
Si Si3 0.279454 0.394647 0.800769
Si Si4 0.802326 0.605857 0.483943
Si Si5 0.074702 0.110009 0.778454
Si Si6 0.749781 0.896353 0.290234
O O1 0.823771 0.137131 0.044824
O O2 0.753598 0.000000 0.866159
O O3 0.583347 0.165778 0.717551
O O4 0.000000 0.144561 0.000000
O O5 0.351088 0.683364 0.577294
O O6 0.159237 0.842280 0.400599
O O7 0.360110 0.821938 0.717249
O O8 0.284687 0.500000 0.846327
O O9 0.272202 0.397036 0.680722
O O10 0.050545 0.352900 0.673846
O O11 0.500000 0.342132 0.000000
O O12 0.777448 0.500000 0.510047
O O13 0.249566 0.139799 0.821731
O O14 0.029141 0.000000 0.735661
O O15 0.000000 0.907799 0.500000
O O16 0.635624 0.000000 0.216912
#
# Coordination Sequence:
#
# PCOD8067018 Si02
#       6
#     4   4   4   4   4   4
#     4  10  22  39  57  80 105 133 180 233 276 322
#     4  11  20  32  54  77 111 147 177 216 268 321
#     4   8  15  29  46  65  97 141 180 215 257 302
#     4   9  19  31  46  74 109 145 184 222 256 308
#     4   9  19  34  53  79 109 137 172 214 266 330
#     4   8  15  28  47  73 106 137 168 202 251 322
#
# _framework density 19.92193
#
# number of rings (size 3 to 8) (size 9 to 14) (size 15 to 20)
#    0.000    2.833    0.000    3.500    7.000    2.667 
#    0.000    5.000    0.000    0.500    0.000    1.167 
#    0.000    0.000    0.000    0.000    0.000    0.000 
#
# Total GULP energy -297369.704544 kJ/mol
# GULP energy per Si atom -12390.404356 kJ/mol
# Density = 1.987659 g / cm^3
# Si number density = 19.921930 Si / 1000 Ang^3
#
#
#
# Elastic Constant Matrix: (Units=GPa)
#
#
# Indices 1 2 3 4 5 6 
#
# 1 31.8365 21.6954 14.8334 0.0000 14.5159 0.0000
# 2 21.6954 83.9094 42.8974 0.0000 19.8676 0.0000
# 3 14.8334 42.8974 90.7893 0.0000 21.4455 0.0000
# 4 0.0000 0.0000 0.0000 15.3524 0.0000 9.2259
# 5 14.5159 19.8676 21.4455 0.0000 30.3249 0.0000
# 6 0.0000 0.0000 0.0000 9.2259 0.0000 13.4882
#
#
#
# Elastic Compliance Matrix: (Units=1/GPa)
#
#
# Indices 1 2 3 4 5 6 
#
# 1 0.043877 -0.007651 0.000268 0.000000 -0.016180 0.000000
# 2 -0.007651 0.018032 -0.006416 0.000000 -0.003614 0.000000
# 3 0.000268 -0.006416 0.015655 0.000000 -0.006996 0.000000
# 4 0.000000 0.000000 0.000000 0.110597 0.000000 -0.075648
# 5 -0.016180 -0.003614 -0.006996 0.000000 0.048036 0.000000
# 6 0.000000 0.000000 0.000000 -0.075648 0.000000 0.125882
#
#
# Mechanical properties :
#
#
# Convention : Reuss Voigt Hill
#
# Bulk Modulus (GPa) = 20.01384 40.59864 30.30624
# Shear Modulus (GPa) = 12.30526 20.30703 16.30614
#
# Velocity S-wave (km/s) = 2.48800 3.19616 2.86405
# Velocity P-wave (km/s) = 4.28036 5.83470 5.11689
#
# Compressibility (1/GPa) = 0.04996543
#
# Stress axis : x y z
#
# Youngs Moduli (GPa) = 22.79120 55.45816 63.87834
#
# Poissons Ratio (x) = 0.42429 -0.01713
# Poissons Ratio (y) = 0.17437 0.40986
# Poissons Ratio (z) = -0.00611 0.35583
#
# Static dielectric constant tensor:
#      x y z
#    x 3.456060 0.000000 -0.025280 
#    y 0.000000 3.638870 0.000000 
#    z -0.025280 0.000000 3.824120 
# 
# 
# High freq. dielectric constant tensor:
#      x y z
#    x 1.718620 0.000000 0.005430 
#    y 0.000000 1.762020 0.000000 
#    z 0.005430 0.000000 1.789020 
# 
# From -- ./inp_files/65159.got.cif
#   From: 2010.06.25/outbox.cif.g09.slc.cpg/sg10_33_cif.got.tgz:65159.got - 2010.06.27 22:07:45.
