data_PCOD8067187
_publ_section_title
;
Structure prediction by ZEFSAII (Michael W. Deem and Ramdas Pophale) SiO2 
 PCOD8067187
Probable space group: P 2/M
;
_chemical_formula_sum "Si O2"
_cell_formula_units_Z 32
_cell_length_a 12.239662
_cell_length_b 14.739936
_cell_length_c 17.401634
_cell_angle_alpha 90.000000
_cell_angle_beta 28.856385
_cell_angle_gamma 90.000000
_cell_volume 1515.153399
_symmetry_space_group_name_H-M "P 2/M"
_symmetry_group_IT_number 10
_symmetry_cell_setting 'monoclinic'
loop_
_space_group_symop_operation_xyz
x,y,z
-x,y,-z
-x,-y,-z
x,-y,z
loop_
_atom_site_type_symbol
_atom_site_label
_atom_site_fract_x
_atom_site_fract_y
_atom_site_fract_z
Si Si1 0.893421 0.253382 0.279007
Si Si2 0.356400 0.155256 0.817523
Si Si3 0.256164 0.753669 0.175655
Si Si4 0.095693 0.603086 0.857799
Si Si5 0.243273 0.896474 0.317577
Si Si6 0.445326 0.327763 0.386857
Si Si7 0.021996 0.396941 0.572024
Si Si8 0.104128 0.102059 0.829404
O O1 0.978998 0.331054 0.166164
O O2 0.694853 0.286023 0.456831
O O3 0.784702 0.166068 0.303448
O O4 0.107565 0.214704 0.194658
O O5 0.568004 0.112937 0.732473
O O6 0.428509 0.254038 0.743935
O O7 0.279849 0.094592 0.791803
O O8 0.131864 0.155449 0.008367
O O9 0.289674 0.833883 0.215964
O O10 0.138434 0.663446 0.277898
O O11 0.500000 0.721165 0.000000
O O12 0.016485 0.500000 0.888467
O O13 0.367581 0.605959 0.693324
O O14 0.000000 0.635204 0.000000
O O15 0.000000 0.867203 0.500000
O O16 0.239466 0.000000 0.291138
O O17 0.283693 0.387836 0.433427
O O18 0.940397 0.500000 0.630443
O O19 0.000000 0.360354 0.500000
O O20 0.055091 0.000000 0.830336
#
# Coordination Sequence:
#
# PCOD8067187 Si02
#       8
#     4   4   4   4   4   4   4   4
#     4  11  24  41  62  93 129 167 207 264 324 387
#     4  11  21  39  66  93 127 168 219 269 315 380
#     4  11  24  41  63  92 129 172 215 262 327 380
#     4  11  24  42  65  93 123 162 210 262 321 388
#     4  11  23  41  65  94 129 176 228 270 316 380
#     4  11  22  39  65  92 132 165 206 260 329 381
#     4  10  22  41  65  94 125 165 215 263 318 386
#     4  11  23  40  62  93 131 174 218 266 322 377
#
# _framework density 21.119973999999999
#
# number of rings (size 3 to 8) (size 9 to 14) (size 15 to 20)
#    0.000    1.125    1.250    6.375    0.000    5.000 
#    0.000    3.750    0.000    0.000    0.000    0.000 
#    0.000    0.000    0.000    0.000    0.000    0.000 
#
# Total GULP energy -396732.147452 kJ/mol
# GULP energy per Si atom -12397.879608 kJ/mol
# Density = 2.107190 g / cm^3
# Si number density = 21.119974 Si / 1000 Ang^3
#
#
#
# Elastic Constant Matrix: (Units=GPa)
#
#
# Indices 1 2 3 4 5 6 
#
# 1 135.2356 32.9221 47.4100 0.0000 -11.5899 0.0000
# 2 32.9221 100.2740 23.7462 0.0000 11.7801 0.0000
# 3 47.4100 23.7462 87.9268 0.0000 -14.6322 0.0000
# 4 0.0000 0.0000 0.0000 3.9779 0.0000 -15.6546
# 5 -11.5899 11.7801 -14.6322 0.0000 34.6890 0.0000
# 6 0.0000 0.0000 0.0000 -15.6546 0.0000 16.1832
#
#
#
# Elastic Compliance Matrix: (Units=1/GPa)
#
#
# Indices 1 2 3 4 5 6 
#
# 1 0.009646 -0.002454 -0.004155 0.000000 0.002303 0.000000
# 2 -0.002454 0.012227 -0.003018 0.000000 -0.006245 0.000000
# 3 -0.004155 -0.003018 0.015453 0.000000 0.006155 0.000000
# 4 0.000000 0.000000 0.000000 -0.089562 0.000000 -0.086637
# 5 0.002303 -0.006245 0.006155 0.000000 0.034314 0.000000
# 6 0.000000 0.000000 0.000000 -0.086637 0.000000 -0.022015
#
#
# Mechanical properties :
#
#
# Convention : Reuss Voigt Hill
#
# Bulk Modulus (GPa) = 55.33576 59.06590 57.20083
# Shear Modulus (GPa) = -341.07164 25.59390 -157.73887
#
# Velocity S-wave (km/s) = -12.72175 3.48492 -8.65154
# Velocity P-wave (km/s) = 13.76710 6.64984 8.52387
#
# Compressibility (1/GPa) = 0.01807150
#
# Stress axis : x y z
#
# Youngs Moduli (GPa) = 103.67126 81.78845 64.71252
#
# Poissons Ratio (x) = 0.20067 0.26889
# Poissons Ratio (y) = 0.25436 0.19532
# Poissons Ratio (z) = 0.43077 0.24686
#
# Static dielectric constant tensor:
#      x y z
#    x 4.826120 0.000000 -0.249890 
#    y 0.000000 3.659700 0.000000 
#    z -0.249890 0.000000 3.923360 
# 
# 
# High freq. dielectric constant tensor:
#      x y z
#    x 1.837530 0.000000 -0.003810 
#    y 0.000000 1.828720 0.000000 
#    z -0.003810 0.000000 1.827850 
# 
# From -- ./inp_files/77012.got.cif
#   From: 2010.06.25/outbox.cif.g09.slc.cpg/sg10_39_cif.got.tgz:77012.got - 2010.06.27 22:07:45.
