data_PCOD8067190
_publ_section_title
;
Structure prediction by ZEFSAII (Michael W. Deem and Ramdas Pophale) SiO2 
 PCOD8067190
Probable space group: P 2/M
;
_chemical_formula_sum "Si O2"
_cell_formula_units_Z 18
_cell_length_a 8.242380
_cell_length_b 13.543209
_cell_length_c 10.055819
_cell_angle_alpha 90.000000
_cell_angle_beta 123.101037
_cell_angle_gamma 90.000000
_cell_volume 940.339665
_symmetry_space_group_name_H-M "P 2/M"
_symmetry_group_IT_number 10
_symmetry_cell_setting 'monoclinic'
loop_
_space_group_symop_operation_xyz
x,y,z
-x,y,-z
-x,-y,-z
x,-y,z
loop_
_atom_site_type_symbol
_atom_site_label
_atom_site_fract_x
_atom_site_fract_y
_atom_site_fract_z
Si Si1 0.082089 0.791019 0.779995
Si Si2 0.000000 0.665483 0.000000
Si Si3 0.942032 0.000000 0.784270
Si Si4 0.000000 0.338653 0.500000
Si Si5 0.720109 0.500000 0.447980
Si Si6 0.735773 0.500000 0.766241
Si Si7 0.500000 0.847362 0.000000
Si Si8 0.674087 0.000000 0.887773
O O1 0.986098 0.727535 0.623218
O O2 0.045885 0.740295 0.903650
O O3 0.314599 0.787897 0.866146
O O4 0.981024 0.899152 0.719050
O O5 0.819501 0.596839 0.876819
O O6 0.720893 0.000000 0.748847
O O7 0.108066 0.000000 0.966930
O O8 0.806861 0.404701 0.413337
O O9 0.786714 0.500000 0.632503
O O10 0.493427 0.500000 0.321217
O O11 0.440778 0.906640 0.106947
#
# Coordination Sequence:
#
# PCOD8067190 Si02
#       8
#     4   2   2   2   2   2   2   2
#     4  11  22  37  60  89 124 157 200 241 297 350
#     4  11  22  39  62  98 114 153 206 251 282 366
#     4   9  18  35  57  81 122 165 188 240 292 351
#     4  11  24  41  60  90 120 161 192 251 302 362
#     4  10  22  45  62  83 124 161 189 244 320 360
#     4  10  22  41  66  89 118 155 199 252 298 362
#     4   9  18  30  56  85 114 150 202 245 280 339
#     4   8  14  32  53  80 112 156 195 237 296 332
#
# _framework density 19.142018
#
# number of rings (size 3 to 8) (size 9 to 14) (size 15 to 20)
#    0.000    2.000    2.222    3.333    3.111    0.444 
#    0.000    1.111    0.000    1.333    0.000    0.000 
#    0.000    0.000    0.000    0.000    0.000    0.000 
#
# Total GULP energy -223010.592565 kJ/mol
# GULP energy per Si atom -12389.477365 kJ/mol
# Density = 1.909845 g / cm^3
# Si number density = 19.142018 Si / 1000 Ang^3
#
#
#
# Elastic Constant Matrix: (Units=GPa)
#
#
# Indices 1 2 3 4 5 6 
#
# 1 124.9932 56.3291 37.3741 0.0000 1.3515 0.0000
# 2 56.3291 136.8492 45.2392 0.0000 -3.2898 0.0000
# 3 37.3741 45.2392 72.8507 0.0000 -3.8715 0.0000
# 4 0.0000 0.0000 0.0000 15.0234 0.0000 -23.2546
# 5 1.3515 -3.2898 -3.8715 0.0000 29.5796 0.0000
# 6 0.0000 0.0000 0.0000 -23.2546 0.0000 29.5970
#
#
#
# Elastic Compliance Matrix: (Units=1/GPa)
#
#
# Indices 1 2 3 4 5 6 
#
# 1 0.010494 -0.003206 -0.003461 0.000000 -0.001289 0.000000
# 2 -0.003206 0.010177 -0.004639 0.000000 0.000671 0.000000
# 3 -0.003461 -0.004639 0.018493 0.000000 0.002063 0.000000
# 4 0.000000 0.000000 0.000000 -0.307881 0.000000 -0.241905
# 5 -0.001289 0.000671 0.002063 0.000000 0.034211 0.000000
# 6 0.000000 0.000000 0.000000 -0.241905 0.000000 -0.156280
#
#
# Mechanical properties :
#
#
# Convention : Reuss Voigt Hill
#
# Bulk Modulus (GPa) = 60.42069 68.06421 64.24245
# Shear Modulus (GPa) = -13.78717 27.89003 7.05143
#
# Velocity S-wave (km/s) = -2.68667 3.82122 1.92139
# Velocity P-wave (km/s) = 4.69134 7.42318 6.20936
#
# Compressibility (1/GPa) = 0.01655062
#
# Stress axis : x y z
#
# Youngs Moduli (GPa) = 95.28991 98.26275 54.07524
#
# Poissons Ratio (x) = 0.31507 0.18717
# Poissons Ratio (y) = 0.30554 0.25086
# Poissons Ratio (z) = 0.32982 0.45584
#
# Static dielectric constant tensor:
#      x y z
#    x 3.920810 0.000000 -0.034720 
#    y 0.000000 4.480900 0.000000 
#    z -0.034720 0.000000 2.841100 
# 
# 
# High freq. dielectric constant tensor:
#      x y z
#    x 1.761220 0.000000 -0.001420 
#    y 0.000000 1.753710 0.000000 
#    z -0.001420 0.000000 1.711120 
# 
# From -- ./inp_files/42188.got.cif
#   From: 2010.06.25/outbox.cif.g09.slc.cpg/sg10_22_cif.got.tgz:42188.got - 2010.06.27 22:07:45.
