data_PCOD8067185
_publ_section_title
;
Structure prediction by ZEFSAII (Michael W. Deem and Ramdas Pophale) SiO2 
 PCOD8067185
Probable space group: P 2/M
;
_chemical_formula_sum "Si O2"
_cell_formula_units_Z 32
_cell_length_a 11.203987
_cell_length_b 8.579190
_cell_length_c 15.152070
_cell_angle_alpha 90.000000
_cell_angle_beta 85.519151
_cell_angle_gamma 90.000000
_cell_volume 1451.982552
_symmetry_space_group_name_H-M "P 2/M"
_symmetry_group_IT_number 10
_symmetry_cell_setting 'monoclinic'
loop_
_space_group_symop_operation_xyz
x,y,z
-x,y,-z
-x,-y,-z
x,-y,z
loop_
_atom_site_type_symbol
_atom_site_label
_atom_site_fract_x
_atom_site_fract_y
_atom_site_fract_z
Si Si1 0.384978 0.318516 0.951404
Si Si2 0.676323 0.676705 0.236573
Si Si3 0.122512 0.678334 0.210746
Si Si4 0.870508 0.819563 0.974304
Si Si5 0.107545 0.820472 0.700807
Si Si6 0.732942 0.177872 0.653256
Si Si7 0.491806 0.677251 0.397674
Si Si8 0.863258 0.674441 0.483317
O O1 0.381708 0.500000 0.973609
O O2 0.404737 0.283843 0.845334
O O3 0.500000 0.246873 0.000000
O O4 0.252032 0.256236 0.982277
O O5 0.722844 0.500000 0.223985
O O6 0.791406 0.790163 0.230792
O O7 0.612505 0.696571 0.334812
O O8 0.125692 0.500000 0.178064
O O9 0.128720 0.796556 0.129947
O O10 0.234921 0.711556 0.266774
O O11 0.005004 0.710874 0.274758
O O12 0.865198 0.000000 0.999778
O O13 0.000000 0.749721 0.000000
O O14 0.159939 0.770685 0.603817
O O15 0.068445 0.000000 0.704116
O O16 0.593462 0.199446 0.644570
O O17 0.800104 0.228549 0.561942
O O18 0.764336 0.000000 0.674073
O O19 0.500000 0.723712 0.500000
O O20 0.443483 0.500000 0.392953
O O21 0.807557 0.500000 0.477369
O O22 0.000000 0.660633 0.500000
#
# Coordination Sequence:
#
# PCOD8067185 Si02
#       8
#     4   4   4   4   4   4   4   4
#     4  10  23  43  68 100 134 177 229 280 333 403
#     4  10  22  41  66  94 130 175 222 267 319 388
#     4  12  25  42  66  94 128 171 217 265 322 396
#     4  11  25  45  69 100 136 172 216 278 345 406
#     4  12  24  39  63  96 133 168 213 271 329 386
#     4  12  25  40  62  94 131 167 211 269 330 386
#     4  10  22  41  65  93 128 174 223 267 315 383
#     4  11  22  38  61  88 123 171 217 261 316 387
#
# _framework density 22.038831999999999
#
# number of rings (size 3 to 8) (size 9 to 14) (size 15 to 20)
#    0.000    1.000    1.250    5.625    1.750    6.000 
#    0.000    0.000    0.000    0.000    0.000    0.000 
#    0.000    0.000    0.000    0.000    0.000    0.000 
#
# Total GULP energy -396719.082085 kJ/mol
# GULP energy per Si atom -12397.471315 kJ/mol
# Density = 2.198867 g / cm^3
# Si number density = 22.038832 Si / 1000 Ang^3
#
#
#
# Elastic Constant Matrix: (Units=GPa)
#
#
# Indices 1 2 3 4 5 6 
#
# 1 116.8388 30.8886 37.0634 0.0000 18.3056 0.0000
# 2 30.8886 81.9838 13.0777 0.0000 4.7088 0.0000
# 3 37.0634 13.0777 118.1281 0.0000 15.8896 0.0000
# 4 0.0000 0.0000 0.0000 28.2725 0.0000 -0.3240
# 5 18.3056 4.7088 15.8896 0.0000 32.4272 0.0000
# 6 0.0000 0.0000 0.0000 -0.3240 0.0000 29.5499
#
#
#
# Elastic Compliance Matrix: (Units=1/GPa)
#
#
# Indices 1 2 3 4 5 6 
#
# 1 0.010958 -0.003480 -0.002450 0.000000 -0.004480 0.000000
# 2 -0.003480 0.013567 -0.000438 0.000000 0.000209 0.000000
# 3 -0.002450 -0.000438 0.009729 0.000000 -0.003321 0.000000
# 4 0.000000 0.000000 0.000000 0.035375 0.000000 0.000388
# 5 -0.004480 0.000209 -0.003321 0.000000 0.034964 0.000000
# 6 0.000000 0.000000 0.000000 0.000388 0.000000 0.033845
#
#
# Mechanical properties :
#
#
# Convention : Reuss Voigt Hill
#
# Bulk Modulus (GPa) = 46.47592 53.22334 49.84963
# Shear Modulus (GPa) = 31.57607 33.77797 32.67702
#
# Velocity S-wave (km/s) = 3.78927 3.91916 3.85476
# Velocity P-wave (km/s) = 6.34655 6.68446 6.51770
#
# Compressibility (1/GPa) = 0.02151652
#
# Stress axis : x y z
#
# Youngs Moduli (GPa) = 91.25681 73.70984 102.78199
#
# Poissons Ratio (x) = 0.25654 0.25184
# Poissons Ratio (y) = 0.31762 0.04503
# Poissons Ratio (z) = 0.22360 0.03229
#
# Static dielectric constant tensor:
#      x y z
#    x 3.753050 0.000000 0.184790 
#    y 0.000000 3.821870 0.000000 
#    z 0.184790 0.000000 4.146280 
# 
# 
# High freq. dielectric constant tensor:
#      x y z
#    x 1.870960 0.000000 0.007720 
#    y 0.000000 1.855130 0.000000 
#    z 0.007720 0.000000 1.878780 
# 
# From -- ./inp_files/63836.got.cif
#   From: 2010.06.25/outbox.cif.g09.slc.cpg/sg10_32_cif.got.tgz:63836.got - 2010.06.27 22:07:45.
