data_PCOD8067992
_publ_section_title
;
Structure prediction by ZEFSAII (Michael W. Deem and Ramdas Pophale) SiO2 
 PCOD8067992
Probable space group: P 2/M
;
_chemical_formula_sum "Si O2"
_cell_formula_units_Z 32
_cell_length_a 20.684386
_cell_length_b 9.859606
_cell_length_c 20.684371
_cell_angle_alpha 90.000000
_cell_angle_beta 26.750952
_cell_angle_gamma 90.000000
_cell_volume 1898.743664
_symmetry_space_group_name_H-M "P 2/M"
_symmetry_group_IT_number 10
_symmetry_cell_setting 'monoclinic'
loop_
_space_group_symop_operation_xyz
x,y,z
-x,y,-z
-x,-y,-z
x,-y,z
loop_
_atom_site_type_symbol
_atom_site_label
_atom_site_fract_x
_atom_site_fract_y
_atom_site_fract_z
Si Si1 0.555315 0.843341 0.380682
Si Si2 0.747228 0.341970 0.924389
Si Si3 0.424392 0.658032 0.247226
Si Si4 0.494014 0.650147 0.325989
Si Si5 0.825986 0.650147 0.994017
Si Si6 0.799879 0.845362 0.623533
Si Si7 0.876472 0.154639 0.700116
Si Si8 0.880682 0.843340 0.055314
O O1 0.500000 0.797825 0.500000
O O2 0.465648 0.757779 0.408114
O O3 0.725011 0.813793 0.225011
O O4 0.520709 0.000000 0.398153
O O5 0.761106 0.500000 0.894715
O O6 0.808445 0.255245 0.811800
O O7 0.582116 0.301374 0.082114
O O8 0.839381 0.308844 0.906769
O O9 0.394719 0.500000 0.261103
O O10 0.406770 0.691161 0.339380
O O11 0.311801 0.744750 0.308443
O O12 0.446815 0.500000 0.391771
O O13 0.659760 0.647463 0.159762
O O14 0.891768 0.500000 0.946817
O O15 0.908114 0.757779 0.965648
O O16 0.800515 0.819377 0.699485
O O17 0.955168 0.814854 0.455173
O O18 0.754643 0.000000 0.649332
O O19 0.850671 0.000000 0.745352
O O20 0.898153 0.000000 0.020710
O O21 0.000000 0.797826 0.000000
#
# Coordination Sequence:
#
# PCOD8067992 Si02
#       8
#     4   4   4   4   4   4   4   4
#     4   9  17  29  45  65  89 117 149 184 222 265
#     4   9  18  32  50  73  98 122 153 195 238 279
#     4   9  18  32  50  73  98 122 153 195 238 279
#     4   8  15  29  47  66  90 119 149 183 224 269
#     4   8  15  29  47  66  90 119 149 183 224 269
#     4   9  19  35  51  68  94 127 160 193 231 277
#     4   9  19  35  51  68  94 127 160 193 231 277
#     4   9  17  29  45  65  89 117 149 184 222 265
#
# _framework density 16.853249999999999
#
# number of rings (size 3 to 8) (size 9 to 14) (size 15 to 20)
#    0.000    3.250    0.000    2.250    0.000    3.500 
#    0.000    7.500    0.000    4.500    0.000    0.000 
#    0.000    0.000    0.000    0.000    0.000    0.000 
#
# Total GULP energy -396700.893308 kJ/mol
# GULP energy per Si atom -12396.902916 kJ/mol
# Density = 1.681489 g / cm^3
# Si number density = 16.853250 Si / 1000 Ang^3
#
#
#
# Elastic Constant Matrix: (Units=GPa)
#
#
# Indices 1 2 3 4 5 6 
#
# 1 132.1275 86.3790 55.4777 0.0000 5.8800 0.0000
# 2 86.3790 95.3023 51.4358 0.0000 10.0888 0.0000
# 3 55.4777 51.4358 59.1060 0.0000 15.2009 0.0000
# 4 0.0000 0.0000 0.0000 27.2161 0.0000 3.6571
# 5 5.8800 10.0888 15.2009 0.0000 25.4521 0.0000
# 6 0.0000 0.0000 0.0000 3.6571 0.0000 39.8829
#
#
#
# Elastic Compliance Matrix: (Units=1/GPa)
#
#
# Indices 1 2 3 4 5 6 
#
# 1 0.020147 -0.014835 -0.007462 0.000000 0.005682 0.000000
# 2 -0.014835 0.030890 -0.012629 0.000000 -0.001274 0.000000
# 3 -0.007462 -0.012629 0.039204 0.000000 -0.016684 0.000000
# 4 0.000000 0.000000 0.000000 0.037201 0.000000 -0.003411
# 5 0.005682 -0.001274 -0.016684 0.000000 0.048446 0.000000
# 6 0.000000 0.000000 0.000000 -0.003411 0.000000 0.025386
#
#
# Mechanical properties :
#
#
# Convention : Reuss Voigt Hill
#
# Bulk Modulus (GPa) = 49.04728 74.79118 61.91923
# Shear Modulus (GPa) = 17.99057 24.72643 21.35850
#
# Velocity S-wave (km/s) = 3.27078 3.83451 3.56381
# Velocity P-wave (km/s) = 6.59013 8.00493 7.33173
#
# Compressibility (1/GPa) = 0.02038849
#
# Stress axis : x y z
#
# Youngs Moduli (GPa) = 49.63487 32.37300 25.50764
#
# Poissons Ratio (x) = 0.48025 0.19034
# Poissons Ratio (y) = 0.73633 0.32214
# Poissons Ratio (z) = 0.37038 0.40885
#
# Static dielectric constant tensor:
#      x y z
#    x 3.264390 0.000000 0.104540 
#    y 0.000000 3.241170 0.000000 
#    z 0.104540 0.000000 2.902180 
# 
# 
# High freq. dielectric constant tensor:
#      x y z
#    x 1.653450 0.000000 0.008580 
#    y 0.000000 1.652960 0.000000 
#    z 0.008580 0.000000 1.623720 
# 
# From -- ./inp_files/86133.got.cif
#   From: 2010.06.25/outbox.cif.g09.slc.cpg/sg10_44_cif.got.tgz:86133.got - 2010.06.27 22:07:45.
