data_PCOD8067674
_publ_section_title
;
Structure prediction by ZEFSAII (Michael W. Deem and Ramdas Pophale) SiO2 
 PCOD8067674
Probable space group: P 2/M
;
_chemical_formula_sum "Si O2"
_cell_formula_units_Z 24
_cell_length_a 12.115651
_cell_length_b 8.877859
_cell_length_c 24.070103
_cell_angle_alpha 90.000000
_cell_angle_beta 152.975952
_cell_angle_gamma 90.000000
_cell_volume 1176.351937
_symmetry_space_group_name_H-M "P 2/M"
_symmetry_group_IT_number 10
_symmetry_cell_setting 'monoclinic'
loop_
_space_group_symop_operation_xyz
x,y,z
-x,y,-z
-x,-y,-z
x,-y,z
loop_
_atom_site_type_symbol
_atom_site_label
_atom_site_fract_x
_atom_site_fract_y
_atom_site_fract_z
Si Si1 0.469865 0.173516 0.762147
Si Si2 0.937573 0.829600 0.337858
Si Si3 0.432703 0.677424 0.531256
Si Si4 0.836344 0.324085 0.004520
Si Si5 0.500949 0.829122 0.937368
Si Si6 0.677486 0.173009 0.742338
O O1 0.214528 0.223670 0.675686
O O2 0.693134 0.271533 0.885475
O O3 0.460534 0.191106 0.690989
O O4 0.517242 0.000000 0.801111
O O5 0.769327 0.817934 0.208201
O O6 0.163728 0.721780 0.429478
O O7 0.034425 0.000000 0.389555
O O8 0.500000 0.740681 0.500000
O O9 0.455565 0.500000 0.541733
O O10 0.623093 0.740232 0.661247
O O11 0.890905 0.500000 0.024683
O O12 0.675780 0.288573 0.986206
O O13 0.086219 0.235644 0.121590
O O14 0.600135 0.000000 0.975176
O O15 0.500000 0.777482 0.000000
O O16 0.716720 0.000000 0.744136
#
# Coordination Sequence:
#
# PCOD8067674 Si02
#       6
#     4   4   4   4   4   4
#     4   9  20  40  64  91 120 153 198 249 296 350
#     4   9  19  38  62  87 116 151 197 247 292 346
#     4  11  26  44  59  83 121 159 197 245 300 357
#     4  11  22  35  56  91 129 159 191 239 301 360
#     4   9  19  36  59  87 116 155 204 247 289 346
#     4  11  23  40  64  88 116 159 206 247 293 351
#
# _framework density 20.402058
#
# number of rings (size 3 to 8) (size 9 to 14) (size 15 to 20)
#    0.000    2.000    0.000    4.000    2.333    8.333 
#    0.000    3.333    0.000    0.000    0.000    0.000 
#    0.000    0.000    0.000    0.000    0.000    0.000 
#
# Total GULP energy -297605.255367 kJ/mol
# GULP energy per Si atom -12400.218974 kJ/mol
# Density = 2.035562 g / cm^3
# Si number density = 20.402058 Si / 1000 Ang^3
#
#
#
# Elastic Constant Matrix: (Units=GPa)
#
#
# Indices 1 2 3 4 5 6 
#
# 1 113.1904 33.5227 47.6495 0.0000 -16.7500 0.0000
# 2 33.5227 75.9629 32.3488 0.0000 -2.8267 0.0000
# 3 47.6495 32.3488 53.9531 0.0000 10.1107 0.0000
# 4 0.0000 0.0000 0.0000 32.1998 0.0000 -3.4100
# 5 -16.7500 -2.8267 10.1107 0.0000 29.9691 0.0000
# 6 0.0000 0.0000 0.0000 -3.4100 0.0000 3.7020
#
#
#
# Elastic Compliance Matrix: (Units=1/GPa)
#
#
# Indices 1 2 3 4 5 6 
#
# 1 0.021083 0.001246 -0.023055 0.000000 0.019679 0.000000
# 2 0.001246 0.018677 -0.013621 0.000000 0.007053 0.000000
# 3 -0.023055 -0.013621 0.053073 0.000000 -0.032076 0.000000
# 4 0.000000 0.000000 0.000000 0.034413 0.000000 0.031699
# 5 0.019679 0.007053 -0.032076 0.000000 0.055853 0.000000
# 6 0.000000 0.000000 0.000000 0.031699 0.000000 0.299321
#
#
# Mechanical properties :
#
#
# Convention : Reuss Voigt Hill
#
# Bulk Modulus (GPa) = 45.50642 52.23870 48.87256
# Shear Modulus (GPa) = 8.91895 21.81323 15.36609
#
# Velocity S-wave (km/s) = 2.09310 3.27336 2.74736
# Velocity P-wave (km/s) = 5.30987 6.32034 5.83701
#
# Compressibility (1/GPa) = 0.02197492
#
# Stress axis : x y z
#
# Youngs Moduli (GPa) = 47.43146 53.54122 18.84190
#
# Poissons Ratio (x) = -0.06672 0.43440
# Poissons Ratio (y) = -0.05910 0.25664
# Poissons Ratio (z) = 1.09352 0.72926
#
# Static dielectric constant tensor:
#      x y z
#    x 3.955890 0.000000 -0.070620 
#    y 0.000000 3.550430 0.000000 
#    z -0.070620 0.000000 3.523820 
# 
# 
# High freq. dielectric constant tensor:
#      x y z
#    x 1.812520 0.000000 -0.003970 
#    y 0.000000 1.787730 0.000000 
#    z -0.003970 0.000000 1.787460 
# 
# From -- ./inp_files/88744.got.cif
#   From: 2010.06.25/outbox.cif.g09.slc.cpg/sg10_45_cif.got.tgz:88744.got - 2010.06.27 22:07:45.
