data_PCOD8067847
_publ_section_title
;
Structure prediction by ZEFSAII (Michael W. Deem and Ramdas Pophale) SiO2 
 PCOD8067847
Probable space group: P 2/M
;
_chemical_formula_sum "Si O2"
_cell_formula_units_Z 16
_cell_length_a 9.268215
_cell_length_b 17.251417
_cell_length_c 8.125141
_cell_angle_alpha 90.000000
_cell_angle_beta 148.747134
_cell_angle_gamma 90.000000
_cell_volume 674.008165
_symmetry_space_group_name_H-M "P 2/M"
_symmetry_group_IT_number 10
_symmetry_cell_setting 'monoclinic'
loop_
_space_group_symop_operation_xyz
x,y,z
-x,y,-z
-x,-y,-z
x,-y,z
loop_
_atom_site_type_symbol
_atom_site_label
_atom_site_fract_x
_atom_site_fract_y
_atom_site_fract_z
Si Si1 0.887119 0.911374 0.208823
Si Si2 0.880445 0.329193 0.563944
Si Si3 0.380475 0.829193 0.563977
Si Si4 0.387088 0.588629 0.208804
O O1 0.135371 0.893151 0.322690
O O2 0.000000 0.893646 0.500000
O O3 0.791122 0.000000 0.093887
O O4 0.624669 0.855975 0.924246
O O5 0.750012 0.249994 0.499996
O O6 0.635303 0.393142 0.322616
O O7 0.000000 0.318395 0.500000
O O8 0.124602 0.355984 0.924195
O O9 0.500000 0.818379 0.500000
O O10 0.500000 0.606376 0.500000
O O11 0.291120 0.500000 0.093928
#
# Coordination Sequence:
#
# PCOD8067847 Si02
#       4
#     4   4   4   4
#     4  11  25  46  72 102 138 180 227 282 344 408
#     4  12  26  45  69 101 141 182 229 282 340 408
#     4  12  26  45  69 101 141 182 229 282 340 408
#     4  11  25  46  72 102 138 180 227 282 344 408
#
# _framework density 23.738582999999998
#
# number of rings (size 3 to 8) (size 9 to 14) (size 15 to 20)
#    0.000    0.500    0.000    7.500    0.000   14.000 
#    0.000    0.000    0.000    0.000    0.000    0.000 
#    0.000    0.000    0.000    0.000    0.000    0.000 
#
# Total GULP energy -198504.835193 kJ/mol
# GULP energy per Si atom -12406.552200 kJ/mol
# Density = 2.368455 g / cm^3
# Si number density = 23.738583 Si / 1000 Ang^3
#
#
#
# Elastic Constant Matrix: (Units=GPa)
#
#
# Indices 1 2 3 4 5 6 
#
# 1 150.1159 92.3498 60.8417 0.0000 17.5745 0.0000
# 2 92.3498 163.5697 106.9170 0.0000 -8.2910 0.0000
# 3 60.8417 106.9170 190.7024 0.0000 14.3140 0.0000
# 4 0.0000 0.0000 0.0000 42.9151 0.0000 -14.2752
# 5 17.5745 -8.2910 14.3140 0.0000 40.2918 0.0000
# 6 0.0000 0.0000 0.0000 -14.2752 0.0000 2.3833
#
#
#
# Elastic Compliance Matrix: (Units=1/GPa)
#
#
# Indices 1 2 3 4 5 6 
#
# 1 0.011827 -0.007774 0.001122 0.000000 -0.007157 0.000000
# 2 -0.007774 0.015436 -0.006850 0.000000 0.009000 0.000000
# 3 0.001122 -0.006850 0.009111 0.000000 -0.005136 0.000000
# 4 0.000000 0.000000 0.000000 -0.023480 0.000000 -0.140638
# 5 -0.007157 0.009000 -0.005136 0.000000 0.031617 0.000000
# 6 0.000000 0.000000 0.000000 -0.140638 0.000000 -0.422796
#
#
# Mechanical properties :
#
#
# Convention : Reuss Voigt Hill
#
# Bulk Modulus (GPa) = 106.69821 113.84502 110.27161
# Shear Modulus (GPa) = -14.36127 33.40332 9.52103
#
# Velocity S-wave (km/s) = -2.46229 3.75525 2.00487
# Velocity P-wave (km/s) = 6.07955 8.17707 7.20504
#
# Compressibility (1/GPa) = 0.00937223
#
# Stress axis : x y z
#
# Youngs Moduli (GPa) = 84.55367 64.78386 109.75202
#
# Poissons Ratio (x) = 0.50360 -0.12317
# Poissons Ratio (y) = 0.65729 0.75176
# Poissons Ratio (z) = -0.09489 0.44374
#
# Static dielectric constant tensor:
#      x y z
#    x 4.561910 0.000000 0.341610 
#    y 0.000000 4.396990 0.000000 
#    z 0.341610 0.000000 4.554930 
# 
# 
# High freq. dielectric constant tensor:
#      x y z
#    x 1.950790 0.000000 0.014420 
#    y 0.000000 1.950270 0.000000 
#    z 0.014420 0.000000 1.958490 
# 
# From -- ./inp_files/20357.got.cif
#   From: 2010.06.25/outbox.cif.g09.slc.cpg/sg10_11_cif.got.tgz:20357.got - 2010.06.27 22:07:45.
