data_PCOD8067753
_publ_section_title
;
Structure prediction by ZEFSAII (Michael W. Deem and Ramdas Pophale) SiO2 
 PCOD8067753
Probable space group: P 2/M
;
_chemical_formula_sum "Si O2"
_cell_formula_units_Z 28
_cell_length_a 9.090234
_cell_length_b 16.248792
_cell_length_c 10.729159
_cell_angle_alpha 90.000000
_cell_angle_beta 66.273496
_cell_angle_gamma 90.000000
_cell_volume 1450.805032
_symmetry_space_group_name_H-M "P 2/M"
_symmetry_group_IT_number 10
_symmetry_cell_setting 'monoclinic'
loop_
_space_group_symop_operation_xyz
x,y,z
-x,y,-z
-x,-y,-z
x,-y,z
loop_
_atom_site_type_symbol
_atom_site_label
_atom_site_fract_x
_atom_site_fract_y
_atom_site_fract_z
Si Si1 0.721203 0.755525 0.841587
Si Si2 0.809782 0.407500 0.421415
Si Si3 0.816596 0.407242 0.709112
Si Si4 0.028647 0.841058 0.630819
Si Si5 0.331181 0.248861 0.618094
Si Si6 0.267873 0.000000 0.925120
Si Si7 0.993342 0.000000 0.199241
Si Si8 0.391025 0.820266 0.865131
O O1 0.712539 0.656529 0.827457
O O2 0.577661 0.798888 0.815488
O O3 0.888705 0.782460 0.726699
O O4 0.713024 0.778598 0.989697
O O5 0.752673 0.500000 0.410679
O O6 0.784629 0.387457 0.575406
O O7 0.699994 0.347028 0.375376
O O8 0.995967 0.397124 0.322959
O O9 0.760319 0.500000 0.760446
O O10 0.195207 0.792554 0.580089
O O11 0.000000 0.868544 0.500000
O O12 0.041051 0.921084 0.708575
O O13 0.500000 0.224857 0.500000
O O14 0.320147 0.215820 0.762198
O O15 0.130574 0.000000 0.870119
O O16 0.378065 0.080719 0.874601
O O17 0.177974 0.000000 0.089381
#
# Coordination Sequence:
#
# PCOD8067753 Si02
#       8
#     4   4   4   4   4   2   2   4
#     4  11  23  41  64  94 122 167 213 253 305 378
#     4   9  18  34  61  92 126 162 206 254 303 365
#     4   9  17  35  62  93 125 164 205 250 304 367
#     4  12  23  40  65  93 125 161 213 260 306 370
#     4  12  24  40  62  93 128 163 206 262 315 368
#     4  11  22  44  65  90 126 164 207 264 311 374
#     4  11  23  41  66  93 120 163 216 249 318 374
#     4  11  25  42  64  90 125 164 211 257 321 363
#
# _framework density 19.299631000000002
#
# number of rings (size 3 to 8) (size 9 to 14) (size 15 to 20)
#    0.000    1.286    4.286    3.643    0.000    2.571 
#    0.000    5.714    0.000    1.714    0.000    0.000 
#    0.000    0.000    0.000    0.000    0.000    0.000 
#
# Total GULP energy -347286.020232 kJ/mol
# GULP energy per Si atom -12403.072151 kJ/mol
# Density = 1.925570 g / cm^3
# Si number density = 19.299631 Si / 1000 Ang^3
#
#
#
# Elastic Constant Matrix: (Units=GPa)
#
#
# Indices 1 2 3 4 5 6 
#
# 1 81.9842 40.5119 37.8928 0.0000 -11.3978 0.0000
# 2 40.5119 164.9669 56.6802 0.0000 -4.8809 0.0000
# 3 37.8928 56.6802 84.6826 0.0000 0.3024 0.0000
# 4 0.0000 0.0000 0.0000 4.8854 0.0000 5.1021
# 5 -11.3978 -4.8809 0.3024 0.0000 29.3135 0.0000
# 6 0.0000 0.0000 0.0000 5.1021 0.0000 35.3401
#
#
#
# Elastic Compliance Matrix: (Units=1/GPa)
#
#
# Indices 1 2 3 4 5 6 
#
# 1 0.016915 -0.001763 -0.006411 0.000000 0.006349 0.000000
# 2 -0.001763 0.008111 -0.004642 0.000000 0.000713 0.000000
# 3 -0.006411 -0.004642 0.017797 0.000000 -0.003450 0.000000
# 4 0.000000 0.000000 0.000000 0.241037 0.000000 -0.034799
# 5 0.006349 0.000713 -0.003450 0.000000 0.036737 0.000000
# 6 0.000000 0.000000 0.000000 -0.034799 0.000000 0.033321
#
#
# Mechanical properties :
#
#
# Convention : Reuss Voigt Hill
#
# Bulk Modulus (GPa) = 58.17649 66.86705 62.52177
# Shear Modulus (GPa) = 12.97754 27.01104 19.99429
#
# Velocity S-wave (km/s) = 2.59593 3.74513 3.22218
# Velocity P-wave (km/s) = 6.26054 7.30913 6.80506
#
# Compressibility (1/GPa) = 0.01718907
#
# Stress axis : x y z
#
# Youngs Moduli (GPa) = 59.12000 123.28948 56.18818
#
# Poissons Ratio (x) = 0.21738 0.36024
# Poissons Ratio (y) = 0.10424 0.26085
# Poissons Ratio (z) = 0.37904 0.57237
#
# Static dielectric constant tensor:
#      x y z
#    x 3.464190 0.000000 0.022560 
#    y 0.000000 4.657100 0.000000 
#    z 0.022560 0.000000 3.481780 
# 
# 
# High freq. dielectric constant tensor:
#      x y z
#    x 1.748940 0.000000 -0.000490 
#    y 0.000000 1.767240 0.000000 
#    z -0.000490 0.000000 1.740010 
# 
# From -- ./inp_files/25444.got.cif
#   From: 2010.06.25/outbox.cif.g09.slc.cpg/sg10_13_cif.got.tgz:25444.got - 2010.06.27 22:07:45.
