data_PCOD8067529
_publ_section_title
;
Structure prediction by ZEFSAII (Michael W. Deem and Ramdas Pophale) SiO2 
 PCOD8067529
Probable space group: P 2/M
;
_chemical_formula_sum "Si O2"
_cell_formula_units_Z 28
_cell_length_a 14.753867
_cell_length_b 12.401613
_cell_length_c 9.682824
_cell_angle_alpha 90.000000
_cell_angle_beta 116.314199
_cell_angle_gamma 90.000000
_cell_volume 1588.095402
_symmetry_space_group_name_H-M "P 2/M"
_symmetry_group_IT_number 10
_symmetry_cell_setting 'monoclinic'
loop_
_space_group_symop_operation_xyz
x,y,z
-x,y,-z
-x,-y,-z
x,-y,z
loop_
_atom_site_type_symbol
_atom_site_label
_atom_site_fract_x
_atom_site_fract_y
_atom_site_fract_z
Si Si1 0.377774 0.879145 0.302569
Si Si2 0.202521 0.170907 0.984092
Si Si3 0.102287 0.000000 0.485509
Si Si4 0.762330 0.811687 0.299765
Si Si5 0.031986 0.000000 0.865944
Si Si6 0.407056 0.872199 0.624202
Si Si7 0.091559 0.378795 0.960076
Si Si8 0.094181 0.621271 0.645680
O O1 0.362369 0.831355 0.445791
O O2 0.475745 0.831430 0.288273
O O3 0.412250 0.000000 0.356343
O O4 0.275723 0.879483 0.146548
O O5 0.257266 0.159995 0.873603
O O6 0.097958 0.107526 0.889704
O O7 0.181405 0.291161 0.029223
O O8 0.166572 0.894747 0.568380
O O9 0.000000 0.000000 0.500000
O O10 0.067294 0.000000 0.300454
O O11 0.653703 0.807675 0.299395
O O12 0.810053 0.692964 0.329139
O O13 0.000000 0.000000 0.000000
O O14 0.391792 0.000000 0.640858
O O15 0.130948 0.500000 0.023774
O O16 0.056651 0.374193 0.778180
O O17 0.000000 0.346662 0.000000
O O18 0.121827 0.500000 0.619290
O O19 0.000000 0.668693 0.500000
#
# Coordination Sequence:
#
# PCOD8067529 Si02
#       8
#     4   4   2   4   2   4   4   4
#     4   9  19  35  53  73 104 130 169 213 250 305
#     4  11  21  34  50  77 104 133 169 210 252 303
#     4  12  22  36  47  72 113 139 164 205 252 308
#     4  11  21  32  53  75 102 138 168 202 259 305
#     4  12  26  34  47  76 109 139 172 203 252 302
#     4   9  19  35  53  75  98 136 170 205 257 306
#     4   9  19  35  52  71  99 136 176 212 249 294
#     4   9  19  34  51  72 100 135 176 213 244 292
#
# _framework density 17.631183
#
# number of rings (size 3 to 8) (size 9 to 14) (size 15 to 20)
#    0.000    2.000    2.857    1.714    4.000    1.714 
#    0.000    1.429    0.000    0.857    0.000    6.000 
#    0.000    0.000    0.000    0.000    0.000    0.000 
#
# Total GULP energy -346946.361288 kJ/mol
# GULP energy per Si atom -12390.941475 kJ/mol
# Density = 1.759105 g / cm^3
# Si number density = 17.631183 Si / 1000 Ang^3
#
#
#
# Elastic Constant Matrix: (Units=GPa)
#
#
# Indices 1 2 3 4 5 6 
#
# 1 100.3025 27.6073 22.9450 0.0000 -28.3685 0.0000
# 2 27.6073 61.0956 19.9433 0.0000 -7.0812 0.0000
# 3 22.9450 19.9433 76.7066 0.0000 -3.8988 0.0000
# 4 0.0000 0.0000 0.0000 16.1771 0.0000 -2.6694
# 5 -28.3685 -7.0812 -3.8988 0.0000 30.0402 0.0000
# 6 0.0000 0.0000 0.0000 -2.6694 0.0000 15.5705
#
#
#
# Elastic Compliance Matrix: (Units=1/GPa)
#
#
# Indices 1 2 3 4 5 6 
#
# 1 0.015650 -0.004612 -0.002805 0.000000 0.013328 0.000000
# 2 -0.004612 0.019648 -0.003740 0.000000 -0.000209 0.000000
# 3 -0.002805 -0.003740 0.014766 0.000000 -0.001614 0.000000
# 4 0.000000 0.000000 0.000000 0.063615 0.000000 0.010906
# 5 0.013328 -0.000209 -0.001614 0.000000 0.045617 0.000000
# 6 0.000000 0.000000 0.000000 0.010906 0.000000 0.066094
#
#
# Mechanical properties :
#
#
# Convention : Reuss Voigt Hill
#
# Bulk Modulus (GPa) = 36.03312 42.12175 39.07743
# Shear Modulus (GPa) = 19.45876 23.53150 21.49513
#
# Velocity S-wave (km/s) = 3.32574 3.65725 3.49543
# Velocity P-wave (km/s) = 5.93539 6.46346 6.20505
#
# Compressibility (1/GPa) = 0.02775225
#
# Stress axis : x y z
#
# Youngs Moduli (GPa) = 63.89583 50.89545 67.72320
#
# Poissons Ratio (x) = 0.23471 0.18997
# Poissons Ratio (y) = 0.29466 0.25326
# Poissons Ratio (z) = 0.17923 0.19033
#
# Static dielectric constant tensor:
#      x y z
#    x 3.720360 0.000000 0.152810 
#    y 0.000000 3.301150 0.000000 
#    z 0.152810 0.000000 3.529990 
# 
# 
# High freq. dielectric constant tensor:
#      x y z
#    x 1.677210 0.000000 -0.016490 
#    y 0.000000 1.660080 0.000000 
#    z -0.016490 0.000000 1.683650 
# 
# From -- ./inp_files/29234.got.cif
#   From: 2010.06.25/outbox.cif.g09.slc.cpg/sg10_15_cif.got.tgz:29234.got - 2010.06.27 22:07:45.
