data_PCOD8067704
_publ_section_title
;
Structure prediction by ZEFSAII (Michael W. Deem and Ramdas Pophale) SiO2 
 PCOD8067704
Probable space group: P 2/M
;
_chemical_formula_sum "Si O2"
_cell_formula_units_Z 24
_cell_length_a 11.432899
_cell_length_b 8.480041
_cell_length_c 21.836432
_cell_angle_alpha 90.000000
_cell_angle_beta 31.022915
_cell_angle_gamma 90.000000
_cell_volume 1091.099294
_symmetry_space_group_name_H-M "P 2/M"
_symmetry_group_IT_number 10
_symmetry_cell_setting 'monoclinic'
loop_
_space_group_symop_operation_xyz
x,y,z
-x,y,-z
-x,-y,-z
x,-y,z
loop_
_atom_site_type_symbol
_atom_site_label
_atom_site_fract_x
_atom_site_fract_y
_atom_site_fract_z
Si Si1 0.064703 0.182264 0.310177
Si Si2 0.367556 0.816488 0.740642
Si Si3 0.857007 0.179055 0.972320
Si Si4 0.413395 0.315424 0.472349
Si Si5 0.442514 0.317149 0.225844
Si Si6 0.237667 0.680964 0.110040
O O1 0.241036 0.222381 0.284361
O O2 0.109241 0.287502 0.230652
O O3 0.811822 0.220883 0.446106
O O4 0.090020 0.000000 0.281694
O O5 0.396550 0.726191 0.663289
O O6 0.539786 0.745195 0.712963
O O7 0.112785 0.789746 0.880898
O O8 0.417643 0.000000 0.708091
O O9 0.860943 0.206201 0.897791
O O10 0.783057 0.000000 0.020053
O O11 0.679653 0.295039 0.083835
O O12 0.500000 0.259437 0.500000
O O13 0.361512 0.500000 0.495685
O O14 0.379453 0.500000 0.254104
O O15 0.199148 0.500000 0.108361
O O16 0.500000 0.721297 0.000000
#
# Coordination Sequence:
#
# PCOD8067704 Si02
#       6
#     4   4   4   4   4   4
#     4  12  25  42  67  96 131 171 215 267 322 380
#     4  11  25  44  66  95 130 170 218 265 318 382
#     4  11  23  40  65  96 132 172 215 267 322 381
#     4  11  25  46  71  98 130 167 212 264 319 381
#     4  12  25  42  65  95 131 171 217 266 322 384
#     4  11  22  37  61  94 130 167 210 262 317 376
#
# _framework density 21.996165000000001
#
# number of rings (size 3 to 8) (size 9 to 14) (size 15 to 20)
#    0.000    0.667    1.667    6.500    0.000   10.000 
#    0.000    3.333    0.000    0.000    0.000    0.000 
#    0.000    0.000    0.000    0.000    0.000    0.000 
#
# Total GULP energy -297816.671677 kJ/mol
# GULP energy per Si atom -12409.027987 kJ/mol
# Density = 2.194610 g / cm^3
# Si number density = 21.996165 Si / 1000 Ang^3
#
#
#
# Elastic Constant Matrix: (Units=GPa)
#
#
# Indices 1 2 3 4 5 6 
#
# 1 104.3144 26.7707 22.6374 0.0000 7.1207 0.0000
# 2 26.7707 79.5596 20.1654 0.0000 -11.2018 0.0000
# 3 22.6374 20.1654 84.1509 0.0000 -4.3021 0.0000
# 4 0.0000 0.0000 0.0000 36.2668 0.0000 2.8444
# 5 7.1207 -11.2018 -4.3021 0.0000 33.0311 0.0000
# 6 0.0000 0.0000 0.0000 2.8444 0.0000 28.9092
#
#
#
# Elastic Compliance Matrix: (Units=1/GPa)
#
#
# Indices 1 2 3 4 5 6 
#
# 1 0.011345 -0.003790 -0.002350 0.000000 -0.004037 0.000000
# 2 -0.003790 0.015238 -0.002342 0.000000 0.005680 0.000000
# 3 -0.002350 -0.002342 0.013150 0.000000 0.001425 0.000000
# 4 0.000000 0.000000 0.000000 0.027788 0.000000 -0.002734
# 5 -0.004037 0.005680 0.001425 0.000000 0.033257 0.000000
# 6 0.000000 0.000000 0.000000 -0.002734 0.000000 0.034860
#
#
# Mechanical properties :
#
#
# Convention : Reuss Voigt Hill
#
# Bulk Modulus (GPa) = 43.91999 45.24134 44.58066
# Shear Modulus (GPa) = 31.21312 32.87151 32.04231
#
# Velocity S-wave (km/s) = 3.77108 3.86997 3.82084
# Velocity P-wave (km/s) = 6.24275 6.37035 6.30687
#
# Compressibility (1/GPa) = 0.02276868
#
# Stress axis : x y z
#
# Youngs Moduli (GPa) = 88.14758 65.62680 76.04823
#
# Poissons Ratio (x) = 0.24873 0.17871
# Poissons Ratio (y) = 0.33409 0.17807
# Poissons Ratio (z) = 0.20714 0.15367
#
# Static dielectric constant tensor:
#      x y z
#    x 4.062400 0.000000 -0.071040 
#    y 0.000000 3.888010 0.000000 
#    z -0.071040 0.000000 3.915070 
# 
# 
# High freq. dielectric constant tensor:
#      x y z
#    x 1.876780 0.000000 -0.002270 
#    y 0.000000 1.871830 0.000000 
#    z -0.002270 0.000000 1.863160 
# 
# From -- ./inp_files/88614.got.cif
#   From: 2010.06.25/outbox.cif.g09.slc.cpg/sg10_45_cif.got.tgz:88614.got - 2010.06.27 22:07:45.
