data_PCOD8067106
_publ_section_title
;
Structure prediction by ZEFSAII (Michael W. Deem and Ramdas Pophale) SiO2 
 PCOD8067106
Probable space group: P 2/M
;
_chemical_formula_sum "Si O2"
_cell_formula_units_Z 18
_cell_length_a 9.319161
_cell_length_b 20.916508
_cell_length_c 8.183160
_cell_angle_alpha 90.000000
_cell_angle_beta 147.490632
_cell_angle_gamma 90.000000
_cell_volume 857.264822
_symmetry_space_group_name_H-M "P 2/M"
_symmetry_group_IT_number 10
_symmetry_cell_setting 'monoclinic'
loop_
_space_group_symop_operation_xyz
x,y,z
-x,y,-z
-x,-y,-z
x,-y,z
loop_
_atom_site_type_symbol
_atom_site_label
_atom_site_fract_x
_atom_site_fract_y
_atom_site_fract_z
Si Si1 0.579010 0.690541 0.262467
Si Si2 0.735538 0.171574 0.345226
Si Si3 0.246245 0.926910 0.355061
Si Si4 0.915173 0.624034 0.102201
Si Si5 0.234806 0.500000 0.851182
O O1 0.650388 0.764595 0.359721
O O2 0.829604 0.646220 0.548343
O O3 0.500000 0.676071 0.000000
O O4 0.318978 0.677234 0.124145
O O5 0.801908 0.114687 0.531414
O O6 0.000000 0.188789 0.500000
O O7 0.500000 0.148328 0.000000
O O8 0.500000 0.901282 0.500000
O O9 0.287231 0.000000 0.451205
O O10 0.000000 0.919258 0.000000
O O11 0.780352 0.561448 0.048083
O O12 0.000000 0.609342 0.000000
O O13 0.000000 0.500000 0.500000
O O14 0.500000 0.500000 0.000000
#
# Coordination Sequence:
#
# PCOD8067106 Si02
#       5
#     4   4   4   4   2
#     4  11  23  42  63  88 124 163 201 245 304 367
#     4  11  23  39  62  91 121 159 206 254 298 355
#     4  10  22  40  61  88 124 163 202 249 306 364
#     4  12  25  42  64  94 124 155 202 255 300 353
#     4  12  25  42  67  90 119 164 203 242 303 364
#
# _framework density 20.997011000000001
#
# number of rings (size 3 to 8) (size 9 to 14) (size 15 to 20)
#    0.000    0.889    0.000    9.000    0.000    3.556 
#    0.000    3.333    0.000    0.000    0.000    0.000 
#    0.000    0.000    0.000    0.000    0.000    0.000 
#
# Total GULP energy -223317.750970 kJ/mol
# GULP energy per Si atom -12406.541721 kJ/mol
# Density = 2.094922 g / cm^3
# Si number density = 20.997011 Si / 1000 Ang^3
#
#
#
# Elastic Constant Matrix: (Units=GPa)
#
#
# Indices 1 2 3 4 5 6 
#
# 1 138.2944 72.2407 45.0064 0.0000 18.1290 0.0000
# 2 72.2407 116.0311 43.0116 0.0000 -6.0382 0.0000
# 3 45.0064 43.0116 117.3617 0.0000 21.6571 0.0000
# 4 0.0000 0.0000 0.0000 -292.1564 0.0000 -752.4311
# 5 18.1290 -6.0382 21.6571 0.0000 40.5324 0.0000
# 6 0.0000 0.0000 0.0000 -752.4311 0.0000-1757.5469
#
#
#
# Elastic Compliance Matrix: (Units=1/GPa)
#
#
# Indices 1 2 3 4 5 6 
#
# 1 0.012332 -0.007730 -0.000738 0.000000 -0.006273 0.000000
# 2 -0.007730 0.015381 -0.004142 0.000000 0.007962 0.000000
# 3 -0.000738 -0.004142 0.011509 0.000000 -0.006436 0.000000
# 4 0.000000 0.000000 0.000000 0.033366 0.000000 -0.014285
# 5 -0.006273 0.007962 -0.006436 0.000000 0.032102 0.000000
# 6 0.000000 0.000000 0.000000 -0.014285 0.000000 0.005546
#
#
# Mechanical properties :
#
#
# Convention : Reuss Voigt Hill
#
# Bulk Modulus (GPa) = 71.42284 76.91161 74.16723
# Shear Modulus (GPa) = 35.68243 -387.73893 -176.02825
#
# Velocity S-wave (km/s) = 4.12686 -13.60385 -9.16607
# Velocity P-wave (km/s) = 7.53641 14.49288 8.75346
#
# Compressibility (1/GPa) = 0.01400112
#
# Stress axis : x y z
#
# Youngs Moduli (GPa) = 81.09230 65.01582 86.88533
#
# Poissons Ratio (x) = 0.50259 0.06416
# Poissons Ratio (y) = 0.62687 0.35985
# Poissons Ratio (z) = 0.05988 0.26927
#
# Static dielectric constant tensor:
#      x y z
#    x 3.737780 0.000000 0.184850 
#    y 0.000000 3.952160 0.000000 
#    z 0.184850 0.000000 3.906870 
# 
# 
# High freq. dielectric constant tensor:
#      x y z
#    x 1.823560 0.000000 0.013050 
#    y 0.000000 1.827560 0.000000 
#    z 0.013050 0.000000 1.843730 
# 
# From -- ./inp_files/20039.got.cif
#   From: 2010.06.25/outbox.cif.g09.slc.cpg/sg10_11_cif.got.tgz:20039.got - 2010.06.27 22:07:45.
