data_PCOD8067431
_publ_section_title
;
Structure prediction by ZEFSAII (Michael W. Deem and Ramdas Pophale) SiO2 
 PCOD8067431
Probable space group: P 2/M
;
_chemical_formula_sum "Si O2"
_cell_formula_units_Z 24
_cell_length_a 13.837270
_cell_length_b 11.434906
_cell_length_c 19.737565
_cell_angle_alpha 90.000000
_cell_angle_beta 153.876211
_cell_angle_gamma 90.000000
_cell_volume 1375.108919
_symmetry_space_group_name_H-M "P 2/M"
_symmetry_group_IT_number 10
_symmetry_cell_setting 'monoclinic'
loop_
_space_group_symop_operation_xyz
x,y,z
-x,y,-z
-x,-y,-z
x,-y,z
loop_
_atom_site_type_symbol
_atom_site_label
_atom_site_fract_x
_atom_site_fract_y
_atom_site_fract_z
Si Si1 0.341707 0.000000 0.834756
Si Si2 0.370994 0.750500 0.806934
Si Si3 0.000196 0.634443 0.659585
Si Si4 0.807497 0.636584 0.930136
Si Si5 0.878154 0.000000 0.496926
Si Si6 0.355852 0.754077 0.645894
Si Si7 0.184279 0.367590 0.913165
O O1 0.397699 0.110336 0.823601
O O2 0.500000 0.000000 0.000000
O O3 0.073913 0.000000 0.677358
O O4 0.304219 0.709361 0.689533
O O5 0.186921 0.712707 0.743415
O O6 0.604112 0.703523 0.976807
O O7 0.046637 0.500000 0.671050
O O8 0.766531 0.672308 0.484550
O O9 0.997169 0.656178 0.739041
O O10 0.733977 0.500000 0.876294
O O11 0.611884 0.728463 0.792166
O O12 0.899050 0.662262 0.063689
O O13 0.000000 0.667818 0.000000
O O14 0.720234 0.888435 0.409292
O O15 0.000000 0.000000 0.500000
O O16 0.263889 0.500000 0.960685
#
# Coordination Sequence:
#
# PCOD8067431 Si02
#       7
#     2   4   4   4   2   4   4
#     4  12  22  32  50  74 104 149 184 204 246 305
#     4  11  20  32  48  72 109 144 177 207 249 315
#     4  11  20  30  47  76 109 139 171 211 260 316
#     4   9  19  38  60  79 101 133 178 227 271 317
#     4  12  20  38  51  76 114 145 175 218 255 304
#     4  11  21  34  53  76 104 141 179 217 261 310
#     4   9  19  33  50  75 106 138 171 214 264 311
#
# _framework density 17.453164000000001
#
# number of rings (size 3 to 8) (size 9 to 14) (size 15 to 20)
#    0.000    1.500    3.333    3.000    0.000    4.000 
#    0.000    1.250    0.000    4.000    0.000    1.167 
#    0.000    0.000    0.000    0.000    0.000    0.000 
#
# Total GULP energy -297455.353413 kJ/mol
# GULP energy per Si atom -12393.973059 kJ/mol
# Density = 1.741344 g / cm^3
# Si number density = 17.453164 Si / 1000 Ang^3
#
#
#
# Elastic Constant Matrix: (Units=GPa)
#
#
# Indices 1 2 3 4 5 6 
#
# 1 99.0684 39.2964 65.4125 0.0000 2.0390 0.0000
# 2 39.2964 79.6831 51.8717 0.0000 -0.4711 0.0000
# 3 65.4125 51.8717 120.9439 0.0000 -18.4335 0.0000
# 4 0.0000 0.0000 0.0000 46.9657 0.0000 4.2714
# 5 2.0390 -0.4711 -18.4335 0.0000 24.9411 0.0000
# 6 0.0000 0.0000 0.0000 4.2714 0.0000 18.8528
#
#
#
# Elastic Compliance Matrix: (Units=1/GPa)
#
#
# Indices 1 2 3 4 5 6 
#
# 1 0.017785 -0.002333 -0.009969 0.000000 -0.008866 0.000000
# 2 -0.002333 0.018508 -0.007431 0.000000 -0.004952 0.000000
# 3 -0.009969 -0.007431 0.019102 0.000000 0.014792 0.000000
# 4 0.000000 0.000000 0.000000 0.021740 0.000000 -0.004926
# 5 -0.008866 -0.004952 0.014792 0.000000 0.051659 0.000000
# 6 0.000000 0.000000 0.000000 -0.004926 0.000000 0.054158
#
#
# Mechanical properties :
#
#
# Convention : Reuss Voigt Hill
#
# Bulk Modulus (GPa) = 62.78313 68.09518 65.43915
# Shear Modulus (GPa) = 21.95601 27.69291 24.82446
#
# Velocity S-wave (km/s) = 3.55067 3.98766 3.77549
# Velocity P-wave (km/s) = 7.27050 7.76547 7.52206
#
# Compressibility (1/GPa) = 0.01592785
#
# Stress axis : x y z
#
# Youngs Moduli (GPa) = 56.22841 54.02970 52.35096
#
# Poissons Ratio (x) = 0.12606 0.52191
# Poissons Ratio (y) = 0.13119 0.38901
# Poissons Ratio (z) = 0.56057 0.40149
#
# Static dielectric constant tensor:
#      x y z
#    x 3.106670 0.000000 -0.334790 
#    y 0.000000 3.379130 0.000000 
#    z -0.334790 0.000000 3.450780 
# 
# 
# High freq. dielectric constant tensor:
#      x y z
#    x 1.643520 0.000000 -0.027890 
#    y 0.000000 1.678410 0.000000 
#    z -0.027890 0.000000 1.679570 
# 
# From -- ./inp_files/27806.got.cif
#   From: 2010.06.25/outbox.cif.g09.slc.cpg/sg10_14_cif.got.tgz:27806.got - 2010.06.27 22:07:45.
