data_PCOD8067342
_publ_section_title
;
Structure prediction by ZEFSAII (Michael W. Deem and Ramdas Pophale) SiO2 
 PCOD8067342
Probable space group: P 2/M
;
_chemical_formula_sum "Si O2"
_cell_formula_units_Z 12
_cell_length_a 5.222841
_cell_length_b 16.730885
_cell_length_c 5.242059
_cell_angle_alpha 90.000000
_cell_angle_beta 88.923952
_cell_angle_gamma 90.000000
_cell_volume 457.984763
_symmetry_space_group_name_H-M "P 2/M"
_symmetry_group_IT_number 10
_symmetry_cell_setting 'monoclinic'
loop_
_space_group_symop_operation_xyz
x,y,z
-x,y,-z
-x,-y,-z
x,-y,z
loop_
_atom_site_type_symbol
_atom_site_label
_atom_site_fract_x
_atom_site_fract_y
_atom_site_fract_z
Si Si1 0.172306 0.672476 0.248289
Si Si2 0.166974 0.500000 0.247668
Si Si3 0.239072 0.909907 0.661644
Si Si4 0.500000 0.795331 0.000000
O O1 0.318027 0.584926 0.251213
O O2 0.000000 0.686844 0.500000
O O3 0.392239 0.739700 0.230843
O O4 0.000000 0.679383 0.000000
O O5 0.000000 0.500000 0.500000
O O6 0.000000 0.500000 0.000000
O O7 0.500000 0.906508 0.500000
O O8 0.269357 0.851234 0.901925
O O9 0.000000 0.879419 0.500000
O O10 0.187237 0.000000 0.761974
#
# Coordination Sequence:
#
# PCOD8067342 Si02
#       4
#     4   2   4   2
#     4  10  24  42  68 104 148 196 248 310 374 445
#     4   8  16  39  64  93 141 196 246 296 366 448
#     4  10  25  48  74 105 148 200 251 307 382 464
#     4  12  27  39  74 110 148 190 254 313 385 438
#
# _framework density 26.201744999999999
#
# number of rings (size 3 to 8) (size 9 to 14) (size 15 to 20)
#    0.000    2.000    0.000    0.500    9.333    0.667 
#    0.000    5.000    0.000   15.000    0.000    3.500 
#    0.000    0.000    0.000    0.000    0.000    0.000 
#
# Total GULP energy -148729.601269 kJ/mol
# GULP energy per Si atom -12394.133439 kJ/mol
# Density = 2.614211 g / cm^3
# Si number density = 26.201745 Si / 1000 Ang^3
#
#
#
# Elastic Constant Matrix: (Units=GPa)
#
#
# Indices 1 2 3 4 5 6 
#
# 1 113.0135 57.7428 49.7177 0.0000 14.5119 0.0000
# 2 57.7428 221.7884 69.1335 0.0000 13.5478 0.0000
# 3 49.7177 69.1335 159.4325 0.0000 -2.9137 0.0000
# 4 0.0000 0.0000 0.0000 3.4116 0.0000 -0.3624
# 5 14.5119 13.5478 -2.9137 0.0000 45.5192 0.0000
# 6 0.0000 0.0000 0.0000 -0.3624 0.0000 -54.8539
#
#
#
# Elastic Compliance Matrix: (Units=1/GPa)
#
#
# Indices 1 2 3 4 5 6 
#
# 1 0.011483 -0.001914 -0.002811 0.000000 -0.003271 0.000000
# 2 -0.001914 0.005667 -0.001882 0.000000 -0.001197 0.000000
# 3 -0.002811 -0.001882 0.008001 0.000000 0.001969 0.000000
# 4 0.000000 0.000000 0.000000 0.292915 0.000000 -0.001935
# 5 -0.003271 -0.001197 0.001969 0.000000 0.023494 0.000000
# 6 0.000000 0.000000 0.000000 -0.001935 0.000000 -0.018217
#
#
# Mechanical properties :
#
#
# Convention : Reuss Voigt Hill
#
# Bulk Modulus (GPa) = 83.77283 94.15807 88.96545
# Shear Modulus (GPa) = 14.68278 19.99138 17.33708
#
# Velocity S-wave (km/s) = 2.36979 2.76520 2.57510
# Velocity P-wave (km/s) = 6.28725 6.79772 6.54746
#
# Compressibility (1/GPa) = 0.01193705
#
# Stress axis : x y z
#
# Youngs Moduli (GPa) = 87.08647 176.46339 124.98394
#
# Poissons Ratio (x) = 0.33768 0.35131
# Poissons Ratio (y) = 0.16665 0.23527
# Poissons Ratio (z) = 0.24479 0.33218
#
# Static dielectric constant tensor:
#      x y z
#    x 4.344760 0.000000 -0.008220 
#    y 0.000000 5.938910 0.000000 
#    z -0.008220 0.000000 4.832270 
# 
# 
# High freq. dielectric constant tensor:
#      x y z
#    x 2.015650 0.000000 -0.005060 
#    y 0.000000 2.088300 0.000000 
#    z -0.005060 0.000000 2.053530 
# 
# From -- ./inp_files/836.got.cif
#   From: 2010.06.25/outbox.cif.g09.slc.cpg/sg10_1_cif.got.tgz:836.got - 2010.06.27 22:07:45.
