data_PCOD8067302
_publ_section_title
;
Structure prediction by ZEFSAII (Michael W. Deem and Ramdas Pophale) SiO2 
 PCOD8067302
Probable space group: P 2/M
;
_chemical_formula_sum "Si O2"
_cell_formula_units_Z 32
_cell_length_a 11.652578
_cell_length_b 8.843153
_cell_length_c 28.166677
_cell_angle_alpha 90.000000
_cell_angle_beta 147.849609
_cell_angle_gamma 90.000000
_cell_volume 1544.519722
_symmetry_space_group_name_H-M "P 2/M"
_symmetry_group_IT_number 10
_symmetry_cell_setting 'monoclinic'
loop_
_space_group_symop_operation_xyz
x,y,z
-x,y,-z
-x,-y,-z
x,-y,z
loop_
_atom_site_type_symbol
_atom_site_label
_atom_site_fract_x
_atom_site_fract_y
_atom_site_fract_z
Si Si1 0.171841 0.674543 0.869048
Si Si2 0.246677 0.329039 0.414505
Si Si3 0.204714 0.172940 0.305820
Si Si4 0.436270 0.322541 0.729078
Si Si5 0.750795 0.821280 0.914935
Si Si6 0.393342 0.826163 0.615706
Si Si7 0.015446 0.175244 0.416718
Si Si8 0.426114 0.674212 0.052795
O O1 0.104364 0.500000 0.840736
O O2 0.338415 0.716474 0.885122
O O3 0.967179 0.784431 0.794692
O O4 0.262396 0.705956 0.952857
O O5 0.500000 0.310959 0.500000
O O6 0.176547 0.500000 0.402426
O O7 0.148977 0.282565 0.329824
O O8 0.161994 0.212209 0.423264
O O9 0.443551 0.204080 0.370173
O O10 0.179506 0.000000 0.312770
O O11 0.459739 0.500000 0.743485
O O12 0.622614 0.246909 0.825553
O O13 0.462509 0.278992 0.683305
O O14 0.199390 0.272892 0.662476
O O15 0.636411 0.773974 0.923895
O O16 0.739245 0.000000 0.906721
O O17 0.000000 0.765344 0.000000
O O18 0.153052 0.787425 0.512537
O O19 0.404002 0.000000 0.636508
O O20 0.951218 0.000000 0.393575
O O21 0.419047 0.500000 0.066250
#
# Coordination Sequence:
#
# PCOD8067302 Si02
#       8
#     4   4   4   4   4   4   4   4
#     4   9  20  39  63  93 127 162 201 257 315 372
#     4  11  23  39  61  91 128 166 208 258 311 367
#     4  11  23  38  61  92 127 168 211 256 311 376
#     4  12  27  44  67  96 126 165 213 265 321 381
#     4  11  26  46  67  92 126 166 211 265 316 374
#     4  10  23  43  65  92 129 170 214 263 316 375
#     4  11  23  43  69  93 127 171 213 262 318 378
#     4   9  20  41  66  91 124 162 204 255 317 378
#
# _framework density 20.718415
#
# number of rings (size 3 to 8) (size 9 to 14) (size 15 to 20)
#    0.000    1.500    1.250    3.750    3.500    6.000 
#    0.000    1.250    0.000    0.000    0.000    0.000 
#    0.000    0.000    0.000    0.000    0.000    0.000 
#
# Total GULP energy -396863.158716 kJ/mol
# GULP energy per Si atom -12401.973710 kJ/mol
# Density = 2.067126 g / cm^3
# Si number density = 20.718415 Si / 1000 Ang^3
#
#
#
# Elastic Constant Matrix: (Units=GPa)
#
#
# Indices 1 2 3 4 5 6 
#
# 1 83.1660 40.0380 32.1340 0.0000 -14.4711 0.0000
# 2 40.0380 74.3657 50.7234 0.0000 -2.3522 0.0000
# 3 32.1340 50.7234 126.5296 0.0000 -2.1492 0.0000
# 4 0.0000 0.0000 0.0000 33.1194 0.0000 -2.5145
# 5 -14.4711 -2.3522 -2.1492 0.0000 27.3150 0.0000
# 6 0.0000 0.0000 0.0000 -2.5145 0.0000 38.2988
#
#
#
# Elastic Compliance Matrix: (Units=1/GPa)
#
#
# Indices 1 2 3 4 5 6 
#
# 1 0.018188 -0.008898 -0.000902 0.000000 0.008798 0.000000
# 2 -0.008898 0.022889 -0.006972 0.000000 -0.003292 0.000000
# 3 -0.000902 -0.006972 0.010924 0.000000 -0.000219 0.000000
# 4 0.000000 0.000000 0.000000 0.030345 0.000000 0.001992
# 5 0.008798 -0.003292 -0.000219 0.000000 0.040970 0.000000
# 6 0.000000 0.000000 0.000000 0.001992 0.000000 0.026241
#
#
# Mechanical properties :
#
#
# Convention : Reuss Voigt Hill
#
# Bulk Modulus (GPa) = 54.18522 58.87244 56.52883
# Shear Modulus (GPa) = 26.41954 30.49103 28.45529
#
# Velocity S-wave (km/s) = 3.57483 3.84042 3.71000
# Velocity P-wave (km/s) = 6.57641 6.93847 6.75986
#
# Compressibility (1/GPa) = 0.01845522
#
# Stress axis : x y z
#
# Youngs Moduli (GPa) = 54.98265 43.68896 91.54453
#
# Poissons Ratio (x) = 0.38875 0.08261
# Poissons Ratio (y) = 0.48925 0.63824
# Poissons Ratio (z) = 0.04962 0.30459
#
# Static dielectric constant tensor:
#      x y z
#    x 3.714930 0.000000 0.015770 
#    y 0.000000 3.674510 0.000000 
#    z 0.015770 0.000000 3.861180 
# 
# 
# High freq. dielectric constant tensor:
#      x y z
#    x 1.814890 0.000000 -0.001330 
#    y 0.000000 1.808870 0.000000 
#    z -0.001330 0.000000 1.822240 
# 
# From -- ./inp_files/95055.got.cif
#   From: 2010.06.25/outbox.cif.g09.slc.cpg/sg10_48_cif.got.tgz:95055.got - 2010.06.27 22:07:45.
