data_PCOD8067734
_publ_section_title
;
Structure prediction by ZEFSAII (Michael W. Deem and Ramdas Pophale) SiO2 
 PCOD8067734
Probable space group: P 2/M
;
_chemical_formula_sum "Si O2"
_cell_formula_units_Z 20
_cell_length_a 12.553454
_cell_length_b 8.387323
_cell_length_c 18.897319
_cell_angle_alpha 90.000000
_cell_angle_beta 150.862044
_cell_angle_gamma 90.000000
_cell_volume 968.811217
_symmetry_space_group_name_H-M "P 2/M"
_symmetry_group_IT_number 10
_symmetry_cell_setting 'monoclinic'
loop_
_space_group_symop_operation_xyz
x,y,z
-x,y,-z
-x,-y,-z
x,-y,z
loop_
_atom_site_type_symbol
_atom_site_label
_atom_site_fract_x
_atom_site_fract_y
_atom_site_fract_z
Si Si1 0.972178 0.315752 0.828553
Si Si2 0.557596 0.314739 0.678400
Si Si3 0.148468 0.188863 0.648899
Si Si4 0.604983 0.185139 0.858387
Si Si5 0.117307 0.185397 0.371071
O O1 0.948742 0.500000 0.794935
O O2 0.763973 0.257127 0.752368
O O3 0.990116 0.214268 0.767381
O O4 0.186948 0.289293 0.999923
O O5 0.578575 0.500000 0.710435
O O6 0.547401 0.209978 0.742998
O O7 0.340889 0.284387 0.506734
O O8 0.398792 0.245934 0.785244
O O9 0.000000 0.263052 0.500000
O O10 0.055258 0.246354 0.670168
O O11 0.143556 0.000000 0.639643
O O12 0.655609 0.000000 0.901314
O O13 0.169717 0.000000 0.412410
#
# Coordination Sequence:
#
# PCOD8067734 Si02
#       5
#     4   4   4   4   4
#     4  11  25  42  57  84 128 163 192 241 304 353
#     4  11  23  40  61  86 122 163 196 239 300 353
#     4   9  18  37  62  89 119 149 188 246 305 346
#     4  11  22  39  65  91 117 154 202 247 289 350
#     4  11  22  39  65  91 117 154 202 247 289 350
#
# _framework density 20.643858000000002
#
# number of rings (size 3 to 8) (size 9 to 14) (size 15 to 20)
#    0.000    1.400    2.000    3.600    0.000    8.800 
#    0.000    9.000    0.000    0.000    0.000    0.000 
#    0.000    0.000    0.000    0.000    0.000    0.000 
#
# Total GULP energy -248128.834736 kJ/mol
# GULP energy per Si atom -12406.441737 kJ/mol
# Density = 2.059687 g / cm^3
# Si number density = 20.643858 Si / 1000 Ang^3
#
#
#
# Elastic Constant Matrix: (Units=GPa)
#
#
# Indices 1 2 3 4 5 6 
#
# 1 127.2062 35.4418 29.3705 0.0000 17.2143 0.0000
# 2 35.4418 40.2527 16.5255 0.0000 9.1763 0.0000
# 3 29.3705 16.5255 75.5333 0.0000 5.0246 0.0000
# 4 0.0000 0.0000 0.0000 22.8838 0.0000 -16.9529
# 5 17.2143 9.1763 5.0246 0.0000 36.5309 0.0000
# 6 0.0000 0.0000 0.0000 -16.9529 0.0000 2.6995
#
#
#
# Elastic Compliance Matrix: (Units=1/GPa)
#
#
# Indices 1 2 3 4 5 6 
#
# 1 0.011047 -0.008122 -0.002329 0.000000 -0.002845 0.000000
# 2 -0.008122 0.034678 -0.004142 0.000000 -0.004314 0.000000
# 3 -0.002329 -0.004142 0.015047 0.000000 0.000069 0.000000
# 4 0.000000 0.000000 0.000000 -0.011964 0.000000 -0.075137
# 5 -0.002845 -0.004314 0.000069 0.000000 0.029789 0.000000
# 6 0.000000 0.000000 0.000000 -0.075137 0.000000 -0.101423
#
#
# Mechanical properties :
#
#
# Convention : Reuss Voigt Hill
#
# Bulk Modulus (GPa) = 31.66016 45.07420 38.36718
# Shear Modulus (GPa) = 296.06368 23.19978 159.63173
#
# Velocity S-wave (km/s) = 11.98859 3.35597 8.80309
# Velocity P-wave (km/s) = 14.38766 6.07439 11.04316
#
# Compressibility (1/GPa) = 0.03158544
#
# Stress axis : x y z
#
# Youngs Moduli (GPa) = 90.52272 28.83668 66.46031
#
# Poissons Ratio (x) = 0.23421 0.15481
# Poissons Ratio (y) = 0.73521 0.27528
# Poissons Ratio (z) = 0.21086 0.11944
#
# Static dielectric constant tensor:
#      x y z
#    x 3.929420 0.000000 0.184460 
#    y 0.000000 3.417040 0.000000 
#    z 0.184460 0.000000 3.607140 
# 
# 
# High freq. dielectric constant tensor:
#      x y z
#    x 1.820720 0.000000 0.006320 
#    y 0.000000 1.791540 0.000000 
#    z 0.006320 0.000000 1.810310 
# 
# From -- ./inp_files/22146.got.cif
#   From: 2010.06.25/outbox.cif.g09.slc.cpg/sg10_12_cif.got.tgz:22146.got - 2010.06.27 22:07:45.
