data_PCOD8067259
_publ_section_title
;
Structure prediction by ZEFSAII (Michael W. Deem and Ramdas Pophale) SiO2 
 PCOD8067259
Probable space group: P 2/M
;
_chemical_formula_sum "Si O2"
_cell_formula_units_Z 32
_cell_length_a 14.891121
_cell_length_b 9.213615
_cell_length_c 21.708977
_cell_angle_alpha 90.000000
_cell_angle_beta 33.563336
_cell_angle_gamma 90.000000
_cell_volume 1646.685869
_symmetry_space_group_name_H-M "P 2/M"
_symmetry_group_IT_number 10
_symmetry_cell_setting 'monoclinic'
loop_
_space_group_symop_operation_xyz
x,y,z
-x,y,-z
-x,-y,-z
x,-y,z
loop_
_atom_site_type_symbol
_atom_site_label
_atom_site_fract_x
_atom_site_fract_y
_atom_site_fract_z
Si Si1 0.915634 0.665274 0.437114
Si Si2 0.191132 0.166291 0.091916
Si Si3 0.788859 0.831810 0.776893
Si Si4 0.297987 0.339014 0.561166
Si Si5 0.391257 0.327968 0.316995
Si Si6 0.837028 0.831413 0.251014
Si Si7 0.507427 0.672161 0.876497
Si Si8 0.605741 0.666623 0.304463
O O1 0.970878 0.500000 0.419531
O O2 0.827896 0.675587 0.422169
O O3 0.790658 0.724163 0.560753
O O4 0.074616 0.765529 0.346110
O O5 0.159992 0.192729 0.181897
O O6 0.027277 0.203775 0.148928
O O7 0.245791 0.000000 0.049506
O O8 0.324193 0.275986 0.990000
O O9 0.619308 0.749150 0.863309
O O10 0.765853 0.000000 0.773961
O O11 0.282477 0.500000 0.599459
O O12 0.259312 0.219823 0.633791
O O13 0.479846 0.315498 0.432734
O O14 0.392951 0.500000 0.324185
O O15 0.432429 0.276865 0.225064
O O16 0.526412 0.266680 0.287446
O O17 0.768905 0.753559 0.228637
O O18 0.805002 0.000000 0.262187
O O19 0.516899 0.500000 0.879337
O O20 0.654022 0.500000 0.266605
#
# Coordination Sequence:
#
# PCOD8067259 Si02
#       8
#     4   4   4   4   4   4   4   4
#     4   9  17  33  58  84 111 145 182 223 269 325
#     4  10  23  41  56  76 113 151 180 222 281 330
#     4  11  22  38  58  82 115 148 177 221 282 335
#     4   9  17  30  51  79 111 144 179 219 267 322
#     4   8  18  38  59  81 113 146 180 228 280 319
#     4  11  21  33  51  79 112 146 181 221 271 324
#     4  11  23  39  61  84 104 139 191 237 273 323
#     4   9  18  34  55  79 109 146 181 218 269 326
#
# _framework density 19.432973
#
# number of rings (size 3 to 8) (size 9 to 14) (size 15 to 20)
#    0.000    2.250    1.250    3.375    0.000    6.000 
#    0.000    7.500    0.000    3.750    0.000    0.000 
#    0.000    0.000    0.000    0.000    0.000    0.000 
#
# Total GULP energy -396833.714418 kJ/mol
# GULP energy per Si atom -12401.053576 kJ/mol
# Density = 1.938874 g / cm^3
# Si number density = 19.432973 Si / 1000 Ang^3
#
#
#
# Elastic Constant Matrix: (Units=GPa)
#
#
# Indices 1 2 3 4 5 6 
#
# 1 44.5087 34.5691 35.2156 0.0000 -12.4647 0.0000
# 2 34.5691 89.8817 49.9328 0.0000 -12.3491 0.0000
# 3 35.2156 49.9328 83.9623 0.0000 -12.0522 0.0000
# 4 0.0000 0.0000 0.0000 22.5249 0.0000 -12.0544
# 5 -12.4647 -12.3491 -12.0522 0.0000 29.2156 0.0000
# 6 0.0000 0.0000 0.0000 -12.0544 0.0000 22.3726
#
#
#
# Elastic Compliance Matrix: (Units=1/GPa)
#
#
# Indices 1 2 3 4 5 6 
#
# 1 0.039659 -0.008191 -0.010449 0.000000 0.009147 0.000000
# 2 -0.008191 0.018581 -0.007429 0.000000 0.001295 0.000000
# 3 -0.010449 -0.007429 0.020855 0.000000 0.001005 0.000000
# 4 0.000000 0.000000 0.000000 0.062384 0.000000 0.033613
# 5 0.009147 0.001295 0.001005 0.000000 0.039093 0.000000
# 6 0.000000 0.000000 0.000000 0.033613 0.000000 0.062808
#
#
# Mechanical properties :
#
#
# Convention : Reuss Voigt Hill
#
# Bulk Modulus (GPa) = 37.09752 50.86531 43.98142
# Shear Modulus (GPa) = 16.42018 21.39830 18.90924
#
# Velocity S-wave (km/s) = 2.90998 3.32193 3.12276
# Velocity P-wave (km/s) = 5.51562 6.39885 5.97358
#
# Compressibility (1/GPa) = 0.02695598
#
# Stress axis : x y z
#
# Youngs Moduli (GPa) = 25.21508 53.81837 47.95019
#
# Poissons Ratio (x) = 0.44084 0.50105
# Poissons Ratio (y) = 0.20654 0.35621
# Poissons Ratio (z) = 0.26348 0.39981
#
# Static dielectric constant tensor:
#      x y z
#    x 3.600070 0.000000 -0.097200 
#    y 0.000000 3.385970 0.000000 
#    z -0.097200 0.000000 3.475770 
# 
# 
# High freq. dielectric constant tensor:
#      x y z
#    x 1.759960 0.000000 -0.015110 
#    y 0.000000 1.740640 0.000000 
#    z -0.015110 0.000000 1.745630 
# 
# From -- ./inp_files/89566.got.cif
#   From: 2010.06.25/outbox.cif.g09.slc.cpg/sg10_45_cif.got.tgz:89566.got - 2010.06.27 22:07:45.
