data_PCOD8067530
_publ_section_title
;
Structure prediction by ZEFSAII (Michael W. Deem and Ramdas Pophale) SiO2 
 PCOD8067530
Probable space group: P 2/M
;
_chemical_formula_sum "Si O2"
_cell_formula_units_Z 20
_cell_length_a 9.412230
_cell_length_b 11.585624
_cell_length_c 11.840254
_cell_angle_alpha 90.000000
_cell_angle_beta 129.502062
_cell_angle_gamma 90.000000
_cell_volume 996.244991
_symmetry_space_group_name_H-M "P 2/M"
_symmetry_group_IT_number 10
_symmetry_cell_setting 'monoclinic'
loop_
_space_group_symop_operation_xyz
x,y,z
-x,y,-z
-x,-y,-z
x,-y,z
loop_
_atom_site_type_symbol
_atom_site_label
_atom_site_fract_x
_atom_site_fract_y
_atom_site_fract_z
Si Si1 0.181921 0.000000 0.952947
Si Si2 0.466428 0.779464 0.360113
Si Si3 0.227213 0.000000 0.238921
Si Si4 0.798561 0.634929 0.934855
Si Si5 0.295976 0.231756 0.906677
Si Si6 0.787091 0.868942 0.365808
O O1 0.294063 0.889049 0.971245
O O2 0.971750 0.000000 0.797682
O O3 0.181563 0.000000 0.085580
O O4 0.500000 0.718352 0.500000
O O5 0.341836 0.888392 0.331159
O O6 0.357783 0.697162 0.218737
O O7 0.659594 0.817890 0.400960
O O8 0.764822 0.500000 0.904456
O O9 0.802268 0.670652 0.068415
O O10 0.000000 0.674467 0.000000
O O11 0.215902 0.216994 0.741864
O O12 0.500000 0.277651 0.000000
O O13 0.000000 0.873264 0.500000
O O14 0.718139 0.000000 0.302889
#
# Coordination Sequence:
#
# PCOD8067530 Si02
#       6
#     2   4   2   4   4   4
#     4  11  21  32  64  97 127 168 207 259 320 381
#     4  12  25  41  65  94 134 170 213 259 318 387
#     4  11  21  36  58 100 131 162 213 256 313 386
#     4  11  26  47  70  93 120 166 224 274 319 371
#     4  12  22  40  66  93 127 165 210 265 318 379
#     4  11  25  40  59  98 142 173 201 249 321 389
#
# _framework density 20.075382000000001
#
# number of rings (size 3 to 8) (size 9 to 14) (size 15 to 20)
#    0.000    0.600    6.000    1.800    5.600    0.800 
#    0.000    0.000    0.000    1.200    0.000    0.000 
#    0.000    0.000    0.000    0.000    0.000    0.000 
#
# Total GULP energy -247936.866780 kJ/mol
# GULP energy per Si atom -12396.843339 kJ/mol
# Density = 2.002969 g / cm^3
# Si number density = 20.075382 Si / 1000 Ang^3
#
#
#
# Elastic Constant Matrix: (Units=GPa)
#
#
# Indices 1 2 3 4 5 6 
#
# 1 139.6746 36.3847 45.4403 0.0000 -1.4831 0.0000
# 2 36.3847 44.5934 20.5049 0.0000 5.5578 0.0000
# 3 45.4403 20.5049 94.3734 0.0000 -14.0493 0.0000
# 4 0.0000 0.0000 0.0000 32.2265 0.0000 8.6345
# 5 -1.4831 5.5578 -14.0493 0.0000 37.3543 0.0000
# 6 0.0000 0.0000 0.0000 8.6345 0.0000 14.3505
#
#
#
# Elastic Compliance Matrix: (Units=1/GPa)
#
#
# Indices 1 2 3 4 5 6 
#
# 1 0.009972 -0.006613 -0.003347 0.000000 0.000121 0.000000
# 2 -0.006613 0.030676 -0.004449 0.000000 -0.006500 0.000000
# 3 -0.003347 -0.004449 0.014039 0.000000 0.005809 0.000000
# 4 0.000000 0.000000 0.000000 0.036994 0.000000 -0.022259
# 5 0.000121 -0.006500 0.005809 0.000000 0.029928 0.000000
# 6 0.000000 0.000000 0.000000 -0.022259 0.000000 0.083077
#
#
# Mechanical properties :
#
#
# Convention : Reuss Voigt Hill
#
# Bulk Modulus (GPa) = 38.65358 53.70014 46.17686
# Shear Modulus (GPa) = 20.65039 28.54033 24.59536
#
# Velocity S-wave (km/s) = 3.21073 3.77458 3.50401
# Velocity P-wave (km/s) = 5.74813 6.76786 6.27873
#
# Compressibility (1/GPa) = 0.02587082
#
# Stress axis : x y z
#
# Youngs Moduli (GPa) = 100.27911 32.59875 71.22976
#
# Poissons Ratio (x) = 0.21557 0.23839
# Poissons Ratio (y) = 0.66312 0.31689
# Poissons Ratio (z) = 0.33561 0.14502
#
# Static dielectric constant tensor:
#      x y z
#    x 4.013950 0.000000 0.053250 
#    y 0.000000 3.410440 0.000000 
#    z 0.053250 0.000000 3.729160 
# 
# 
# High freq. dielectric constant tensor:
#      x y z
#    x 1.810330 0.000000 0.000440 
#    y 0.000000 1.750900 0.000000 
#    z 0.000440 0.000000 1.787480 
# 
# From -- ./inp_files/17787.got.cif
#   From: 2010.06.25/outbox.cif.g09.slc.cpg/sg10_9_cif.got.tgz:17787.got - 2010.06.27 22:07:45.
