data_PCOD8067655
_publ_section_title
;
Structure prediction by ZEFSAII (Michael W. Deem and Ramdas Pophale) SiO2 
 PCOD8067655
Probable space group: P 2/M
;
_chemical_formula_sum "Si O2"
_cell_formula_units_Z 24
_cell_length_a 15.455414
_cell_length_b 22.432325
_cell_length_c 13.688535
_cell_angle_alpha 90.000000
_cell_angle_beta 161.007369
_cell_angle_gamma 90.000000
_cell_volume 1544.513000
_symmetry_space_group_name_H-M "P 2/M"
_symmetry_group_IT_number 10
_symmetry_cell_setting 'monoclinic'
loop_
_space_group_symop_operation_xyz
x,y,z
-x,y,-z
-x,-y,-z
x,-y,z
loop_
_atom_site_type_symbol
_atom_site_label
_atom_site_fract_x
_atom_site_fract_y
_atom_site_fract_z
Si Si1 0.033729 0.381380 0.649715
Si Si2 0.717832 0.935461 0.151613
Si Si3 0.586804 0.569105 0.303957
Si Si4 0.018306 0.754789 0.634511
Si Si5 0.513529 0.817291 0.131312
Si Si6 0.277062 0.570961 0.334712
O O1 0.957791 0.313599 0.595191
O O2 0.000000 0.395082 0.500000
O O3 0.836254 0.423820 0.498290
O O4 0.337776 0.393219 0.001324
O O5 0.000000 0.914183 0.500000
O O6 0.760201 0.000000 0.142475
O O7 0.500000 0.946857 0.000000
O O8 0.590567 0.883489 0.947238
O O9 0.505215 0.500000 0.220835
O O10 0.668239 0.593386 0.497459
O O11 0.000000 0.766548 0.500000
O O12 0.815764 0.797884 0.479279
O O13 0.321704 0.771547 0.984456
O O14 0.500000 0.811936 0.000000
O O15 0.500000 0.596055 0.500000
O O16 0.270270 0.500000 0.325729
O O17 0.000000 0.597342 0.000000
#
# Coordination Sequence:
#
# PCOD8067655 Si02
#       6
#     4   4   4   4   4   4
#     4  11  22  34  45  61  86 114 144 177 208 244
#     4   9  15  21  30  47  69  89 112 151 206 255
#     4  11  22  34  49  67  85 108 136 167 214 266
#     4   9  17  27  39  51  67  96 134 169 198 226
#     4   9  14  23  36  49  64  89 125 162 200 239
#     4   9  17  31  50  69  86 102 124 159 204 255
#
# _framework density 15.538879
#
# number of rings (size 3 to 8) (size 9 to 14) (size 15 to 20)
#    0.000    2.333    0.000    5.500    0.000    7.333 
#    0.000    0.000    0.000    0.000    0.000    0.000 
#    0.000    0.000    0.000    0.000    0.000    0.000 
#
# Total GULP energy -297338.427490 kJ/mol
# GULP energy per Si atom -12389.101145 kJ/mol
# Density = 1.550351 g / cm^3
# Si number density = 15.538879 Si / 1000 Ang^3
#
#
#
# Elastic Constant Matrix: (Units=GPa)
#
#
# Indices 1 2 3 4 5 6 
#
# 1 69.4899 20.5873 44.1236 0.0000 5.8145 0.0000
# 2 20.5873 59.9075 23.4380 0.0000 2.5341 0.0000
# 3 44.1236 23.4380 92.4553 0.0000 11.3002 0.0000
# 4 0.0000 0.0000 0.0000 12.7357 0.0000 10.0008
# 5 5.8145 2.5341 11.3002 0.0000 28.9523 0.0000
# 6 0.0000 0.0000 0.0000 10.0008 0.0000 7.8043
#
#
#
# Elastic Compliance Matrix: (Units=1/GPa)
#
#
# Indices 1 2 3 4 5 6 
#
# 1 0.021374 -0.003726 -0.009211 0.000000 -0.000371 0.000000
# 2 -0.003726 0.019181 -0.003119 0.000000 0.000287 0.000000
# 3 -0.009211 -0.003119 0.016532 0.000000 -0.004330 0.000000
# 4 0.000000 0.000000 0.000000-12.537309 0.000000 16.065867
# 5 -0.000371 0.000287 -0.004330 0.000000 0.036279 0.000000
# 6 0.000000 0.000000 0.000000 16.065867 0.000000-20.459384
#
#
# Mechanical properties :
#
#
# Convention : Reuss Voigt Hill
#
# Bulk Modulus (GPa) = 40.04036 44.23895 42.13965
# Shear Modulus (GPa) = -0.15215 18.81204 9.32995
#
# Velocity S-wave (km/s) = -0.31325 3.48320 2.45302
# Velocity P-wave (km/s) = 5.06882 6.68645 5.93302
#
# Compressibility (1/GPa) = 0.02497480
#
# Stress axis : x y z
#
# Youngs Moduli (GPa) = 46.78594 52.13462 60.48980
#
# Poissons Ratio (x) = 0.19425 0.55715
# Poissons Ratio (y) = 0.17432 0.18869
# Poissons Ratio (z) = 0.43093 0.16263
#
# Static dielectric constant tensor:
#      x y z
#    x 2.698520 0.000000 0.255770 
#    y 0.000000 3.137190 0.000000 
#    z 0.255770 0.000000 2.833560 
# 
# 
# High freq. dielectric constant tensor:
#      x y z
#    x 1.559480 0.000000 0.054660 
#    y 0.000000 1.588720 0.000000 
#    z 0.054660 0.000000 1.584630 
# 
# From -- ./inp_files/52080.got.cif
#   From: 2010.06.25/outbox.cif.g09.slc.cpg/sg10_27_cif.got.tgz:52080.got - 2010.06.27 22:07:45.
