data_PCOD8067161
_publ_section_title
;
Structure prediction by ZEFSAII (Michael W. Deem and Ramdas Pophale) SiO2 
 PCOD8067161
Probable space group: P 2/M
;
_chemical_formula_sum "Si O2"
_cell_formula_units_Z 28
_cell_length_a 16.724967
_cell_length_b 10.318668
_cell_length_c 9.768024
_cell_angle_alpha 90.000000
_cell_angle_beta 52.627954
_cell_angle_gamma 90.000000
_cell_volume 1339.691413
_symmetry_space_group_name_H-M "P 2/M"
_symmetry_group_IT_number 10
_symmetry_cell_setting 'monoclinic'
loop_
_space_group_symop_operation_xyz
x,y,z
-x,y,-z
-x,-y,-z
x,-y,z
loop_
_atom_site_type_symbol
_atom_site_label
_atom_site_fract_x
_atom_site_fract_y
_atom_site_fract_z
Si Si1 0.968391 0.500000 0.376107
Si Si2 0.098325 0.500000 0.991407
Si Si3 0.214512 0.743607 0.771132
Si Si4 0.143964 0.147561 0.102805
Si Si5 0.428223 0.652237 0.444701
Si Si6 0.775165 0.855284 0.704939
Si Si7 0.429976 0.152088 0.204347
Si Si8 0.081133 0.229979 0.658519
O O1 0.899145 0.377621 0.409583
O O2 0.000000 0.500000 0.500000
O O3 0.069803 0.500000 0.180481
O O4 0.166977 0.620431 0.890915
O O5 0.000000 0.500000 0.000000
O O6 0.321618 0.710252 0.599025
O O7 0.142985 0.803358 0.729852
O O8 0.216603 0.845804 0.894554
O O9 0.198940 0.213879 0.177033
O O10 0.036321 0.214040 0.188520
O O11 0.120507 0.000000 0.164361
O O12 0.500000 0.664767 0.500000
O O13 0.421500 0.500000 0.405508
O O14 0.468267 0.747933 0.282334
O O15 0.680759 0.793398 0.722935
O O16 0.875979 0.858251 0.507793
O O17 0.739643 0.000000 0.775965
O O18 0.428685 0.000000 0.256221
O O19 0.500000 0.166243 0.000000
#
# Coordination Sequence:
#
# PCOD8067161 Si02
#       8
#     2   2   4   4   4   4   4   4
#     4  12  24  36  58  92 123 166 224 260 307 379
#     4  12  20  40  59  84 124 168 206 254 310 368
#     4  12  23  40  64  89 124 172 212 259 323 383
#     4  11  24  38  59  93 132 171 215 263 315 385
#     4  11  26  47  70  99 133 170 220 277 340 402
#     4  10  22  41  62  89 127 170 211 263 329 384
#     4  10  23  45  73  99 127 167 220 281 337 396
#     4  12  22  38  60  89 127 170 214 258 313 383
#
# _framework density 20.900334999999998
#
# number of rings (size 3 to 8) (size 9 to 14) (size 15 to 20)
#    0.000    0.857    5.000    2.143    2.000    4.000 
#    0.000    0.000    0.000    0.000    0.000    0.000 
#    0.000    0.000    0.000    0.000    0.000    0.000 
#
# Total GULP energy -347094.133958 kJ/mol
# GULP energy per Si atom -12396.219070 kJ/mol
# Density = 2.085276 g / cm^3
# Si number density = 20.900335 Si / 1000 Ang^3
#
#
#
# Elastic Constant Matrix: (Units=GPa)
#
#
# Indices 1 2 3 4 5 6 
#
# 1 90.7364 33.0035 30.5191 0.0000 20.2968 0.0000
# 2 33.0035 79.8470 32.3378 0.0000 10.1308 0.0000
# 3 30.5191 32.3378 121.6742 0.0000 21.5982 0.0000
# 4 0.0000 0.0000 0.0000 36.6156 0.0000 0.6695
# 5 20.2968 10.1308 21.5982 0.0000 42.9805 0.0000
# 6 0.0000 0.0000 0.0000 0.6695 0.0000 28.0169
#
#
#
# Elastic Compliance Matrix: (Units=1/GPa)
#
#
# Indices 1 2 3 4 5 6 
#
# 1 0.014326 -0.004702 -0.001471 0.000000 -0.004918 0.000000
# 2 -0.004702 0.015675 -0.002992 0.000000 0.000029 0.000000
# 3 -0.001471 -0.002992 0.010029 0.000000 -0.003640 0.000000
# 4 0.000000 0.000000 0.000000 0.027323 0.000000 -0.000653
# 5 -0.004918 0.000029 -0.003640 0.000000 0.027411 0.000000
# 6 0.000000 0.000000 0.000000 -0.000653 0.000000 0.035708
#
#
# Mechanical properties :
#
#
# Convention : Reuss Voigt Hill
#
# Bulk Modulus (GPa) = 46.08033 53.77538 49.92785
# Shear Modulus (GPa) = 32.04417 34.61577 33.32997
#
# Velocity S-wave (km/s) = 3.91984 4.07410 3.99771
# Velocity P-wave (km/s) = 6.52552 6.92216 6.72676
#
# Compressibility (1/GPa) = 0.02170123
#
# Stress axis : x y z
#
# Youngs Moduli (GPa) = 69.80390 63.79425 99.71231
#
# Poissons Ratio (x) = 0.29995 0.14665
# Poissons Ratio (y) = 0.32820 0.29833
# Poissons Ratio (z) = 0.10266 0.19087
#
# Static dielectric constant tensor:
#      x y z
#    x 3.881230 0.000000 0.122940 
#    y 0.000000 3.636080 0.000000 
#    z 0.122940 0.000000 3.944240 
# 
# 
# High freq. dielectric constant tensor:
#      x y z
#    x 1.814540 0.000000 0.012350 
#    y 0.000000 1.813840 0.000000 
#    z 0.012350 0.000000 1.827120 
# 
# From -- ./inp_files/28523.got.cif
#   From: 2010.06.25/outbox.cif.g09.slc.cpg/sg10_15_cif.got.tgz:28523.got - 2010.06.27 22:07:45.
