data_PCOD8067698
_publ_section_title
;
Structure prediction by ZEFSAII (Michael W. Deem and Ramdas Pophale) SiO2 
 PCOD8067698
Probable space group: P 2/M
;
_chemical_formula_sum "Si O2"
_cell_formula_units_Z 28
_cell_length_a 31.418411
_cell_length_b 8.607209
_cell_length_c 31.418004
_cell_angle_alpha 90.000000
_cell_angle_beta 170.532963
_cell_angle_gamma 90.000000
_cell_volume 1397.457679
_symmetry_space_group_name_H-M "P 2/M"
_symmetry_group_IT_number 10
_symmetry_cell_setting 'monoclinic'
loop_
_space_group_symop_operation_xyz
x,y,z
-x,y,-z
-x,-y,-z
x,-y,z
loop_
_atom_site_type_symbol
_atom_site_label
_atom_site_fract_x
_atom_site_fract_y
_atom_site_fract_z
Si Si1 0.453265 0.684202 0.547418
Si Si2 0.737807 0.184589 0.261727
Si Si3 0.024439 0.817708 0.974891
Si Si4 0.408306 0.314951 0.599345
Si Si5 0.115536 0.315500 0.876210
Si Si6 0.222609 0.683950 0.886583
Si Si7 0.255715 0.183949 0.634949
O O1 0.454016 0.500000 0.547078
O O2 0.428531 0.746611 0.571167
O O3 0.215126 0.744802 0.285636
O O4 0.715319 0.744853 0.785934
O O5 0.709785 0.240401 0.282559
O O6 0.000000 0.252591 0.500000
O O7 0.738479 0.000000 0.259991
O O8 0.500000 0.253552 0.000000
O O9 0.028107 0.000000 0.970946
O O10 0.000000 0.773623 0.000000
O O11 0.406708 0.500000 0.598607
O O12 0.148330 0.247772 0.364300
O O13 0.648490 0.248294 0.863175
O O14 0.114967 0.500000 0.877600
O O15 0.140490 0.258506 0.852393
O O16 0.255699 0.500000 0.916925
O O17 0.497344 0.761350 0.147887
O O18 0.005635 0.738515 0.639758
O O19 0.225236 0.000000 0.601491
#
# Coordination Sequence:
#
# PCOD8067698 Si02
#       7
#     4   4   4   4   4   4   4
#     4  11  22  37  62  91 114 141 186 245 290 321
#     4   9  17  31  53  79 104 137 186 232 269 325
#     4  11  24  41  59  81 116 159 192 222 274 345
#     4   9  17  31  53  82 110 137 180 234 279 319
#     4   9  17  31  53  79 108 145 186 224 266 327
#     4  11  22  37  59  85 114 151 192 230 272 333
#     4  11  22  37  59  85 114 147 184 235 290 331
#
# _framework density 20.036384999999999
#
# number of rings (size 3 to 8) (size 9 to 14) (size 15 to 20)
#    0.000    1.857    0.000    4.714    0.000    9.714 
#    0.000    0.000    0.000   25.714    0.000    0.000 
#    0.000    0.000    0.000    0.000    0.000    0.000 
#
# Total GULP energy -347305.866080 kJ/mol
# GULP energy per Si atom -12403.780931 kJ/mol
# Density = 1.999078 g / cm^3
# Si number density = 20.036385 Si / 1000 Ang^3
#
#
#
# Elastic Constant Matrix: (Units=GPa)
#
#
# Indices 1 2 3 4 5 6 
#
# 1 149.3399 22.9067 59.1364 0.0000 1.4786 0.0000
# 2 22.9067 66.1885 12.5843 0.0000 -1.1288 0.0000
# 3 59.1364 12.5843 163.1238 0.0000 0.6358 0.0000
# 4 0.0000 0.0000 0.0000 51.2768 0.0000 -2.8290
# 5 1.4786 -1.1288 0.6358 0.0000 50.4466 0.0000
# 6 0.0000 0.0000 0.0000 -2.8290 0.0000 -14.9470
#
#
#
# Elastic Compliance Matrix: (Units=1/GPa)
#
#
# Indices 1 2 3 4 5 6 
#
# 1 0.008150 -0.002297 -0.002777 0.000000 -0.000255 0.000000
# 2 -0.002297 0.015987 -0.000402 0.000000 0.000430 0.000000
# 3 -0.002777 -0.000402 0.007168 0.000000 -0.000018 0.000000
# 4 0.000000 0.000000 0.000000 0.019300 0.000000 -0.003653
# 5 -0.000255 0.000430 -0.000018 0.000000 0.019840 0.000000
# 6 0.000000 0.000000 0.000000 -0.003653 0.000000 -0.066212
#
#
# Mechanical properties :
#
#
# Convention : Reuss Voigt Hill
#
# Bulk Modulus (GPa) = 49.13105 63.10077 56.11591
# Shear Modulus (GPa) = 227.57192 36.29028 131.93110
#
# Velocity S-wave (km/s) = 10.66892 4.26046 8.12334
# Velocity P-wave (km/s) = 13.27938 7.46749 10.77278
#
# Compressibility (1/GPa) = 0.02035373
#
# Stress axis : x y z
#
# Youngs Moduli (GPa) = 122.69207 62.55008 139.50938
#
# Poissons Ratio (x) = 0.14369 0.38735
# Poissons Ratio (y) = 0.28185 0.05611
# Poissons Ratio (z) = 0.34066 0.02516
#
# Static dielectric constant tensor:
#      x y z
#    x 3.955060 0.000000 -0.013050 
#    y 0.000000 3.302700 0.000000 
#    z -0.013050 0.000000 3.775980 
# 
# 
# High freq. dielectric constant tensor:
#      x y z
#    x 1.802870 0.000000 0.000190 
#    y 0.000000 1.747870 0.000000 
#    z 0.000190 0.000000 1.804820 
# 
# From -- ./inp_files/95981.got.cif
#   From: 2010.06.25/outbox.cif.g09.slc.cpg/sg10_48_cif.got.tgz:95981.got - 2010.06.27 22:07:45.
