data_PCOD8067172
_publ_section_title
;
Structure prediction by ZEFSAII (Michael W. Deem and Ramdas Pophale) SiO2 
 PCOD8067172
Probable space group: P 2/M
;
_chemical_formula_sum "Si O2"
_cell_formula_units_Z 24
_cell_length_a 12.266233
_cell_length_b 8.589895
_cell_length_c 11.556162
_cell_angle_alpha 90.000000
_cell_angle_beta 69.701902
_cell_angle_gamma 90.000000
_cell_volume 1142.008749
_symmetry_space_group_name_H-M "P 2/M"
_symmetry_group_IT_number 10
_symmetry_cell_setting 'monoclinic'
loop_
_space_group_symop_operation_xyz
x,y,z
-x,y,-z
-x,-y,-z
x,-y,z
loop_
_atom_site_type_symbol
_atom_site_label
_atom_site_fract_x
_atom_site_fract_y
_atom_site_fract_z
Si Si1 0.951046 0.821819 0.728821
Si Si2 0.201706 0.680142 0.611786
Si Si3 0.121794 0.677296 0.015076
Si Si4 0.474397 0.815833 0.136800
Si Si5 0.311525 0.180842 0.792795
Si Si6 0.745795 0.820779 0.640602
O O1 0.876473 0.798784 0.639833
O O2 0.083993 0.779072 0.657867
O O3 0.945462 0.000000 0.773181
O O4 0.891274 0.712641 0.845365
O O5 0.168406 0.500000 0.631202
O O6 0.285492 0.721885 0.687152
O O7 0.269526 0.717811 0.468556
O O8 0.163323 0.500000 0.982103
O O9 0.212717 0.794445 0.925010
O O10 0.000000 0.708475 0.000000
O O11 0.568407 0.757413 0.196126
O O12 0.347270 0.764602 0.228695
O O13 0.484213 0.000000 0.122087
O O14 0.500000 0.742377 0.000000
O O15 0.317671 0.000000 0.757404
O O16 0.721683 0.000000 0.616754
#
# Coordination Sequence:
#
# PCOD8067172 Si02
#       6
#     4   4   4   4   4   4
#     4  11  22  38  64  92 119 157 205 253 299 355
#     4  12  25  40  58  86 126 164 200 247 304 361
#     4  11  22  36  57  88 125 160 193 240 300 356
#     4   9  19  39  66  94 120 149 194 252 304 350
#     4  11  22  38  64  92 120 158 204 251 297 352
#     4  10  22  41  64  90 120 156 203 252 299 355
#
# _framework density 21.015602000000001
#
# number of rings (size 3 to 8) (size 9 to 14) (size 15 to 20)
#    0.000    1.333    1.667    4.500    0.000    7.333 
#    0.000    5.000    0.000    3.500    0.000    0.000 
#    0.000    0.000    0.000    0.000    0.000    0.000 
#
# Total GULP energy -297706.380047 kJ/mol
# GULP energy per Si atom -12404.432502 kJ/mol
# Density = 2.096777 g / cm^3
# Si number density = 21.015602 Si / 1000 Ang^3
#
#
#
# Elastic Constant Matrix: (Units=GPa)
#
#
# Indices 1 2 3 4 5 6 
#
# 1 121.7508 30.8695 43.6076 0.0000 10.7352 0.0000
# 2 30.8695 45.5234 11.1378 0.0000 2.2261 0.0000
# 3 43.6076 11.1378 124.0458 0.0000 11.3524 0.0000
# 4 0.0000 0.0000 0.0000 38.7277 0.0000 9.0404
# 5 10.7352 2.2261 11.3524 0.0000 22.2205 0.0000
# 6 0.0000 0.0000 0.0000 9.0404 0.0000 12.2497
#
#
#
# Elastic Compliance Matrix: (Units=1/GPa)
#
#
# Indices 1 2 3 4 5 6 
#
# 1 0.011313 -0.006762 -0.003076 0.000000 -0.003217 0.000000
# 2 -0.006762 0.026536 -0.000064 0.000000 0.000641 0.000000
# 3 -0.003076 -0.000064 0.009454 0.000000 -0.003338 0.000000
# 4 0.000000 0.000000 0.000000 0.031196 0.000000 -0.023023
# 5 -0.003217 0.000641 -0.003338 0.000000 0.048199 0.000000
# 6 0.000000 0.000000 0.000000 -0.023023 0.000000 0.098626
#
#
# Mechanical properties :
#
#
# Convention : Reuss Voigt Hill
#
# Bulk Modulus (GPa) = 36.36322 51.39443 43.87882
# Shear Modulus (GPa) = 19.66236 28.35323 24.00780
#
# Velocity S-wave (km/s) = 3.06209 3.67706 3.38358
# Velocity P-wave (km/s) = 5.46282 6.52198 6.01575
#
# Compressibility (1/GPa) = 0.02750031
#
# Stress axis : x y z
#
# Youngs Moduli (GPa) = 88.39285 37.68435 105.77573
#
# Poissons Ratio (x) = 0.25481 0.32532
# Poissons Ratio (y) = 0.59769 0.00680
# Poissons Ratio (z) = 0.27186 0.00242
#
# Static dielectric constant tensor:
#      x y z
#    x 3.913080 0.000000 0.082680 
#    y 0.000000 3.572130 0.000000 
#    z 0.082680 0.000000 3.832860 
# 
# 
# High freq. dielectric constant tensor:
#      x y z
#    x 1.826450 0.000000 0.006880 
#    y 0.000000 1.804260 0.000000 
#    z 0.006880 0.000000 1.830320 
# 
# From -- ./inp_files/45016.got.cif
#   From: 2010.06.25/outbox.cif.g09.slc.cpg/sg10_23_cif.got.tgz:45016.got - 2010.06.27 22:07:45.
