data_PCOD8067405
_publ_section_title
;
Structure prediction by ZEFSAII (Michael W. Deem and Ramdas Pophale) SiO2 
 PCOD8067405
Probable space group: P 2/M
;
_chemical_formula_sum "Si O2"
_cell_formula_units_Z 28
_cell_length_a 9.184391
_cell_length_b 18.463455
_cell_length_c 15.219544
_cell_angle_alpha 90.000000
_cell_angle_beta 32.150971
_cell_angle_gamma 90.000000
_cell_volume 1373.411433
_symmetry_space_group_name_H-M "P 2/M"
_symmetry_group_IT_number 10
_symmetry_cell_setting 'monoclinic'
loop_
_space_group_symop_operation_xyz
x,y,z
-x,y,-z
-x,-y,-z
x,-y,z
loop_
_atom_site_type_symbol
_atom_site_label
_atom_site_fract_x
_atom_site_fract_y
_atom_site_fract_z
Si Si1 0.820539 0.416255 0.334029
Si Si2 0.527760 0.773865 0.380827
Si Si3 0.063663 0.672799 0.565183
Si Si4 0.436827 0.769190 0.134599
Si Si5 0.311244 0.922154 0.180380
Si Si6 0.964609 0.308647 0.920759
Si Si7 0.678932 0.078244 0.495574
O O1 0.500000 0.397288 0.500000
O O2 0.875021 0.500000 0.287284
O O3 0.946980 0.395810 0.364085
O O4 0.974298 0.371934 0.179696
O O5 0.500000 0.767990 0.500000
O O6 0.432291 0.852605 0.392742
O O7 0.841707 0.760675 0.194779
O O8 0.358598 0.710966 0.418464
O O9 0.854272 0.732906 0.704317
O O10 0.000000 0.644284 0.500000
O O11 0.412251 0.852046 0.184692
O O12 0.500000 0.773039 0.000000
O O13 0.658284 0.721503 0.071746
O O14 0.997690 0.909087 0.309946
O O15 0.331428 0.000000 0.221901
O O16 0.500000 0.928893 0.000000
O O17 0.000000 0.341452 0.000000
O O18 0.500000 0.075843 0.500000
O O19 0.643084 0.000000 0.563114
#
# Coordination Sequence:
#
# PCOD8067405 Si02
#       7
#     4   4   4   4   4   4   4
#     4  11  24  46  70  93 123 161 201 242 303 375
#     4  11  19  38  63  87 124 167 211 254 299 360
#     4  12  22  39  65  94 124 158 205 251 297 359
#     4  11  21  36  61  92 124 165 203 255 309 357
#     4   9  18  31  51  85 124 162 207 257 311 360
#     4  12  24  41  65  94 125 161 205 250 303 364
#     4   9  18  30  52  86 120 162 213 259 302 356
#
# _framework density 20.38719
#
# number of rings (size 3 to 8) (size 9 to 14) (size 15 to 20)
#    0.000    1.286    5.714    0.857    6.000    0.571 
#    0.000    1.429    0.000    5.143    0.000    0.000 
#    0.000    0.000    0.000    0.000    0.000    0.000 
#
# Total GULP energy -347007.821629 kJ/mol
# GULP energy per Si atom -12393.136487 kJ/mol
# Density = 2.034079 g / cm^3
# Si number density = 20.387190 Si / 1000 Ang^3
#
#
#
# Elastic Constant Matrix: (Units=GPa)
#
#
# Indices 1 2 3 4 5 6 
#
# 1 103.3859 44.3137 17.6564 0.0000 11.9341 0.0000
# 2 44.3137 144.0442 34.4961 0.0000 -3.6401 0.0000
# 3 17.6564 34.4961 56.8621 0.0000 -3.0599 0.0000
# 4 0.0000 0.0000 0.0000 25.9766 0.0000 -22.1165
# 5 11.9341 -3.6401 -3.0599 0.0000 30.1913 0.0000
# 6 0.0000 0.0000 0.0000 -22.1165 0.0000 21.5263
#
#
#
# Elastic Compliance Matrix: (Units=1/GPa)
#
#
# Indices 1 2 3 4 5 6 
#
# 1 0.012081 -0.003375 -0.001993 0.000000 -0.005384 0.000000
# 2 -0.003375 0.009072 -0.004349 0.000000 0.001987 0.000000
# 3 -0.001993 -0.004349 0.020972 0.000000 0.002389 0.000000
# 4 0.000000 0.000000 0.000000 0.307338 0.000000 0.315764
# 5 -0.005384 0.001987 0.002389 0.000000 0.035732 0.000000
# 6 0.000000 0.000000 0.000000 0.315764 0.000000 0.370875
#
#
# Mechanical properties :
#
#
# Convention : Reuss Voigt Hill
#
# Bulk Modulus (GPa) = 44.07107 55.24717 49.65912
# Shear Modulus (GPa) = 6.38512 29.39390 17.88951
#
# Velocity S-wave (km/s) = 1.77165 3.80120 2.96546
# Velocity P-wave (km/s) = 5.08419 6.81346 6.01133
#
# Compressibility (1/GPa) = 0.02269062
#
# Stress axis : x y z
#
# Youngs Moduli (GPa) = 82.77298 110.22440 47.68200
#
# Poissons Ratio (x) = 0.37204 0.09505
# Poissons Ratio (y) = 0.27939 0.20736
# Poissons Ratio (z) = 0.16500 0.47935
#
# Static dielectric constant tensor:
#      x y z
#    x 3.576120 0.000000 -0.193450 
#    y 0.000000 4.161180 0.000000 
#    z -0.193450 0.000000 3.586960 
# 
# 
# High freq. dielectric constant tensor:
#      x y z
#    x 1.777240 0.000000 -0.020400 
#    y 0.000000 1.802540 0.000000 
#    z -0.020400 0.000000 1.794590 
# 
# From -- ./inp_files/30362.got.cif
#   From: 2010.06.25/outbox.cif.g09.slc.cpg/sg10_16_cif.got.tgz:30362.got - 2010.06.27 22:07:45.
