data_PCOD8067146
_publ_section_title
;
Structure prediction by ZEFSAII (Michael W. Deem and Ramdas Pophale) SiO2 
 PCOD8067146
Probable space group: P 2/M
;
_chemical_formula_sum "Si O2"
_cell_formula_units_Z 28
_cell_length_a 5.232116
_cell_length_b 15.863425
_cell_length_c 16.697090
_cell_angle_alpha 90.000000
_cell_angle_beta 114.736940
_cell_angle_gamma 90.000000
_cell_volume 1258.679206
_symmetry_space_group_name_H-M "P 2/M"
_symmetry_group_IT_number 10
_symmetry_cell_setting 'monoclinic'
loop_
_space_group_symop_operation_xyz
x,y,z
-x,y,-z
-x,-y,-z
x,-y,z
loop_
_atom_site_type_symbol
_atom_site_label
_atom_site_fract_x
_atom_site_fract_y
_atom_site_fract_z
Si Si1 0.227302 0.500000 0.767448
Si Si2 0.334904 0.670892 0.554563
Si Si3 0.770233 0.907219 0.589305
Si Si4 0.216667 0.215668 0.676619
Si Si5 0.431483 0.500000 0.349817
Si Si6 0.309211 0.318107 0.832814
Si Si7 0.082598 0.233615 0.099637
Si Si8 0.677013 0.095020 0.765843
O O1 0.436471 0.500000 0.720337
O O2 0.298140 0.418879 0.830356
O O3 0.905434 0.500000 0.697131
O O4 0.500000 0.708637 0.500000
O O5 0.405385 0.733526 0.637340
O O6 0.466644 0.580389 0.588143
O O7 0.000000 0.662573 0.500000
O O8 0.500000 0.893728 0.500000
O O9 0.718590 0.902644 0.676743
O O10 0.969424 0.828854 0.593472
O O11 0.901188 0.000000 0.586345
O O12 0.122383 0.281125 0.733819
O O13 0.378762 0.139698 0.742840
O O14 0.628243 0.286279 0.863284
O O15 0.169170 0.290375 0.897846
O O16 0.093728 0.148857 0.154984
O O17 0.000000 0.205808 0.000000
O O18 0.673444 0.000000 0.798924
#
# Coordination Sequence:
#
# PCOD8067146 Si02
#       8
#     2   4   4   4   2   4   4   4
#     4  12  24  43  73 100 134 182 231 279 347 423
#     4  12  28  42  64  95 136 184 239 300 349 404
#     4  10  22  40  64  95 135 183 236 290 343 403
#     4  11  24  40  66  91 140 178 241 282 351 401
#     4  12  24  45  66  94 139 182 237 293 347 407
#     4  11  24  45  72 102 137 179 229 281 344 420
#     4  11  24  46  74 106 141 176 223 286 352 421
#     4  10  23  41  66  98 137 182 228 283 350 413
#
# _framework density 22.245542
#
# number of rings (size 3 to 8) (size 9 to 14) (size 15 to 20)
#    0.000    1.000    2.857    3.000    6.000    0.286 
#    0.000    4.286    0.000    3.857    0.000    0.000 
#    0.000    0.000    0.000    0.000    0.000    0.000 
#
# Total GULP energy -347193.276526 kJ/mol
# GULP energy per Si atom -12399.759876 kJ/mol
# Density = 2.219491 g / cm^3
# Si number density = 22.245542 Si / 1000 Ang^3
#
#
#
# Elastic Constant Matrix: (Units=GPa)
#
#
# Indices 1 2 3 4 5 6 
#
# 1 89.2761 35.3696 20.6695 0.0000 -10.7911 0.0000
# 2 35.3696 165.7629 50.3370 0.0000 -0.3983 0.0000
# 3 20.6695 50.3370 110.8336 0.0000 -16.3644 0.0000
# 4 0.0000 0.0000 0.0000 34.9164 0.0000 -5.0116
# 5 -10.7911 -0.3983 -16.3644 0.0000 37.9292 0.0000
# 6 0.0000 0.0000 0.0000 -5.0116 0.0000 21.1380
#
#
#
# Elastic Compliance Matrix: (Units=1/GPa)
#
#
# Indices 1 2 3 4 5 6 
#
# 1 0.012758 -0.002481 -0.000770 0.000000 0.003272 0.000000
# 2 -0.002481 0.007549 -0.003267 0.000000 -0.002036 0.000000
# 3 -0.000770 -0.003267 0.011334 0.000000 0.004637 0.000000
# 4 0.000000 0.000000 0.000000 0.029649 0.000000 0.007029
# 5 0.003272 -0.002036 0.004637 0.000000 0.029275 0.000000
# 6 0.000000 0.000000 0.000000 0.007029 0.000000 0.048975
#
#
# Mechanical properties :
#
#
# Convention : Reuss Voigt Hill
#
# Bulk Modulus (GPa) = 53.74158 64.29167 59.01663
# Shear Modulus (GPa) = 31.49108 36.09647 33.79377
#
# Velocity S-wave (km/s) = 3.76654 4.03257 3.90182
# Velocity P-wave (km/s) = 6.56709 7.11659 6.84735
#
# Compressibility (1/GPa) = 0.01860756
#
# Stress axis : x y z
#
# Youngs Moduli (GPa) = 78.38476 132.46690 88.22850
#
# Poissons Ratio (x) = 0.32860 0.06789
# Poissons Ratio (y) = 0.19444 0.28820
# Poissons Ratio (z) = 0.06032 0.43270
#
# Static dielectric constant tensor:
#      x y z
#    x 3.965620 0.000000 0.010370 
#    y 0.000000 4.435580 0.000000 
#    z 0.010370 0.000000 3.930940 
# 
# 
# High freq. dielectric constant tensor:
#      x y z
#    x 1.874330 0.000000 -0.003790 
#    y 0.000000 1.896030 0.000000 
#    z -0.003790 0.000000 1.861310 
# 
# From -- ./inp_files/73587.got.cif
#   From: 2010.06.25/outbox.cif.g09.slc.cpg/sg10_37_cif.got.tgz:73587.got - 2010.06.27 22:07:45.
