data_PCOD8067535
_publ_section_title
;
Structure prediction by ZEFSAII (Michael W. Deem and Ramdas Pophale) SiO2 
 PCOD8067535
Probable space group: P 2/M
;
_chemical_formula_sum "Si O2"
_cell_formula_units_Z 28
_cell_length_a 13.589354
_cell_length_b 22.009322
_cell_length_c 5.084473
_cell_angle_alpha 90.000000
_cell_angle_beta 100.671311
_cell_angle_gamma 90.000000
_cell_volume 1494.427567
_symmetry_space_group_name_H-M "P 2/M"
_symmetry_group_IT_number 10
_symmetry_cell_setting 'monoclinic'
loop_
_space_group_symop_operation_xyz
x,y,z
-x,y,-z
-x,-y,-z
x,-y,z
loop_
_atom_site_type_symbol
_atom_site_label
_atom_site_fract_x
_atom_site_fract_y
_atom_site_fract_z
Si Si1 0.215870 0.240570 0.545146
Si Si2 0.441849 0.616709 0.721949
Si Si3 0.110970 0.570462 0.984452
Si Si4 0.116495 0.189187 0.987489
Si Si5 0.558376 0.761305 0.277925
Si Si6 0.783197 0.381287 0.462936
Si Si7 0.067646 0.934269 0.782010
O O1 0.178214 0.200737 0.282248
O O2 0.326912 0.216743 0.668535
O O3 0.216942 0.310617 0.458039
O O4 0.146733 0.235233 0.769995
O O5 0.500000 0.590632 0.500000
O O6 0.445139 0.689001 0.728557
O O7 0.327198 0.594759 0.666085
O O8 0.500000 0.589347 0.000000
O O9 0.111262 0.500000 0.906673
O O10 0.182271 0.581150 0.267502
O O11 0.145102 0.608458 0.749134
O O12 0.000000 0.593262 0.000000
O O13 0.142124 0.121518 0.885859
O O14 0.000000 0.196869 0.000000
O O15 0.500000 0.787255 0.500000
O O16 0.500000 0.788569 0.000000
O O17 0.000000 0.915120 0.500000
O O18 0.121667 0.000000 0.752794
O O19 0.000000 0.943537 0.000000
#
# Coordination Sequence:
#
# PCOD8067535 Si02
#       7
#     4   4   4   4   4   4   4
#     4  11  22  33  51  80 109 137 168 204 261 325
#     4   9  17  31  53  78 102 129 160 197 250 313
#     4  11  24  41  59  76  97 132 180 224 252 286
#     4  11  21  33  47  73 114 147 168 204 254 303
#     4   9  17  31  49  70  98 131 169 211 249 293
#     4  11  22  37  58  80 103 134 169 210 261 314
#     4   9  17  31  50  69  95 141 191 219 241 283
#
# _framework density 18.736272
#
# number of rings (size 3 to 8) (size 9 to 14) (size 15 to 20)
#    0.000    1.857    0.000    5.571    0.000    9.143 
#    0.000    0.000    0.000    8.571    0.000    0.000 
#    0.000   11.429    0.000    0.000    0.000    0.000 
#
# Total GULP energy -347156.943389 kJ/mol
# GULP energy per Si atom -12398.462264 kJ/mol
# Density = 1.869363 g / cm^3
# Si number density = 18.736272 Si / 1000 Ang^3
#
#
#
# Elastic Constant Matrix: (Units=GPa)
#
#
# Indices 1 2 3 4 5 6 
#
# 1 84.9440 33.5545 36.5243 0.0000 0.6050 0.0000
# 2 33.5545 46.4217 26.9761 0.0000 10.2332 0.0000
# 3 36.5243 26.9761 149.8673 0.0000 2.4206 0.0000
# 4 0.0000 0.0000 0.0000 27.6496 0.0000 -0.7992
# 5 0.6050 10.2332 2.4206 0.0000 37.4135 0.0000
# 6 0.0000 0.0000 0.0000 -0.7992 0.0000 0.5899
#
#
#
# Elastic Compliance Matrix: (Units=1/GPa)
#
#
# Indices 1 2 3 4 5 6 
#
# 1 0.017427 -0.012055 -0.002128 0.000000 0.003153 0.000000
# 2 -0.012055 0.033981 -0.003035 0.000000 -0.008903 0.000000
# 3 -0.002128 -0.003035 0.007732 0.000000 0.000364 0.000000
# 4 0.000000 0.000000 0.000000 0.037641 0.000000 0.050999
# 5 0.003153 -0.008903 0.000364 0.000000 0.029089 0.000000
# 6 0.000000 0.000000 0.000000 0.050999 0.000000 1.764397
#
#
# Mechanical properties :
#
#
# Convention : Reuss Voigt Hill
#
# Bulk Modulus (GPa) = 40.47934 52.81585 46.64760
# Shear Modulus (GPa) = 2.58674 25.40915 13.99794
#
# Velocity S-wave (km/s) = 1.17627 3.68659 2.73629
# Velocity P-wave (km/s) = 4.84732 6.80966 5.91050
#
# Compressibility (1/GPa) = 0.02470396
#
# Stress axis : x y z
#
# Youngs Moduli (GPa) = 57.38215 29.42782 129.33871
#
# Poissons Ratio (x) = 0.35475 0.27526
# Poissons Ratio (y) = 0.69174 0.39253
# Poissons Ratio (z) = 0.12212 0.08931
#
# Static dielectric constant tensor:
#      x y z
#    x 3.486670 0.000000 -0.060280 
#    y 0.000000 3.471550 0.000000 
#    z -0.060280 0.000000 3.836280 
# 
# 
# High freq. dielectric constant tensor:
#      x y z
#    x 1.716850 0.000000 -0.007830 
#    y 0.000000 1.694300 0.000000 
#    z -0.007830 0.000000 1.751210 
# 
# From -- ./inp_files/7743.got.cif
#   From: 2010.06.25/outbox.cif.g09.slc.cpg/sg10_4_cif.got.tgz:7743.got - 2010.06.27 22:07:45.
