data_PCOD8067198
_publ_section_title
;
Structure prediction by ZEFSAII (Michael W. Deem and Ramdas Pophale) SiO2 
 PCOD8067198
Probable space group: P 2/M
;
_chemical_formula_sum "Si O2"
_cell_formula_units_Z 24
_cell_length_a 14.007968
_cell_length_b 17.552158
_cell_length_c 9.165226
_cell_angle_alpha 90.000000
_cell_angle_beta 27.589147
_cell_angle_gamma 90.000000
_cell_volume 1043.638349
_symmetry_space_group_name_H-M "P 2/M"
_symmetry_group_IT_number 10
_symmetry_cell_setting 'monoclinic'
loop_
_space_group_symop_operation_xyz
x,y,z
-x,y,-z
-x,-y,-z
x,-y,z
loop_
_atom_site_type_symbol
_atom_site_label
_atom_site_fract_x
_atom_site_fract_y
_atom_site_fract_z
Si Si1 0.981153 0.141611 0.864612
Si Si2 0.159824 0.410985 0.077431
Si Si3 0.374847 0.914589 0.815408
Si Si4 0.416571 0.204519 0.265996
Si Si5 0.209690 0.295494 0.781167
Si Si6 0.713055 0.411167 0.771614
O O1 0.208369 0.160893 0.503067
O O2 0.867961 0.088671 0.899479
O O3 0.840366 0.217215 0.067472
O O4 0.000000 0.102745 0.000000
O O5 0.171104 0.500000 0.019639
O O6 0.273429 0.395195 0.075313
O O7 0.921516 0.380722 0.410034
O O8 0.287005 0.360806 0.787310
O O9 0.500000 0.893662 0.500000
O O10 0.426633 0.855479 0.873289
O O11 0.426067 0.000000 0.800266
O O12 0.376498 0.276062 0.428959
O O13 0.500000 0.237060 0.000000
O O14 0.000000 0.329775 0.000000
O O15 0.711591 0.500000 0.741470
O O16 0.500000 0.374153 0.000000
#
# Coordination Sequence:
#
# PCOD8067198 Si02
#       6
#     4   4   4   4   4   4
#     4   9  19  39  61  89 125 164 205 252 302 380
#     4   9  17  32  57  88 123 164 212 267 321 370
#     4  11  21  37  68 102 125 159 206 253 318 378
#     4  10  22  42  64  89 126 171 215 259 308 372
#     4   9  19  38  59  84 121 164 216 259 308 383
#     4   8  15  31  56  89 127 160 197 255 325 389
#
# _framework density 22.996472000000001
#
# number of rings (size 3 to 8) (size 9 to 14) (size 15 to 20)
#    0.000    3.000    3.333    1.000    0.000    2.333 
#    0.000   19.167    0.000    0.500    0.000    7.000 
#    0.000    0.000    0.000    1.667    0.000    2.333 
#
# Total GULP energy -297416.910053 kJ/mol
# GULP energy per Si atom -12392.371252 kJ/mol
# Density = 2.294413 g / cm^3
# Si number density = 22.996472 Si / 1000 Ang^3
#
#
#
# Elastic Constant Matrix: (Units=GPa)
#
#
# Indices 1 2 3 4 5 6 
#
# 1 127.2370 61.2896 66.2238 0.0000 -5.1128 0.0000
# 2 61.2896 74.7740 34.3818 0.0000 18.9946 0.0000
# 3 66.2238 34.3818 108.7710 0.0000 9.8002 0.0000
# 4 0.0000 0.0000 0.0000 13.9247 0.0000 1.5933
# 5 -5.1128 18.9946 9.8002 0.0000 44.5189 0.0000
# 6 0.0000 0.0000 0.0000 1.5933 0.0000 6.6041
#
#
#
# Elastic Compliance Matrix: (Units=1/GPa)
#
#
# Indices 1 2 3 4 5 6 
#
# 1 0.019923 -0.015219 -0.008275 0.000000 0.010603 0.000000
# 2 -0.015219 0.028833 0.001447 0.000000 -0.014368 0.000000
# 3 -0.008275 0.001447 0.014197 0.000000 -0.004693 0.000000
# 4 0.000000 0.000000 0.000000 0.073853 0.000000 -0.017817
# 5 0.010603 -0.014368 -0.004693 0.000000 0.030843 0.000000
# 6 0.000000 0.000000 0.000000 -0.017817 0.000000 0.155719
#
#
# Mechanical properties :
#
#
# Convention : Reuss Voigt Hill
#
# Bulk Modulus (GPa) = 53.02520 70.50804 61.76662
# Shear Modulus (GPa) = 13.37798 22.93536 18.15667
#
# Velocity S-wave (km/s) = 2.41455 3.16150 2.81293
# Velocity P-wave (km/s) = 5.55710 6.63730 6.12107
#
# Compressibility (1/GPa) = 0.01885896
#
# Stress axis : x y z
#
# Youngs Moduli (GPa) = 50.19324 34.68283 70.43700
#
# Poissons Ratio (x) = 0.52783 0.58284
# Poissons Ratio (y) = 0.76388 -0.10189
# Poissons Ratio (z) = 0.41533 -0.05017
#
# Static dielectric constant tensor:
#      x y z
#    x 4.295160 0.000000 -0.318430 
#    y 0.000000 3.736930 0.000000 
#    z -0.318430 0.000000 4.065420 
# 
# 
# High freq. dielectric constant tensor:
#      x y z
#    x 1.909070 0.000000 -0.013890 
#    y 0.000000 1.886700 0.000000 
#    z -0.013890 0.000000 1.888610 
# 
# From -- ./inp_files/30038.got.cif
#   From: 2010.06.25/outbox.cif.g09.slc.cpg/sg10_16_cif.got.tgz:30038.got - 2010.06.27 22:07:45.
