data_PCOD8067957
_publ_section_title
;
Structure prediction by ZEFSAII (Michael W. Deem and Ramdas Pophale) SiO2 
 PCOD8067957
Probable space group: P 2/M
;
_chemical_formula_sum "Si O2"
_cell_formula_units_Z 32
_cell_length_a 20.451449
_cell_length_b 19.536886
_cell_length_c 15.155853
_cell_angle_alpha 90.000000
_cell_angle_beta 19.286075
_cell_angle_gamma 90.000000
_cell_volume 2000.085984
_symmetry_space_group_name_H-M "P 2/M"
_symmetry_group_IT_number 10
_symmetry_cell_setting 'monoclinic'
loop_
_space_group_symop_operation_xyz
x,y,z
-x,y,-z
-x,-y,-z
x,-y,z
loop_
_atom_site_type_symbol
_atom_site_label
_atom_site_fract_x
_atom_site_fract_y
_atom_site_fract_z
Si Si1 0.685066 0.681253 0.429881
Si Si2 0.190269 0.419024 0.309782
Si Si3 0.523251 0.576212 0.757501
Si Si4 0.688757 0.165670 0.434166
Si Si5 0.915416 0.576215 0.365251
Si Si6 0.623613 0.077547 0.252834
Si Si7 0.914908 0.318742 0.970233
Si Si8 0.065309 0.834336 0.057606
O O1 0.525796 0.626300 0.669350
O O2 0.600827 0.757574 0.553231
O O3 0.889927 0.674287 0.220131
O O4 0.724373 0.667648 0.275679
O O5 0.208006 0.500000 0.292121
O O6 0.171986 0.391534 0.432952
O O7 0.000000 0.393276 0.500000
O O8 0.381933 0.391560 0.013249
O O9 0.449659 0.500000 0.822331
O O10 0.741590 0.570431 0.516866
O O11 0.503030 0.113909 0.663835
O O12 0.832674 0.148038 0.334579
O O13 0.820925 0.160885 0.179081
O O14 0.006567 0.500000 0.265290
O O15 0.084071 0.626303 0.110938
O O16 0.500000 0.080733 0.500000
O O17 0.664341 0.000000 0.171342
O O18 0.836901 0.113911 0.996236
O O19 0.908970 0.242428 0.937031
#
# Coordination Sequence:
#
# PCOD8067957 Si02
#       8
#     4   4   4   4   4   4   4   4
#     4   8  14  25  40  58  81 108 136 166 204 248
#     4   9  17  29  41  53  75 103 131 168 213 254
#     4   9  16  26  42  61  78 101 136 174 209 245
#     4   8  14  25  38  52  76 108 136 164 201 243
#     4   9  16  26  42  61  78 101 136 174 209 245
#     4   9  16  24  36  56  77 100 137 174 199 232
#     4   8  14  25  40  58  81 108 136 166 204 248
#     4   8  14  25  38  52  76 108 136 164 201 243
#
# _framework density 15.999311000000001
#
# number of rings (size 3 to 8) (size 9 to 14) (size 15 to 20)
#    0.000    3.500    0.000    1.875    0.000    2.500 
#    2.250    5.000    0.000    0.000    0.000    3.500 
#    0.000    0.000    0.000    2.250    0.000   20.000 
#
# Total GULP energy -396464.405015 kJ/mol
# GULP energy per Si atom -12389.512657 kJ/mol
# Density = 1.596290 g / cm^3
# Si number density = 15.999311 Si / 1000 Ang^3
#
#
#
# Elastic Constant Matrix: (Units=GPa)
#
#
# Indices 1 2 3 4 5 6 
#
# 1 47.0418 47.2376 35.9650 0.0000 -2.6789 0.0000
# 2 47.2376 111.6165 51.1166 0.0000 5.9611 0.0000
# 3 35.9650 51.1166 50.5382 0.0000 8.1821 0.0000
# 4 0.0000 0.0000 0.0000 7.2275 0.0000 -6.2986
# 5 -2.6789 5.9611 8.1821 0.0000 21.0572 0.0000
# 6 0.0000 0.0000 0.0000 -6.2986 0.0000 11.4004
#
#
#
# Elastic Compliance Matrix: (Units=1/GPa)
#
#
# Indices 1 2 3 4 5 6 
#
# 1 0.061906 -0.010238 -0.037823 0.000000 0.025471 0.000000
# 2 -0.010238 0.018459 -0.011021 0.000000 -0.002246 0.000000
# 3 -0.037823 -0.011021 0.062027 0.000000 -0.025793 0.000000
# 4 0.000000 0.000000 0.000000 0.266836 0.000000 0.147424
# 5 0.025471 -0.002246 -0.025793 0.000000 0.061388 0.000000
# 6 0.000000 0.000000 0.000000 0.147424 0.000000 0.169166
#
#
# Mechanical properties :
#
#
# Convention : Reuss Voigt Hill
#
# Bulk Modulus (GPa) = 41.27611 53.09278 47.18444
# Shear Modulus (GPa) = 6.52721 12.92884 9.72803
#
# Velocity S-wave (km/s) = 2.02201 2.84577 2.46850
# Velocity P-wave (km/s) = 5.59518 6.63734 6.13842
#
# Compressibility (1/GPa) = 0.02422709
#
# Stress axis : x y z
#
# Youngs Moduli (GPa) = 16.15351 54.17285 16.12200
#
# Poissons Ratio (x) = 0.55462 0.60979
# Poissons Ratio (y) = 0.16538 0.17769
# Poissons Ratio (z) = 0.61098 0.59706
#
# Static dielectric constant tensor:
#      x y z
#    x 3.006990 0.000000 -0.061810 
#    y 0.000000 3.167760 0.000000 
#    z -0.061810 0.000000 2.965170 
# 
# 
# High freq. dielectric constant tensor:
#      x y z
#    x 1.593490 0.000000 -0.020590 
#    y 0.000000 1.594800 0.000000 
#    z -0.020590 0.000000 1.579800 
# 
# From -- ./inp_files/32931.got.cif
#   From: 2010.06.25/outbox.cif.g09.slc.cpg/sg10_17_cif.got.tgz:32931.got - 2010.06.27 22:07:45.
