data_PCOD8067399
_publ_section_title
;
Structure prediction by ZEFSAII (Michael W. Deem and Ramdas Pophale) SiO2 
 PCOD8067399
Probable space group: P 2/M
;
_chemical_formula_sum "Si O2"
_cell_formula_units_Z 22
_cell_length_a 13.309693
_cell_length_b 13.131212
_cell_length_c 12.776737
_cell_angle_alpha 90.000000
_cell_angle_beta 30.219011
_cell_angle_gamma 90.000000
_cell_volume 1123.894404
_symmetry_space_group_name_H-M "P 2/M"
_symmetry_group_IT_number 10
_symmetry_cell_setting 'monoclinic'
loop_
_space_group_symop_operation_xyz
x,y,z
-x,y,-z
-x,-y,-z
x,-y,z
loop_
_atom_site_type_symbol
_atom_site_label
_atom_site_fract_x
_atom_site_fract_y
_atom_site_fract_z
Si Si1 0.500000 0.266638 0.500000
Si Si2 0.114110 0.382104 0.788229
Si Si3 0.797248 0.886649 0.747825
Si Si4 0.986322 0.786614 0.764051
Si Si5 0.705504 0.886579 0.158812
Si Si6 0.348581 0.885972 0.332848
O O1 0.339331 0.338136 0.587218
O O2 0.372741 0.194421 0.689037
O O3 0.126340 0.500000 0.748660
O O4 0.991744 0.328727 0.803181
O O5 0.000000 0.364121 0.000000
O O6 0.827960 0.802668 0.811675
O O7 0.633208 0.853358 0.806900
O O8 0.000000 0.892644 0.500000
O O9 0.747843 0.000000 0.839058
O O10 0.208140 0.814837 0.528861
O O11 0.925215 0.856910 0.918970
O O12 0.569356 0.881758 0.178159
O O13 0.709054 0.000000 0.205199
O O14 0.257262 0.000000 0.420552
#
# Coordination Sequence:
#
# PCOD8067399 Si02
#       6
#     2   4   4   4   4   4
#     4  12  22  42  56  82 108 144 180 234 282 328
#     4  11  24  42  62  80  99 136 195 246 282 320
#     4   8  15  29  52  81 113 150 181 212 259 323
#     4  11  19  35  56  81 110 143 184 223 276 318
#     4  11  22  33  53  86 118 150 179 211 265 338
#     4   9  18  33  53  81 120 153 181 215 257 325
#
# _framework density 19.574791000000001
#
# number of rings (size 3 to 8) (size 9 to 14) (size 15 to 20)
#    0.000    1.818    3.636    3.273    0.000    0.727 
#    0.000    3.636    0.000    4.909    0.000    1.273 
#    0.000    0.000    0.000    0.000    0.000    0.000 
#
# Total GULP energy -272632.740618 kJ/mol
# GULP energy per Si atom -12392.397301 kJ/mol
# Density = 1.953024 g / cm^3
# Si number density = 19.574791 Si / 1000 Ang^3
#
#
#
# Elastic Constant Matrix: (Units=GPa)
#
#
# Indices 1 2 3 4 5 6 
#
# 1 87.4046 62.5925 5.4643 0.0000 9.9263 0.0000
# 2 62.5925 138.7856 36.1063 0.0000 14.8696 0.0000
# 3 5.4643 36.1063 67.7335 0.0000 23.0170 0.0000
# 4 0.0000 0.0000 0.0000 17.0350 0.0000 -2.3538
# 5 9.9263 14.8696 23.0170 0.0000 22.5164 0.0000
# 6 0.0000 0.0000 0.0000 -2.3538 0.0000 29.1484
#
#
#
# Elastic Compliance Matrix: (Units=1/GPa)
#
#
# Indices 1 2 3 4 5 6 
#
# 1 0.018506 -0.009053 0.006242 0.000000 -0.008560 0.000000
# 2 -0.009053 0.012826 -0.007025 0.000000 0.002702 0.000000
# 3 0.006242 -0.007025 0.026606 0.000000 -0.025309 0.000000
# 4 0.000000 0.000000 0.000000 0.059365 0.000000 0.004794
# 5 -0.008560 0.002702 -0.025309 0.000000 0.072274 0.000000
# 6 0.000000 0.000000 0.000000 0.004794 0.000000 0.034694
#
#
# Mechanical properties :
#
#
# Convention : Reuss Voigt Hill
#
# Bulk Modulus (GPa) = 26.13310 55.80553 40.96932
# Shear Modulus (GPa) = 19.47808 26.39067 22.93437
#
# Velocity S-wave (km/s) = 3.15788 3.67576 3.42662
# Velocity P-wave (km/s) = 5.16485 6.82538 6.05233
#
# Compressibility (1/GPa) = 0.03826564
#
# Stress axis : x y z
#
# Youngs Moduli (GPa) = 54.03650 77.96416 37.58613
#
# Poissons Ratio (x) = 0.70580 -0.23461
# Poissons Ratio (y) = 0.48919 0.26404
# Poissons Ratio (z) = -0.33729 0.54770
#
# Static dielectric constant tensor:
#      x y z
#    x 4.075600 0.000000 -0.032050 
#    y 0.000000 3.353320 0.000000 
#    z -0.032050 0.000000 3.620950 
# 
# 
# High freq. dielectric constant tensor:
#      x y z
#    x 1.765160 0.000000 0.001070 
#    y 0.000000 1.717400 0.000000 
#    z 0.001070 0.000000 1.781900 
# 
# From -- ./inp_files/67067.got.cif
#   From: 2010.06.25/outbox.cif.g09.slc.cpg/sg10_34_cif.got.tgz:67067.got - 2010.06.27 22:07:45.
