data_PCOD8067023
_publ_section_title
;
Structure prediction by ZEFSAII (Michael W. Deem and Ramdas Pophale) SiO2 
 PCOD8067023
Probable space group: P 2/M
;
_chemical_formula_sum "Si O2"
_cell_formula_units_Z 24
_cell_length_a 16.760913
_cell_length_b 9.190019
_cell_length_c 11.059997
_cell_angle_alpha 90.000000
_cell_angle_beta 47.906217
_cell_angle_gamma 90.000000
_cell_volume 1264.158212
_symmetry_space_group_name_H-M "P 2/M"
_symmetry_group_IT_number 10
_symmetry_cell_setting 'monoclinic'
loop_
_space_group_symop_operation_xyz
x,y,z
-x,y,-z
-x,-y,-z
x,-y,z
loop_
_atom_site_type_symbol
_atom_site_label
_atom_site_fract_x
_atom_site_fract_y
_atom_site_fract_z
Si Si1 0.890722 0.663618 0.785115
Si Si2 0.654345 0.336212 0.038862
Si Si3 0.746868 0.830024 0.474353
Si Si4 0.053464 0.327396 0.821671
Si Si5 0.511257 0.169270 0.628310
Si Si6 0.234367 0.828602 0.266753
O O1 0.921002 0.500000 0.712556
O O2 0.980038 0.727720 0.784510
O O3 0.876524 0.765512 0.680170
O O4 0.775272 0.661296 0.972613
O O5 0.613813 0.500000 0.053371
O O6 0.576022 0.260329 0.211439
O O7 0.662235 0.246209 0.904068
O O8 0.628385 0.783763 0.554392
O O9 0.763775 0.784444 0.595761
O O10 0.829767 0.743484 0.306669
O O11 0.766532 0.000000 0.434368
O O12 0.064686 0.500000 0.808451
O O13 0.000000 0.273389 0.000000
O O14 0.500000 0.208729 0.500000
O O15 0.489467 0.000000 0.674981
O O16 0.240945 0.000000 0.240326
#
# Coordination Sequence:
#
# PCOD8067023 Si02
#       6
#     4   4   4   4   4   4
#     4   8  18  36  56  82 112 142 181 226 271 325
#     4   9  19  36  58  83 111 144 185 227 273 327
#     4  10  23  39  55  84 115 143 185 233 277 326
#     4  10  22  39  59  82 112 149 185 226 277 331
#     4  10  22  39  58  81 113 149 186 228 276 329
#     4   9  18  35  58  82 112 147 183 226 277 330
#
# _framework density 18.984966
#
# number of rings (size 3 to 8) (size 9 to 14) (size 15 to 20)
#    1.000    1.667    0.000    0.500    2.333    4.667 
#    0.000    6.667    0.000    0.000    0.000    0.000 
#    0.000    0.000    0.000    0.000    0.000    0.000 
#
# Total GULP energy -297474.738977 kJ/mol
# GULP energy per Si atom -12394.780791 kJ/mol
# Density = 1.894176 g / cm^3
# Si number density = 18.984966 Si / 1000 Ang^3
#
#
#
# Elastic Constant Matrix: (Units=GPa)
#
#
# Indices 1 2 3 4 5 6 
#
# 1 73.2155 13.6418 -2.7866 0.0000 6.9536 0.0000
# 2 13.6418 61.5090 30.2109 0.0000 4.3308 0.0000
# 3 -2.7866 30.2109 58.6639 0.0000 0.0264 0.0000
# 4 0.0000 0.0000 0.0000 30.9800 0.0000 -4.3479
# 5 6.9536 4.3308 0.0264 0.0000 26.8269 0.0000
# 6 0.0000 0.0000 0.0000 -4.3479 0.0000 21.7138
#
#
#
# Elastic Compliance Matrix: (Units=1/GPa)
#
#
# Indices 1 2 3 4 5 6 
#
# 1 0.014931 -0.004605 0.003082 0.000000 -0.003130 0.000000
# 2 -0.004605 0.023517 -0.012328 0.000000 -0.002591 0.000000
# 3 0.003082 -0.012328 0.023541 0.000000 0.001168 0.000000
# 4 0.000000 0.000000 0.000000 0.033212 0.000000 0.006650
# 5 -0.003130 -0.002591 0.001168 0.000000 0.038504 0.000000
# 6 0.000000 0.000000 0.000000 0.006650 0.000000 0.047385
#
#
# Mechanical properties :
#
#
# Convention : Reuss Voigt Hill
#
# Bulk Modulus (GPa) = 29.16609 30.61340 29.88975
# Shear Modulus (GPa) = 22.70445 26.05897 24.38171
#
# Velocity S-wave (km/s) = 3.46196 3.70890 3.58755
# Velocity P-wave (km/s) = 5.60145 5.87378 5.73923
#
# Compressibility (1/GPa) = 0.03428639
#
# Stress axis : x y z
#
# Youngs Moduli (GPa) = 66.97535 42.52310 42.47918
#
# Poissons Ratio (x) = 0.19581 -0.13092
# Poissons Ratio (y) = 0.30841 0.52369
# Poissons Ratio (z) = -0.20642 0.52423
#
# Static dielectric constant tensor:
#      x y z
#    x 3.477200 0.000000 0.036280 
#    y 0.000000 3.370270 0.000000 
#    z 0.036280 0.000000 3.304870 
# 
# 
# High freq. dielectric constant tensor:
#      x y z
#    x 1.731640 0.000000 -0.000430 
#    y 0.000000 1.735220 0.000000 
#    z -0.000430 0.000000 1.733480 
# 
# From -- ./inp_files/52605.got.cif
#   From: 2010.06.25/outbox.cif.g09.slc.cpg/sg10_27_cif.got.tgz:52605.got - 2010.06.27 22:07:45.
