data_PCOD8067313
_publ_section_title
;
Structure prediction by ZEFSAII (Michael W. Deem and Ramdas Pophale) SiO2 
 PCOD8067313
Probable space group: P 2/M
;
_chemical_formula_sum "Si O2"
_cell_formula_units_Z 24
_cell_length_a 24.698053
_cell_length_b 8.706470
_cell_length_c 12.139267
_cell_angle_alpha 90.000000
_cell_angle_beta 154.620979
_cell_angle_gamma 90.000000
_cell_volume 1118.803613
_symmetry_space_group_name_H-M "P 2/M"
_symmetry_group_IT_number 10
_symmetry_cell_setting 'monoclinic'
loop_
_space_group_symop_operation_xyz
x,y,z
-x,y,-z
-x,-y,-z
x,-y,z
loop_
_atom_site_type_symbol
_atom_site_label
_atom_site_fract_x
_atom_site_fract_y
_atom_site_fract_z
Si Si1 0.285367 0.321014 0.878992
Si Si2 0.967738 0.177116 0.565315
Si Si3 0.854500 0.677112 0.734444
Si Si4 0.629939 0.818369 0.181679
Si Si5 0.810954 0.675407 0.904780
Si Si6 0.352713 0.170523 0.231788
O O1 0.313151 0.500000 0.937216
O O2 0.140352 0.285574 0.582522
O O3 0.375290 0.249134 0.951148
O O4 0.304537 0.244179 0.031629
O O5 0.000000 0.224871 0.500000
O O6 0.087011 0.207177 0.860838
O O7 0.926150 0.000000 0.496963
O O8 0.856324 0.500000 0.700163
O O9 0.759012 0.765296 0.478562
O O10 0.796170 0.698650 0.747969
O O11 0.000000 0.740277 0.000000
O O12 0.632543 0.000000 0.180541
O O13 0.500000 0.760556 0.000000
O O14 0.846484 0.500000 0.998540
O O15 0.680979 0.722897 0.725542
O O16 0.500000 0.156391 0.500000
O O17 0.291838 0.000000 0.130808
#
# Coordination Sequence:
#
# PCOD8067313 Si02
#       6
#     4   4   4   4   4   4
#     4  12  25  42  68  96 129 168 213 270 327 385
#     4  11  22  38  63  95 131 169 210 259 319 385
#     4  10  23  44  68  98 134 173 220 273 330 391
#     4  11  26  46  69  98 132 175 224 272 328 397
#     4  11  23  39  65  99 132 167 214 268 322 386
#     4  11  25  43  63  90 128 172 215 264 323 387
#
# _framework density 21.451485999999999
#
# number of rings (size 3 to 8) (size 9 to 14) (size 15 to 20)
#    0.000    1.000    1.667    4.500    2.333    6.333 
#    0.000    0.000    0.000    0.000    0.000    0.000 
#    0.000    0.000    0.000    0.000    0.000    0.000 
#
# Total GULP energy -297664.267587 kJ/mol
# GULP energy per Si atom -12402.677816 kJ/mol
# Density = 2.140266 g / cm^3
# Si number density = 21.451486 Si / 1000 Ang^3
#
#
#
# Elastic Constant Matrix: (Units=GPa)
#
#
# Indices 1 2 3 4 5 6 
#
# 1 135.5714 45.0470 15.9826 0.0000 9.2628 0.0000
# 2 45.0470 89.0352 22.9120 0.0000 1.4055 0.0000
# 3 15.9826 22.9120 66.0152 0.0000 9.1394 0.0000
# 4 0.0000 0.0000 0.0000 39.8525 0.0000 4.4776
# 5 9.2628 1.4055 9.1394 0.0000 30.6601 0.0000
# 6 0.0000 0.0000 0.0000 4.4776 0.0000 35.7040
#
#
#
# Elastic Compliance Matrix: (Units=1/GPa)
#
#
# Indices 1 2 3 4 5 6 
#
# 1 0.009064 -0.004469 -0.000305 0.000000 -0.002442 0.000000
# 2 -0.004469 0.014552 -0.004238 0.000000 0.001946 0.000000
# 3 -0.000305 -0.004238 0.017370 0.000000 -0.004891 0.000000
# 4 0.000000 0.000000 0.000000 0.025451 0.000000 -0.003192
# 5 -0.002442 0.001946 -0.004891 0.000000 0.034722 0.000000
# 6 0.000000 0.000000 0.000000 -0.003192 0.000000 0.028408
#
#
# Mechanical properties :
#
#
# Convention : Reuss Voigt Hill
#
# Bulk Modulus (GPa) = 43.55064 50.94500 47.24782
# Shear Modulus (GPa) = 32.20679 35.02201 33.61440
#
# Velocity S-wave (km/s) = 3.87897 4.04495 3.96283
# Velocity P-wave (km/s) = 6.35672 6.75396 6.55835
#
# Compressibility (1/GPa) = 0.02296177
#
# Stress axis : x y z
#
# Youngs Moduli (GPa) = 110.32775 68.71725 57.57025
#
# Poissons Ratio (x) = 0.30708 0.01758
# Poissons Ratio (y) = 0.49302 0.24400
# Poissons Ratio (z) = 0.03368 0.29124
#
# Static dielectric constant tensor:
#      x y z
#    x 4.408720 0.000000 0.385250 
#    y 0.000000 3.926590 0.000000 
#    z 0.385250 0.000000 4.836710 
# 
# 
# High freq. dielectric constant tensor:
#      x y z
#    x 1.858980 0.000000 0.005180 
#    y 0.000000 1.845860 0.000000 
#    z 0.005180 0.000000 1.839720 
# 
# From -- ./inp_files/56675.got.cif
#   From: 2010.06.25/outbox.cif.g09.slc.cpg/sg10_29_cif.got.tgz:56675.got - 2010.06.27 22:07:45.
