data_PCOD8067985
_publ_section_title
;
Structure prediction by ZEFSAII (Michael W. Deem and Ramdas Pophale) SiO2 
 PCOD8067985
Probable space group: P 2/M
;
_chemical_formula_sum "Si O2"
_cell_formula_units_Z 20
_cell_length_a 8.769718
_cell_length_b 12.177708
_cell_length_c 7.401346
_cell_angle_alpha 90.000000
_cell_angle_beta 82.439736
_cell_angle_gamma 90.000000
_cell_volume 783.556063
_symmetry_space_group_name_H-M "P 2/M"
_symmetry_group_IT_number 10
_symmetry_cell_setting 'monoclinic'
loop_
_space_group_symop_operation_xyz
x,y,z
-x,y,-z
-x,-y,-z
x,-y,z
loop_
_atom_site_type_symbol
_atom_site_label
_atom_site_fract_x
_atom_site_fract_y
_atom_site_fract_z
Si Si1 0.794196 0.000000 0.896852
Si Si2 0.108429 0.766257 0.648523
Si Si3 0.380534 0.623646 0.854195
Si Si4 0.807001 0.760101 0.872393
Si Si5 0.142945 0.000000 0.723665
Si Si6 0.336008 0.374036 0.427013
O O1 0.731786 0.118937 0.838823
O O2 0.970690 0.000000 0.819738
O O3 0.752309 0.000000 0.115383
O O4 0.255267 0.681988 0.620990
O O5 0.000000 0.733597 0.500000
O O6 0.995255 0.762995 0.841457
O O7 0.175406 0.889743 0.603892
O O8 0.311480 0.500000 0.865326
O O9 0.477267 0.639163 0.645998
O O10 0.500000 0.635751 0.000000
O O11 0.247952 0.715867 0.919419
O O12 0.746309 0.678041 0.731709
O O13 0.289676 0.500000 0.438591
#
# Coordination Sequence:
#
# PCOD8067985 Si02
#       6
#     2   4   4   4   2   4
#     4   9  18  30  46  65  89 121 154 184 216 255
#     4   9  17  27  46  71  91 112 144 185 226 265
#     4   8  14  26  43  63  90 120 145 176 223 268
#     4   9  16  27  44  67  90 115 151 182 212 263
#     4   9  17  32  47  63  91 122 148 182 224 264
#     4   9  17  28  44  69  97 118 139 179 232 271
#
# _framework density 25.524657000000001
#
# number of rings (size 3 to 8) (size 9 to 14) (size 15 to 20)
#    0.000    3.200    0.000    2.100    0.000    6.800 
#    0.000    5.500    0.000    4.800    0.000   23.800 
#    0.000    0.000    0.000    0.000    0.000    0.000 
#
# Total GULP energy -247783.727782 kJ/mol
# GULP energy per Si atom -12389.186389 kJ/mol
# Density = 2.546656 g / cm^3
# Si number density = 25.524657 Si / 1000 Ang^3
#
#
#
# Elastic Constant Matrix: (Units=GPa)
#
#
# Indices 1 2 3 4 5 6 
#
# 1 94.0308 90.0693 33.6068 0.0000 -24.4429 0.0000
# 2 90.0693 249.6099 83.6696 0.0000 -45.1042 0.0000
# 3 33.6068 83.6696 175.6622 0.0000 -30.7252 0.0000
# 4 0.0000 0.0000 0.0000 25.1430 0.0000 2.1670
# 5 -24.4429 -45.1042 -30.7252 0.0000 30.9590 0.0000
# 6 0.0000 0.0000 0.0000 2.1670 0.0000 14.1970
#
#
#
# Elastic Compliance Matrix: (Units=1/GPa)
#
#
# Indices 1 2 3 4 5 6 
#
# 1 0.017073 -0.005113 0.000271 0.000000 0.006299 0.000000
# 2 -0.005113 0.007296 -0.001626 0.000000 0.004979 0.000000
# 3 0.000271 -0.001626 0.007307 0.000000 0.005097 0.000000
# 4 0.000000 0.000000 0.000000 0.040303 0.000000 -0.006152
# 5 0.006299 0.004979 0.005097 0.000000 0.049586 0.000000
# 6 0.000000 0.000000 0.000000 -0.006152 0.000000 0.071377
#
#
# Mechanical properties :
#
#
# Convention : Reuss Voigt Hill
#
# Bulk Modulus (GPa) = 53.36388 103.77713 78.57050
# Shear Modulus (GPa) = 23.57105 34.85694 29.21400
#
# Velocity S-wave (km/s) = 3.04215 3.69944 3.38678
# Velocity P-wave (km/s) = 5.76990 7.68073 6.79284
#
# Compressibility (1/GPa) = 0.01873927
#
# Stress axis : x y z
#
# Youngs Moduli (GPa) = 58.57101 137.06017 136.85731
#
# Poissons Ratio (x) = 0.70083 -0.03708
# Poissons Ratio (y) = 0.29949 0.22254
# Poissons Ratio (z) = -0.01587 0.22287
#
# Static dielectric constant tensor:
#      x y z
#    x 5.071310 0.000000 -0.855150 
#    y 0.000000 4.932490 0.000000 
#    z -0.855150 0.000000 6.220670 
# 
# 
# High freq. dielectric constant tensor:
#      x y z
#    x 2.013950 0.000000 0.015260 
#    y 0.000000 2.019730 0.000000 
#    z 0.015260 0.000000 2.076150 
# 
# From -- ./inp_files/23528.got.cif
#   From: 2010.06.25/outbox.cif.g09.slc.cpg/sg10_12_cif.got.tgz:23528.got - 2010.06.27 22:07:45.
