data_PCOD8067460
_publ_section_title
;
Structure prediction by ZEFSAII (Michael W. Deem and Ramdas Pophale) SiO2 
 PCOD8067460
Probable space group: P 2/M
;
_chemical_formula_sum "Si O2"
_cell_formula_units_Z 32
_cell_length_a 16.849622
_cell_length_b 8.501068
_cell_length_c 14.515950
_cell_angle_alpha 90.000000
_cell_angle_beta 63.516316
_cell_angle_gamma 90.000000
_cell_volume 1861.066702
_symmetry_space_group_name_H-M "P 2/M"
_symmetry_group_IT_number 10
_symmetry_cell_setting 'monoclinic'
loop_
_space_group_symop_operation_xyz
x,y,z
-x,y,-z
-x,-y,-z
x,-y,z
loop_
_atom_site_type_symbol
_atom_site_label
_atom_site_fract_x
_atom_site_fract_y
_atom_site_fract_z
Si Si1 0.404248 0.815779 0.939646
Si Si2 0.051538 0.318676 0.721124
Si Si3 0.867445 0.179214 0.816990
Si Si4 0.222684 0.318539 0.308104
Si Si5 0.765646 0.317241 0.032297
Si Si6 0.603541 0.184532 0.844042
Si Si7 0.911230 0.816990 0.492137
Si Si8 0.913144 0.314447 0.096775
O O1 0.338926 0.721842 0.903606
O O2 0.504895 0.770315 0.861234
O O3 0.389320 0.000000 0.934498
O O4 0.384948 0.766165 0.055231
O O5 0.074608 0.500000 0.689010
O O6 0.081925 0.212922 0.620173
O O7 0.096062 0.255322 0.792900
O O8 0.946692 0.301276 0.790670
O O9 0.823344 0.205335 0.741523
O O10 0.901794 0.000000 0.803717
O O11 0.795187 0.210246 0.932044
O O12 0.209117 0.500000 0.289566
O O13 0.327318 0.278685 0.256019
O O14 0.174639 0.279915 0.429369
O O15 0.780748 0.500000 0.003104
O O16 0.822324 0.266339 0.092373
O O17 0.620341 0.000000 0.824268
O O18 0.000000 0.759103 0.500000
O O19 0.896002 0.000000 0.518188
O O20 0.926597 0.500000 0.093211
O O21 0.000000 0.241385 0.000000
#
# Coordination Sequence:
#
# PCOD8067460 Si02
#       8
#     4   4   4   4   4   4   4   4
#     4   9  18  32  50  73 104 139 169 204 254 307
#     4  11  21  36  55  73  99 135 178 218 250 294
#     4  12  22  32  47  71 105 139 172 211 255 299
#     4  12  23  34  52  77 101 134 177 213 249 302
#     4  11  20  32  51  75 102 138 177 213 251 298
#     4   9  18  33  51  72 104 139 167 204 257 306
#     4  11  23  37  53  74 104 137 169 209 257 305
#     4   9  18  33  51  74 104 136 170 211 258 297
#
# _framework density 17.194441000000001
#
# number of rings (size 3 to 8) (size 9 to 14) (size 15 to 20)
#    0.000    1.500    3.750    4.125    0.000    1.000 
#    0.000    4.375    0.000    0.000    0.000    0.875 
#    0.000    7.000    0.000    0.000    0.000    0.000 
#
# Total GULP energy -396791.228485 kJ/mol
# GULP energy per Si atom -12399.725890 kJ/mol
# Density = 1.715531 g / cm^3
# Si number density = 17.194441 Si / 1000 Ang^3
#
#
#
# Elastic Constant Matrix: (Units=GPa)
#
#
# Indices 1 2 3 4 5 6 
#
# 1 125.1042 24.3638 56.6533 0.0000 -2.5501 0.0000
# 2 24.3638 54.3614 30.8354 0.0000 -3.5917 0.0000
# 3 56.6533 30.8354 72.8772 0.0000 -2.8575 0.0000
# 4 0.0000 0.0000 0.0000 20.0016 0.0000 -6.6353
# 5 -2.5501 -3.5917 -2.8575 0.0000 30.0011 0.0000
# 6 0.0000 0.0000 0.0000 -6.6353 0.0000 21.8846
#
#
#
# Elastic Compliance Matrix: (Units=1/GPa)
#
#
# Indices 1 2 3 4 5 6 
#
# 1 0.012337 -0.000110 -0.009539 0.000000 0.000127 0.000000
# 2 -0.000110 0.024317 -0.010127 0.000000 0.001937 0.000000
# 3 -0.009539 -0.010127 0.025438 0.000000 0.000400 0.000000
# 4 0.000000 0.000000 0.000000 0.055587 0.000000 0.016854
# 5 0.000127 0.001937 0.000400 0.000000 0.033613 0.000000
# 6 0.000000 0.000000 0.000000 0.016854 0.000000 0.050804
#
#
# Mechanical properties :
#
#
# Convention : Reuss Voigt Hill
#
# Bulk Modulus (GPa) = 44.36725 52.89420 48.63072
# Shear Modulus (GPa) = 20.06721 23.74349 21.90535
#
# Velocity S-wave (km/s) = 3.41995 3.72005 3.57316
# Velocity P-wave (km/s) = 6.43848 7.02003 6.73554
#
# Compressibility (1/GPa) = 0.02253915
#
# Stress axis : x y z
#
# Youngs Moduli (GPa) = 81.05618 41.12296 39.31137
#
# Poissons Ratio (x) = 0.00453 0.37499
# Poissons Ratio (y) = 0.00892 0.39812
# Poissons Ratio (z) = 0.77320 0.41647
#
# Static dielectric constant tensor:
#      x y z
#    x 3.287270 0.000000 -0.061630 
#    y 0.000000 3.021520 0.000000 
#    z -0.061630 0.000000 3.115430 
# 
# 
# High freq. dielectric constant tensor:
#      x y z
#    x 1.651550 0.000000 -0.010020 
#    y 0.000000 1.660760 0.000000 
#    z -0.010020 0.000000 1.638540 
# 
# From -- ./inp_files/66559.got.cif
#   From: 2010.06.25/outbox.cif.g09.slc.cpg/sg10_34_cif.got.tgz:66559.got - 2010.06.27 22:07:45.
