data_PCOD8067042
_publ_section_title
;
Structure prediction by ZEFSAII (Michael W. Deem and Ramdas Pophale) SiO2 
 PCOD8067042
Probable space group: P 2/M
;
_chemical_formula_sum "Si O2"
_cell_formula_units_Z 32
_cell_length_a 15.840531
_cell_length_b 22.764377
_cell_length_c 9.050422
_cell_angle_alpha 90.000000
_cell_angle_beta 152.874216
_cell_angle_gamma 90.000000
_cell_volume 1488.014766
_symmetry_space_group_name_H-M "P 2/M"
_symmetry_group_IT_number 10
_symmetry_cell_setting 'monoclinic'
loop_
_space_group_symop_operation_xyz
x,y,z
-x,y,-z
-x,-y,-z
x,-y,z
loop_
_atom_site_type_symbol
_atom_site_label
_atom_site_fract_x
_atom_site_fract_y
_atom_site_fract_z
Si Si1 0.303673 0.863279 0.768210
Si Si2 0.148341 0.566279 0.611224
Si Si3 0.084111 0.241659 0.280680
Si Si4 0.833715 0.281490 0.133707
Si Si5 0.545218 0.386367 0.729921
Si Si6 0.027797 0.065134 0.717888
Si Si7 0.691525 0.645592 0.384189
Si Si8 0.678437 0.844477 0.876899
O O1 0.187930 0.804501 0.548230
O O2 0.166991 0.916722 0.509378
O O3 0.500000 0.866595 0.000000
O O4 0.361888 0.873212 0.028767
O O5 0.098878 0.500000 0.485249
O O6 0.163544 0.605839 0.485769
O O7 0.000000 0.590932 0.500000
O O8 0.341940 0.566223 0.999581
O O9 0.234169 0.289869 0.471547
O O10 0.915761 0.276625 0.096816
O O11 0.000000 0.212528 0.000000
O O12 0.000000 0.300508 0.500000
O O13 0.663784 0.326512 0.889442
O O14 0.764140 0.216771 0.061670
O O15 0.500000 0.413591 0.500000
O O16 0.352930 0.377914 0.520167
O O17 0.000000 0.066773 0.500000
O O18 0.085810 0.000000 0.862972
O O19 0.183417 0.113562 0.002167
O O20 0.500000 0.650768 0.000000
O O21 0.500000 0.833962 0.500000
#
# Coordination Sequence:
#
# PCOD8067042 Si02
#       8
#     4   4   4   4   4   4   4   4
#     4  11  24  38  61  93 127 162 208 265 323 385
#     4  10  22  42  66  88 119 170 218 257 312 385
#     4  12  24  37  60  88 129 166 205 260 326 386
#     4  12  21  39  60  86 127 166 210 256 318 383
#     4  11  23  37  60  92 126 159 208 267 324 380
#     4   9  19  42  65  88 122 165 215 261 315 383
#     4  10  22  39  59  89 124 162 208 259 319 384
#     4  11  23  39  62  91 123 166 213 260 316 386
#
# _framework density 21.505163
#
# number of rings (size 3 to 8) (size 9 to 14) (size 15 to 20)
#    0.000    1.250    2.500    4.500    3.500    3.000 
#    0.000    0.000    0.000    4.500    0.000    0.000 
#    0.000    0.000    0.000    0.000    0.000    0.000 
#
# Total GULP energy -396515.054671 kJ/mol
# GULP energy per Si atom -12391.095458 kJ/mol
# Density = 2.145622 g / cm^3
# Si number density = 21.505163 Si / 1000 Ang^3
#
#
#
# Elastic Constant Matrix: (Units=GPa)
#
#
# Indices 1 2 3 4 5 6 
#
# 1 127.0308 12.2561 37.8471 0.0000 13.8763 0.0000
# 2 12.2561 80.4219 21.0596 0.0000 12.5203 0.0000
# 3 37.8471 21.0596 67.5481 0.0000 -0.0238 0.0000
# 4 0.0000 0.0000 0.0000 20.2323 0.0000 8.4045
# 5 13.8763 12.5203 -0.0238 0.0000 43.5181 0.0000
# 6 0.0000 0.0000 0.0000 8.4045 0.0000 13.9047
#
#
#
# Elastic Compliance Matrix: (Units=1/GPa)
#
#
# Indices 1 2 3 4 5 6 
#
# 1 0.009880 0.000498 -0.005692 0.000000 -0.003297 0.000000
# 2 0.000498 0.014260 -0.004726 0.000000 -0.004264 0.000000
# 3 -0.005692 -0.004726 0.019468 0.000000 0.003186 0.000000
# 4 0.000000 0.000000 0.000000 0.065996 0.000000 -0.039891
# 5 -0.003297 -0.004264 0.003186 0.000000 0.025259 0.000000
# 6 0.000000 0.000000 0.000000 -0.039891 0.000000 0.096029
#
#
# Mechanical properties :
#
#
# Convention : Reuss Voigt Hill
#
# Bulk Modulus (GPa) = 42.07466 46.36959 44.22212
# Shear Modulus (GPa) = 19.33065 29.12023 24.22544
#
# Velocity S-wave (km/s) = 3.00139 3.68381 3.35997
# Velocity P-wave (km/s) = 5.62304 6.30102 5.97165
#
# Compressibility (1/GPa) = 0.02376727
#
# Stress axis : x y z
#
# Youngs Moduli (GPa) = 101.21344 70.12597 51.36544
#
# Poissons Ratio (x) = -0.03493 0.29239
# Poissons Ratio (y) = -0.05042 0.24278
# Poissons Ratio (z) = 0.57614 0.33145
#
# Static dielectric constant tensor:
#      x y z
#    x 4.162600 0.000000 0.171880 
#    y 0.000000 3.808640 0.000000 
#    z 0.171880 0.000000 3.771290 
# 
# 
# High freq. dielectric constant tensor:
#      x y z
#    x 1.850090 0.000000 0.012810 
#    y 0.000000 1.831000 0.000000 
#    z 0.012810 0.000000 1.833270 
# 
# From -- ./inp_files/30606.got.cif
#   From: 2010.06.25/outbox.cif.g09.slc.cpg/sg10_16_cif.got.tgz:30606.got - 2010.06.27 22:07:45.
