data_PCOD8067782
_publ_section_title
;
Structure prediction by ZEFSAII (Michael W. Deem and Ramdas Pophale) SiO2 
 PCOD8067782
Probable space group: P 2/M
;
_chemical_formula_sum "Si O2"
_cell_formula_units_Z 28
_cell_length_a 8.911370
_cell_length_b 17.057973
_cell_length_c 15.675208
_cell_angle_alpha 90.000000
_cell_angle_beta 29.977852
_cell_angle_gamma 90.000000
_cell_volume 1190.595702
_symmetry_space_group_name_H-M "P 2/M"
_symmetry_group_IT_number 10
_symmetry_cell_setting 'monoclinic'
loop_
_space_group_symop_operation_xyz
x,y,z
-x,y,-z
-x,-y,-z
x,-y,z
loop_
_atom_site_type_symbol
_atom_site_label
_atom_site_fract_x
_atom_site_fract_y
_atom_site_fract_z
Si Si1 0.834499 0.687244 0.322987
Si Si2 0.290764 0.140074 0.676910
Si Si3 0.650142 0.173248 0.672732
Si Si4 0.120093 0.589249 0.852054
Si Si5 0.282990 0.411487 0.184223
Si Si6 0.658877 0.358375 0.670562
Si Si7 0.366025 0.910736 0.976126
O O1 0.500000 0.656305 0.500000
O O2 0.833719 0.778901 0.302581
O O3 0.002363 0.640671 0.164751
O O4 0.025768 0.658211 0.310991
O O5 0.500000 0.101023 0.500000
O O6 0.486322 0.145622 0.666721
O O7 0.996547 0.089758 0.842309
O O8 0.617976 0.265760 0.689421
O O9 0.000000 0.146948 0.500000
O O10 0.488441 0.139307 0.836319
O O11 0.026129 0.500000 0.882252
O O12 0.481475 0.601793 0.679756
O O13 0.000000 0.624201 0.000000
O O14 0.148713 0.500000 0.247954
O O15 0.473269 0.396128 0.176661
O O16 0.500000 0.396897 0.000000
O O17 0.000000 0.386531 0.500000
O O18 0.471619 0.000000 0.910189
O O19 0.500000 0.878440 0.000000
#
# Coordination Sequence:
#
# PCOD8067782 Si02
#       7
#     4   4   4   4   4   4   4
#     4  11  24  39  62  92 125 171 226 279 338 406
#     4  11  25  44  72 108 144 186 236 288 345 412
#     4  11  25  44  72 108 144 186 236 288 345 412
#     4  11  23  39  59  87 127 172 221 280 340 398
#     4  11  25  41  59  89 127 174 227 286 352 406
#     4  11  24  39  62  92 125 171 226 279 338 406
#     4  11  27  49  77 111 144 185 226 271 344 419
#
# _framework density 23.517638000000002
#
# number of rings (size 3 to 8) (size 9 to 14) (size 15 to 20)
#    0.000    1.000    1.429    3.857   12.000    7.429 
#    0.000    0.000    0.000    0.000    0.000    0.000 
#    0.000    0.000    0.000    0.000    0.000    0.000 
#
# Total GULP energy -347117.502532 kJ/mol
# GULP energy per Si atom -12397.053662 kJ/mol
# Density = 2.346411 g / cm^3
# Si number density = 23.517638 Si / 1000 Ang^3
#
#
#
# Elastic Constant Matrix: (Units=GPa)
#
#
# Indices 1 2 3 4 5 6 
#
# 1 116.3110 2.4795 10.8890 0.0000 0.1558 0.0000
# 2 2.4795 34.2537 3.9258 0.0000 -1.2166 0.0000
# 3 10.8890 3.9258 92.8520 0.0000 9.5249 0.0000
# 4 0.0000 0.0000 0.0000 25.3941 0.0000 -6.7568
# 5 0.1558 -1.2166 9.5249 0.0000 42.0533 0.0000
# 6 0.0000 0.0000 0.0000 -6.7568 0.0000 15.5134
#
#
#
# Elastic Compliance Matrix: (Units=1/GPa)
#
#
# Indices 1 2 3 4 5 6 
#
# 1 0.008704 -0.000507 -0.001018 0.000000 0.000184 0.000000
# 2 -0.000507 0.029421 -0.001302 0.000000 0.001148 0.000000
# 3 -0.001018 -0.001302 0.011208 0.000000 -0.002573 0.000000
# 4 0.000000 0.000000 0.000000 0.044541 0.000000 0.019400
# 5 0.000184 0.001148 -0.002573 0.000000 0.024395 0.000000
# 6 0.000000 0.000000 0.000000 0.019400 0.000000 0.072910
#
#
# Mechanical properties :
#
#
# Convention : Reuss Voigt Hill
#
# Bulk Modulus (GPa) = 22.89483 30.88949 26.89216
# Shear Modulus (GPa) = 23.65281 31.66699 27.65990
#
# Velocity S-wave (km/s) = 3.17479 3.67348 3.43320
# Velocity P-wave (km/s) = 4.81616 5.58173 5.21302
#
# Compressibility (1/GPa) = 0.04367797
#
# Stress axis : x y z
#
# Youngs Moduli (GPa) = 114.89620 33.98977 89.22063
#
# Poissons Ratio (x) = 0.01723 0.09084
# Poissons Ratio (y) = 0.05823 0.11619
# Poissons Ratio (z) = 0.11698 0.04426
#
# Static dielectric constant tensor:
#      x y z
#    x 4.808590 0.000000 -0.054100 
#    y 0.000000 3.877920 0.000000 
#    z -0.054100 0.000000 4.542210 
# 
# 
# High freq. dielectric constant tensor:
#      x y z
#    x 1.958600 0.000000 0.000570 
#    y 0.000000 1.905610 0.000000 
#    z 0.000570 0.000000 1.947630 
# 
# From -- ./inp_files/62553.got.cif
#   From: 2010.06.25/outbox.cif.g09.slc.cpg/sg10_32_cif.got.tgz:62553.got - 2010.06.27 22:07:45.
