data_PCOD8067709
_publ_section_title
;
Structure prediction by ZEFSAII (Michael W. Deem and Ramdas Pophale) SiO2 
 PCOD8067709
Probable space group: P 2/M
;
_chemical_formula_sum "Si O2"
_cell_formula_units_Z 28
_cell_length_a 17.989048
_cell_length_b 11.148762
_cell_length_c 21.261909
_cell_angle_alpha 90.000000
_cell_angle_beta 160.478030
_cell_angle_gamma 90.000000
_cell_volume 1424.958826
_symmetry_space_group_name_H-M "P 2/M"
_symmetry_group_IT_number 10
_symmetry_cell_setting 'monoclinic'
loop_
_space_group_symop_operation_xyz
x,y,z
-x,y,-z
-x,-y,-z
x,-y,z
loop_
_atom_site_type_symbol
_atom_site_label
_atom_site_fract_x
_atom_site_fract_y
_atom_site_fract_z
Si Si1 0.355441 0.251739 0.512592
Si Si2 0.832286 0.636136 0.519341
Si Si3 0.666821 0.000000 0.574948
Si Si4 0.204035 0.257071 0.075385
Si Si5 0.605536 0.362748 0.897125
Si Si6 0.917117 0.000000 0.005361
Si Si7 0.673511 0.639638 0.089360
Si Si8 0.750062 0.361909 0.691350
O O1 0.225284 0.263523 0.474382
O O2 0.360229 0.116207 0.490696
O O3 0.608807 0.305134 0.725940
O O4 0.215468 0.339303 0.355122
O O5 0.820142 0.500000 0.537748
O O6 0.658776 0.649120 0.324226
O O7 0.076880 0.661382 0.686504
O O8 0.500000 0.000000 0.500000
O O9 0.902905 0.000000 0.796285
O O10 0.254670 0.296188 0.044990
O O11 0.234591 0.115099 0.104564
O O12 0.948964 0.296604 0.889152
O O13 0.685864 0.500000 0.958187
O O14 0.653662 0.304018 0.003542
O O15 0.000000 0.000000 0.000000
O O16 0.612606 0.500000 0.034633
O O17 0.500000 0.700064 0.000000
O O18 0.500000 0.304892 0.500000
O O19 0.754954 0.500000 0.714569
#
# Coordination Sequence:
#
# PCOD8067709 Si02
#       8
#     4   4   2   4   4   2   4   4
#     4  11  22  38  60  81 110 146 189 238 287 340
#     4   9  18  32  52  80 112 147 184 224 273 333
#     4  12  24  42  60  85 112 143 188 245 303 341
#     4  11  23  39  60  82 110 149 192 236 290 342
#     4   9  18  33  54  80 112 148 185 226 275 334
#     4  12  26  40  62  85 109 146 189 241 298 342
#     4   9  17  29  49  79 115 151 184 222 269 327
#     4  11  24  38  54  79 110 145 185 231 285 344
#
# _framework density 19.64969
#
# number of rings (size 3 to 8) (size 9 to 14) (size 15 to 20)
#    0.000    1.714    1.429    3.429    2.000    3.429 
#    0.000    4.286    0.000    0.000    0.000    2.000 
#    0.000    4.571    0.000    0.000    0.000    0.000 
#
# Total GULP energy -346991.244058 kJ/mol
# GULP energy per Si atom -12392.544431 kJ/mol
# Density = 1.960497 g / cm^3
# Si number density = 19.649690 Si / 1000 Ang^3
#
#
#
# Elastic Constant Matrix: (Units=GPa)
#
#
# Indices 1 2 3 4 5 6 
#
# 1 54.9118 29.8930 17.5425 0.0000 5.1520 0.0000
# 2 29.8930 73.0574 19.2896 0.0000 5.4127 0.0000
# 3 17.5425 19.2896 123.1473 0.0000 4.8926 0.0000
# 4 0.0000 0.0000 0.0000 18.0643 0.0000 -4.7631
# 5 5.1520 5.4127 4.8926 0.0000 32.8449 0.0000
# 6 0.0000 0.0000 0.0000 -4.7631 0.0000 11.1148
#
#
#
# Elastic Compliance Matrix: (Units=1/GPa)
#
#
# Indices 1 2 3 4 5 6 
#
# 1 0.023996 -0.009170 -0.001904 0.000000 -0.001969 0.000000
# 2 -0.009170 0.017919 -0.001449 0.000000 -0.001299 0.000000
# 3 -0.001904 -0.001449 0.008648 0.000000 -0.000751 0.000000
# 4 0.000000 0.000000 0.000000 0.062410 0.000000 0.026745
# 5 -0.001969 -0.001299 -0.000751 0.000000 0.031081 0.000000
# 6 0.000000 0.000000 0.000000 0.026745 0.000000 0.101431
#
#
# Mechanical properties :
#
#
# Convention : Reuss Voigt Hill
#
# Bulk Modulus (GPa) = 39.18798 42.72960 40.95879
# Shear Modulus (GPa) = 17.91886 24.69756 21.30821
#
# Velocity S-wave (km/s) = 3.02307 3.54912 3.29660
# Velocity P-wave (km/s) = 5.67203 6.21191 5.94810
#
# Compressibility (1/GPa) = 0.02551803
#
# Stress axis : x y z
#
# Youngs Moduli (GPa) = 41.67384 55.80764 115.62938
#
# Poissons Ratio (x) = 0.51175 0.22012
# Poissons Ratio (y) = 0.38214 0.16753
# Poissons Ratio (z) = 0.07933 0.08086
#
# Static dielectric constant tensor:
#      x y z
#    x 3.503090 0.000000 -0.117700 
#    y 0.000000 3.441240 0.000000 
#    z -0.117700 0.000000 3.955250 
# 
# 
# High freq. dielectric constant tensor:
#      x y z
#    x 1.743220 0.000000 -0.010160 
#    y 0.000000 1.724510 0.000000 
#    z -0.010160 0.000000 1.796370 
# 
# From -- ./inp_files/85864.got.cif
#   From: 2010.06.25/outbox.cif.g09.slc.cpg/sg10_43_cif.got.tgz:85864.got - 2010.06.27 22:07:45.
