data_PCOD8067557
_publ_section_title
;
Structure prediction by ZEFSAII (Michael W. Deem and Ramdas Pophale) SiO2 
 PCOD8067557
Probable space group: P 2/M
;
_chemical_formula_sum "Si O2"
_cell_formula_units_Z 24
_cell_length_a 20.686903
_cell_length_b 8.938960
_cell_length_c 11.608396
_cell_angle_alpha 90.000000
_cell_angle_beta 39.025928
_cell_angle_gamma 90.000000
_cell_volume 1351.665017
_symmetry_space_group_name_H-M "P 2/M"
_symmetry_group_IT_number 10
_symmetry_cell_setting 'monoclinic'
loop_
_space_group_symop_operation_xyz
x,y,z
-x,y,-z
-x,-y,-z
x,-y,z
loop_
_atom_site_type_symbol
_atom_site_label
_atom_site_fract_x
_atom_site_fract_y
_atom_site_fract_z
Si Si1 0.256079 0.675390 0.845373
Si Si2 0.582477 0.832768 0.525394
Si Si3 0.356676 0.172897 0.905722
Si Si4 0.884159 0.823743 0.138596
Si Si5 0.390549 0.675980 0.102161
Si Si6 0.283336 0.169201 0.447146
O O1 0.242515 0.500000 0.878646
O O2 0.358614 0.710086 0.630728
O O3 0.266086 0.749384 0.957958
O O4 0.156577 0.741523 0.919045
O O5 0.461094 0.805862 0.687140
O O6 0.616434 0.819463 0.611046
O O7 0.610844 0.000000 0.440161
O O8 0.330527 0.000000 0.960929
O O9 0.366709 0.249285 0.014353
O O10 0.816745 0.777494 0.343045
O O11 0.874892 0.000000 0.129406
O O12 0.000000 0.771802 0.000000
O O13 0.389756 0.500000 0.085721
O O14 0.300385 0.722923 0.315074
O O15 0.500000 0.731521 0.000000
O O16 0.268340 0.000000 0.423037
#
# Coordination Sequence:
#
# PCOD8067557 Si02
#       6
#     4   4   4   4   4   4
#     4  11  22  33  49  77 110 137 169 215 270 321
#     4   9  18  32  50  72 101 140 182 217 252 304
#     4  11  21  34  52  71 101 145 186 218 252 304
#     4   9  19  38  62  83 103 132 174 221 265 314
#     4  11  22  33  48  74 110 146 179 215 257 307
#     4   9  17  32  53  78 104 136 178 217 256 304
#
# _framework density 17.755879
#
# number of rings (size 3 to 8) (size 9 to 14) (size 15 to 20)
#    0.000    2.000    1.667    4.000    0.000    7.000 
#    0.000    0.000    0.000    1.000    0.000    7.000 
#    0.000    0.000    0.000    0.000    0.000    0.000 
#
# Total GULP energy -297625.018863 kJ/mol
# GULP energy per Si atom -12401.042453 kJ/mol
# Density = 1.771547 g / cm^3
# Si number density = 17.755879 Si / 1000 Ang^3
#
#
#
# Elastic Constant Matrix: (Units=GPa)
#
#
# Indices 1 2 3 4 5 6 
#
# 1 140.8113 68.1362 56.8749 0.0000 3.1908 0.0000
# 2 68.1362 96.3836 38.0947 0.0000 7.0150 0.0000
# 3 56.8749 38.0947 62.1624 0.0000 -3.0042 0.0000
# 4 0.0000 0.0000 0.0000 14.7076 0.0000 5.7961
# 5 3.1908 7.0150 -3.0042 0.0000 26.1704 0.0000
# 6 0.0000 0.0000 0.0000 5.7961 0.0000 28.4941
#
#
#
# Elastic Compliance Matrix: (Units=1/GPa)
#
#
# Indices 1 2 3 4 5 6 
#
# 1 0.013612 -0.006077 -0.008781 0.000000 -0.001039 0.000000
# 2 -0.006077 0.016994 -0.005067 0.000000 -0.004396 0.000000
# 3 -0.008781 -0.005067 0.027495 0.000000 0.005585 0.000000
# 4 0.000000 0.000000 0.000000 0.073917 0.000000 -0.015036
# 5 -0.001039 -0.004396 0.005585 0.000000 0.040157 0.000000
# 6 0.000000 0.000000 0.000000 -0.015036 0.000000 0.038154
#
#
# Mechanical properties :
#
#
# Convention : Reuss Voigt Hill
#
# Bulk Modulus (GPa) = 54.78470 69.50766 62.14618
# Shear Modulus (GPa) = 19.51130 22.95786 21.23458
#
# Velocity S-wave (km/s) = 3.31851 3.59969 3.46196
# Velocity P-wave (km/s) = 6.75313 7.51720 7.14538
#
# Compressibility (1/GPa) = 0.01825327
#
# Stress axis : x y z
#
# Youngs Moduli (GPa) = 73.46313 58.84581 36.36969
#
# Poissons Ratio (x) = 0.35760 0.31935
# Poissons Ratio (y) = 0.44642 0.18427
# Poissons Ratio (z) = 0.64505 0.29815
#
# Static dielectric constant tensor:
#      x y z
#    x 3.337370 0.000000 0.030390 
#    y 0.000000 3.206350 0.000000 
#    z 0.030390 0.000000 3.068100 
# 
# 
# High freq. dielectric constant tensor:
#      x y z
#    x 1.687300 0.000000 0.014600 
#    y 0.000000 1.686210 0.000000 
#    z 0.014600 0.000000 1.655430 
# 
# From -- ./inp_files/45120.got.cif
#   From: 2010.06.25/outbox.cif.g09.slc.cpg/sg10_23_cif.got.tgz:45120.got - 2010.06.27 22:07:45.
