data_PCOD8067388
_publ_section_title
;
Structure prediction by ZEFSAII (Michael W. Deem and Ramdas Pophale) SiO2 
 PCOD8067388
Probable space group: P 2/M
;
_chemical_formula_sum "Si O2"
_cell_formula_units_Z 32
_cell_length_a 14.261761
_cell_length_b 8.955337
_cell_length_c 17.019569
_cell_angle_alpha 90.000000
_cell_angle_beta 89.999537
_cell_angle_gamma 90.000000
_cell_volume 2173.720222
_symmetry_space_group_name_H-M "P 2/M"
_symmetry_group_IT_number 10
_symmetry_cell_setting 'monoclinic'
loop_
_space_group_symop_operation_xyz
x,y,z
-x,y,-z
-x,-y,-z
x,-y,z
loop_
_atom_site_type_symbol
_atom_site_label
_atom_site_fract_x
_atom_site_fract_y
_atom_site_fract_z
Si Si1 0.603402 0.830731 0.783415
Si Si2 0.499999 0.676557 0.909640
Si Si3 0.394277 0.322355 0.500002
Si Si4 0.893821 0.172626 0.409316
Si Si5 0.106180 0.172626 0.409315
Si Si6 0.281796 0.323620 0.651537
Si Si7 0.396593 0.830731 0.783418
Si Si8 0.718203 0.676380 0.651534
O O1 0.592941 0.745889 0.867560
O O2 0.499997 0.828047 0.742172
O O3 0.678423 0.746522 0.730670
O O4 0.637352 0.000000 0.797731
O O5 0.500000 0.500000 0.898801
O O6 0.407056 0.745887 0.867562
O O7 0.500000 0.724862 0.000000
O O8 0.500000 0.259005 0.500000
O O9 0.394809 0.500000 0.500001
O O10 0.340832 0.262674 0.577115
O O11 0.340829 0.262674 0.422890
O O12 0.883122 0.218879 0.500000
O O13 0.825921 0.274515 0.357176
O O14 0.000000 0.202319 0.381114
O O15 0.867072 0.000000 0.397796
O O16 0.174080 0.274513 0.357175
O O17 0.132928 0.000000 0.397796
O O18 0.288359 0.500000 0.658414
O O19 0.321570 0.253476 0.730674
O O20 0.362644 0.000000 0.797735
O O21 0.711639 0.500000 0.658411
#
# Coordination Sequence:
#
# PCOD8067388 Si02
#       8
#     4   4   4   4   4   4   4   4
#     4   9  19  31  45  66  93 124 153 184 222 266
#     4   9  17  31  51  72  93 120 151 183 222 266
#     4   9  18  28  38  57  84 118 154 188 227 268
#     4   9  18  32  47  61  82 115 154 198 243 283
#     4   9  18  32  47  61  82 115 154 198 243 283
#     4  11  19  29  45  64  88 119 155 197 238 270
#     4   9  19  31  45  66  93 124 153 184 222 266
#     4  11  19  29  45  64  88 119 155 197 238 270
#
# _framework density 14.721306
#
# number of rings (size 3 to 8) (size 9 to 14) (size 15 to 20)
#    0.750    1.750    1.250    3.000    0.000    2.500 
#    0.000    1.250    0.000    3.000    0.000    0.000 
#    0.000    1.000    0.000   10.500    0.000    4.500 
#
# Total GULP energy -396653.209813 kJ/mol
# GULP energy per Si atom -12395.412807 kJ/mol
# Density = 1.468780 g / cm^3
# Si number density = 14.721306 Si / 1000 Ang^3
#
#
#
# Elastic Constant Matrix: (Units=GPa)
#
#
# Indices 1 2 3 4 5 6 
#
# 1 80.8147 37.1541 43.9040 0.0000 -1.0022 0.0000
# 2 37.1541 82.1107 48.8018 0.0000 0.9352 0.0000
# 3 43.9040 48.8018 102.4600 0.0000 2.7422 0.0000
# 4 0.0000 0.0000 0.0000 19.5825 0.0000 -0.4395
# 5 -1.0022 0.9352 2.7422 0.0000 12.5028 0.0000
# 6 0.0000 0.0000 0.0000 -0.4395 0.0000 25.0626
#
#
#
# Elastic Compliance Matrix: (Units=1/GPa)
#
#
# Indices 1 2 3 4 5 6 
#
# 1 0.017491 -0.004808 -0.005283 0.000000 0.002920 0.000000
# 2 -0.004808 0.018312 -0.006654 0.000000 -0.000296 0.000000
# 3 -0.005283 -0.006654 0.015281 0.000000 -0.003277 0.000000
# 4 0.000000 0.000000 0.000000 0.051086 0.000000 0.000896
# 5 0.002920 -0.000296 -0.003277 0.000000 0.080957 0.000000
# 6 0.000000 0.000000 0.000000 0.000896 0.000000 0.039916
#
#
# Mechanical properties :
#
#
# Convention : Reuss Voigt Hill
#
# Bulk Modulus (GPa) = 56.83743 58.34503 57.59123
# Shear Modulus (GPa) = 19.05508 20.46460 19.75984
#
# Velocity S-wave (km/s) = 3.60166 3.73250 3.66766
# Velocity P-wave (km/s) = 7.48256 7.63508 7.55921
#
# Compressibility (1/GPa) = 0.01759404
#
# Stress axis : x y z
#
# Youngs Moduli (GPa) = 57.17375 54.60805 65.44175
#
# Poissons Ratio (x) = 0.26254 0.34573
# Poissons Ratio (y) = 0.27487 0.43546
# Poissons Ratio (z) = 0.30205 0.36337
#
# Static dielectric constant tensor:
#      x y z
#    x 2.757930 0.000000 -0.011990 
#    y 0.000000 2.791040 0.000000 
#    z -0.011990 0.000000 2.608340 
# 
# 
# High freq. dielectric constant tensor:
#      x y z
#    x 1.547480 0.000000 -0.001350 
#    y 0.000000 1.569140 0.000000 
#    z -0.001350 0.000000 1.530620 
# 
# From -- ./inp_files/66036.got.cif
#   From: 2010.06.25/outbox.cif.g09.slc.cpg/sg10_34_cif.got.tgz:66036.got - 2010.06.27 22:07:45.
