data_PCOD8067220
_publ_section_title
;
Structure prediction by ZEFSAII (Michael W. Deem and Ramdas Pophale) SiO2 
 PCOD8067220
Probable space group: P 2/M
;
_chemical_formula_sum "Si O2"
_cell_formula_units_Z 24
_cell_length_a 21.193562
_cell_length_b 11.243703
_cell_length_c 14.487584
_cell_angle_alpha 90.000000
_cell_angle_beta 19.956112
_cell_angle_gamma 90.000000
_cell_volume 1178.272904
_symmetry_space_group_name_H-M "P 2/M"
_symmetry_group_IT_number 10
_symmetry_cell_setting 'monoclinic'
loop_
_space_group_symop_operation_xyz
x,y,z
-x,y,-z
-x,-y,-z
x,-y,z
loop_
_atom_site_type_symbol
_atom_site_label
_atom_site_fract_x
_atom_site_fract_y
_atom_site_fract_z
Si Si1 0.205272 0.500000 0.666741
Si Si2 0.148345 0.743629 0.536999
Si Si3 0.829572 0.137532 0.678262
Si Si4 0.566683 0.701026 0.553580
Si Si5 0.236829 0.640510 0.897814
Si Si6 0.703595 0.500000 0.678075
Si Si7 0.430883 0.859773 0.288251
O O1 0.317192 0.614261 0.542549
O O2 0.227862 0.500000 0.524389
O O3 0.000000 0.500000 0.000000
O O4 0.138623 0.846006 0.474021
O O5 0.214926 0.622581 0.394337
O O6 0.277278 0.787973 0.442470
O O7 0.947786 0.716216 0.851420
O O8 0.000000 0.198325 0.500000
O O9 0.825088 0.000000 0.709705
O O10 0.629202 0.189196 0.980678
O O11 0.353131 0.657728 0.832791
O O12 0.653842 0.705392 0.333545
O O13 0.577482 0.827806 0.591255
O O14 0.205113 0.500000 0.921365
O O15 0.500000 0.500000 0.000000
O O16 0.401836 0.000000 0.314117
#
# Coordination Sequence:
#
# PCOD8067220 Si02
#       7
#     2   4   4   4   4   2   4
#     4  12  22  38  69  96 123 172 223 262 320 393
#     4  12  23  39  62  91 127 162 207 258 317 375
#     4  10  22  43  66  87 119 166 214 257 311 379
#     4  11  22  40  66  91 125 164 214 259 317 377
#     4  11  22  41  62  95 127 165 207 263 318 386
#     4  12  24  37  56  97 136 159 198 269 334 376
#     4  11  24  41  63  92 124 164 213 261 310 374
#
# _framework density 20.368796
#
# number of rings (size 3 to 8) (size 9 to 14) (size 15 to 20)
#    0.000    0.833    4.167    4.500    0.000    1.333 
#    0.000    5.417    0.000    0.000    0.000    0.000 
#    0.000    0.000    0.000    0.000    0.000    0.000 
#
# Total GULP energy -297336.979931 kJ/mol
# GULP energy per Si atom -12389.040830 kJ/mol
# Density = 2.032244 g / cm^3
# Si number density = 20.368796 Si / 1000 Ang^3
#
#
#
# Elastic Constant Matrix: (Units=GPa)
#
#
# Indices 1 2 3 4 5 6 
#
# 1 110.3089 25.6217 57.6738 0.0000 -9.8813 0.0000
# 2 25.6217 67.7430 38.7707 0.0000 -8.2817 0.0000
# 3 57.6738 38.7707 152.0389 0.0000 -19.7469 0.0000
# 4 0.0000 0.0000 0.0000 28.2039 0.0000 3.2493
# 5 -9.8813 -8.2817 -19.7469 0.0000 38.6170 0.0000
# 6 0.0000 0.0000 0.0000 3.2493 0.0000 32.1948
#
#
#
# Elastic Compliance Matrix: (Units=1/GPa)
#
#
# Indices 1 2 3 4 5 6 
#
# 1 0.011590 -0.002154 -0.003772 0.000000 0.000575 0.000000
# 2 -0.002154 0.017772 -0.003526 0.000000 0.001457 0.000000
# 3 -0.003772 -0.003526 0.009302 0.000000 0.003035 0.000000
# 4 0.000000 0.000000 0.000000 0.035873 0.000000 -0.003621
# 5 0.000575 0.001457 0.003035 0.000000 0.027907 0.000000
# 6 0.000000 0.000000 0.000000 -0.003621 0.000000 0.031426
#
#
# Mechanical properties :
#
#
# Convention : Reuss Voigt Hill
#
# Bulk Modulus (GPa) = 50.60948 63.80256 57.20602
# Shear Modulus (GPa) = 31.37538 33.67145 32.52342
#
# Velocity S-wave (km/s) = 3.92901 4.07023 4.00024
# Velocity P-wave (km/s) = 6.74413 7.31305 7.03435
#
# Compressibility (1/GPa) = 0.01975914
#
# Stress axis : x y z
#
# Youngs Moduli (GPa) = 86.28398 56.26718 107.50943
#
# Poissons Ratio (x) = 0.12121 0.40557
# Poissons Ratio (y) = 0.18587 0.37904
# Poissons Ratio (z) = 0.32550 0.19838
#
# Static dielectric constant tensor:
#      x y z
#    x 3.887890 0.000000 -0.303780 
#    y 0.000000 3.726920 0.000000 
#    z -0.303780 0.000000 4.351810 
# 
# 
# High freq. dielectric constant tensor:
#      x y z
#    x 1.800630 0.000000 -0.013570 
#    y 0.000000 1.783750 0.000000 
#    z -0.013570 0.000000 1.810870 
# 
# From -- ./inp_files/70542.got.cif
#   From: 2010.06.25/outbox.cif.g09.slc.cpg/sg10_36_cif.got.tgz:70542.got - 2010.06.27 22:07:45.
