data_PCOD8067005
_publ_section_title
;
Structure prediction by ZEFSAII (Michael W. Deem and Ramdas Pophale) SiO2 
 PCOD8067005
Probable space group: P 2/M
;
_chemical_formula_sum "Si O2"
_cell_formula_units_Z 28
_cell_length_a 8.640521
_cell_length_b 13.439858
_cell_length_c 12.996857
_cell_angle_alpha 90.000000
_cell_angle_beta 120.321483
_cell_angle_gamma 90.000000
_cell_volume 1302.829432
_symmetry_space_group_name_H-M "P 2/M"
_symmetry_group_IT_number 10
_symmetry_cell_setting 'monoclinic'
loop_
_space_group_symop_operation_xyz
x,y,z
-x,y,-z
-x,-y,-z
x,-y,z
loop_
_atom_site_type_symbol
_atom_site_label
_atom_site_fract_x
_atom_site_fract_y
_atom_site_fract_z
Si Si1 0.265041 0.612442 0.024316
Si Si2 0.315142 0.613620 0.812440
Si Si3 0.982985 0.266744 0.376261
Si Si4 0.017419 0.886446 0.801294
Si Si5 0.624511 0.113082 0.952599
Si Si6 0.310040 0.384452 0.381731
Si Si7 0.735663 0.756089 0.818283
O O1 0.198347 0.500000 0.015099
O O2 0.472908 0.624789 0.127874
O O3 0.155620 0.684837 0.064192
O O4 0.242797 0.649781 0.900250
O O5 0.261686 0.500000 0.782139
O O6 0.203347 0.672571 0.690050
O O7 0.000000 0.233088 0.500000
O O8 0.953620 0.169258 0.296854
O O9 0.150768 0.334243 0.394855
O O10 0.850948 0.839266 0.803061
O O11 0.175907 0.880575 0.936746
O O12 0.973658 0.000000 0.758512
O O13 0.568096 0.000000 0.907042
O O14 0.500000 0.157854 0.000000
O O15 0.594675 0.180564 0.840891
O O16 0.500000 0.381143 0.500000
O O17 0.258346 0.500000 0.339684
O O18 0.347187 0.320326 0.291620
#
# Coordination Sequence:
#
# PCOD8067005 Si02
#       7
#     4   4   4   4   4   4   4
#     4   9  19  34  57  90 125 162 197 244 300 359
#     4   9  19  35  55  88 129 158 195 246 303 359
#     4  11  24  39  64  92 116 159 212 255 305 364
#     4  10  23  43  61  86 125 160 197 253 316 369
#     4  10  22  38  62  94 122 154 200 256 312 368
#     4  10  24  43  59  85 125 166 208 253 302 359
#     4  11  21  35  63  87 117 161 204 243 300 368
#
# _framework density 21.491686000000001
#
# number of rings (size 3 to 8) (size 9 to 14) (size 15 to 20)
#    0.000    2.000    0.000    3.429    6.000    3.714 
#    0.000    0.000    0.000   19.286    0.000    0.000 
#    0.000    0.000    0.000    0.000    0.000    0.000 
#
# Total GULP energy -346974.474309 kJ/mol
# GULP energy per Si atom -12391.945511 kJ/mol
# Density = 2.144277 g / cm^3
# Si number density = 21.491686 Si / 1000 Ang^3
#
#
#
# Elastic Constant Matrix: (Units=GPa)
#
#
# Indices 1 2 3 4 5 6 
#
# 1 43.7775 29.0406 24.6568 0.0000 -11.4439 0.0000
# 2 29.0406 130.5383 48.2376 0.0000 -15.3599 0.0000
# 3 24.6568 48.2376 89.4986 0.0000 -22.6764 0.0000
# 4 0.0000 0.0000 0.0000 26.4340 0.0000 -14.4679
# 5 -11.4439 -15.3599 -22.6764 0.0000 38.2790 0.0000
# 6 0.0000 0.0000 0.0000 -14.4679 0.0000 -25.4881
#
#
#
# Elastic Compliance Matrix: (Units=1/GPa)
#
#
# Indices 1 2 3 4 5 6 
#
# 1 0.029478 -0.004313 -0.004709 0.000000 0.004293 0.000000
# 2 -0.004313 0.010225 -0.004247 0.000000 0.000297 0.000000
# 3 -0.004709 -0.004247 0.016439 0.000000 0.006626 0.000000
# 4 0.000000 0.000000 0.000000 0.028863 0.000000 -0.016384
# 5 0.004293 0.000297 0.006626 0.000000 0.031452 0.000000
# 6 0.000000 0.000000 0.000000 -0.016384 0.000000 -0.029934
#
#
# Mechanical properties :
#
#
# Convention : Reuss Voigt Hill
#
# Bulk Modulus (GPa) = 33.78013 51.96493 42.87253
# Shear Modulus (GPa) = 40.67412 18.63693 29.65552
#
# Velocity S-wave (km/s) = 4.35507 2.94797 3.71868
# Velocity P-wave (km/s) = 6.40630 5.98489 6.19918
#
# Compressibility (1/GPa) = 0.02960320
#
# Stress axis : x y z
#
# Youngs Moduli (GPa) = 33.92345 97.80426 60.83162
#
# Poissons Ratio (x) = 0.42180 0.28646
# Poissons Ratio (y) = 0.14630 0.25837
# Poissons Ratio (z) = 0.15975 0.41540
#
# Static dielectric constant tensor:
#      x y z
#    x 3.790440 0.000000 -0.190010 
#    y 0.000000 4.235940 0.000000 
#    z -0.190010 0.000000 3.942450 
# 
# 
# High freq. dielectric constant tensor:
#      x y z
#    x 1.840510 0.000000 -0.014330 
#    y 0.000000 1.863480 0.000000 
#    z -0.014330 0.000000 1.825640 
# 
# From -- ./inp_files/42747.got.cif
#   From: 2010.06.25/outbox.cif.g09.slc.cpg/sg10_22_cif.got.tgz:42747.got - 2010.06.27 22:07:45.
