data_PCOD8067654
_publ_section_title
;
Structure prediction by ZEFSAII (Michael W. Deem and Ramdas Pophale) SiO2 
 PCOD8067654
Probable space group: P 2/M
;
_chemical_formula_sum "Si O2"
_cell_formula_units_Z 32
_cell_length_a 20.149214
_cell_length_b 9.206063
_cell_length_c 30.849756
_cell_angle_alpha 90.000000
_cell_angle_beta 19.113833
_cell_angle_gamma 90.000000
_cell_volume 1873.801208
_symmetry_space_group_name_H-M "P 2/M"
_symmetry_group_IT_number 10
_symmetry_cell_setting 'monoclinic'
loop_
_space_group_symop_operation_xyz
x,y,z
-x,y,-z
-x,-y,-z
x,-y,z
loop_
_atom_site_type_symbol
_atom_site_label
_atom_site_fract_x
_atom_site_fract_y
_atom_site_fract_z
Si Si1 0.100122 0.165705 0.058269
Si Si2 0.130112 0.664705 0.121353
Si Si3 0.724793 0.670755 0.873505
Si Si4 0.093024 0.831755 0.620096
Si Si5 0.277970 0.665483 0.585719
Si Si6 0.370180 0.836378 0.653117
Si Si7 0.496494 0.166939 0.671252
Si Si8 0.816941 0.671818 0.081350
O O1 0.208956 0.234257 0.033498
O O2 0.863247 0.175666 0.214158
O O3 0.172438 0.000000 0.007363
O O4 0.155107 0.257753 0.982531
O O5 0.198554 0.500000 0.069481
O O6 0.229278 0.717982 0.105349
O O7 0.883780 0.673358 0.275497
O O8 0.756454 0.500000 0.848284
O O9 0.880434 0.748143 0.743916
O O10 0.500000 0.720977 0.000000
O O11 0.195810 0.769071 0.599190
O O12 0.258158 0.810462 0.479573
O O13 0.043882 0.000000 0.657435
O O14 0.299398 0.500000 0.556145
O O15 0.502083 0.729576 0.457911
O O16 0.402869 0.788958 0.682710
O O17 0.450567 0.000000 0.596616
O O18 0.396389 0.271462 0.768445
O O19 0.441835 0.000000 0.715794
O O20 0.808486 0.500000 0.081159
O O21 0.000000 0.719989 0.000000
#
# Coordination Sequence:
#
# PCOD8067654 Si02
#       8
#     4   4   4   4   4   4   4   4
#     4  11  22  34  48  65  92 131 169 206 249 294
#     4   9  19  34  48  68  98 127 159 201 241 286
#     4   9  18  34  56  80 105 133 161 192 239 297
#     4   9  17  29  47  74 103 129 160 199 242 289
#     4   9  17  29  46  65  91 128 164 201 243 285
#     4   9  18  30  44  64  90 125 167 207 243 283
#     4   9  17  31  48  66  95 131 166 206 249 290
#     4  11  22  33  48  71  94 124 170 219 256 288
#
# _framework density 17.077584999999999
#
# number of rings (size 3 to 8) (size 9 to 14) (size 15 to 20)
#    0.000    2.500    1.250    3.000    0.000    7.250 
#    0.000    2.500    0.000    0.000    0.000    0.875 
#    0.000    7.000    0.000    0.000    0.000    0.000 
#
# Total GULP energy -396619.358901 kJ/mol
# GULP energy per Si atom -12394.354966 kJ/mol
# Density = 1.703872 g / cm^3
# Si number density = 17.077585 Si / 1000 Ang^3
#
#
#
# Elastic Constant Matrix: (Units=GPa)
#
#
# Indices 1 2 3 4 5 6 
#
# 1 59.3607 35.9750 37.5079 0.0000 8.6508 0.0000
# 2 35.9750 87.6369 54.1901 0.0000 9.2196 0.0000
# 3 37.5079 54.1901 81.1971 0.0000 1.9658 0.0000
# 4 0.0000 0.0000 0.0000 33.0976 0.0000 6.5476
# 5 8.6508 9.2196 1.9658 0.0000 17.6344 0.0000
# 6 0.0000 0.0000 0.0000 6.5476 0.0000 8.4150
#
#
#
# Elastic Compliance Matrix: (Units=1/GPa)
#
#
# Indices 1 2 3 4 5 6 
#
# 1 0.026692 -0.004156 -0.009317 0.000000 -0.009883 0.000000
# 2 -0.004156 0.021517 -0.012250 0.000000 -0.007845 0.000000
# 3 -0.009317 -0.012250 0.024596 0.000000 0.008234 0.000000
# 4 0.000000 0.000000 0.000000 0.035710 0.000000 -0.027786
# 5 -0.009883 -0.007845 0.008234 0.000000 0.064739 0.000000
# 6 0.000000 0.000000 0.000000 -0.027786 0.000000 0.140456
#
#
# Mechanical properties :
#
#
# Convention : Reuss Voigt Hill
#
# Bulk Modulus (GPa) = 46.82087 53.72674 50.27380
# Shear Modulus (GPa) = 13.43079 18.53083 15.98081
#
# Velocity S-wave (km/s) = 2.80743 3.29765 3.06237
# Velocity P-wave (km/s) = 6.16319 6.78440 6.48124
#
# Compressibility (1/GPa) = 0.02135800
#
# Stress axis : x y z
#
# Youngs Moduli (GPa) = 37.46374 46.47423 40.65687
#
# Poissons Ratio (x) = 0.19317 0.37880
# Poissons Ratio (y) = 0.15572 0.49807
# Poissons Ratio (z) = 0.34905 0.56933
#
# Static dielectric constant tensor:
#      x y z
#    x 2.853960 0.000000 -0.038490 
#    y 0.000000 3.319170 0.000000 
#    z -0.038490 0.000000 3.401810 
# 
# 
# High freq. dielectric constant tensor:
#      x y z
#    x 1.614750 0.000000 0.008940 
#    y 0.000000 1.669540 0.000000 
#    z 0.008940 0.000000 1.650410 
# 
# From -- ./inp_files/95666.got.cif
#   From: 2010.06.25/outbox.cif.g09.slc.cpg/sg10_48_cif.got.tgz:95666.got - 2010.06.27 22:07:45.
