data_PCOD8067629
_publ_section_title
;
Structure prediction by ZEFSAII (Michael W. Deem and Ramdas Pophale) SiO2 
 PCOD8067629
Probable space group: P 2/M
;
_chemical_formula_sum "Si O2"
_cell_formula_units_Z 28
_cell_length_a 9.661826
_cell_length_b 16.020613
_cell_length_c 11.679030
_cell_angle_alpha 90.000000
_cell_angle_beta 127.020561
_cell_angle_gamma 90.000000
_cell_volume 1443.365256
_symmetry_space_group_name_H-M "P 2/M"
_symmetry_group_IT_number 10
_symmetry_cell_setting 'monoclinic'
loop_
_space_group_symop_operation_xyz
x,y,z
-x,y,-z
-x,-y,-z
x,-y,z
loop_
_atom_site_type_symbol
_atom_site_label
_atom_site_fract_x
_atom_site_fract_y
_atom_site_fract_z
Si Si1 0.044639 0.500000 0.715535
Si Si2 0.589907 0.742133 0.932058
Si Si3 0.568116 0.675694 0.359883
Si Si4 0.834493 0.907837 0.766220
Si Si5 0.776967 0.092260 0.005003
Si Si6 0.749536 0.264067 0.654681
Si Si7 0.279389 0.500000 0.609568
Si Si8 0.062008 0.644582 0.908016
O O1 0.856573 0.500000 0.562861
O O2 0.188864 0.500000 0.688490
O O3 0.066828 0.578399 0.809008
O O4 0.450199 0.734132 0.760637
O O5 0.644024 0.837735 0.982242
O O6 0.500000 0.706259 0.000000
O O7 0.751056 0.684217 0.978833
O O8 0.395562 0.684346 0.349481
O O9 0.735068 0.708130 0.514765
O O10 0.596098 0.579872 0.337919
O O11 0.804856 0.894988 0.885010
O O12 0.724408 0.836291 0.646670
O O13 0.769787 0.000000 0.694958
O O14 0.038541 0.898980 0.839477
O O15 0.699336 0.000000 0.991487
O O16 0.934795 0.282199 0.803102
O O17 0.000000 0.607086 0.000000
#
# Coordination Sequence:
#
# PCOD8067629 Si02
#       8
#     2   4   4   4   4   4   2   4
#     4  11  25  42  65  90 112 167 216 250 301 370
#     4  12  24  39  61  93 128 160 200 256 313 362
#     4  11  24  40  61  89 124 160 200 253 315 359
#     4   9  16  32  61  92 120 157 205 255 297 352
#     4   9  17  32  59  89 120 160 205 249 302 359
#     4  11  21  38  64  92 120 161 208 248 303 368
#     4  11  24  45  60  82 130 164 203 248 314 382
#     4  12  22  42  66  90 122 157 212 258 299 361
#
# _framework density 19.399108999999999
#
# number of rings (size 3 to 8) (size 9 to 14) (size 15 to 20)
#    0.000    1.286    5.714    1.929    0.000    2.571 
#    0.000    3.571    0.000    0.000    0.000    2.000 
#    0.000    0.000    0.000    0.000    0.000    0.000 
#
# Total GULP energy -347140.589546 kJ/mol
# GULP energy per Si atom -12397.878198 kJ/mol
# Density = 1.935496 g / cm^3
# Si number density = 19.399109 Si / 1000 Ang^3
#
#
#
# Elastic Constant Matrix: (Units=GPa)
#
#
# Indices 1 2 3 4 5 6 
#
# 1 75.5686 46.3261 38.4647 0.0000 -10.1439 0.0000
# 2 46.3261 133.8746 29.8841 0.0000 -2.7915 0.0000
# 3 38.4647 29.8841 95.4655 0.0000 -15.0474 0.0000
# 4 0.0000 0.0000 0.0000 22.6310 0.0000 -0.1250
# 5 -10.1439 -2.7915 -15.0474 0.0000 25.1135 0.0000
# 6 0.0000 0.0000 0.0000 -0.1250 0.0000 15.4179
#
#
#
# Elastic Compliance Matrix: (Units=1/GPa)
#
#
# Indices 1 2 3 4 5 6 
#
# 1 0.020123 -0.005604 -0.005710 0.000000 0.004084 0.000000
# 2 -0.005604 0.009602 -0.001034 0.000000 -0.001816 0.000000
# 3 -0.005710 -0.001034 0.014044 0.000000 0.005994 0.000000
# 4 0.000000 0.000000 0.000000 0.044189 0.000000 0.000358
# 5 0.004084 -0.001816 0.005994 0.000000 0.044858 0.000000
# 6 0.000000 0.000000 0.000000 0.000358 0.000000 0.064862
#
#
# Mechanical properties :
#
#
# Convention : Reuss Voigt Hill
#
# Bulk Modulus (GPa) = 52.42950 59.36208 55.89579
# Shear Modulus (GPa) = 21.85971 25.31473 23.58722
#
# Velocity S-wave (km/s) = 3.36049 3.61632 3.49075
# Velocity P-wave (km/s) = 6.49173 6.93569 6.71738
#
# Compressibility (1/GPa) = 0.01907323
#
# Stress axis : x y z
#
# Youngs Moduli (GPa) = 49.69493 104.14810 71.20448
#
# Poissons Ratio (x) = 0.58360 0.40658
# Poissons Ratio (y) = 0.27847 0.07363
# Poissons Ratio (z) = 0.28376 0.10770
#
# Static dielectric constant tensor:
#      x y z
#    x 3.325550 0.000000 0.020590 
#    y 0.000000 3.722830 0.000000 
#    z 0.020590 0.000000 3.688840 
# 
# 
# High freq. dielectric constant tensor:
#      x y z
#    x 1.732300 0.000000 0.001570 
#    y 0.000000 1.763530 0.000000 
#    z 0.001570 0.000000 1.751820 
# 
# From -- ./inp_files/43061.got.cif
#   From: 2010.06.25/outbox.cif.g09.slc.cpg/sg10_22_cif.got.tgz:43061.got - 2010.06.27 22:07:45.
