data_PCOD8067024
_publ_section_title
;
Structure prediction by ZEFSAII (Michael W. Deem and Ramdas Pophale) SiO2 
 PCOD8067024
Probable space group: P 2/M
;
_chemical_formula_sum "Si O2"
_cell_formula_units_Z 32
_cell_length_a 20.193121
_cell_length_b 8.673572
_cell_length_c 26.021925
_cell_angle_alpha 90.000000
_cell_angle_beta 21.428048
_cell_angle_gamma 90.000000
_cell_volume 1665.057322
_symmetry_space_group_name_H-M "P 2/M"
_symmetry_group_IT_number 10
_symmetry_cell_setting 'monoclinic'
loop_
_space_group_symop_operation_xyz
x,y,z
-x,y,-z
-x,-y,-z
x,-y,z
loop_
_atom_site_type_symbol
_atom_site_label
_atom_site_fract_x
_atom_site_fract_y
_atom_site_fract_z
Si Si1 0.292171 0.679143 0.159071
Si Si2 0.190676 0.822395 0.338358
Si Si3 0.653215 0.682837 0.578473
Si Si4 0.530778 0.821103 0.771942
Si Si5 0.979973 0.682416 0.093668
Si Si6 0.714065 0.683132 0.203294
Si Si7 0.145214 0.682478 0.077392
Si Si8 0.025327 0.819212 0.271134
O O1 0.257980 0.500000 0.172217
O O2 0.233611 0.715152 0.259173
O O3 0.175430 0.779785 0.204588
O O4 0.500000 0.725026 0.000000
O O5 0.347631 0.796175 0.265972
O O6 0.000000 0.769897 0.500000
O O7 0.180556 0.000000 0.327618
O O8 0.668504 0.500000 0.566200
O O9 0.628046 0.735678 0.654948
O O10 0.487489 0.745121 0.662603
O O11 0.833454 0.753671 0.425806
O O12 0.509068 0.000000 0.774001
O O13 0.338112 0.747444 0.922042
O O14 0.987540 0.500000 0.084072
O O15 0.998529 0.732965 0.139637
O O16 0.791075 0.739049 0.203559
O O17 0.151199 0.747982 0.937962
O O18 0.708999 0.500000 0.204432
O O19 0.161365 0.500000 0.070168
O O20 0.080290 0.749747 0.177347
O O21 0.011171 0.000000 0.275650
#
# Coordination Sequence:
#
# PCOD8067024 Si02
#       8
#     4   4   4   4   4   4   4   4
#     4  11  24  42  64  89 113 144 192 246 292 343
#     4  10  22  39  58  82 114 152 190 229 283 348
#     4  11  21  37  61  89 118 154 199 247 291 340
#     4  11  22  36  58  88 121 155 191 235 291 354
#     4   8  14  28  54  87 118 147 188 241 290 336
#     4   8  14  28  54  88 118 147 188 239 291 339
#     4  11  21  37  60  87 115 151 198 248 288 335
#     4  12  26  42  59  82 119 161 194 236 295 360
#
# _framework density 19.218557000000001
#
# number of rings (size 3 to 8) (size 9 to 14) (size 15 to 20)
#    0.000    1.750    1.250    4.875    0.000    5.250 
#    0.000    0.625    0.000    7.500    0.000    0.000 
#    0.000    0.000    0.000    0.000    0.000    0.000 
#
# Total GULP energy -396768.679176 kJ/mol
# GULP energy per Si atom -12399.021224 kJ/mol
# Density = 1.917481 g / cm^3
# Si number density = 19.218557 Si / 1000 Ang^3
#
#
#
# Elastic Constant Matrix: (Units=GPa)
#
#
# Indices 1 2 3 4 5 6 
#
# 1 157.3589 54.2472 76.2869 0.0000 10.9317 0.0000
# 2 54.2472 85.4398 39.8073 0.0000 7.5625 0.0000
# 3 76.2869 39.8073 113.9978 0.0000 18.2259 0.0000
# 4 0.0000 0.0000 0.0000 4.2957 0.0000 1.8395
# 5 10.9317 7.5625 18.2259 0.0000 38.8251 0.0000
# 6 0.0000 0.0000 0.0000 1.8395 0.0000 -1.0774
#
#
#
# Elastic Compliance Matrix: (Units=1/GPa)
#
#
# Indices 1 2 3 4 5 6 
#
# 1 0.010463 -0.004046 -0.005670 0.000000 0.000504 0.000000
# 2 -0.004046 0.015551 -0.002617 0.000000 -0.000661 0.000000
# 3 -0.005670 -0.002617 0.014210 0.000000 -0.004564 0.000000
# 4 0.000000 0.000000 0.000000 0.134469 0.000000 0.229599
# 5 0.000504 -0.000661 -0.004564 0.000000 0.027886 0.000000
# 6 0.000000 0.000000 0.000000 0.229599 0.000000 -0.536166
#
#
# Mechanical properties :
#
#
# Convention : Reuss Voigt Hill
#
# Bulk Modulus (GPa) = 64.27315 77.49768 70.88542
# Shear Modulus (GPa) = -16.46175 20.83905 2.18865
#
# Velocity S-wave (km/s) = -2.92987 3.29647 1.06831
# Velocity P-wave (km/s) = 4.69791 7.40952 6.20368
#
# Compressibility (1/GPa) = 0.01555860
#
# Stress axis : x y z
#
# Youngs Moduli (GPa) = 95.57040 64.30458 70.37451
#
# Poissons Ratio (x) = 0.26021 0.39900
# Poissons Ratio (y) = 0.38672 0.18415
# Poissons Ratio (z) = 0.54185 0.16826
#
# Static dielectric constant tensor:
#      x y z
#    x 3.737570 0.000000 -0.282780 
#    y 0.000000 3.409930 0.000000 
#    z -0.282780 0.000000 3.559690 
# 
# 
# High freq. dielectric constant tensor:
#      x y z
#    x 1.766780 0.000000 -0.010300 
#    y 0.000000 1.732850 0.000000 
#    z -0.010300 0.000000 1.746260 
# 
# From -- ./inp_files/93646.got.cif
#   From: 2010.06.25/outbox.cif.g09.slc.cpg/sg10_47_cif.got.tgz:93646.got - 2010.06.27 22:07:45.
