data_PCOD8067966
_publ_section_title
;
Structure prediction by ZEFSAII (Michael W. Deem and Ramdas Pophale) SiO2 
 PCOD8067966
Probable space group: P 2/M
;
_chemical_formula_sum "Si O2"
_cell_formula_units_Z 28
_cell_length_a 15.663804
_cell_length_b 15.161830
_cell_length_c 9.581150
_cell_angle_alpha 90.000000
_cell_angle_beta 52.289226
_cell_angle_gamma 90.000000
_cell_volume 1800.124603
_symmetry_space_group_name_H-M "P 2/M"
_symmetry_group_IT_number 10
_symmetry_cell_setting 'monoclinic'
loop_
_space_group_symop_operation_xyz
x,y,z
-x,y,-z
-x,-y,-z
x,-y,z
loop_
_atom_site_type_symbol
_atom_site_label
_atom_site_fract_x
_atom_site_fract_y
_atom_site_fract_z
Si Si1 0.628203 0.902954 0.714806
Si Si2 0.999999 0.604774 0.341655
Si Si3 0.200924 0.601770 0.638122
Si Si4 0.628203 0.097046 0.028787
Si Si5 0.376979 0.257147 0.461571
Si Si6 0.376978 0.742853 0.784473
Si Si7 0.200923 0.601770 0.960030
O O1 0.500000 0.903139 0.835754
O O2 0.673395 0.826549 0.569439
O O3 0.670651 0.000000 0.625161
O O4 0.667476 0.883054 0.832523
O O5 0.999999 0.500000 0.341844
O O6 0.000000 0.641922 0.500000
O O7 0.894522 0.638183 0.364719
O O8 0.105476 0.638183 0.153764
O O9 0.227467 0.500000 0.579757
O O10 0.308387 0.656122 0.494814
O O11 0.165630 0.614303 0.834370
O O12 0.673396 0.173450 0.083770
O O13 0.670651 0.000000 0.033536
O O14 0.500000 0.277116 0.292716
O O15 0.370559 0.232346 0.629441
O O16 0.308386 0.656122 0.888412
O O17 0.227466 0.500000 0.965309
#
# Coordination Sequence:
#
# PCOD8067966 Si02
#       7
#     4   4   4   4   4   4   4
#     4   8  14  25  40  57  79 109 142 173 206 244
#     4   9  17  29  45  63  80 101 138 185 219 242
#     4   9  17  29  44  61  84 114 143 171 206 247
#     4   8  14  25  40  57  79 109 142 173 206 244
#     4   9  17  27  40  62  89 114 141 171 203 243
#     4   9  17  27  40  62  89 114 141 171 203 243
#     4   9  17  29  44  61  84 114 143 171 206 247
#
# _framework density 15.554479000000001
#
# number of rings (size 3 to 8) (size 9 to 14) (size 15 to 20)
#    0.000    3.286    0.000    1.286    0.000    4.000 
#    0.000    5.714    0.000    0.000    0.000    9.000 
#    0.000    8.000    0.000    0.000    0.000    0.000 
#
# Total GULP energy -347063.574292 kJ/mol
# GULP energy per Si atom -12395.127653 kJ/mol
# Density = 1.551908 g / cm^3
# Si number density = 15.554479 Si / 1000 Ang^3
#
#
#
# Elastic Constant Matrix: (Units=GPa)
#
#
# Indices 1 2 3 4 5 6 
#
# 1 75.7632 50.5505 45.4675 0.0000 2.9434 0.0000
# 2 50.5505 97.3697 53.2373 0.0000 3.1610 0.0000
# 3 45.4675 53.2373 79.3290 0.0000 1.2524 0.0000
# 4 0.0000 0.0000 0.0000 18.5185 0.0000 10.0264
# 5 2.9434 3.1610 1.2524 0.0000 14.4098 0.0000
# 6 0.0000 0.0000 0.0000 10.0264 0.0000 9.9943
#
#
#
# Elastic Compliance Matrix: (Units=1/GPa)
#
#
# Indices 1 2 3 4 5 6 
#
# 1 0.023235 -0.007463 -0.008271 0.000000 -0.002390 0.000000
# 2 -0.007463 0.018719 -0.008255 0.000000 -0.001864 0.000000
# 3 -0.008271 -0.008255 0.022863 0.000000 0.001513 0.000000
# 4 0.000000 0.000000 0.000000 0.118207 0.000000 -0.118587
# 5 -0.002390 -0.001864 0.001513 0.000000 0.070163 0.000000
# 6 0.000000 0.000000 0.000000 -0.118587 0.000000 0.219027
#
#
# Mechanical properties :
#
#
# Convention : Reuss Voigt Hill
#
# Bulk Modulus (GPa) = 59.39049 61.21916 60.30482
# Shear Modulus (GPa) = 9.50926 15.46494 12.48710
#
# Velocity S-wave (km/s) = 2.47524 3.15658 2.83644
# Velocity P-wave (km/s) = 6.81426 7.26145 7.04141
#
# Compressibility (1/GPa) = 0.01683771
#
# Stress axis : x y z
#
# Youngs Moduli (GPa) = 43.03869 53.42276 43.73966
#
# Poissons Ratio (x) = 0.39868 0.36178
# Poissons Ratio (y) = 0.32119 0.36108
# Poissons Ratio (z) = 0.35598 0.44102
#
# Static dielectric constant tensor:
#      x y z
#    x 2.857380 0.000000 0.180370 
#    y 0.000000 3.090550 0.000000 
#    z 0.180370 0.000000 3.010730 
# 
# 
# High freq. dielectric constant tensor:
#      x y z
#    x 1.572290 0.000000 0.018480 
#    y 0.000000 1.585430 0.000000 
#    z 0.018480 0.000000 1.588000 
# 
# From -- ./inp_files/28862.got.cif
#   From: 2010.06.25/outbox.cif.g09.slc.cpg/sg10_15_cif.got.tgz:28862.got - 2010.06.27 22:07:45.
