data_PCOD8067265
_publ_section_title
;
Structure prediction by ZEFSAII (Michael W. Deem and Ramdas Pophale) SiO2 
 PCOD8067265
Probable space group: P 2/M
;
_chemical_formula_sum "Si O2"
_cell_formula_units_Z 28
_cell_length_a 11.736900
_cell_length_b 8.427270
_cell_length_c 15.460755
_cell_angle_alpha 90.000000
_cell_angle_beta 116.263761
_cell_angle_gamma 90.000000
_cell_volume 1371.356539
_symmetry_space_group_name_H-M "P 2/M"
_symmetry_group_IT_number 10
_symmetry_cell_setting 'monoclinic'
loop_
_space_group_symop_operation_xyz
x,y,z
-x,y,-z
-x,-y,-z
x,-y,z
loop_
_atom_site_type_symbol
_atom_site_label
_atom_site_fract_x
_atom_site_fract_y
_atom_site_fract_z
Si Si1 0.781313 0.314034 0.675183
Si Si2 0.664506 0.684036 0.455102
Si Si3 0.566195 0.182248 0.711523
Si Si4 0.698651 0.813594 0.077369
Si Si5 0.873780 0.183958 0.409538
Si Si6 0.515826 0.684510 0.878417
Si Si7 0.070756 0.315356 0.754560
O O1 0.757488 0.500000 0.678835
O O2 0.733107 0.255844 0.565136
O O3 0.706852 0.221475 0.725035
O O4 0.928729 0.269423 0.735212
O O5 0.630435 0.500000 0.449577
O O6 0.533237 0.778519 0.398352
O O7 0.756143 0.714576 0.404703
O O8 0.532031 0.288592 0.782441
O O9 0.558101 0.000000 0.736147
O O10 0.606561 0.778458 0.127542
O O11 0.834392 0.728556 0.135878
O O12 0.718536 0.000000 0.074641
O O13 0.641221 0.744890 0.969651
O O14 0.887396 0.210863 0.312685
O O15 0.000000 0.244439 0.500000
O O16 0.847544 0.000000 0.419997
O O17 0.494323 0.500000 0.890134
O O18 0.078761 0.500000 0.732618
#
# Coordination Sequence:
#
# PCOD8067265 Si02
#       7
#     4   4   4   4   4   4   4
#     4  10  23  41  60  83 116 159 204 247 288 346
#     4  11  22  39  61  85 116 158 204 247 293 350
#     4  12  25  40  60  87 119 155 197 248 301 350
#     4  11  22  39  64  95 126 152 187 241 301 353
#     4  11  22  35  55  85 121 154 192 243 297 346
#     4  11  22  41  66  91 119 154 197 242 291 351
#     4  11  22  39  61  87 120 160 202 240 291 354
#
# _framework density 20.417739000000001
#
# number of rings (size 3 to 8) (size 9 to 14) (size 15 to 20)
#    0.000    1.000    1.429    7.286    0.000    4.571 
#    0.000    0.714    0.000    4.286    0.000    0.000 
#    0.000    0.000    0.000    0.000    0.000    0.000 
#
# Total GULP energy -347432.931951 kJ/mol
# GULP energy per Si atom -12408.318998 kJ/mol
# Density = 2.037127 g / cm^3
# Si number density = 20.417739 Si / 1000 Ang^3
#
#
#
# Elastic Constant Matrix: (Units=GPa)
#
#
# Indices 1 2 3 4 5 6 
#
# 1 97.1018 16.8773 37.7113 0.0000 16.7991 0.0000
# 2 16.8773 68.2291 17.7997 0.0000 3.1238 0.0000
# 3 37.7113 17.7997 91.8573 0.0000 23.2221 0.0000
# 4 0.0000 0.0000 0.0000 30.9512 0.0000 0.7707
# 5 16.7991 3.1238 23.2221 0.0000 33.6171 0.0000
# 6 0.0000 0.0000 0.0000 0.7707 0.0000 31.0566
#
#
#
# Elastic Compliance Matrix: (Units=1/GPa)
#
#
# Indices 1 2 3 4 5 6 
#
# 1 0.012789 -0.001962 -0.003999 0.000000 -0.003446 0.000000
# 2 -0.001962 0.015754 -0.002575 0.000000 0.001295 0.000000
# 3 -0.003999 -0.002575 0.015098 0.000000 -0.008192 0.000000
# 4 0.000000 0.000000 0.000000 0.032329 0.000000 -0.000802
# 5 -0.003446 0.001295 -0.008192 0.000000 0.037007 0.000000
# 6 0.000000 0.000000 0.000000 -0.000802 0.000000 0.032219
#
#
# Mechanical properties :
#
#
# Convention : Reuss Voigt Hill
#
# Bulk Modulus (GPa) = 37.63739 44.66274 41.15007
# Shear Modulus (GPa) = 29.21846 31.44496 30.33171
#
# Velocity S-wave (km/s) = 3.78700 3.92864 3.85847
# Velocity P-wave (km/s) = 6.13152 6.51928 6.32837
#
# Compressibility (1/GPa) = 0.02656932
#
# Stress axis : x y z
#
# Youngs Moduli (GPa) = 78.19345 63.47473 66.23399
#
# Poissons Ratio (x) = 0.12457 0.26486
# Poissons Ratio (y) = 0.15345 0.17052
# Poissons Ratio (z) = 0.31268 0.16342
#
# Static dielectric constant tensor:
#      x y z
#    x 3.662340 0.000000 0.223660 
#    y 0.000000 3.621400 0.000000 
#    z 0.223660 0.000000 3.728100 
# 
# 
# High freq. dielectric constant tensor:
#      x y z
#    x 1.794420 0.000000 0.013290 
#    y 0.000000 1.804530 0.000000 
#    z 0.013290 0.000000 1.795570 
# 
# From -- ./inp_files/63400.got.cif
#   From: 2010.06.25/outbox.cif.g09.slc.cpg/sg10_32_cif.got.tgz:63400.got - 2010.06.27 22:07:45.
