data_PCOD8067741
_publ_section_title
;
Structure prediction by ZEFSAII (Michael W. Deem and Ramdas Pophale) SiO2 
 PCOD8067741
Probable space group: P 2/M
;
_chemical_formula_sum "Si O2"
_cell_formula_units_Z 20
_cell_length_a 13.650821
_cell_length_b 16.649451
_cell_length_c 11.940149
_cell_angle_alpha 90.000000
_cell_angle_beta 20.736918
_cell_angle_gamma 90.000000
_cell_volume 960.874757
_symmetry_space_group_name_H-M "P 2/M"
_symmetry_group_IT_number 10
_symmetry_cell_setting 'monoclinic'
loop_
_space_group_symop_operation_xyz
x,y,z
-x,y,-z
-x,-y,-z
x,-y,z
loop_
_atom_site_type_symbol
_atom_site_label
_atom_site_fract_x
_atom_site_fract_y
_atom_site_fract_z
Si Si1 0.012830 0.407869 0.234767
Si Si2 0.318466 0.908315 0.804535
Si Si3 0.211777 0.720386 0.367366
Si Si4 0.760227 0.817706 0.441238
Si Si5 0.573465 0.346449 0.547934
O O1 0.072977 0.500000 0.199492
O O2 0.862105 0.365764 0.500166
O O3 0.822194 0.402349 0.327305
O O4 0.299801 0.360498 0.913687
O O5 0.500000 0.895019 0.500000
O O6 0.516525 0.883935 0.696422
O O7 0.221347 0.000000 0.921957
O O8 0.047867 0.853155 0.088844
O O9 0.213450 0.789163 0.459634
O O10 0.000000 0.748958 0.500000
O O11 0.500000 0.708956 0.000000
O O12 0.671335 0.745259 0.454077
O O13 0.500000 0.369945 0.500000
#
# Coordination Sequence:
#
# PCOD8067741 Si02
#       5
#     4   4   4   4   4
#     4  11  24  40  60  90 122 155 203 256 306 361
#     4  11  23  39  64  98 131 160 189 233 298 361
#     4  11  23  41  63  86 114 157 210 259 307 348
#     4  11  22  40  63  89 124 160 204 249 289 357
#     4  11  23  39  60  89 124 164 202 238 295 367
#
# _framework density 20.814367000000001
#
# number of rings (size 3 to 8) (size 9 to 14) (size 15 to 20)
#    0.000    1.000    0.000    9.000    0.000    8.000 
#    0.000    0.000    0.000   12.000    0.000    0.000 
#    0.000    0.000    0.000    0.000    0.000    0.000 
#
# Total GULP energy -248072.046723 kJ/mol
# GULP energy per Si atom -12403.602336 kJ/mol
# Density = 2.076699 g / cm^3
# Si number density = 20.814367 Si / 1000 Ang^3
#
#
#
# Elastic Constant Matrix: (Units=GPa)
#
#
# Indices 1 2 3 4 5 6 
#
# 1 116.9147 49.7851 30.0905 0.0000 -13.8937 0.0000
# 2 49.7851 133.9717 80.0337 0.0000 0.1520 0.0000
# 3 30.0905 80.0337 151.8738 0.0000 -22.7367 0.0000
# 4 0.0000 0.0000 0.0000 22.6719 0.0000 -4.7621
# 5 -13.8937 0.1520 -22.7367 0.0000 38.7002 0.0000
# 6 0.0000 0.0000 0.0000 -4.7621 0.0000 22.4707
#
#
#
# Elastic Compliance Matrix: (Units=1/GPa)
#
#
# Indices 1 2 3 4 5 6 
#
# 1 0.010787 -0.004574 0.000938 0.000000 0.004442 0.000000
# 2 -0.004574 0.013352 -0.006999 0.000000 -0.005807 0.000000
# 3 0.000938 -0.006999 0.011119 0.000000 0.006897 0.000000
# 4 0.000000 0.000000 0.000000 0.046162 0.000000 0.009783
# 5 0.004442 -0.005807 0.006897 0.000000 0.031509 0.000000
# 6 0.000000 0.000000 0.000000 0.009783 0.000000 0.046576
#
#
# Mechanical properties :
#
#
# Convention : Reuss Voigt Hill
#
# Bulk Modulus (GPa) = 71.48743 80.28654 75.88699
# Shear Modulus (GPa) = 26.96302 32.95863 29.96083
#
# Velocity S-wave (km/s) = 3.60308 3.98358 3.79810
# Velocity P-wave (km/s) = 7.19231 7.73401 7.46808
#
# Compressibility (1/GPa) = 0.01398847
#
# Stress axis : x y z
#
# Youngs Moduli (GPa) = 92.70017 74.89556 89.93249
#
# Poissons Ratio (x) = 0.34259 -0.08438
# Poissons Ratio (y) = 0.42403 0.62945
# Poissons Ratio (z) = -0.08697 0.52421
#
# Static dielectric constant tensor:
#      x y z
#    x 3.937670 0.000000 -0.240430 
#    y 0.000000 3.731080 0.000000 
#    z -0.240430 0.000000 3.837890 
# 
# 
# High freq. dielectric constant tensor:
#      x y z
#    x 1.821600 0.000000 -0.022540 
#    y 0.000000 1.807870 0.000000 
#    z -0.022540 0.000000 1.826160 
# 
# From -- ./inp_files/51789.got.cif
#   From: 2010.06.25/outbox.cif.g09.slc.cpg/sg10_26_cif.got.tgz:51789.got - 2010.06.27 22:07:45.
