data_PCOD8067737
_publ_section_title
;
Structure prediction by ZEFSAII (Michael W. Deem and Ramdas Pophale) SiO2 
 PCOD8067737
Probable space group: P 2/M
;
_chemical_formula_sum "Si O2"
_cell_formula_units_Z 32
_cell_length_a 14.078137
_cell_length_b 17.513827
_cell_length_c 11.901238
_cell_angle_alpha 90.000000
_cell_angle_beta 31.799626
_cell_angle_gamma 90.000000
_cell_volume 1546.279492
_symmetry_space_group_name_H-M "P 2/M"
_symmetry_group_IT_number 10
_symmetry_cell_setting 'monoclinic'
loop_
_space_group_symop_operation_xyz
x,y,z
-x,y,-z
-x,-y,-z
x,-y,z
loop_
_atom_site_type_symbol
_atom_site_label
_atom_site_fract_x
_atom_site_fract_y
_atom_site_fract_z
Si Si1 0.983010 0.411181 0.888723
Si Si2 0.825090 0.836267 0.436721
Si Si3 0.474792 0.912217 0.393927
Si Si4 0.212509 0.085599 0.301585
Si Si5 0.212245 0.412715 0.291767
Si Si6 0.237324 0.162015 0.051163
Si Si7 0.310123 0.335686 0.966890
Si Si8 0.716520 0.336042 0.551776
O O1 0.937687 0.500000 0.925079
O O2 0.168868 0.395974 0.636000
O O3 0.818114 0.365114 0.002284
O O4 0.000000 0.384349 0.000000
O O5 0.720923 0.878627 0.440949
O O6 0.734159 0.863273 0.645032
O O7 0.807213 0.745872 0.444255
O O8 0.034087 0.860469 0.220265
O O9 0.500000 0.903267 0.500000
O O10 0.488613 0.000000 0.341747
O O11 0.631611 0.862964 0.179586
O O12 0.301831 0.120134 0.100043
O O13 0.000000 0.086634 0.500000
O O14 0.285336 0.000000 0.246958
O O15 0.265095 0.500000 0.264112
O O16 0.299373 0.389577 0.086251
O O17 0.287481 0.358840 0.313615
O O18 0.000000 0.401532 0.500000
O O19 0.249441 0.251548 0.063297
O O20 0.511684 0.335683 0.714219
#
# Coordination Sequence:
#
# PCOD8067737 Si02
#       8
#     4   4   4   4   4   4   4   4
#     4  11  26  47  69  95 129 171 222 274 326 388
#     4  11  22  42  67  96 130 173 213 265 325 387
#     4  11  26  45  65  95 131 169 222 274 318 380
#     4   9  19  35  62  96 129 163 207 258 317 387
#     4  11  22  39  66  97 136 175 212 263 328 397
#     4  11  22  42  67  96 130 173 213 265 325 387
#     4  12  24  42  67 100 133 173 217 271 327 391
#     4  12  24  42  67 100 133 173 217 271 327 391
#
# _framework density 20.694835999999999
#
# number of rings (size 3 to 8) (size 9 to 14) (size 15 to 20)
#    0.000    1.000    3.750    2.625    0.000    7.500 
#    0.000    3.750    0.000    0.000    0.000    0.000 
#    0.000    0.000    0.000    0.000    0.000    0.000 
#
# Total GULP energy -397011.606404 kJ/mol
# GULP energy per Si atom -12406.612700 kJ/mol
# Density = 2.064773 g / cm^3
# Si number density = 20.694836 Si / 1000 Ang^3
#
#
#
# Elastic Constant Matrix: (Units=GPa)
#
#
# Indices 1 2 3 4 5 6 
#
# 1 88.9959 21.7032 24.4989 0.0000 2.9685 0.0000
# 2 21.7032 85.7174 3.7933 0.0000 4.7360 0.0000
# 3 24.4989 3.7933 74.9984 0.0000 -9.6940 0.0000
# 4 0.0000 0.0000 0.0000 17.2192 0.0000 4.4027
# 5 2.9685 4.7360 -9.6940 0.0000 34.2757 0.0000
# 6 0.0000 0.0000 0.0000 4.4027 0.0000 27.8038
#
#
#
# Elastic Compliance Matrix: (Units=1/GPa)
#
#
# Indices 1 2 3 4 5 6 
#
# 1 0.013268 -0.003054 -0.004436 0.000000 -0.001982 0.000000
# 2 -0.003054 0.012509 0.000182 0.000000 -0.001412 0.000000
# 3 -0.004436 0.000182 0.015382 0.000000 0.004709 0.000000
# 4 0.000000 0.000000 0.000000 0.060525 0.000000 -0.009584
# 5 -0.001982 -0.001412 0.004709 0.000000 0.030874 0.000000
# 6 0.000000 0.000000 0.000000 -0.009584 0.000000 0.037484
#
#
# Mechanical properties :
#
#
# Convention : Reuss Voigt Hill
#
# Bulk Modulus (GPa) = 37.67162 38.85582 38.26372
# Shear Modulus (GPa) = 25.83896 29.17416 27.50656
#
# Velocity S-wave (km/s) = 3.53735 3.75871 3.64971
# Velocity P-wave (km/s) = 5.90988 6.13625 6.02413
#
# Compressibility (1/GPa) = 0.02654518
#
# Stress axis : x y z
#
# Youngs Moduli (GPa) = 75.36703 79.93997 65.01035
#
# Poissons Ratio (x) = 0.24411 0.28838
# Poissons Ratio (y) = 0.23015 -0.01185
# Poissons Ratio (z) = 0.33432 -0.01457
#
# Static dielectric constant tensor:
#      x y z
#    x 3.803710 0.000000 -0.083540 
#    y 0.000000 3.897270 0.000000 
#    z -0.083540 0.000000 3.690980 
# 
# 
# High freq. dielectric constant tensor:
#      x y z
#    x 1.811520 0.000000 -0.009030 
#    y 0.000000 1.822830 0.000000 
#    z -0.009030 0.000000 1.809310 
# 
# From -- ./inp_files/51938.got.cif
#   From: 2010.06.25/outbox.cif.g09.slc.cpg/sg10_26_cif.got.tgz:51938.got - 2010.06.27 22:07:45.
