data_PCOD8067733
_publ_section_title
;
Structure prediction by ZEFSAII (Michael W. Deem and Ramdas Pophale) SiO2 
 PCOD8067733
Probable space group: P 2/M
;
_chemical_formula_sum "Si O2"
_cell_formula_units_Z 20
_cell_length_a 12.642479
_cell_length_b 7.512871
_cell_length_c 17.840620
_cell_angle_alpha 90.000000
_cell_angle_beta 34.415222
_cell_angle_gamma 90.000000
_cell_volume 957.722435
_symmetry_space_group_name_H-M "P 2/M"
_symmetry_group_IT_number 10
_symmetry_cell_setting 'monoclinic'
loop_
_space_group_symop_operation_xyz
x,y,z
-x,y,-z
-x,-y,-z
x,-y,z
loop_
_atom_site_type_symbol
_atom_site_label
_atom_site_fract_x
_atom_site_fract_y
_atom_site_fract_z
Si Si1 0.648323 0.791489 0.977234
Si Si2 0.938656 0.702748 0.307780
Si Si3 0.448352 0.701668 0.802178
Si Si4 0.715936 0.000000 0.353165
Si Si5 0.217784 0.000000 0.860193
Si Si6 0.858155 0.711037 0.521662
O O1 0.845395 0.706167 0.840913
O O2 0.675502 0.000000 0.973753
O O3 0.500000 0.745988 0.000000
O O4 0.570787 0.702634 0.097404
O O5 0.864995 0.500000 0.344636
O O6 0.917462 0.777112 0.404639
O O7 0.814556 0.822723 0.325864
O O8 0.423454 0.500000 0.787421
O O9 0.292622 0.821936 0.855006
O O10 0.650547 0.779934 0.661400
O O11 0.500000 0.000000 0.500000
O O12 0.729263 0.000000 0.256812
O O13 0.000000 0.000000 0.000000
O O14 0.865427 0.500000 0.522377
O O15 0.000000 0.793982 0.500000
#
# Coordination Sequence:
#
# PCOD8067733 Si02
#       6
#     4   4   4   2   2   4
#     4  11  22  39  64  96 133 167 203 247 305 378
#     4  11  23  42  66  93 127 166 210 255 310 373
#     4  11  23  42  66  92 125 164 206 253 312 369
#     4  12  26  44  65  90 125 162 212 270 320 362
#     4  12  26  44  63  86 123 158 212 272 310 358
#     4   9  19  37  63  96 130 161 198 245 300 373
#
# _framework density 20.882878000000002
#
# number of rings (size 3 to 8) (size 9 to 14) (size 15 to 20)
#    0.000    1.200    2.000    4.200    0.000    4.800 
#    0.000    1.000    0.000    0.000    0.000    0.000 
#    0.000    0.000    0.000    0.000    0.000    0.000 
#
# Total GULP energy -248117.587443 kJ/mol
# GULP energy per Si atom -12405.879372 kJ/mol
# Density = 2.083535 g / cm^3
# Si number density = 20.882878 Si / 1000 Ang^3
#
#
#
# Elastic Constant Matrix: (Units=GPa)
#
#
# Indices 1 2 3 4 5 6 
#
# 1 121.1714 46.2764 36.6130 0.0000 0.6086 0.0000
# 2 46.2764 105.7082 15.9803 0.0000 -12.3503 0.0000
# 3 36.6130 15.9803 123.2879 0.0000 -0.0393 0.0000
# 4 0.0000 0.0000 0.0000 37.6192 0.0000 9.3316
# 5 0.6086 -12.3503 -0.0393 0.0000 47.6521 0.0000
# 6 0.0000 0.0000 0.0000 9.3316 0.0000 -4.3222
#
#
#
# Elastic Compliance Matrix: (Units=1/GPa)
#
#
# Indices 1 2 3 4 5 6 
#
# 1 0.010754 -0.004464 -0.002616 0.000000 -0.001296 0.000000
# 2 -0.004464 0.011809 -0.000204 0.000000 0.003118 0.000000
# 3 -0.002616 -0.000204 0.008914 0.000000 -0.000012 0.000000
# 4 0.000000 0.000000 0.000000 0.017311 0.000000 0.037375
# 5 -0.001296 0.003118 -0.000012 0.000000 0.021810 0.000000
# 6 0.000000 0.000000 0.000000 0.037375 0.000000 -0.150672
#
#
# Mechanical properties :
#
#
# Convention : Reuss Voigt Hill
#
# Bulk Modulus (GPa) = 59.13386 60.87853 60.00620
# Shear Modulus (GPa) = -83.51640 32.94301 -25.28669
#
# Velocity S-wave (km/s) = -6.33084 3.97610 -3.48355
# Velocity P-wave (km/s) = 5.00610 7.09188 3.55202
#
# Compressibility (1/GPa) = 0.01691078
#
# Stress axis : x y z
#
# Youngs Moduli (GPa) = 92.98450 84.67869 112.17958
#
# Poissons Ratio (x) = 0.37802 0.29341
# Poissons Ratio (y) = 0.41509 0.02288
# Poissons Ratio (z) = 0.24321 0.01727
#
# Static dielectric constant tensor:
#      x y z
#    x 3.818680 0.000000 0.088860 
#    y 0.000000 3.734590 0.000000 
#    z 0.088860 0.000000 3.952290 
# 
# 
# High freq. dielectric constant tensor:
#      x y z
#    x 1.819720 0.000000 0.006130 
#    y 0.000000 1.822430 0.000000 
#    z 0.006130 0.000000 1.836380 
# 
# From -- ./inp_files/76154.got.cif
#   From: 2010.06.25/outbox.cif.g09.slc.cpg/sg10_39_cif.got.tgz:76154.got - 2010.06.27 22:07:45.
