data_PCOD8067052
_publ_section_title
;
Structure prediction by ZEFSAII (Michael W. Deem and Ramdas Pophale) SiO2 
 PCOD8067052
Probable space group: P 2/M
;
_chemical_formula_sum "Si O2"
_cell_formula_units_Z 32
_cell_length_a 12.153837
_cell_length_b 8.526071
_cell_length_c 31.739802
_cell_angle_alpha 90.000000
_cell_angle_beta 28.499358
_cell_angle_gamma 90.000000
_cell_volume 1569.352503
_symmetry_space_group_name_H-M "P 2/M"
_symmetry_group_IT_number 10
_symmetry_cell_setting 'monoclinic'
loop_
_space_group_symop_operation_xyz
x,y,z
-x,y,-z
-x,-y,-z
x,-y,z
loop_
_atom_site_type_symbol
_atom_site_label
_atom_site_fract_x
_atom_site_fract_y
_atom_site_fract_z
Si Si1 0.152696 0.815045 0.174053
Si Si2 0.038947 0.181765 0.852297
Si Si3 0.273242 0.814498 0.522255
Si Si4 0.214169 0.814630 0.635912
Si Si5 0.553842 0.316443 0.236571
Si Si6 0.062190 0.315421 0.433459
Si Si7 0.624189 0.318294 0.041830
Si Si8 0.265500 0.183156 0.910093
O O1 0.392486 0.724049 0.095013
O O2 0.033127 0.772532 0.170449
O O3 0.988764 0.748767 0.266334
O O4 0.199568 0.000000 0.162550
O O5 0.261569 0.284270 0.788845
O O6 0.104621 0.000000 0.834049
O O7 0.832595 0.215810 0.953794
O O8 0.168018 0.765297 0.603120
O O9 0.537323 0.754332 0.431623
O O10 0.136975 0.726637 0.532004
O O11 0.254917 0.000000 0.521536
O O12 0.221379 0.000000 0.636784
O O13 0.546570 0.500000 0.228445
O O14 0.307783 0.250239 0.334937
O O15 0.621112 0.221115 0.172517
O O16 0.081620 0.500000 0.431195
O O17 0.000000 0.241785 0.500000
O O18 0.680673 0.500000 0.016391
O O19 0.596211 0.277223 0.100503
O O20 0.289245 0.000000 0.911496
O O21 0.000000 0.237655 0.000000
#
# Coordination Sequence:
#
# PCOD8067052 Si02
#       8
#     4   4   4   4   4   4   4   4
#     4  10  22  39  61  87 121 160 202 252 301 354
#     4  11  23  40  62  88 120 161 206 251 302 359
#     4   9  18  36  63  89 116 150 198 249 295 350
#     4   8  17  36  60  89 118 149 191 248 305 346
#     4  11  24  41  63  90 123 163 207 254 305 364
#     4  10  24  43  60  86 128 167 198 242 305 365
#     4  12  25  40  61  89 124 161 201 248 300 362
#     4  11  23  41  66  92 121 160 205 253 307 367
#
# _framework density 20.390577
#
# number of rings (size 3 to 8) (size 9 to 14) (size 15 to 20)
#    0.000    1.750    1.250    3.375    3.500    4.250 
#    0.000    1.875    0.000    0.000    0.000    0.000 
#    0.000    0.000    0.000    0.000    0.000    0.000 
#
# Total GULP energy -396930.430098 kJ/mol
# GULP energy per Si atom -12404.075941 kJ/mol
# Density = 2.034417 g / cm^3
# Si number density = 20.390577 Si / 1000 Ang^3
#
#
#
# Elastic Constant Matrix: (Units=GPa)
#
#
# Indices 1 2 3 4 5 6 
#
# 1 116.7397 9.1608 44.1660 0.0000 8.1342 0.0000
# 2 9.1608 30.0466 10.7001 0.0000 3.2378 0.0000
# 3 44.1660 10.7001 112.9413 0.0000 4.4649 0.0000
# 4 0.0000 0.0000 0.0000 23.4878 0.0000 -28.0565
# 5 8.1342 3.2378 4.4649 0.0000 29.9963 0.0000
# 6 0.0000 0.0000 0.0000 -28.0565 0.0000 102.8584
#
#
#
# Elastic Compliance Matrix: (Units=1/GPa)
#
#
# Indices 1 2 3 4 5 6 
#
# 1 0.010263 -0.001560 -0.003785 0.000000 -0.002051 0.000000
# 2 -0.001560 0.034999 -0.002588 0.000000 -0.002969 0.000000
# 3 -0.003785 -0.002588 0.010590 0.000000 -0.000271 0.000000
# 4 0.000000 0.000000 0.000000 0.063152 0.000000 0.017226
# 5 -0.002051 -0.002969 -0.000271 0.000000 0.034254 0.000000
# 6 0.000000 0.000000 0.000000 0.017226 0.000000 0.014421
#
#
# Mechanical properties :
#
#
# Convention : Reuss Voigt Hill
#
# Bulk Modulus (GPa) = 25.00875 43.08685 34.04780
# Shear Modulus (GPa) = 25.39694 44.31523 34.85608
#
# Velocity S-wave (km/s) = 3.53303 4.66694 4.13900
# Velocity P-wave (km/s) = 5.37908 7.08640 6.29093
#
# Compressibility (1/GPa) = 0.03998601
#
# Stress axis : x y z
#
# Youngs Moduli (GPa) = 97.43500 28.57222 94.42847
#
# Poissons Ratio (x) = 0.04458 0.35737
# Poissons Ratio (y) = 0.15203 0.24440
# Poissons Ratio (z) = 0.36875 0.07395
#
# Static dielectric constant tensor:
#      x y z
#    x 3.802770 0.000000 0.048870 
#    y 0.000000 3.410120 0.000000 
#    z 0.048870 0.000000 4.073350 
# 
# 
# High freq. dielectric constant tensor:
#      x y z
#    x 1.809750 0.000000 0.002570 
#    y 0.000000 1.776830 0.000000 
#    z 0.002570 0.000000 1.803400 
# 
# From -- ./inp_files/95002.got.cif
#   From: 2010.06.25/outbox.cif.g09.slc.cpg/sg10_48_cif.got.tgz:95002.got - 2010.06.27 22:07:45.
