data_PCOD8067089
_publ_section_title
;
Structure prediction by ZEFSAII (Michael W. Deem and Ramdas Pophale) SiO2 
 PCOD8067089
Probable space group: P 2/M
;
_chemical_formula_sum "Si O2"
_cell_formula_units_Z 32
_cell_length_a 8.486906
_cell_length_b 18.770226
_cell_length_c 12.640977
_cell_angle_alpha 90.000000
_cell_angle_beta 128.156053
_cell_angle_gamma 90.000000
_cell_volume 1583.452094
_symmetry_space_group_name_H-M "P 2/M"
_symmetry_group_IT_number 10
_symmetry_cell_setting 'monoclinic'
loop_
_space_group_symop_operation_xyz
x,y,z
-x,y,-z
-x,-y,-z
x,-y,z
loop_
_atom_site_type_symbol
_atom_site_label
_atom_site_fract_x
_atom_site_fract_y
_atom_site_fract_z
Si Si1 0.813143 0.921219 0.129009
Si Si2 0.138158 0.583174 0.966763
Si Si3 0.433415 0.582176 0.788349
Si Si4 0.675524 0.801793 0.375759
Si Si5 0.480273 0.920290 0.171953
Si Si6 0.616226 0.649436 0.438543
Si Si7 0.965589 0.645825 0.291725
Si Si8 0.003553 0.196267 0.674722
O O1 0.653061 0.918225 0.156417
O O2 0.977216 0.862157 0.225188
O O3 0.910479 0.000000 0.166297
O O4 0.723017 0.903029 0.976426
O O5 0.151576 0.500000 0.993857
O O6 0.369144 0.610688 0.067269
O O7 0.033037 0.598062 0.812071
O O8 0.000000 0.618862 0.000000
O O9 0.386077 0.500000 0.797562
O O10 0.472316 0.590396 0.678457
O O11 0.244618 0.632332 0.736697
O O12 0.510246 0.862240 0.278087
O O13 0.580160 0.725768 0.366288
O O14 0.815933 0.795833 0.332522
O O15 0.801584 0.826008 0.530327
O O16 0.471519 0.000000 0.218216
O O17 0.500000 0.646542 0.500000
O O18 0.849559 0.628714 0.553618
O O19 0.001472 0.727277 0.270437
#
# Coordination Sequence:
#
# PCOD8067089 Si02
#       8
#     4   4   4   4   4   4   4   4
#     4   8  14  25  41  69 105 134 167 216 271 322
#     4  10  22  40  59  82 114 146 179 224 273 326
#     4  11  23  39  60  85 109 141 184 226 275 331
#     4   9  17  31  47  69 103 135 176 219 269 321
#     4   8  14  25  43  68 101 136 172 215 264 319
#     4  11  23  38  56  79 110 147 184 230 281 330
#     4  11  21  37  57  81 113 143 186 231 274 327
#     4   9  17  29  47  72 102 138 173 221 269 317
#
# _framework density 20.209012000000001
#
# number of rings (size 3 to 8) (size 9 to 14) (size 15 to 20)
#    0.000    2.375    1.250    2.625    0.000    4.250 
#    4.500    2.500    0.000    0.375    0.000    0.000 
#    0.000    8.500    0.000    0.000    0.000    0.125 
#
# Total GULP energy -396560.399651 kJ/mol
# GULP energy per Si atom -12392.512489 kJ/mol
# Density = 2.016301 g / cm^3
# Si number density = 20.209012 Si / 1000 Ang^3
#
#
#
# Elastic Constant Matrix: (Units=GPa)
#
#
# Indices 1 2 3 4 5 6 
#
# 1 45.2921 12.1914 14.4160 0.0000 -1.7449 0.0000
# 2 12.1914 55.9335 45.3016 0.0000 6.8470 0.0000
# 3 14.4160 45.3016 96.8991 0.0000 5.9706 0.0000
# 4 0.0000 0.0000 0.0000 46.3212 0.0000 -4.1558
# 5 -1.7449 6.8470 5.9706 0.0000 21.4514 0.0000
# 6 0.0000 0.0000 0.0000 -4.1558 0.0000 11.5273
#
#
#
# Elastic Compliance Matrix: (Units=1/GPa)
#
#
# Indices 1 2 3 4 5 6 
#
# 1 0.023939 -0.004198 -0.001833 0.000000 0.003797 0.000000
# 2 -0.004198 0.030170 -0.013091 0.000000 -0.006328 0.000000
# 3 -0.001833 -0.013091 0.016752 0.000000 -0.000633 0.000000
# 4 0.000000 0.000000 0.000000 0.022310 0.000000 0.008043
# 5 0.003797 -0.006328 -0.000633 0.000000 0.049122 0.000000
# 6 0.000000 0.000000 0.000000 0.008043 0.000000 0.089650
#
#
# Mechanical properties :
#
#
# Convention : Reuss Voigt Hill
#
# Bulk Modulus (GPa) = 30.65820 37.99365 34.32592
# Shear Modulus (GPa) = 17.78992 24.27438 21.03215
#
# Velocity S-wave (km/s) = 2.97020 3.46954 3.22954
# Velocity P-wave (km/s) = 5.19290 5.90690 5.56137
#
# Compressibility (1/GPa) = 0.03261771
#
# Stress axis : x y z
#
# Youngs Moduli (GPa) = 41.77361 33.14518 59.69550
#
# Poissons Ratio (x) = 0.13915 0.10940
# Poissons Ratio (y) = 0.17537 0.78145
# Poissons Ratio (z) = 0.07656 0.43389
#
# Static dielectric constant tensor:
#      x y z
#    x 3.338530 0.000000 0.113150 
#    y 0.000000 3.783900 0.000000 
#    z 0.113150 0.000000 3.895780 
# 
# 
# High freq. dielectric constant tensor:
#      x y z
#    x 1.749880 0.000000 0.001340 
#    y 0.000000 1.781700 0.000000 
#    z 0.001340 0.000000 1.798380 
# 
# From -- ./inp_files/43640.got.cif
#   From: 2010.06.25/outbox.cif.g09.slc.cpg/sg10_22_cif.got.tgz:43640.got - 2010.06.27 22:07:45.
