data_PCOD8067143
_publ_section_title
;
Structure prediction by ZEFSAII (Michael W. Deem and Ramdas Pophale) SiO2 
 PCOD8067143
Probable space group: P 2/M
;
_chemical_formula_sum "Si O2"
_cell_formula_units_Z 32
_cell_length_a 11.858774
_cell_length_b 8.613026
_cell_length_c 15.321149
_cell_angle_alpha 90.000000
_cell_angle_beta 88.686721
_cell_angle_gamma 90.000000
_cell_volume 1564.490007
_symmetry_space_group_name_H-M "P 2/M"
_symmetry_group_IT_number 10
_symmetry_cell_setting 'monoclinic'
loop_
_space_group_symop_operation_xyz
x,y,z
-x,y,-z
-x,-y,-z
x,-y,z
loop_
_atom_site_type_symbol
_atom_site_label
_atom_site_fract_x
_atom_site_fract_y
_atom_site_fract_z
Si Si1 0.388956 0.179951 0.742347
Si Si2 0.221278 0.818816 0.899003
Si Si3 0.758598 0.680186 0.922336
Si Si4 0.755189 0.322049 0.401195
Si Si5 0.211931 0.319370 0.403564
Si Si6 0.997100 0.321477 0.838042
Si Si7 0.011336 0.820126 0.653097
Si Si8 0.632374 0.317272 0.754482
O O1 0.307204 0.232133 0.821938
O O2 0.329640 0.214961 0.651527
O O3 0.502988 0.274727 0.748304
O O4 0.418576 0.000000 0.747609
O O5 0.107423 0.720854 0.890897
O O6 0.193256 0.000000 0.892940
O O7 0.275841 0.776829 0.991243
O O8 0.731557 0.500000 0.939341
O O9 0.684536 0.747780 0.843651
O O10 0.890230 0.707263 0.901357
O O11 0.733637 0.500000 0.375194
O O12 0.729892 0.294427 0.503710
O O13 0.883913 0.282018 0.378909
O O14 0.183464 0.500000 0.387738
O O15 0.096002 0.223490 0.403593
O O16 0.297024 0.251875 0.329086
O O17 0.002332 0.500000 0.807374
O O18 0.984515 0.213096 0.754280
O O19 0.041313 0.000000 0.640286
O O20 0.646011 0.500000 0.753904
#
# Coordination Sequence:
#
# PCOD8067143 Si02
#       8
#     4   4   4   4   4   4   4   4
#     4  11  25  43  61  87 124 162 204 255 309 361
#     4  11  24  40  60  90 127 162 199 249 306 365
#     4  10  22  40  64  92 121 157 203 253 300 357
#     4  11  23  40  66  92 120 163 206 250 301 358
#     4  10  22  42  65  92 123 159 206 251 299 362
#     4  11  21  38  64  91 123 161 202 248 300 362
#     4  12  23  36  60  94 130 163 196 244 308 367
#     4  10  22  43  66  88 118 158 209 259 301 355
#
# _framework density 20.453949000000001
#
# number of rings (size 3 to 8) (size 9 to 14) (size 15 to 20)
#    0.000    1.250    2.500    3.375    0.000    8.500 
#    0.000    5.000    0.000    0.000    0.000    0.000 
#    0.000    0.000    0.000    0.000    0.000    0.000 
#
# Total GULP energy -397004.337688 kJ/mol
# GULP energy per Si atom -12406.385553 kJ/mol
# Density = 2.040740 g / cm^3
# Si number density = 20.453949 Si / 1000 Ang^3
#
#
#
# Elastic Constant Matrix: (Units=GPa)
#
#
# Indices 1 2 3 4 5 6 
#
# 1 106.3233 5.5109 37.5352 0.0000 13.6450 0.0000
# 2 5.5109 30.3253 20.5058 0.0000 -2.8826 0.0000
# 3 37.5352 20.5058 122.1758 0.0000 14.7358 0.0000
# 4 0.0000 0.0000 0.0000 27.3223 0.0000 6.5717
# 5 13.6450 -2.8826 14.7358 0.0000 15.8798 0.0000
# 6 0.0000 0.0000 0.0000 6.5717 0.0000 17.5366
#
#
#
# Elastic Compliance Matrix: (Units=1/GPa)
#
#
# Indices 1 2 3 4 5 6 
#
# 1 0.011286 -0.001214 -0.002328 0.000000 -0.007758 0.000000
# 2 -0.001214 0.040373 -0.008347 0.000000 0.016118 0.000000
# 3 -0.002328 -0.008347 0.011533 0.000000 -0.010218 0.000000
# 4 0.000000 0.000000 0.000000 0.040226 0.000000 -0.015074
# 5 -0.007758 0.016118 -0.010218 0.000000 0.082047 0.000000
# 6 0.000000 0.000000 0.000000 -0.015074 0.000000 0.062673
#
#
# Mechanical properties :
#
#
# Convention : Reuss Voigt Hill
#
# Bulk Modulus (GPa) = 25.37200 42.88093 34.12646
# Shear Modulus (GPa) = 17.54062 25.16591 21.35326
#
# Velocity S-wave (km/s) = 2.93160 3.51147 3.23455
# Velocity P-wave (km/s) = 4.88778 6.11970 5.53810
#
# Compressibility (1/GPa) = 0.03941353
#
# Stress axis : x y z
#
# Youngs Moduli (GPa) = 88.60888 24.76917 86.70497
#
# Poissons Ratio (x) = 0.03008 0.20182
# Poissons Ratio (y) = 0.10760 0.72373
# Poissons Ratio (z) = 0.20626 0.20675
#
# Static dielectric constant tensor:
#      x y z
#    x 3.572170 0.000000 0.018360 
#    y 0.000000 3.660540 0.000000 
#    z 0.018360 0.000000 3.912450 
# 
# 
# High freq. dielectric constant tensor:
#      x y z
#    x 1.793020 0.000000 0.003450 
#    y 0.000000 1.793160 0.000000 
#    z 0.003450 0.000000 1.815080 
# 
# From -- ./inp_files/49937.got.cif
#   From: 2010.06.25/outbox.cif.g09.slc.cpg/sg10_25_cif.got.tgz:49937.got - 2010.06.27 22:07:45.
