data_PCOD8067892
_publ_section_title
;
Structure prediction by ZEFSAII (Michael W. Deem and Ramdas Pophale) SiO2 
 PCOD8067892
Probable space group: P 2/M
;
_chemical_formula_sum "Si O2"
_cell_formula_units_Z 20
_cell_length_a 17.715705
_cell_length_b 13.052533
_cell_length_c 16.638349
_cell_angle_alpha 90.000000
_cell_angle_beta 148.794486
_cell_angle_gamma 90.000000
_cell_volume 1993.356049
_symmetry_space_group_name_H-M "P 2/M"
_symmetry_group_IT_number 10
_symmetry_cell_setting 'monoclinic'
loop_
_space_group_symop_operation_xyz
x,y,z
-x,y,-z
-x,-y,-z
x,-y,z
loop_
_atom_site_type_symbol
_atom_site_label
_atom_site_fract_x
_atom_site_fract_y
_atom_site_fract_z
Si Si1 0.133831 0.886715 0.230637
Si Si2 0.864942 0.500000 0.767936
Si Si3 0.689882 0.304421 0.592722
Si Si4 0.189193 0.886715 0.092386
Si Si5 0.190534 0.500000 0.093528
Si Si6 0.634318 0.304421 0.731478
O O1 0.230716 0.800457 0.362583
O O2 0.161953 0.882222 0.161953
O O3 0.176256 0.000000 0.302033
O O4 0.963290 0.864604 0.091672
O O5 0.791801 0.399943 0.661764
O O6 0.838675 0.500000 0.838675
O O7 0.037407 0.500000 0.906586
O O8 0.662037 0.304081 0.662037
O O9 0.537366 0.313360 0.406690
O O10 0.306129 0.800457 0.174262
O O11 0.248186 0.000000 0.122410
O O12 0.282565 0.399943 0.152529
#
# Coordination Sequence:
#
# PCOD8067892 Si02
#       6
#     4   2   4   4   2   4
#     4   8  13  20  27  32  37  44  51  55  58  65
#     4   9  15  21  27  31  35  43  51  55  59  67
#     4   9  15  20  25  32  39  43  47  55  63  67
#     4   8  13  20  27  32  37  44  51  55  58  65
#     4   9  15  21  27  31  35  43  51  55  59  67
#     4   9  15  20  25  32  39  43  47  55  63  67
#
# _framework density 10.033329999999999
#
# number of rings (size 3 to 8) (size 9 to 14) (size 15 to 20)
#    0.000    3.400    0.000    3.000    0.000    8.000 
#    0.000    4.000    0.000    0.000    0.000    0.000 
#    0.000    0.000    0.000    0.000    0.000    0.000 
#
# Total GULP energy -247835.647864 kJ/mol
# GULP energy per Si atom -12391.782393 kJ/mol
# Density = 1.001049 g / cm^3
# Si number density = 10.033330 Si / 1000 Ang^3
#
#
#
# Elastic Constant Matrix: (Units=GPa)
#
#
# Indices 1 2 3 4 5 6 
#
# 1 2.6768 10.8955 13.6334 0.0000 6.0413 0.0000
# 2 10.8955 109.6968 55.4871 0.0000 24.5879 0.0000
# 3 13.6334 55.4871 69.4283 0.0000 30.7658 0.0000
# 4 0.0000 0.0000 0.0000 16.5248 0.0000 7.3227
# 5 6.0413 24.5879 30.7658 0.0000 13.6333 0.0000
# 6 0.0000 0.0000 0.0000 7.3227 0.0000 3.2448
#
#
#
# Elastic Compliance Matrix: (Units=1/GPa)
#
#
# Indices 1 2 3 4 5 6 
#
# 1 ********** -0.016152********** 0.000002********** -0.000004
# 2 -0.016152 0.015302 -0.016606 0.000000 0.017034 0.000000
# 3 ********** -0.016606********** 0.000007********** -0.000016
# 4 0.000003 0.000000 0.000008********** -0.000020**********
# 5 ********** 0.017034********** -0.000017********** 0.000039
# 6 -0.000006 0.000000 -0.000019********** 0.000046**********
#
#
# Mechanical properties :
#
#
# Convention : Reuss Voigt Hill
#
# Bulk Modulus (GPa) = 0.00023 37.98155 18.99089
# Shear Modulus (GPa) = 0.00118 13.46631 6.73375
#
# Velocity S-wave (km/s) = 0.03438 3.66752 2.59344
# Velocity P-wave (km/s) = 0.04249 7.47475 5.28553
#
# Compressibility (1/GPa) = 4357.00751696
#
# Stress axis : x y z
#
# Youngs Moduli (GPa) = -0.00038 65.35177 0.00029
#
# Poissons Ratio (x) = 1.05557 -0.52755
# Poissons Ratio (y) = -0.00001 0.00000
# Poissons Ratio (z) = 0.67756 1.08522
#
# Static dielectric constant tensor:
#      x y z
#    x 1.595460 0.000000 0.374850 
#    y 0.000000 2.542110 0.000000 
#    z 0.374850 0.000000 2.275280 
# 
# 
# High freq. dielectric constant tensor:
#      x y z
#    x 1.275840 0.000000 0.052690 
#    y 0.000000 1.401930 0.000000 
#    z 0.052690 0.000000 1.371410 
# 
# From -- ./inp_files/44201.got.cif
#   From: 2010.06.25/outbox.cif.g09.slc.cpg/sg10_23_cif.got.tgz:44201.got - 2010.06.27 22:07:45.
