data_PCOD8067664
_publ_section_title
;
Structure prediction by ZEFSAII (Michael W. Deem and Ramdas Pophale) SiO2 
 PCOD8067664
Probable space group: P 2/M
;
_chemical_formula_sum "Si O2"
_cell_formula_units_Z 28
_cell_length_a 16.620052
_cell_length_b 8.862918
_cell_length_c 14.079780
_cell_angle_alpha 90.000000
_cell_angle_beta 132.319124
_cell_angle_gamma 90.000000
_cell_volume 1533.515585
_symmetry_space_group_name_H-M "P 2/M"
_symmetry_group_IT_number 10
_symmetry_cell_setting 'monoclinic'
loop_
_space_group_symop_operation_xyz
x,y,z
-x,y,-z
-x,-y,-z
x,-y,z
loop_
_atom_site_type_symbol
_atom_site_label
_atom_site_fract_x
_atom_site_fract_y
_atom_site_fract_z
Si Si1 0.632201 0.821411 0.510536
Si Si2 0.168488 0.821539 0.451865
Si Si3 0.178183 0.828766 0.668167
Si Si4 0.389660 0.821533 0.292630
Si Si5 0.733032 0.677766 0.975336
Si Si6 0.928244 0.177905 0.227919
Si Si7 0.612504 0.827472 0.049293
O O1 0.731363 0.750293 0.528064
O O2 0.515603 0.774596 0.373281
O O3 0.642084 0.766722 0.626925
O O4 0.640383 0.000000 0.517188
O O5 0.165044 0.748628 0.555144
O O6 0.054648 0.785863 0.308242
O O7 0.186483 0.000000 0.474881
O O8 0.103317 0.757613 0.692106
O O9 0.139209 0.000000 0.624716
O O10 0.303574 0.816908 0.797496
O O11 0.309254 0.735430 0.158899
O O12 0.374258 0.000000 0.267774
O O13 0.740955 0.500000 0.980262
O O14 0.649334 0.728677 0.989814
O O15 0.853922 0.743345 0.089535
O O16 0.902181 0.000000 0.203736
O O17 0.599357 0.000000 0.003507
O O18 0.500000 0.762265 0.000000
#
# Coordination Sequence:
#
# PCOD8067664 Si02
#       7
#     4   4   4   4   4   4   4
#     4   8  16  29  50  80 103 122 156 210 263 300
#     4   9  15  25  48  78 102 123 159 210 256 295
#     4   8  14  24  42  73 104 126 153 195 245 291
#     4   9  17  33  54  75 101 128 161 206 256 306
#     4  11  22  34  50  70  98 139 173 202 246 295
#     4   9  17  31  49  72 100 131 167 206 246 294
#     4   9  18  31  50  77 103 131 166 204 245 294
#
# _framework density 18.258700000000001
#
# number of rings (size 3 to 8) (size 9 to 14) (size 15 to 20)
#    0.000    3.000    0.000    3.429    2.000    2.000 
#    0.000    2.143    0.000   12.857    0.000    0.000 
#    0.000    0.000    0.000    0.000    0.000    0.000 
#
# Total GULP energy -347048.038995 kJ/mol
# GULP energy per Si atom -12394.572821 kJ/mol
# Density = 1.821714 g / cm^3
# Si number density = 18.258700 Si / 1000 Ang^3
#
#
#
# Elastic Constant Matrix: (Units=GPa)
#
#
# Indices 1 2 3 4 5 6 
#
# 1 101.1807 19.1397 62.7715 0.0000 13.6479 0.0000
# 2 19.1397 48.6069 35.1072 0.0000 -2.6749 0.0000
# 3 62.7715 35.1072 127.4890 0.0000 -4.4988 0.0000
# 4 0.0000 0.0000 0.0000 2.6131 0.0000 -0.1151
# 5 13.6479 -2.6749 -4.4988 0.0000 26.6055 0.0000
# 6 0.0000 0.0000 0.0000 -0.1151 0.0000 8.1646
#
#
#
# Elastic Compliance Matrix: (Units=1/GPa)
#
#
# Indices 1 2 3 4 5 6 
#
# 1 0.016510 -0.001154 -0.008163 0.000000 -0.009965 0.000000
# 2 -0.001154 0.025813 -0.006466 0.000000 0.002094 0.000000
# 3 -0.008163 -0.006466 0.013851 0.000000 0.005879 0.000000
# 4 0.000000 0.000000 0.000000 0.382930 0.000000 0.005399
# 5 -0.009965 0.002094 0.005879 0.000000 0.043903 0.000000
# 6 0.000000 0.000000 0.000000 0.005399 0.000000 0.122556
#
#
# Mechanical properties :
#
#
# Convention : Reuss Voigt Hill
#
# Bulk Modulus (GPa) = 40.63669 56.81260 48.72465
# Shear Modulus (GPa) = 7.74795 18.16052 12.95424
#
# Velocity S-wave (km/s) = 2.06219 3.15719 2.66650
# Velocity P-wave (km/s) = 5.28910 6.66883 6.01863
#
# Compressibility (1/GPa) = 0.02460830
#
# Stress axis : x y z
#
# Youngs Moduli (GPa) = 60.56963 38.73998 72.19620
#
# Poissons Ratio (x) = 0.04469 0.58933
# Poissons Ratio (y) = 0.06987 0.46685
# Poissons Ratio (z) = 0.49443 0.25051
#
# Static dielectric constant tensor:
#      x y z
#    x 3.616660 0.000000 0.036890 
#    y 0.000000 2.799310 0.000000 
#    z 0.036890 0.000000 3.436830 
# 
# 
# High freq. dielectric constant tensor:
#      x y z
#    x 1.703190 0.000000 0.007160 
#    y 0.000000 1.645790 0.000000 
#    z 0.007160 0.000000 1.716900 
# 
# From -- ./inp_files/68702.got.cif
#   From: 2010.06.25/outbox.cif.g09.slc.cpg/sg10_35_cif.got.tgz:68702.got - 2010.06.27 22:07:45.
