data_PCOD8067542
_publ_section_title
;
Structure prediction by ZEFSAII (Michael W. Deem and Ramdas Pophale) SiO2 
 PCOD8067542
Probable space group: P 2/M
;
_chemical_formula_sum "Si O2"
_cell_formula_units_Z 32
_cell_length_a 18.684613
_cell_length_b 13.182012
_cell_length_c 21.686935
_cell_angle_alpha 90.000000
_cell_angle_beta 159.446017
_cell_angle_gamma 90.000000
_cell_volume 1875.349108
_symmetry_space_group_name_H-M "P 2/M"
_symmetry_group_IT_number 10
_symmetry_cell_setting 'monoclinic'
loop_
_space_group_symop_operation_xyz
x,y,z
-x,y,-z
-x,-y,-z
x,-y,z
loop_
_atom_site_type_symbol
_atom_site_label
_atom_site_fract_x
_atom_site_fract_y
_atom_site_fract_z
Si Si1 0.301009 0.119414 0.801009
Si Si2 0.064684 0.114127 0.988302
Si Si3 0.629535 0.382466 0.043179
Si Si4 0.335540 0.114127 0.411922
Si Si5 0.207031 0.113118 0.437599
Si Si6 0.597728 0.243315 0.233447
Si Si7 0.004887 0.243316 0.369168
Si Si8 0.398732 0.886882 0.168164
O O1 0.313043 0.161887 0.742034
O O2 0.100013 0.161887 0.671023
O O3 0.280702 0.000000 0.780702
O O4 0.500000 0.153656 0.000000
O O5 0.880576 0.115737 0.793525
O O6 0.132760 0.000000 0.061326
O O7 0.254569 0.163564 0.104849
O O8 0.000000 0.170962 0.000000
O O9 0.659415 0.500000 0.053137
O O10 0.855222 0.337059 0.235172
O O11 0.500000 0.362746 0.000000
O O12 0.504930 0.337059 0.884880
O O13 0.500000 0.170962 0.500000
O O14 0.305409 0.163565 0.455130
O O15 0.418460 0.000000 0.489893
O O16 0.374997 0.100557 0.625000
O O17 0.039600 0.188698 0.330884
O O18 0.115888 0.000000 0.349135
O O19 0.413449 0.188698 0.122165
O O20 0.783652 0.280883 0.427883
O O21 0.315627 0.000000 0.082380
#
# Coordination Sequence:
#
# PCOD8067542 Si02
#       8
#     4   4   4   4   4   4   4   4
#     4  11  21  33  51  75 107 142 173 204 242 296
#     4   9  16  25  39  60  91 135 176 205 235 275
#     4  11  24  42  58  76 100 126 168 222 274 320
#     4   9  16  25  39  60  91 135 176 205 235 275
#     4   9  18  30  45  69 101 136 170 205 242 290
#     4  11  21  36  55  76 102 134 170 211 258 305
#     4  11  21  36  55  76 102 134 170 211 258 305
#     4   9  18  30  45  69 101 136 170 205 242 290
#
# _framework density 17.063490000000002
#
# number of rings (size 3 to 8) (size 9 to 14) (size 15 to 20)
#    0.000    2.000    2.500    1.875    1.750    5.500 
#    0.000    1.250    0.000    0.000    0.000    0.000 
#    0.000    1.000    0.500    0.000    0.000    0.000 
#
# Total GULP energy -396599.868919 kJ/mol
# GULP energy per Si atom -12393.745904 kJ/mol
# Density = 1.702465 g / cm^3
# Si number density = 17.063490 Si / 1000 Ang^3
#
#
#
# Elastic Constant Matrix: (Units=GPa)
#
#
# Indices 1 2 3 4 5 6 
#
# 1 154.9439 48.4189 30.4480 0.0000 16.7173 0.0000
# 2 48.4189 80.5488 35.2502 0.0000 3.1265 0.0000
# 3 30.4480 35.2502 76.4823 0.0000 1.9099 0.0000
# 4 0.0000 0.0000 0.0000 13.2774 0.0000 -1.1759
# 5 16.7173 3.1265 1.9099 0.0000 30.5555 0.0000
# 6 0.0000 0.0000 0.0000 -1.1759 0.0000 8.3267
#
#
#
# Elastic Compliance Matrix: (Units=1/GPa)
#
#
# Indices 1 2 3 4 5 6 
#
# 1 0.008527 -0.004415 -0.001256 0.000000 -0.004135 0.000000
# 2 -0.004415 0.017878 -0.006507 0.000000 0.000993 0.000000
# 3 -0.001256 -0.006507 0.016566 0.000000 0.000318 0.000000
# 4 0.000000 0.000000 0.000000 0.076270 0.000000 0.010771
# 5 -0.004135 0.000993 0.000318 0.000000 0.034868 0.000000
# 6 0.000000 0.000000 0.000000 0.010771 0.000000 0.121616
#
#
# Mechanical properties :
#
#
# Convention : Reuss Voigt Hill
#
# Bulk Modulus (GPa) = 53.72341 60.02325 56.87333
# Shear Modulus (GPa) = 16.32462 23.62245 19.97354
#
# Velocity S-wave (km/s) = 3.09641 3.72477 3.42503
# Velocity P-wave (km/s) = 6.65856 7.33153 7.00313
#
# Compressibility (1/GPa) = 0.01861386
#
# Stress axis : x y z
#
# Youngs Moduli (GPa) = 117.27919 55.93496 60.36413
#
# Poissons Ratio (x) = 0.24696 0.07584
# Poissons Ratio (y) = 0.51781 0.39278
# Poissons Ratio (z) = 0.14734 0.36396
#
# Static dielectric constant tensor:
#      x y z
#    x 3.510760 0.000000 0.079680 
#    y 0.000000 2.777380 0.000000 
#    z 0.079680 0.000000 3.175090 
# 
# 
# High freq. dielectric constant tensor:
#      x y z
#    x 1.676940 0.000000 0.002100 
#    y 0.000000 1.586770 0.000000 
#    z 0.002100 0.000000 1.668110 
# 
# From -- ./inp_files/85957.got.cif
#   From: 2010.06.25/outbox.cif.g09.slc.cpg/sg10_43_cif.got.tgz:85957.got - 2010.06.27 22:07:45.
