data_PCOD8067179
_publ_section_title
;
Structure prediction by ZEFSAII (Michael W. Deem and Ramdas Pophale) SiO2 
 PCOD8067179
Probable space group: P 2/M
;
_chemical_formula_sum "Si O2"
_cell_formula_units_Z 32
_cell_length_a 22.170007
_cell_length_b 8.488988
_cell_length_c 14.848913
_cell_angle_alpha 90.000000
_cell_angle_beta 148.056664
_cell_angle_gamma 90.000000
_cell_volume 1478.556792
_symmetry_space_group_name_H-M "P 2/M"
_symmetry_group_IT_number 10
_symmetry_cell_setting 'monoclinic'
loop_
_space_group_symop_operation_xyz
x,y,z
-x,y,-z
-x,-y,-z
x,-y,z
loop_
_atom_site_type_symbol
_atom_site_label
_atom_site_fract_x
_atom_site_fract_y
_atom_site_fract_z
Si Si1 0.869484 0.684282 0.329503
Si Si2 0.087309 0.185558 0.261322
Si Si3 0.286805 0.815503 0.378182
Si Si4 0.518323 0.317812 0.745877
Si Si5 0.244667 0.818013 0.989364
Si Si6 0.786286 0.317255 0.421421
Si Si7 0.549398 0.817194 0.157159
Si Si8 0.846761 0.684073 0.949057
O O1 0.861793 0.500000 0.297228
O O2 0.811206 0.726064 0.350239
O O3 0.000000 0.739934 0.500000
O O4 0.802345 0.779830 0.169059
O O5 0.185869 0.237188 0.317137
O O6 0.105515 0.273213 0.379953
O O7 0.084858 0.000000 0.273250
O O8 0.966850 0.242610 0.069791
O O9 0.401626 0.725833 0.549035
O O10 0.252873 0.767259 0.234351
O O11 0.310712 0.000000 0.415110
O O12 0.545381 0.500000 0.765555
O O13 0.621448 0.219618 0.833808
O O14 0.511988 0.283283 0.844059
O O15 0.175161 0.716317 0.973702
O O16 0.224568 0.000000 0.985598
O O17 0.755343 0.500000 0.392833
O O18 0.684129 0.210621 0.329419
O O19 0.523884 0.000000 0.142648
O O20 0.500000 0.757915 0.000000
O O21 0.846996 0.500000 0.929541
#
# Coordination Sequence:
#
# PCOD8067179 Si02
#       8
#     4   4   4   4   4   4   4   4
#     4  10  22  41  64  94 132 174 219 271 326 385
#     4  11  23  41  67  98 136 173 215 271 330 391
#     4  11  24  44  69  99 134 171 217 270 330 391
#     4  12  25  43  68  96 131 171 219 271 328 390
#     4  12  26  45  68  95 131 174 222 272 330 393
#     4  11  22  36  61  94 129 169 215 264 321 385
#     4  11  23  39  60  89 126 168 214 263 319 381
#     4  12  26  44  68  97 131 171 221 273 327 391
#
# _framework density 21.642724999999999
#
# number of rings (size 3 to 8) (size 9 to 14) (size 15 to 20)
#    0.000    0.750    1.250    6.750    0.000    8.750 
#    0.000    2.500    0.000    0.000    0.000    0.000 
#    0.000    0.000    0.000    0.000    0.000    0.000 
#
# Total GULP energy -397100.021845 kJ/mol
# GULP energy per Si atom -12409.375683 kJ/mol
# Density = 2.159347 g / cm^3
# Si number density = 21.642725 Si / 1000 Ang^3
#
#
#
# Elastic Constant Matrix: (Units=GPa)
#
#
# Indices 1 2 3 4 5 6 
#
# 1 70.0918 19.0397 20.3451 0.0000 4.9152 0.0000
# 2 19.0397 69.5641 19.9120 0.0000 -2.7485 0.0000
# 3 20.3451 19.9120 106.1794 0.0000 -1.2945 0.0000
# 4 0.0000 0.0000 0.0000 37.4557 0.0000 -0.1169
# 5 4.9152 -2.7485 -1.2945 0.0000 42.1569 0.0000
# 6 0.0000 0.0000 0.0000 -0.1169 0.0000 27.1146
#
#
#
# Elastic Compliance Matrix: (Units=1/GPa)
#
#
# Indices 1 2 3 4 5 6 
#
# 1 0.016158 -0.003821 -0.002406 0.000000 -0.002207 0.000000
# 2 -0.003821 0.016129 -0.002275 0.000000 0.001427 0.000000
# 3 -0.002406 -0.002275 0.010311 0.000000 0.000449 0.000000
# 4 0.000000 0.000000 0.000000 0.026699 0.000000 0.000115
# 5 -0.002207 0.001427 0.000449 0.000000 0.024085 0.000000
# 6 0.000000 0.000000 0.000000 0.000115 0.000000 0.036881
#
#
# Mechanical properties :
#
#
# Convention : Reuss Voigt Hill
#
# Bulk Modulus (GPa) = 39.07289 40.49209 39.78249
# Shear Modulus (GPa) = 32.09272 33.78134 32.93703
#
# Velocity S-wave (km/s) = 3.85495 3.95506 3.90532
# Velocity P-wave (km/s) = 6.15686 6.29338 6.22549
#
# Compressibility (1/GPa) = 0.02559319
#
# Stress axis : x y z
#
# Youngs Moduli (GPa) = 61.88819 62.00161 96.98144
#
# Poissons Ratio (x) = 0.23690 0.23338
# Poissons Ratio (y) = 0.23647 0.22064
# Poissons Ratio (z) = 0.14893 0.14106
#
# Static dielectric constant tensor:
#      x y z
#    x 3.912140 0.000000 -0.004460 
#    y 0.000000 3.789930 0.000000 
#    z -0.004460 0.000000 4.012900 
# 
# 
# High freq. dielectric constant tensor:
#      x y z
#    x 1.852820 0.000000 -0.001070 
#    y 0.000000 1.854120 0.000000 
#    z -0.001070 0.000000 1.864550 
# 
# From -- ./inp_files/71588.got.cif
#   From: 2010.06.25/outbox.cif.g09.slc.cpg/sg10_36_cif.got.tgz:71588.got - 2010.06.27 22:07:45.
