data_PCOD8067574
_publ_section_title
;
Structure prediction by ZEFSAII (Michael W. Deem and Ramdas Pophale) SiO2 
 PCOD8067574
Probable space group: P 2/M
;
_chemical_formula_sum "Si O2"
_cell_formula_units_Z 20
_cell_length_a 12.291925
_cell_length_b 16.325662
_cell_length_c 4.960047
_cell_angle_alpha 90.000000
_cell_angle_beta 96.636010
_cell_angle_gamma 90.000000
_cell_volume 988.683019
_symmetry_space_group_name_H-M "P 2/M"
_symmetry_group_IT_number 10
_symmetry_cell_setting 'monoclinic'
loop_
_space_group_symop_operation_xyz
x,y,z
-x,y,-z
-x,-y,-z
x,-y,z
loop_
_atom_site_type_symbol
_atom_site_label
_atom_site_fract_x
_atom_site_fract_y
_atom_site_fract_z
Si Si1 0.701505 0.093135 0.497373
Si Si2 0.622880 0.812975 0.959398
Si Si3 0.071577 0.844884 0.258559
Si Si4 0.802889 0.310291 0.902214
Si Si5 0.129474 0.407605 0.566018
O O1 0.620272 0.123298 0.710331
O O2 0.825775 0.097964 0.640294
O O3 0.672107 0.000000 0.416139
O O4 0.688745 0.148390 0.228488
O O5 0.682324 0.729802 0.881156
O O6 0.500000 0.790033 0.000000
O O7 0.109503 0.757318 0.159646
O O8 0.000000 0.830070 0.500000
O O9 0.000000 0.887444 0.000000
O O10 0.807800 0.384301 0.691131
O O11 0.831942 0.343922 0.201473
O O12 0.163715 0.500000 0.652509
O O13 0.000000 0.401499 0.500000
#
# Coordination Sequence:
#
# PCOD8067574 Si02
#       5
#     4   4   4   4   4
#     4  11  24  39  57  86 117 147 191 241 290 343
#     4  11  24  41  62  84 108 149 198 244 292 332
#     4  11  21  35  57  83 115 156 193 227 277 341
#     4  11  21  37  58  81 114 148 189 234 272 334
#     4  11  22  35  57  89 120 149 179 220 279 338
#
# _framework density 20.228932
#
# number of rings (size 3 to 8) (size 9 to 14) (size 15 to 20)
#    0.000    1.000    0.000   10.200    0.000    4.800 
#    0.000    0.000    0.000    3.600    0.000    0.000 
#    0.000    0.000    0.000    0.000    0.000    0.000 
#
# Total GULP energy -248097.513782 kJ/mol
# GULP energy per Si atom -12404.875689 kJ/mol
# Density = 2.018289 g / cm^3
# Si number density = 20.228932 Si / 1000 Ang^3
#
#
#
# Elastic Constant Matrix: (Units=GPa)
#
#
# Indices 1 2 3 4 5 6 
#
# 1 125.2802 41.9623 27.5312 0.0000 -17.0512 0.0000
# 2 41.9623 89.7315 15.0345 0.0000 -0.8247 0.0000
# 3 27.5312 15.0345 98.5669 0.0000 -4.9436 0.0000
# 4 0.0000 0.0000 0.0000 -3.1267 0.0000 27.5842
# 5 -17.0512 -0.8247 -4.9436 0.0000 29.0037 0.0000
# 6 0.0000 0.0000 0.0000 27.5842 0.0000 -26.3283
#
#
#
# Elastic Compliance Matrix: (Units=1/GPa)
#
#
# Indices 1 2 3 4 5 6 
#
# 1 0.010779 -0.004650 -0.002007 0.000000 0.005862 0.000000
# 2 -0.004650 0.013443 -0.000877 0.000000 -0.002501 0.000000
# 3 -0.002007 -0.000877 0.010872 0.000000 0.000648 0.000000
# 4 0.000000 0.000000 0.000000 0.038800 0.000000 0.040651
# 5 0.005862 -0.002501 0.000648 0.000000 0.037964 0.000000
# 6 0.000000 0.000000 0.000000 0.040651 0.000000 0.004608
#
#
# Mechanical properties :
#
#
# Convention : Reuss Voigt Hill
#
# Bulk Modulus (GPa) = 49.93826 53.62605 51.78216
# Shear Modulus (GPa) = 36.17669 15.17978 25.67823
#
# Velocity S-wave (km/s) = 4.23349 2.74231 3.56670
# Velocity P-wave (km/s) = 6.97401 6.04931 6.52805
#
# Compressibility (1/GPa) = 0.02002473
#
# Stress axis : x y z
#
# Youngs Moduli (GPa) = 92.77481 74.38785 91.97648
#
# Poissons Ratio (x) = 0.34594 0.18463
# Poissons Ratio (y) = 0.43144 0.08066
# Poissons Ratio (z) = 0.18623 0.06524
#
# Static dielectric constant tensor:
#      x y z
#    x 3.633880 0.000000 -0.136580 
#    y 0.000000 3.585290 0.000000 
#    z -0.136580 0.000000 3.933500 
# 
# 
# High freq. dielectric constant tensor:
#      x y z
#    x 1.778950 0.000000 -0.013020 
#    y 0.000000 1.778220 0.000000 
#    z -0.013020 0.000000 1.812400 
# 
# From -- ./inp_files/6776.got.cif
#   From: 2010.06.25/outbox.cif.g09.slc.cpg/sg10_4_cif.got.tgz:6776.got - 2010.06.27 22:07:45.
