data_PCOD8067059
_publ_section_title
;
Structure prediction by ZEFSAII (Michael W. Deem and Ramdas Pophale) SiO2 
 PCOD8067059
Probable space group: P 2/M
;
_chemical_formula_sum "Si O2"
_cell_formula_units_Z 32
_cell_length_a 14.719768
_cell_length_b 14.020950
_cell_length_c 20.618390
_cell_angle_alpha 90.000000
_cell_angle_beta 159.706618
_cell_angle_gamma 90.000000
_cell_volume 1475.864385
_symmetry_space_group_name_H-M "P 2/M"
_symmetry_group_IT_number 10
_symmetry_cell_setting 'monoclinic'
loop_
_space_group_symop_operation_xyz
x,y,z
-x,y,-z
-x,-y,-z
x,-y,z
loop_
_atom_site_type_symbol
_atom_site_label
_atom_site_fract_x
_atom_site_fract_y
_atom_site_fract_z
Si Si1 0.434976 0.609558 0.135683
Si Si2 0.383931 0.895012 0.806051
Si Si3 0.579138 0.751555 0.484413
Si Si4 0.104984 0.111975 0.141223
Si Si5 0.286584 0.693853 0.554715
Si Si6 0.868322 0.214363 0.098653
Si Si7 0.727888 0.610048 0.200947
Si Si8 0.169494 0.893622 0.518420
O O1 0.341754 0.500000 0.073487
O O2 0.562824 0.635416 0.289906
O O3 0.650097 0.627464 0.223697
O O4 0.180453 0.674999 0.953527
O O5 0.267760 0.886994 0.657019
O O6 0.144195 0.874749 0.694588
O O7 0.498908 0.000000 0.895921
O O8 0.619516 0.820630 0.974149
O O9 0.500000 0.701735 0.500000
O O10 0.381281 0.837792 0.338884
O O11 0.582918 0.673216 0.428640
O O12 0.871752 0.795092 0.684459
O O13 0.890047 0.150517 0.048307
O O14 0.142947 0.000000 0.176424
O O15 0.000000 0.137605 0.000000
O O16 0.317092 0.809273 0.579493
O O17 0.982634 0.669356 0.353792
O O18 0.794037 0.500000 0.232828
O O19 0.500000 0.644022 0.000000
O O20 0.235144 0.000000 0.534094
#
# Coordination Sequence:
#
# PCOD8067059 Si02
#       8
#     4   4   4   4   4   4   4   4
#     4  11  23  38  63  98 128 158 204 257 307 372
#     4   9  17  31  52  84 121 160 200 240 297 369
#     4  10  25  42  61  88 122 161 208 263 322 374
#     4  10  22  40  64  93 122 155 206 268 319 366
#     4  12  21  37  63  87 121 167 211 261 314 373
#     4  11  20  38  62  84 120 164 206 249 315 380
#     4  10  22  39  61  94 132 166 203 250 310 379
#     4   9  19  32  51  84 124 160 203 250 296 366
#
# _framework density 21.682207999999999
#
# number of rings (size 3 to 8) (size 9 to 14) (size 15 to 20)
#    0.000    1.750    1.250    4.125    1.750    4.250 
#    0.000    0.625    0.000   19.125    0.000    0.000 
#    0.000    0.000    0.000    0.000    0.000    0.000 
#
# Total GULP energy -396719.303286 kJ/mol
# GULP energy per Si atom -12397.478228 kJ/mol
# Density = 2.163286 g / cm^3
# Si number density = 21.682208 Si / 1000 Ang^3
#
#
#
# Elastic Constant Matrix: (Units=GPa)
#
#
# Indices 1 2 3 4 5 6 
#
# 1 104.6584 32.7936 13.7276 0.0000 -14.6827 0.0000
# 2 32.7936 91.8276 34.7277 0.0000 -2.8329 0.0000
# 3 13.7276 34.7277 91.4389 0.0000 0.6607 0.0000
# 4 0.0000 0.0000 0.0000 24.7068 0.0000 3.8153
# 5 -14.6827 -2.8329 0.6607 0.0000 25.1423 0.0000
# 6 0.0000 0.0000 0.0000 3.8153 0.0000 25.6038
#
#
#
# Elastic Compliance Matrix: (Units=1/GPa)
#
#
# Indices 1 2 3 4 5 6 
#
# 1 0.011707 -0.003854 -0.000340 0.000000 0.006411 0.000000
# 2 -0.003854 0.014047 -0.004752 0.000000 -0.000543 0.000000
# 3 -0.000340 -0.004752 0.012800 0.000000 -0.001070 0.000000
# 4 0.000000 0.000000 0.000000 0.041428 0.000000 -0.006173
# 5 0.006411 -0.000543 -0.001070 0.000000 0.043485 0.000000
# 6 0.000000 0.000000 0.000000 -0.006173 0.000000 0.039977
#
#
# Mechanical properties :
#
#
# Convention : Reuss Voigt Hill
#
# Bulk Modulus (GPa) = 48.40223 50.04697 49.22460
# Shear Modulus (GPa) = 26.56428 28.86897 27.71663
#
# Velocity S-wave (km/s) = 3.50403 3.65287 3.57923
# Velocity P-wave (km/s) = 6.22438 6.39715 6.31136
#
# Compressibility (1/GPa) = 0.02066021
#
# Stress axis : x y z
#
# Youngs Moduli (GPa) = 85.42165 71.18989 78.12534
#
# Poissons Ratio (x) = 0.27439 0.02656
# Poissons Ratio (y) = 0.32924 0.37128
# Poissons Ratio (z) = 0.02904 0.33832
#
# Static dielectric constant tensor:
#      x y z
#    x 4.178230 0.000000 0.039350 
#    y 0.000000 3.928510 0.000000 
#    z 0.039350 0.000000 3.925190 
# 
# 
# High freq. dielectric constant tensor:
#      x y z
#    x 1.846530 0.000000 -0.003190 
#    y 0.000000 1.839810 0.000000 
#    z -0.003190 0.000000 1.852070 
# 
# From -- ./inp_files/85415.got.cif
#   From: 2010.06.25/outbox.cif.g09.slc.cpg/sg10_43_cif.got.tgz:85415.got - 2010.06.27 22:07:45.
