data_PCOD8067872
_publ_section_title
;
Structure prediction by ZEFSAII (Michael W. Deem and Ramdas Pophale) SiO2 
 PCOD8067872
Probable space group: P 2/M
;
_chemical_formula_sum "Si O2"
_cell_formula_units_Z 32
_cell_length_a 17.981716
_cell_length_b 9.554448
_cell_length_c 21.850981
_cell_angle_alpha 90.000000
_cell_angle_beta 34.637953
_cell_angle_gamma 90.000000
_cell_volume 2133.797686
_symmetry_space_group_name_H-M "P 2/M"
_symmetry_group_IT_number 10
_symmetry_cell_setting 'monoclinic'
loop_
_space_group_symop_operation_xyz
x,y,z
-x,y,-z
-x,-y,-z
x,-y,z
loop_
_atom_site_type_symbol
_atom_site_label
_atom_site_fract_x
_atom_site_fract_y
_atom_site_fract_z
Si Si1 0.581664 0.837856 0.622643
Si Si2 0.884503 0.161575 0.201249
Si Si3 0.712049 0.657062 0.628771
Si Si4 0.173324 0.837864 0.622447
Si Si5 0.117987 0.666302 0.381972
Si Si6 0.030595 0.342938 0.628673
Si Si7 0.911727 0.341291 0.999923
Si Si8 0.713047 0.838418 0.201107
O O1 0.604299 0.756612 0.671047
O O2 0.686975 0.791586 0.500101
O O3 0.439785 0.801375 0.691953
O O4 0.595493 0.000000 0.629041
O O5 0.823327 0.198561 0.308278
O O6 0.772427 0.193861 0.227522
O O7 0.929464 0.000000 0.166820
O O8 0.011131 0.258966 0.105429
O O9 0.654610 0.500000 0.668386
O O10 0.745660 0.708596 0.676125
O O11 0.845742 0.661677 0.500048
O O12 0.053868 0.756603 0.670906
O O13 0.146688 0.000000 0.628836
O O14 0.105379 0.500000 0.394579
O O15 0.097739 0.708604 0.323924
O O16 0.000000 0.736423 0.500000
O O17 0.008838 0.500000 0.668279
O O18 0.880481 0.500000 0.999899
O O19 0.778174 0.258955 0.105219
O O20 0.000000 0.341128 0.000000
O O21 0.736936 0.000000 0.166690
#
# Coordination Sequence:
#
# PCOD8067872 Si02
#       8
#     4   4   4   4   4   4   4   4
#     4   9  17  27  38  56  83 110 135 164 195 228
#     4   9  17  29  44  59  77 105 137 165 196 236
#     4   8  13  22  36  52  72 101 134 164 194 229
#     4   9  17  27  38  56  83 110 135 164 195 228
#     4   7  10  18  33  51  69  94 131 166 191 223
#     4   8  13  22  36  52  72 101 134 164 194 229
#     4   9  17  29  45  63  79  94 121 168 215 243
#     4   9  17  29  44  59  77 105 137 165 196 236
#
# _framework density 14.996736
#
# number of rings (size 3 to 8) (size 9 to 14) (size 15 to 20)
#    0.000    3.500    0.000    1.875    0.000    3.000 
#    0.000    3.125    0.000    3.750    0.000    7.000 
#    0.000    1.000    0.000   11.250    0.000    8.000 
#
# Total GULP energy -396466.451340 kJ/mol
# GULP energy per Si atom -12389.576604 kJ/mol
# Density = 1.496260 g / cm^3
# Si number density = 14.996736 Si / 1000 Ang^3
#
#
#
# Elastic Constant Matrix: (Units=GPa)
#
#
# Indices 1 2 3 4 5 6 
#
# 1 106.3591 49.3133 46.4426 0.0000 -6.5004 0.0000
# 2 49.3133 64.4166 38.0973 0.0000 -1.3454 0.0000
# 3 46.4426 38.0973 58.6461 0.0000 0.8554 0.0000
# 4 0.0000 0.0000 0.0000 14.0365 0.0000 -1.1673
# 5 -6.5004 -1.3454 0.8554 0.0000 3.0063 0.0000
# 6 0.0000 0.0000 0.0000 -1.1673 0.0000 24.0620
#
#
#
# Elastic Compliance Matrix: (Units=1/GPa)
#
#
# Indices 1 2 3 4 5 6 
#
# 1 0.021349 -0.008096 -0.012319 0.000000 0.046044 0.000000
# 2 -0.008096 0.029071 -0.012459 0.000000 -0.000952 0.000000
# 3 -0.012319 -0.012459 0.035518 0.000000 -0.042318 0.000000
# 4 0.000000 0.000000 0.000000 0.071531 0.000000 0.003470
# 5 0.046044 -0.000952 -0.042318 0.000000 0.443808 0.000000
# 6 0.000000 0.000000 0.000000 0.003470 0.000000 0.041728
#
#
# Mechanical properties :
#
#
# Convention : Reuss Voigt Hill
#
# Bulk Modulus (GPa) = 49.53210 55.23645 52.38427
# Shear Modulus (GPa) = 6.98829 14.59219 10.79024
#
# Velocity S-wave (km/s) = 2.16102 3.12272 2.68527
# Velocity P-wave (km/s) = 6.27112 7.06499 6.67986
#
# Compressibility (1/GPa) = 0.02018893
#
# Stress axis : x y z
#
# Youngs Moduli (GPa) = 46.84026 34.39871 28.15491
#
# Poissons Ratio (x) = 0.27850 0.34683
# Poissons Ratio (y) = 0.37924 0.35079
# Poissons Ratio (z) = 0.57701 0.42858
#
# Static dielectric constant tensor:
#      x y z
#    x 3.123950 0.000000 -0.063820 
#    y 0.000000 2.910930 0.000000 
#    z -0.063820 0.000000 2.573470 
# 
# 
# High freq. dielectric constant tensor:
#      x y z
#    x 1.573160 0.000000 -0.005740 
#    y 0.000000 1.566170 0.000000 
#    z -0.005740 0.000000 1.523680 
# 
# From -- ./inp_files/56457.got.cif
#   From: 2010.06.25/outbox.cif.g09.slc.cpg/sg10_29_cif.got.tgz:56457.got - 2010.06.27 22:07:45.
