data_PCOD8067895
_publ_section_title
;
Structure prediction by ZEFSAII (Michael W. Deem and Ramdas Pophale) SiO2 
 PCOD8067895
Probable space group: P 2/M
;
_chemical_formula_sum "Si O2"
_cell_formula_units_Z 32
_cell_length_a 9.351999
_cell_length_b 9.311323
_cell_length_c 25.077883
_cell_angle_alpha 90.000000
_cell_angle_beta 55.987254
_cell_angle_gamma 90.000000
_cell_volume 1810.154929
_symmetry_space_group_name_H-M "P 2/M"
_symmetry_group_IT_number 10
_symmetry_cell_setting 'monoclinic'
loop_
_space_group_symop_operation_xyz
x,y,z
-x,y,-z
-x,-y,-z
x,-y,z
loop_
_atom_site_type_symbol
_atom_site_label
_atom_site_fract_x
_atom_site_fract_y
_atom_site_fract_z
Si Si1 0.488757 0.166027 0.063148
Si Si2 0.723282 0.661254 0.571121
Si Si3 0.639819 0.662298 0.186949
Si Si4 0.700666 0.662298 0.813051
Si Si5 0.178201 0.166027 0.936852
Si Si6 0.542752 0.161883 0.690988
Si Si7 0.063356 0.661254 0.571121
Si Si8 0.115717 0.838117 0.309012
O O1 0.341205 0.259199 0.122638
O O2 0.673800 0.193567 0.050800
O O3 0.434108 0.000000 0.079093
O O4 0.500000 0.216997 0.000000
O O5 0.646889 0.500000 0.585067
O O6 0.580497 0.767899 0.625298
O O7 0.889292 0.661747 0.573806
O O8 0.778792 0.711707 0.500000
O O9 0.697206 0.500000 0.188291
O O10 0.467210 0.663060 0.188527
O O11 0.790881 0.740801 0.122638
O O12 0.607002 0.747429 0.248730
O O13 0.762080 0.500000 0.811709
O O14 0.853193 0.747429 0.751270
O O15 0.171387 0.000000 0.920907
O O16 0.000000 0.216997 0.000000
O O17 0.713435 0.162586 0.691043
O O18 0.476727 0.000000 0.695880
O O19 0.097910 0.500000 0.585067
O O20 0.043610 0.767899 0.625298
O O21 0.064366 0.000000 0.304120
#
# Coordination Sequence:
#
# PCOD8067895 Si02
#       8
#     4   4   4   4   4   4   4   4
#     4   9  17  29  44  61  81 104 130 161 197 236
#     4   8  13  20  28  38  55  81 113 149 188 228
#     4   9  16  25  37  52  70  93 122 156 192 230
#     4   9  16  25  37  52  70  93 122 156 192 230
#     4   9  17  29  44  61  81 104 130 161 197 236
#     4   9  15  21  30  44  62  85 115 152 191 229
#     4   8  13  20  28  38  55  81 113 149 188 228
#     4   9  15  21  30  44  62  85 115 152 191 229
#
# _framework density 17.678045000000001
#
# number of rings (size 3 to 8) (size 9 to 14) (size 15 to 20)
#    0.000    3.250    0.000    2.250    0.000    7.000 
#    0.000    2.500    0.000    0.000    0.000    0.000 
#    0.000    0.000    0.000    0.000    0.000    1.250 
#
# Total GULP energy -396664.126524 kJ/mol
# GULP energy per Si atom -12395.753954 kJ/mol
# Density = 1.763781 g / cm^3
# Si number density = 17.678045 Si / 1000 Ang^3
#
#
#
# Elastic Constant Matrix: (Units=GPa)
#
#
# Indices 1 2 3 4 5 6 
#
# 1 7.0840 11.7550 17.4874 0.0000 -1.9920 0.0000
# 2 11.7550 150.9794 113.5805 0.0000 -5.8339 0.0000
# 3 17.4874 113.5805 196.9940 0.0000 -8.8884 0.0000
# 4 0.0000 0.0000 0.0000 42.6909 0.0000 -2.1147
# 5 -1.9920 -5.8339 -8.8884 0.0000 12.5780 0.0000
# 6 0.0000 0.0000 0.0000 -2.1147 0.0000 5.7802
#
#
#
# Elastic Compliance Matrix: (Units=1/GPa)
#
#
# Indices 1 2 3 4 5 6 
#
# 1 0.185781 -0.003483 -0.013665 0.000000 0.018151 0.000000
# 2 -0.003483 0.011768 -0.006460 0.000000 0.000341 0.000000
# 3 -0.013665 -0.006460 0.010103 0.000000 0.001979 0.000000
# 4 0.000000 0.000000 0.000000 0.023857 0.000000 0.008728
# 5 0.018151 0.000341 0.001979 0.000000 0.083936 0.000000
# 6 0.000000 0.000000 0.000000 0.008728 0.000000 0.176197
#
#
# Mechanical properties :
#
#
# Convention : Reuss Voigt Hill
#
# Bulk Modulus (GPa) = 6.23304 71.18923 38.71114
# Shear Modulus (GPa) = 8.44115 26.35877 17.39996
#
# Velocity S-wave (km/s) = 2.18753 3.86560 3.14071
# Velocity P-wave (km/s) = 3.14864 7.76409 5.92431
#
# Compressibility (1/GPa) = 0.16043532
#
# Stress axis : x y z
#
# Youngs Moduli (GPa) = 5.38269 84.97692 98.97582
#
# Poissons Ratio (x) = 0.29601 1.35247
# Poissons Ratio (y) = 0.01875 0.63942
# Poissons Ratio (z) = 0.07355 0.54898
#
# Static dielectric constant tensor:
#      x y z
#    x 2.441050 0.000000 -0.067090 
#    y 0.000000 3.471890 0.000000 
#    z -0.067090 0.000000 3.612130 
# 
# 
# High freq. dielectric constant tensor:
#      x y z
#    x 1.585240 0.000000 -0.006780 
#    y 0.000000 1.691080 0.000000 
#    z -0.006780 0.000000 1.703620 
# 
# From -- ./inp_files/54508.got.cif
#   From: 2010.06.25/outbox.cif.g09.slc.cpg/sg10_28_cif.got.tgz:54508.got - 2010.06.27 22:07:45.
