data_PCOD8067815
_publ_section_title
;
Structure prediction by ZEFSAII (Michael W. Deem and Ramdas Pophale) SiO2 
 PCOD8067815
Probable space group: P 2/M
;
_chemical_formula_sum "Si O2"
_cell_formula_units_Z 24
_cell_length_a 23.754824
_cell_length_b 9.467660
_cell_length_c 17.845275
_cell_angle_alpha 90.000000
_cell_angle_beta 19.213333
_cell_angle_gamma 90.000000
_cell_volume 1320.771376
_symmetry_space_group_name_H-M "P 2/M"
_symmetry_group_IT_number 10
_symmetry_cell_setting 'monoclinic'
loop_
_space_group_symop_operation_xyz
x,y,z
-x,y,-z
-x,-y,-z
x,-y,z
loop_
_atom_site_type_symbol
_atom_site_label
_atom_site_fract_x
_atom_site_fract_y
_atom_site_fract_z
Si Si1 0.982839 0.843700 0.859503
Si Si2 0.181737 0.835775 0.465449
Si Si3 0.332308 0.843675 0.510756
Si Si4 0.175985 0.658268 0.824378
Si Si5 0.825398 0.337746 0.675012
Si Si6 0.475403 0.164250 0.876687
O O1 0.035050 0.796320 0.710233
O O2 0.151669 0.849751 0.696933
O O3 0.899764 0.000000 0.962390
O O4 0.848038 0.735489 0.065415
O O5 0.149920 0.737617 0.435049
O O6 0.368625 0.803943 0.263505
O O7 0.168107 0.000000 0.459703
O O8 0.324386 0.735580 0.590075
O O9 0.474477 0.796295 0.271721
O O10 0.375463 0.000000 0.487619
O O11 0.238328 0.500000 0.762163
O O12 0.000000 0.659060 0.000000
O O13 0.772853 0.500000 0.727680
O O14 0.000000 0.325259 0.500000
O O15 0.680994 0.262260 0.905109
O O16 0.423155 0.000000 0.948107
#
# Coordination Sequence:
#
# PCOD8067815 Si02
#       6
#     4   4   4   4   4   4
#     4   8  14  25  41  62  90 122 153 188 231 275
#     4   9  18  33  53  75  96 122 161 204 242 283
#     4   8  14  25  41  62  90 122 153 188 231 275
#     4   9  15  21  33  59  94 127 156 185 220 268
#     4  11  24  37  48  68  98 129 160 195 240 294
#     4   9  18  33  53  75  96 122 161 204 242 283
#
# _framework density 18.171199999999999
#
# number of rings (size 3 to 8) (size 9 to 14) (size 15 to 20)
#    0.000    3.000    0.000    3.500    0.000    7.333 
#    0.000    3.333    0.000    0.000    0.000    1.167 
#    0.000    9.333    0.000    0.000    0.000    0.000 
#
# Total GULP energy -297509.835357 kJ/mol
# GULP energy per Si atom -12396.243140 kJ/mol
# Density = 1.812984 g / cm^3
# Si number density = 18.171200 Si / 1000 Ang^3
#
#
#
# Elastic Constant Matrix: (Units=GPa)
#
#
# Indices 1 2 3 4 5 6 
#
# 1 52.1970 65.9278 70.1298 0.0000 28.1861 0.0000
# 2 65.9278 145.6156 80.5769 0.0000 35.9634 0.0000
# 3 70.1298 80.5769 80.8324 0.0000 42.0904 0.0000
# 4 0.0000 0.0000 0.0000 14.9995 0.0000 -2.4131
# 5 28.1861 35.9634 42.0904 0.0000 33.3245 0.0000
# 6 0.0000 0.0000 0.0000 -2.4131 0.0000 15.5692
#
#
#
# Elastic Compliance Matrix: (Units=1/GPa)
#
#
# Indices 1 2 3 4 5 6 
#
# 1 -0.063068 -0.008482 0.089478 0.000000 -0.050517 0.000000
# 2 -0.008482 0.014951 -0.008409 0.000000 0.001661 0.000000
# 3 0.089478 -0.008409 -0.064835 0.000000 0.015284 0.000000
# 4 0.000000 0.000000 0.000000 0.068374 0.000000 0.010597
# 5 -0.050517 0.001661 0.015284 0.000000 0.051639 0.000000
# 6 0.000000 0.000000 0.000000 0.010597 0.000000 0.065872
#
#
# Mechanical properties :
#
#
# Convention : Reuss Voigt Hill
#
# Bulk Modulus (GPa) = 31.03614 79.10154 55.06884
# Shear Modulus (GPa) = -81.30074 16.91268 -32.19403
#
# Velocity S-wave (km/s) = -6.69617 3.05411 -4.21373
# Velocity P-wave (km/s) = 6.53207 7.48750 2.58792
#
# Compressibility (1/GPa) = 0.03222050
#
# Stress axis : x y z
#
# Youngs Moduli (GPa) = -15.85585 66.88565 -15.42377
#
# Poissons Ratio (x) = 0.56733 1.38009
# Poissons Ratio (y) = -0.13449 -0.12970
# Poissons Ratio (z) = 1.41875 0.56247
#
# Static dielectric constant tensor:
#      x y z
#    x 3.117760 0.000000 0.449320 
#    y 0.000000 3.551140 0.000000 
#    z 0.449320 0.000000 3.288730 
# 
# 
# High freq. dielectric constant tensor:
#      x y z
#    x 1.674170 0.000000 0.040880 
#    y 0.000000 1.705280 0.000000 
#    z 0.040880 0.000000 1.689620 
# 
# From -- ./inp_files/33757.got.cif
#   From: 2010.06.25/outbox.cif.g09.slc.cpg/sg10_17_cif.got.tgz:33757.got - 2010.06.27 22:07:45.
