data_PCOD8067071
_publ_section_title
;
Structure prediction by ZEFSAII (Michael W. Deem and Ramdas Pophale) SiO2 
 PCOD8067071
Probable space group: P 2/M
;
_chemical_formula_sum "Si O2"
_cell_formula_units_Z 28
_cell_length_a 15.766948
_cell_length_b 17.810832
_cell_length_c 9.313619
_cell_angle_alpha 90.000000
_cell_angle_beta 149.858509
_cell_angle_gamma 90.000000
_cell_volume 1313.326260
_symmetry_space_group_name_H-M "P 2/M"
_symmetry_group_IT_number 10
_symmetry_cell_setting 'monoclinic'
loop_
_space_group_symop_operation_xyz
x,y,z
-x,y,-z
-x,-y,-z
x,-y,z
loop_
_atom_site_type_symbol
_atom_site_label
_atom_site_fract_x
_atom_site_fract_y
_atom_site_fract_z
Si Si1 0.184857 0.415302 0.330757
Si Si2 0.984249 0.083816 0.646235
Si Si3 0.668858 0.160127 0.814712
Si Si4 0.678693 0.674649 0.709673
Si Si5 0.157761 0.413421 0.821073
Si Si6 0.667311 0.182465 0.153560
Si Si7 0.679770 0.643680 0.199229
O O1 0.253897 0.500000 0.404910
O O2 0.300360 0.350021 0.425564
O O3 0.182078 0.396670 0.496266
O O4 0.000000 0.407549 0.000000
O O5 0.821786 0.134477 0.446844
O O6 0.000000 0.082235 0.500000
O O7 0.953906 0.000000 0.662598
O O8 0.161022 0.113890 0.970276
O O9 0.500000 0.120833 0.500000
O O10 0.691481 0.237284 0.759439
O O11 0.639605 0.168928 0.942830
O O12 0.500000 0.642811 0.500000
O O13 0.828294 0.631994 0.011865
O O14 0.141541 0.500000 0.837123
O O15 0.317467 0.394724 0.953170
O O16 0.000000 0.382152 0.500000
O O17 0.718023 0.268370 0.246934
O O18 0.500000 0.161610 0.000000
O O19 0.500000 0.624657 0.000000
#
# Coordination Sequence:
#
# PCOD8067071 Si02
#       7
#     4   4   4   4   4   4   4
#     4  11  25  41  57  83 119 158 203 254 312 362
#     4   9  20  40  67  97 128 167 203 239 301 369
#     4  10  22  39  63  96 126 161 207 253 301 362
#     4  11  23  38  58  85 115 157 201 251 300 359
#     4  11  23  37  57  83 113 152 201 252 304 352
#     4  10  22  39  63  96 126 161 207 253 301 362
#     4  11  23  38  58  85 115 157 201 251 300 359
#
# _framework density 21.319911999999999
#
# number of rings (size 3 to 8) (size 9 to 14) (size 15 to 20)
#    0.000    1.571    1.429    2.571   10.000    6.286 
#    0.000    0.714    0.000    0.857    0.000    0.000 
#    0.000    0.000    0.000    0.000    0.000    0.000 
#
# Total GULP energy -347129.707219 kJ/mol
# GULP energy per Si atom -12397.489544 kJ/mol
# Density = 2.127139 g / cm^3
# Si number density = 21.319912 Si / 1000 Ang^3
#
#
#
# Elastic Constant Matrix: (Units=GPa)
#
#
# Indices 1 2 3 4 5 6 
#
# 1 54.0052 1.6106 1.2091 0.0000 -1.2920 0.0000
# 2 1.6106 61.6833 37.9007 0.0000 8.6604 0.0000
# 3 1.2091 37.9007 119.2824 0.0000 5.1483 0.0000
# 4 0.0000 0.0000 0.0000 22.7858 0.0000 4.6334
# 5 -1.2920 8.6604 5.1483 0.0000 30.3609 0.0000
# 6 0.0000 0.0000 0.0000 4.6334 0.0000 23.0374
#
#
#
# Elastic Compliance Matrix: (Units=1/GPa)
#
#
# Indices 1 2 3 4 5 6 
#
# 1 0.018559 -0.000595 -0.000041 0.000000 0.000966 0.000000
# 2 -0.000595 0.020851 -0.006408 0.000000 -0.004886 0.000000
# 3 -0.000041 -0.006408 0.010417 0.000000 0.000060 0.000000
# 4 0.000000 0.000000 0.000000 0.045758 0.000000 -0.009203
# 5 0.000966 -0.004886 0.000060 0.000000 0.034362 0.000000
# 6 0.000000 0.000000 0.000000 -0.009203 0.000000 0.045259
#
#
# Mechanical properties :
#
#
# Convention : Reuss Voigt Hill
#
# Bulk Modulus (GPa) = 27.98102 35.15687 31.56895
# Shear Modulus (GPa) = 24.85000 28.18683 26.51841
#
# Velocity S-wave (km/s) = 3.41776 3.64000 3.53063
# Velocity P-wave (km/s) = 5.35981 5.84740 5.60891
#
# Compressibility (1/GPa) = 0.03573851
#
# Stress axis : x y z
#
# Youngs Moduli (GPa) = 53.88356 47.95957 95.99282
#
# Poissons Ratio (x) = 0.02855 0.00391
# Poissons Ratio (y) = 0.03208 0.61514
# Poissons Ratio (z) = 0.00219 0.30734
#
# Static dielectric constant tensor:
#      x y z
#    x 4.053680 0.000000 -0.045190 
#    y 0.000000 3.789420 0.000000 
#    z -0.045190 0.000000 4.208930 
# 
# 
# High freq. dielectric constant tensor:
#      x y z
#    x 1.833150 0.000000 0.004400 
#    y 0.000000 1.818970 0.000000 
#    z 0.004400 0.000000 1.852390 
# 
# From -- ./inp_files/30464.got.cif
#   From: 2010.06.25/outbox.cif.g09.slc.cpg/sg10_16_cif.got.tgz:30464.got - 2010.06.27 22:07:45.
