data_PCOD8067997
_publ_section_title
;
Structure prediction by ZEFSAII (Michael W. Deem and Ramdas Pophale) SiO2 
 PCOD8067997
Probable space group: P 2/M
;
_chemical_formula_sum "Si O2"
_cell_formula_units_Z 26
_cell_length_a 18.142001
_cell_length_b 10.083322
_cell_length_c 13.487726
_cell_angle_alpha 90.000000
_cell_angle_beta 40.910733
_cell_angle_gamma 90.000000
_cell_volume 1615.812159
_symmetry_space_group_name_H-M "P 2/M"
_symmetry_group_IT_number 10
_symmetry_cell_setting 'monoclinic'
loop_
_space_group_symop_operation_xyz
x,y,z
-x,y,-z
-x,-y,-z
x,-y,z
loop_
_atom_site_type_symbol
_atom_site_label
_atom_site_fract_x
_atom_site_fract_y
_atom_site_fract_z
Si Si1 0.919883 0.852125 0.777465
Si Si2 0.464604 0.350481 0.927889
Si Si3 0.097648 0.349695 0.590158
Si Si4 0.660375 0.349541 0.573185
Si Si5 0.333782 0.848993 0.939178
Si Si6 0.000000 0.752420 0.500000
Si Si7 0.522240 0.847214 0.590549
O O1 0.007154 0.746646 0.736335
O O2 0.922644 0.839706 0.653680
O O3 0.958098 0.000000 0.767907
O O4 0.797482 0.822671 0.947715
O O5 0.415543 0.500000 0.976901
O O6 0.574278 0.339124 0.750011
O O7 0.368675 0.250406 0.990465
O O8 0.500000 0.304894 0.000000
O O9 0.071384 0.500000 0.647642
O O10 0.220119 0.306513 0.503213
O O11 0.084657 0.334963 0.483245
O O12 0.663780 0.500000 0.527098
O O13 0.623043 0.247274 0.525653
O O14 0.405855 0.819589 0.767195
O O15 0.352905 0.000000 0.955803
O O16 0.500000 0.810596 0.500000
O O17 0.560466 0.000000 0.564233
#
# Coordination Sequence:
#
# PCOD8067997 Si02
#       7
#     4   4   4   4   4   2   4
#     4   9  18  29  43  64  93 124 156 191 223 264
#     4   9  18  28  42  64  92 125 155 186 224 273
#     4   9  18  29  45  66  93 126 160 193 222 262
#     4   9  18  32  46  69  98 122 154 194 236 278
#     4   9  18  32  46  66  94 120 151 194 237 276
#     4   8  18  28  44  64  92 130 166 190 216 262
#     4   9  18  34  55  74  90 115 154 198 246 294
#
# _framework density 16.090979999999998
#
# number of rings (size 3 to 8) (size 9 to 14) (size 15 to 20)
#    0.923    2.154    0.000    0.462    2.154    1.846 
#    0.000    0.000    0.000    0.923    0.000    6.462 
#    0.000    0.000    0.000    0.000    0.000    0.000 
#
# Total GULP energy -322181.002762 kJ/mol
# GULP energy per Si atom -12391.577029 kJ/mol
# Density = 1.605436 g / cm^3
# Si number density = 16.090980 Si / 1000 Ang^3
#
#
#
# Elastic Constant Matrix: (Units=GPa)
#
#
# Indices 1 2 3 4 5 6 
#
# 1 100.6220 58.4564 32.4964 0.0000 -7.4731 0.0000
# 2 58.4564 90.7580 29.6058 0.0000 -11.8763 0.0000
# 3 32.4964 29.6058 44.9710 0.0000 -7.9645 0.0000
# 4 0.0000 0.0000 0.0000 -164.9046 0.0000 -151.7210
# 5 -7.4731 -11.8763 -7.9645 0.0000 28.6110 0.0000
# 6 0.0000 0.0000 0.0000 -151.7210 0.0000 -84.9422
#
#
#
# Elastic Compliance Matrix: (Units=1/GPa)
#
#
# Indices 1 2 3 4 5 6 
#
# 1 0.017315 -0.009110 -0.006715 0.000000 -0.001128 0.000000
# 2 -0.009110 0.019150 -0.005299 0.000000 0.004095 0.000000
# 3 -0.006715 -0.005299 0.031426 0.000000 0.004795 0.000000
# 4 0.000000 0.000000 0.000000 0.009426 0.000000 -0.016836
# 5 -0.001128 0.004095 0.004795 0.000000 0.037691 0.000000
# 6 0.000000 0.000000 0.000000 -0.016836 0.000000 0.018299
#
#
# Mechanical properties :
#
#
# Convention : Reuss Voigt Hill
#
# Bulk Modulus (GPa) = 38.99455 53.05201 46.02328
# Shear Modulus (GPa) = 27.15868 -36.52768 -4.68450
#
# Velocity S-wave (km/s) = 4.11277 -4.76970 -1.70809
# Velocity P-wave (km/s) = 6.84394 1.64568 4.97734
#
# Compressibility (1/GPa) = 0.02564461
#
# Stress axis : x y z
#
# Youngs Moduli (GPa) = 57.75234 52.21844 31.82037
#
# Poissons Ratio (x) = 0.47570 0.21366
# Poissons Ratio (y) = 0.52612 0.16862
# Poissons Ratio (z) = 0.38779 0.27672
#
# Static dielectric constant tensor:
#      x y z
#    x 2.864340 0.000000 -0.098430 
#    y 0.000000 3.185170 0.000000 
#    z -0.098430 0.000000 2.897340 
# 
# 
# High freq. dielectric constant tensor:
#      x y z
#    x 1.595810 0.000000 -0.014100 
#    y 0.000000 1.627620 0.000000 
#    z -0.014100 0.000000 1.601360 
# 
# From -- ./inp_files/50643.got.cif
#   From: 2010.06.25/outbox.cif.g09.slc.cpg/sg10_26_cif.got.tgz:50643.got - 2010.06.27 22:07:45.
