data_PCOD8067092
_publ_section_title
;
Structure prediction by ZEFSAII (Michael W. Deem and Ramdas Pophale) SiO2 
 PCOD8067092
Probable space group: P 2/M
;
_chemical_formula_sum "Si O2"
_cell_formula_units_Z 32
_cell_length_a 30.873757
_cell_length_b 8.648445
_cell_length_c 11.847299
_cell_angle_alpha 90.000000
_cell_angle_beta 149.866177
_cell_angle_gamma 90.000000
_cell_volume 1588.067880
_symmetry_space_group_name_H-M "P 2/M"
_symmetry_group_IT_number 10
_symmetry_cell_setting 'monoclinic'
loop_
_space_group_symop_operation_xyz
x,y,z
-x,y,-z
-x,-y,-z
x,-y,z
loop_
_atom_site_type_symbol
_atom_site_label
_atom_site_fract_x
_atom_site_fract_y
_atom_site_fract_z
Si Si1 0.535714 0.678158 0.957308
Si Si2 0.253877 0.321109 0.809229
Si Si3 0.888492 0.178247 0.360311
Si Si4 0.281445 0.179429 0.641348
Si Si5 0.916058 0.178237 0.164805
Si Si6 0.401576 0.177931 0.279935
Si Si7 0.231348 0.320745 0.297421
Si Si8 0.619251 0.176963 0.511401
O O1 0.563293 0.500000 0.007561
O O2 0.462295 0.717109 0.701658
O O3 0.500000 0.715711 0.000000
O O4 0.617525 0.784872 0.119225
O O5 0.254188 0.500000 0.778992
O O6 0.179399 0.286429 0.730874
O O7 0.234708 0.225690 0.652280
O O8 0.347198 0.278343 0.069746
O O9 0.889205 0.224353 0.230837
O O10 0.982607 0.206746 0.625656
O O11 0.860761 0.000000 0.312154
O O12 0.238834 0.276186 0.444722
O O13 0.267062 0.000000 0.584437
O O14 0.892777 0.000000 0.089864
O O15 0.865230 0.285006 0.962040
O O16 0.500000 0.237111 0.500000
O O17 0.360100 0.198279 0.310194
O O18 0.397655 0.000000 0.231539
O O19 0.253444 0.500000 0.332912
O O20 0.297381 0.223399 0.371218
O O21 0.595879 0.000000 0.430624
#
# Coordination Sequence:
#
# PCOD8067092 Si02
#       8
#     4   4   4   4   4   4   4   4
#     4  11  22  37  58  86 120 153 192 249 304 349
#     4  12  25  40  61  89 123 159 197 243 302 359
#     4   9  19  39  66  93 122 157 199 241 287 351
#     4  12  25  42  63  83 113 159 208 249 291 354
#     4   9  19  38  65  94 122 155 196 244 293 348
#     4  10  22  40  60  85 117 156 203 248 289 342
#     4  12  24  38  57  87 123 154 192 248 305 352
#     4  11  22  36  59  87 117 158 205 246 290 352
#
# _framework density 20.150272999999999
#
# number of rings (size 3 to 8) (size 9 to 14) (size 15 to 20)
#    0.000    1.250    1.250    6.375    0.000    6.750 
#    0.000    1.875    0.000    3.750    0.000    0.000 
#    0.000    0.000    0.000    0.000    0.000    0.000 
#
# Total GULP energy -397023.326509 kJ/mol
# GULP energy per Si atom -12406.978953 kJ/mol
# Density = 2.010441 g / cm^3
# Si number density = 20.150273 Si / 1000 Ang^3
#
#
#
# Elastic Constant Matrix: (Units=GPa)
#
#
# Indices 1 2 3 4 5 6 
#
# 1 83.6189 26.5629 27.7318 0.0000 -1.3019 0.0000
# 2 26.5629 71.1420 18.4992 0.0000 -2.0837 0.0000
# 3 27.7318 18.4992 99.3999 0.0000 -4.5652 0.0000
# 4 0.0000 0.0000 0.0000 25.1339 0.0000 -3.4032
# 5 -1.3019 -2.0837 -4.5652 0.0000 28.8786 0.0000
# 6 0.0000 0.0000 0.0000 -3.4032 0.0000 18.1365
#
#
#
# Elastic Compliance Matrix: (Units=1/GPa)
#
#
# Indices 1 2 3 4 5 6 
#
# 1 0.014469 -0.004578 -0.003193 0.000000 -0.000183 0.000000
# 2 -0.004578 0.016231 -0.001712 0.000000 0.000694 0.000000
# 3 -0.003193 -0.001712 0.011340 0.000000 0.001525 0.000000
# 4 0.000000 0.000000 0.000000 0.040824 0.000000 0.007660
# 5 -0.000183 0.000694 0.001525 0.000000 0.034911 0.000000
# 6 0.000000 0.000000 0.000000 0.007660 0.000000 0.056575
#
#
# Mechanical properties :
#
#
# Convention : Reuss Voigt Hill
#
# Bulk Modulus (GPa) = 43.33687 44.41652 43.87669
# Shear Modulus (GPa) = 24.87476 26.52090 25.69783
#
# Velocity S-wave (km/s) = 3.51730 3.63182 3.57502
# Velocity P-wave (km/s) = 6.16837 6.29899 6.23402
#
# Compressibility (1/GPa) = 0.02307504
#
# Stress axis : x y z
#
# Youngs Moduli (GPa) = 69.11163 61.61059 88.18415
#
# Poissons Ratio (x) = 0.28202 0.28160
# Poissons Ratio (y) = 0.31636 0.15095
# Poissons Ratio (z) = 0.22070 0.10546
#
# Static dielectric constant tensor:
#      x y z
#    x 3.667240 0.000000 -0.076100 
#    y 0.000000 3.566740 0.000000 
#    z -0.076100 0.000000 3.650470 
# 
# 
# High freq. dielectric constant tensor:
#      x y z
#    x 1.786920 0.000000 -0.005390 
#    y 0.000000 1.785580 0.000000 
#    z -0.005390 0.000000 1.786900 
# 
# From -- ./inp_files/58240.got.cif
#   From: 2010.06.25/outbox.cif.g09.slc.cpg/sg10_30_cif.got.tgz:58240.got - 2010.06.27 22:07:45.
