data_PCOD8067509
_publ_section_title
;
Structure prediction by ZEFSAII (Michael W. Deem and Ramdas Pophale) SiO2 
 PCOD8067509
Probable space group: P 2/M
;
_chemical_formula_sum "Si O2"
_cell_formula_units_Z 28
_cell_length_a 23.575698
_cell_length_b 8.906229
_cell_length_c 18.680890
_cell_angle_alpha 90.000000
_cell_angle_beta 156.027391
_cell_angle_gamma 90.000000
_cell_volume 1593.685634
_symmetry_space_group_name_H-M "P 2/M"
_symmetry_group_IT_number 10
_symmetry_cell_setting 'monoclinic'
loop_
_space_group_symop_operation_xyz
x,y,z
-x,y,-z
-x,-y,-z
x,-y,z
loop_
_atom_site_type_symbol
_atom_site_label
_atom_site_fract_x
_atom_site_fract_y
_atom_site_fract_z
Si Si1 0.429168 0.676895 0.488529
Si Si2 0.213018 0.823781 0.869745
Si Si3 0.162573 0.334805 0.671986
Si Si4 0.924968 0.321202 0.578802
Si Si5 0.223168 0.322119 0.450371
Si Si6 0.133711 0.320667 0.195053
Si Si7 0.528199 0.675975 0.757607
O O1 0.500000 0.750805 0.500000
O O2 0.417963 0.500000 0.465478
O O3 0.272391 0.741033 0.315713
O O4 0.519323 0.713031 0.662979
O O5 0.234154 0.776933 0.810890
O O6 0.078191 0.748686 0.749960
O O7 0.194064 0.000000 0.851743
O O8 0.348109 0.774689 0.068909
O O9 0.232055 0.500000 0.760296
O O10 0.173641 0.276253 0.602701
O O11 0.000000 0.348024 0.500000
O O12 0.944206 0.500000 0.603472
O O13 0.848597 0.255860 0.561152
O O14 0.218334 0.500000 0.447490
O O15 0.136557 0.265883 0.281006
O O16 0.384727 0.272794 0.630796
O O17 0.131272 0.500000 0.190205
O O18 0.000000 0.252492 0.000000
O O19 0.557617 0.500000 0.804320
#
# Coordination Sequence:
#
# PCOD8067509 Si02
#       7
#     4   4   4   4   4   4   4
#     4   8  14  24  40  65  93 119 148 183 225 269
#     4  11  21  31  46  69  95 123 156 191 229 275
#     4   8  15  29  48  68  90 117 151 191 234 276
#     4   9  17  31  51  72  92 117 153 195 235 276
#     4   8  15  28  46  68  93 122 154 187 228 275
#     4   8  13  21  35  60  94 122 142 175 225 273
#     4   9  17  31  49  68  95 127 156 189 228 272
#
# _framework density 17.569337000000001
#
# number of rings (size 3 to 8) (size 9 to 14) (size 15 to 20)
#    0.000    3.286    0.000    3.857    0.000    3.714 
#    0.000    5.714    0.000    4.714    0.000    0.000 
#    0.000    5.143    0.000    0.000    0.000    0.000 
#
# Total GULP energy -346986.515990 kJ/mol
# GULP energy per Si atom -12392.375571 kJ/mol
# Density = 1.752935 g / cm^3
# Si number density = 17.569337 Si / 1000 Ang^3
#
#
#
# Elastic Constant Matrix: (Units=GPa)
#
#
# Indices 1 2 3 4 5 6 
#
# 1 174.2871 26.1085 72.5443 0.0000 -0.9394 0.0000
# 2 26.1085 36.6478 27.4034 0.0000 -3.2362 0.0000
# 3 72.5443 27.4034 101.5382 0.0000 -10.4205 0.0000
# 4 0.0000 0.0000 0.0000 2.8857 0.0000 0.3037
# 5 -0.9394 -3.2362 -10.4205 0.0000 19.3038 0.0000
# 6 0.0000 0.0000 0.0000 0.3037 0.0000 0.5927
#
#
#
# Elastic Compliance Matrix: (Units=1/GPa)
#
#
# Indices 1 2 3 4 5 6 
#
# 1 0.008431 -0.001926 -0.005817 0.000000 -0.003053 0.000000
# 2 -0.001926 0.034637 -0.007819 0.000000 0.001492 0.000000
# 3 -0.005817 -0.007819 0.016887 0.000000 0.007522 0.000000
# 4 0.000000 0.000000 0.000000 0.366295 0.000000 -0.187708
# 5 -0.003053 0.001492 0.007522 0.000000 0.055965 0.000000
# 6 0.000000 0.000000 0.000000 -0.187708 0.000000 1.783349
#
#
# Mechanical properties :
#
#
# Convention : Reuss Voigt Hill
#
# Bulk Modulus (GPa) = 34.68487 62.73171 48.70829
# Shear Modulus (GPa) = 2.16798 16.98423 9.57610
#
# Velocity S-wave (km/s) = 1.11204 3.11255 2.33716
# Velocity P-wave (km/s) = 4.62962 6.97854 5.92172
#
# Compressibility (1/GPa) = 0.02883101
#
# Stress axis : x y z
#
# Youngs Moduli (GPa) = 118.61006 28.87067 59.21889
#
# Poissons Ratio (x) = 0.05561 0.34447
# Poissons Ratio (y) = 0.22848 0.46301
# Poissons Ratio (z) = 0.68995 0.22573
#
# Static dielectric constant tensor:
#      x y z
#    x 4.033090 0.000000 -0.058060 
#    y 0.000000 2.732590 0.000000 
#    z -0.058060 0.000000 3.251180 
# 
# 
# High freq. dielectric constant tensor:
#      x y z
#    x 1.689120 0.000000 -0.011070 
#    y 0.000000 1.624130 0.000000 
#    z -0.011070 0.000000 1.669620 
# 
# From -- ./inp_files/86553.got.cif
#   From: 2010.06.25/outbox.cif.g09.slc.cpg/sg10_44_cif.got.tgz:86553.got - 2010.06.27 22:07:45.
