data_PCOD8067627
_publ_section_title
;
Structure prediction by ZEFSAII (Michael W. Deem and Ramdas Pophale) SiO2 
 PCOD8067627
Probable space group: P 2/M
;
_chemical_formula_sum "Si O2"
_cell_formula_units_Z 28
_cell_length_a 30.657225
_cell_length_b 7.622014
_cell_length_c 10.208484
_cell_angle_alpha 90.000000
_cell_angle_beta 143.328570
_cell_angle_gamma 90.000000
_cell_volume 1424.629768
_symmetry_space_group_name_H-M "P 2/M"
_symmetry_group_IT_number 10
_symmetry_cell_setting 'monoclinic'
loop_
_space_group_symop_operation_xyz
x,y,z
-x,y,-z
-x,-y,-z
x,-y,z
loop_
_atom_site_type_symbol
_atom_site_label
_atom_site_fract_x
_atom_site_fract_y
_atom_site_fract_z
Si Si1 0.591584 0.707666 0.588528
Si Si2 0.253346 0.801065 0.110597
Si Si3 0.182331 0.699855 0.673714
Si Si4 0.919684 0.000000 0.644607
Si Si5 0.567454 0.291766 0.824958
Si Si6 0.289931 0.707149 0.706669
Si Si7 0.193100 0.699831 0.238044
Si Si8 0.088850 0.000000 0.067108
O O1 0.601357 0.500000 0.602210
O O2 0.658671 0.797114 0.675175
O O3 0.514794 0.770988 0.337557
O O4 0.590820 0.772004 0.736902
O O5 0.222521 0.702271 0.162313
O O6 0.225561 0.000000 0.045734
O O7 0.222268 0.703108 0.909216
O O8 0.157511 0.500000 0.584729
O O9 0.237800 0.773167 0.697768
O O10 0.112048 0.825514 0.500652
O O11 0.901538 0.000000 0.754280
O O12 0.005232 0.000000 0.822869
O O13 0.566593 0.500000 0.821107
O O14 0.627775 0.217293 0.072964
O O15 0.294736 0.500000 0.725716
O O16 0.257740 0.768770 0.490030
O O17 0.170345 0.500000 0.219206
O O18 0.123739 0.824770 0.089762
#
# Coordination Sequence:
#
# PCOD8067627 Si02
#       8
#     4   4   4   2   4   4   4   2
#     4   9  16  29  52  82 116 154 197 248 305 354
#     4  12  23  37  59  85 122 162 203 255 305 353
#     4  11  21  38  63  93 122 156 205 246 290 355
#     4  11  24  41  67  99 128 154 189 244 301 350
#     4   8  14  27  51  83 116 151 197 253 300 347
#     4   9  17  32  59  87 114 155 206 246 290 353
#     4  11  23  41  63  88 121 164 204 244 299 360
#     4  11  24  43  65  97 130 155 192 240 297 365
#
# _framework density 19.654229000000001
#
# number of rings (size 3 to 8) (size 9 to 14) (size 15 to 20)
#    0.000    1.857    4.286    2.143    0.000    0.571 
#    0.000    5.000    3.143    6.000    0.000    0.000 
#    0.000    0.000    0.000    0.000    0.000    0.000 
#
# Total GULP energy -347130.288893 kJ/mol
# GULP energy per Si atom -12397.510318 kJ/mol
# Density = 1.960950 g / cm^3
# Si number density = 19.654229 Si / 1000 Ang^3
#
#
#
# Elastic Constant Matrix: (Units=GPa)
#
#
# Indices 1 2 3 4 5 6 
#
# 1 102.4203 24.9736 58.7314 0.0000 8.1273 0.0000
# 2 24.9736 86.7994 32.5865 0.0000 12.9875 0.0000
# 3 58.7314 32.5865 124.5573 0.0000 17.2620 0.0000
# 4 0.0000 0.0000 0.0000 20.9303 0.0000 4.1562
# 5 8.1273 12.9875 17.2620 0.0000 36.8203 0.0000
# 6 0.0000 0.0000 0.0000 4.1562 0.0000 24.9310
#
#
#
# Elastic Compliance Matrix: (Units=1/GPa)
#
#
# Indices 1 2 3 4 5 6 
#
# 1 0.013603 -0.001716 -0.006024 0.000000 0.000427 0.000000
# 2 -0.001716 0.013342 -0.002226 0.000000 -0.003283 0.000000
# 3 -0.006024 -0.002226 0.011934 0.000000 -0.003480 0.000000
# 4 0.000000 0.000000 0.000000 0.049413 0.000000 -0.008238
# 5 0.000427 -0.003283 -0.003480 0.000000 0.029854 0.000000
# 6 0.000000 0.000000 0.000000 -0.008238 0.000000 0.041484
#
#
# Mechanical properties :
#
#
# Convention : Reuss Voigt Hill
#
# Bulk Modulus (GPa) = 52.78412 60.70666 56.74539
# Shear Modulus (GPa) = 26.89942 29.70201 28.30072
#
# Velocity S-wave (km/s) = 3.70352 3.89167 3.79876
# Velocity P-wave (km/s) = 6.72330 7.15177 6.94084
#
# Compressibility (1/GPa) = 0.01894509
#
# Stress axis : x y z
#
# Youngs Moduli (GPa) = 73.51474 74.95350 83.79666
#
# Poissons Ratio (x) = 0.12862 0.50481
# Poissons Ratio (y) = 0.12615 0.18655
# Poissons Ratio (z) = 0.44287 0.16686
#
# Static dielectric constant tensor:
#      x y z
#    x 3.372840 0.000000 0.113710 
#    y 0.000000 3.407610 0.000000 
#    z 0.113710 0.000000 3.831010 
# 
# 
# High freq. dielectric constant tensor:
#      x y z
#    x 1.739290 0.000000 0.007550 
#    y 0.000000 1.760500 0.000000 
#    z 0.007550 0.000000 1.765800 
# 
# From -- ./inp_files/38071.got.cif
#   From: 2010.06.25/outbox.cif.g09.slc.cpg/sg10_20_cif.got.tgz:38071.got - 2010.06.27 22:07:45.
