data_PCOD8067393
_publ_section_title
;
Structure prediction by ZEFSAII (Michael W. Deem and Ramdas Pophale) SiO2 
 PCOD8067393
Probable space group: P 2/M
;
_chemical_formula_sum "Si O2"
_cell_formula_units_Z 28
_cell_length_a 8.695811
_cell_length_b 14.908237
_cell_length_c 13.386131
_cell_angle_alpha 90.000000
_cell_angle_beta 71.310055
_cell_angle_gamma 90.000000
_cell_volume 1643.855514
_symmetry_space_group_name_H-M "P 2/M"
_symmetry_group_IT_number 10
_symmetry_cell_setting 'monoclinic'
loop_
_space_group_symop_operation_xyz
x,y,z
-x,y,-z
-x,-y,-z
x,-y,z
loop_
_atom_site_type_symbol
_atom_site_label
_atom_site_fract_x
_atom_site_fract_y
_atom_site_fract_z
Si Si1 0.420184 0.719219 0.307526
Si Si2 0.188519 0.400856 0.483805
Si Si3 0.878881 0.601176 0.106815
Si Si4 0.924012 0.836369 0.420681
Si Si5 0.225836 0.689481 0.678558
Si Si6 0.744663 0.901464 0.630999
Si Si7 0.485374 0.398556 0.889841
O O1 0.282123 0.674888 0.403403
O O2 0.591437 0.708038 0.326021
O O3 0.379106 0.824840 0.304162
O O4 0.416920 0.670361 0.200751
O O5 0.256331 0.500000 0.442964
O O6 0.222564 0.385836 0.594113
O O7 0.000000 0.396438 0.500000
O O8 0.935402 0.500000 0.119969
O O9 0.886098 0.658220 0.206472
O O10 0.701086 0.602046 0.099340
O O11 0.000000 0.644359 0.000000
O O12 0.854286 0.780230 0.344652
O O13 0.778758 0.893848 0.503239
O O14 0.000000 0.777446 0.500000
O O15 0.078463 0.894642 0.349753
O O16 0.669783 0.000000 0.669186
O O17 0.556018 0.500000 0.863345
O O18 0.500000 0.364621 0.000000
#
# Coordination Sequence:
#
# PCOD8067393 Si02
#       7
#     4   4   4   4   4   4   4
#     4  11  21  32  52  76 106 132 166 213 255 305
#     4  11  22  33  47  71 103 140 174 201 243 303
#     4   9  19  33  48  70  99 134 174 210 245 291
#     4   8  17  32  50  70  99 131 165 207 242 308
#     4  11  19  32  50  74 104 134 165 209 260 300
#     4   9  18  34  52  72 103 136 168 208 252 303
#     4   9  19  35  52  73 101 135 172 207 249 296
#
# _framework density 17.033127
#
# number of rings (size 3 to 8) (size 9 to 14) (size 15 to 20)
#    0.857    1.286    1.429    3.429    0.000    4.571 
#    0.000    5.000    0.000    0.429    0.000    0.000 
#    0.000    6.857    0.000    0.000    0.000    0.000 
#
# Total GULP energy -346892.720860 kJ/mol
# GULP energy per Si atom -12389.025745 kJ/mol
# Density = 1.699436 g / cm^3
# Si number density = 17.033127 Si / 1000 Ang^3
#
#
#
# Elastic Constant Matrix: (Units=GPa)
#
#
# Indices 1 2 3 4 5 6 
#
# 1 51.3237 34.1889 39.0912 0.0000 2.1670 0.0000
# 2 34.1889 122.4161 52.8386 0.0000 -0.7090 0.0000
# 3 39.0912 52.8386 116.4948 0.0000 2.7939 0.0000
# 4 0.0000 0.0000 0.0000 16.3051 0.0000 -6.2479
# 5 2.1670 -0.7090 2.7939 0.0000 27.9100 0.0000
# 6 0.0000 0.0000 0.0000 -6.2479 0.0000 6.8705
#
#
#
# Elastic Compliance Matrix: (Units=1/GPa)
#
#
# Indices 1 2 3 4 5 6 
#
# 1 0.028275 -0.004759 -0.007291 0.000000 -0.001586 0.000000
# 2 -0.004759 0.010973 -0.003404 0.000000 0.000989 0.000000
# 3 -0.007291 -0.003404 0.012593 0.000000 -0.000781 0.000000
# 4 0.000000 0.000000 0.000000 0.094133 0.000000 0.085603
# 5 -0.001586 0.000989 -0.000781 0.000000 0.036056 0.000000
# 6 0.000000 0.000000 0.000000 0.085603 0.000000 0.223397
#
#
# Mechanical properties :
#
#
# Convention : Reuss Voigt Hill
#
# Bulk Modulus (GPa) = 47.77142 60.27468 54.02305
# Shear Modulus (GPa) = 11.27874 21.15817 16.21846
#
# Velocity S-wave (km/s) = 2.57605 3.52828 3.08908
# Velocity P-wave (km/s) = 6.07907 7.21539 6.67147
#
# Compressibility (1/GPa) = 0.02093302
#
# Stress axis : x y z
#
# Youngs Moduli (GPa) = 35.36726 91.13437 79.40648
#
# Poissons Ratio (x) = 0.43368 0.57899
# Poissons Ratio (y) = 0.16830 0.27029
# Poissons Ratio (z) = 0.25788 0.31021
#
# Static dielectric constant tensor:
#      x y z
#    x 3.141630 0.000000 -0.002090 
#    y 0.000000 3.086610 0.000000 
#    z -0.002090 0.000000 3.159160 
# 
# 
# High freq. dielectric constant tensor:
#      x y z
#    x 1.656320 0.000000 -0.002990 
#    y 0.000000 1.639790 0.000000 
#    z -0.002990 0.000000 1.635740 
# 
# From -- ./inp_files/42645.got.cif
#   From: 2010.06.25/outbox.cif.g09.slc.cpg/sg10_22_cif.got.tgz:42645.got - 2010.06.27 22:07:45.
