data_PCOD8067531
_publ_section_title
;
Structure prediction by ZEFSAII (Michael W. Deem and Ramdas Pophale) SiO2 
 PCOD8067531
Probable space group: P 2/M
;
_chemical_formula_sum "Si O2"
_cell_formula_units_Z 32
_cell_length_a 20.039844
_cell_length_b 14.129615
_cell_length_c 23.467613
_cell_angle_alpha 90.000000
_cell_angle_beta 17.171973
_cell_angle_gamma 90.000000
_cell_volume 1961.868298
_symmetry_space_group_name_H-M "P 2/M"
_symmetry_group_IT_number 10
_symmetry_cell_setting 'monoclinic'
loop_
_space_group_symop_operation_xyz
x,y,z
-x,y,-z
-x,-y,-z
x,-y,z
loop_
_atom_site_type_symbol
_atom_site_label
_atom_site_fract_x
_atom_site_fract_y
_atom_site_fract_z
Si Si1 0.638618 0.896348 0.277003
Si Si2 0.475404 0.293167 0.675429
Si Si3 0.793142 0.612619 0.705897
Si Si4 0.065386 0.612390 0.700900
Si Si5 0.092076 0.896234 0.834891
Si Si6 0.706988 0.387732 0.902120
Si Si7 0.034794 0.293753 0.098935
Si Si8 0.298944 0.609110 0.707758
O O1 0.475437 0.813607 0.387248
O O2 0.689938 0.880519 0.302293
O O3 0.524848 0.000000 0.361036
O O4 0.872280 0.891275 0.053156
O O5 0.707158 0.339357 0.507982
O O6 0.370094 0.355014 0.711195
O O7 0.303989 0.291732 0.868796
O O8 0.805202 0.500000 0.693762
O O9 0.809220 0.647949 0.758319
O O10 0.000000 0.656103 0.500000
O O11 0.551227 0.647782 0.878216
O O12 0.093928 0.500000 0.674956
O O13 0.861724 0.649733 0.827378
O O14 0.019173 0.641803 0.803208
O O15 0.069270 0.812305 0.806911
O O16 0.109697 0.000000 0.790632
O O17 0.706391 0.500000 0.901833
O O18 0.921886 0.336309 0.134125
O O19 0.500000 0.627170 0.500000
O O20 0.234703 0.500000 0.765210
#
# Coordination Sequence:
#
# PCOD8067531 Si02
#       8
#     4   4   4   4   4   4   4   4
#     4   8  14  27  47  67  83 102 138 194 253 296
#     4  11  21  33  48  64  84 116 155 196 239 280
#     4   8  13  25  48  71  87 108 143 183 217 252
#     4  11  23  35  44  61  95 130 158 188 218 261
#     4   8  14  27  47  67  83 102 138 194 253 296
#     4   8  16  29  43  63  90 118 147 180 217 252
#     4  11  21  33  48  64  84 116 155 196 239 280
#     4  11  21  33  46  58  80 116 159 204 237 264
#
# _framework density 16.310983
#
# number of rings (size 3 to 8) (size 9 to 14) (size 15 to 20)
#    0.000    2.500    2.500    2.625    0.000    3.500 
#    0.000    3.125    0.000    2.250    0.000    0.000 
#    0.000    0.000    0.000    9.000    0.000   54.500 
#
# Total GULP energy -396601.886786 kJ/mol
# GULP energy per Si atom -12393.808962 kJ/mol
# Density = 1.627386 g / cm^3
# Si number density = 16.310983 Si / 1000 Ang^3
#
#
#
# Elastic Constant Matrix: (Units=GPa)
#
#
# Indices 1 2 3 4 5 6 
#
# 1 51.8047 17.6226 20.2593 0.0000 -19.0659 0.0000
# 2 17.6226 86.3288 26.2857 0.0000 -9.1311 0.0000
# 3 20.2593 26.2857 72.6150 0.0000 -6.3245 0.0000
# 4 0.0000 0.0000 0.0000 -33.2030 0.0000 3.4720
# 5 -19.0659 -9.1311 -6.3245 0.0000 22.0345 0.0000
# 6 0.0000 0.0000 0.0000 3.4720 0.0000 2.8850
#
#
#
# Elastic Compliance Matrix: (Units=1/GPa)
#
#
# Indices 1 2 3 4 5 6 
#
# 1 0.031335 -0.002007 -0.005874 0.000000 0.024596 0.000000
# 2 -0.002007 0.013527 -0.004102 0.000000 0.002692 0.000000
# 3 -0.005874 -0.004102 0.016722 0.000000 -0.001983 0.000000
# 4 0.000000 0.000000 0.000000 -0.026751 0.000000 0.032194
# 5 0.024596 0.002692 -0.001983 0.000000 0.067212 0.000000
# 6 0.000000 0.000000 0.000000 0.032194 0.000000 0.307873
#
#
# Mechanical properties :
#
#
# Convention : Reuss Voigt Hill
#
# Bulk Modulus (GPa) = 26.58218 37.67594 32.12906
# Shear Modulus (GPa) = 11.20013 8.11536 9.65774
#
# Velocity S-wave (km/s) = 2.62327 2.23298 2.43595
# Velocity P-wave (km/s) = 5.05053 5.45866 5.25855
#
# Compressibility (1/GPa) = 0.03761919
#
# Stress axis : x y z
#
# Youngs Moduli (GPa) = 31.91314 73.92596 59.80025
#
# Poissons Ratio (x) = 0.14833 0.35125
# Poissons Ratio (y) = 0.06403 0.24532
# Poissons Ratio (z) = 0.18745 0.30327
#
# Static dielectric constant tensor:
#      x y z
#    x 2.935330 0.000000 -0.056560 
#    y 0.000000 3.193980 0.000000 
#    z -0.056560 0.000000 3.287620 
# 
# 
# High freq. dielectric constant tensor:
#      x y z
#    x 1.586410 0.000000 0.009640 
#    y 0.000000 1.604440 0.000000 
#    z 0.009640 0.000000 1.636070 
# 
# From -- ./inp_files/79747.got.cif
#   From: 2010.06.25/outbox.cif.g09.slc.cpg/sg10_40_cif.got.tgz:79747.got - 2010.06.27 22:07:45.
