data_PCOD8067210
_publ_section_title
;
Structure prediction by ZEFSAII (Michael W. Deem and Ramdas Pophale) SiO2 
 PCOD8067210
Probable space group: P 2/M
;
_chemical_formula_sum "Si O2"
_cell_formula_units_Z 16
_cell_length_a 8.088119
_cell_length_b 18.487135
_cell_length_c 9.289880
_cell_angle_alpha 90.000000
_cell_angle_beta 147.173597
_cell_angle_gamma 90.000000
_cell_volume 753.014004
_symmetry_space_group_name_H-M "P 2/M"
_symmetry_group_IT_number 10
_symmetry_cell_setting 'monoclinic'
loop_
_space_group_symop_operation_xyz
x,y,z
-x,y,-z
-x,-y,-z
x,-y,z
loop_
_atom_site_type_symbol
_atom_site_label
_atom_site_fract_x
_atom_site_fract_y
_atom_site_fract_z
Si Si1 0.608849 0.661561 0.419807
Si Si2 0.762847 0.583239 0.076880
Si Si3 0.645113 0.916448 0.754164
Si Si4 0.648903 0.803385 0.260672
O O1 0.500000 0.677534 0.500000
O O2 0.603403 0.736118 0.331587
O O3 0.947336 0.629379 0.662556
O O4 0.365729 0.606309 0.172522
O O5 0.863167 0.500000 0.143900
O O6 0.500000 0.597347 0.000000
O O7 0.500000 0.888116 0.500000
O O8 0.518224 0.872988 0.796864
O O9 0.564348 0.000000 0.722398
O O10 0.000000 0.902530 0.000000
O O11 0.000000 0.823588 0.500000
O O12 0.500000 0.783071 0.000000
#
# Coordination Sequence:
#
# PCOD8067210 Si02
#       4
#     4   4   4   4
#     4  12  25  41  63  91 125 163 208 258 309 368
#     4  11  24  43  66  91 123 162 204 255 315 374
#     4  10  22  42  67  95 129 166 205 252 308 368
#     4  12  25  41  64  92 127 166 209 258 306 365
#
# _framework density 21.247942999999999
#
# number of rings (size 3 to 8) (size 9 to 14) (size 15 to 20)
#    0.000    0.750    0.000    8.250    0.000    8.000 
#    0.000    0.000    0.000    0.000    0.000    0.000 
#    0.000    0.000    0.000    0.000    0.000    0.000 
#
# Total GULP energy -198548.242073 kJ/mol
# GULP energy per Si atom -12409.265130 kJ/mol
# Density = 2.119958 g / cm^3
# Si number density = 21.247943 Si / 1000 Ang^3
#
#
#
# Elastic Constant Matrix: (Units=GPa)
#
#
# Indices 1 2 3 4 5 6 
#
# 1 108.3440 82.2578 40.6002 0.0000 -20.6378 0.0000
# 2 82.2578 119.0904 56.1777 0.0000 -4.9446 0.0000
# 3 40.6002 56.1777 152.3947 0.0000 -12.3261 0.0000
# 4 0.0000 0.0000 0.0000 17.1646 0.0000 20.1428
# 5 -20.6378 -4.9446 -12.3261 0.0000 38.3190 0.0000
# 6 0.0000 0.0000 0.0000 20.1428 0.0000 3.3253
#
#
#
# Elastic Compliance Matrix: (Units=1/GPa)
#
#
# Indices 1 2 3 4 5 6 
#
# 1 0.022891 -0.015614 0.000505 0.000000 0.010476 0.000000
# 2 -0.015614 0.020816 -0.004083 0.000000 -0.007037 0.000000
# 3 0.000505 -0.004083 0.008123 0.000000 0.002358 0.000000
# 4 0.000000 0.000000 0.000000 -0.009537 0.000000 0.057773
# 5 0.010476 -0.007037 0.002358 0.000000 0.031589 0.000000
# 6 0.000000 0.000000 0.000000 0.057773 0.000000 -0.049231
#
#
# Mechanical properties :
#
#
# Convention : Reuss Voigt Hill
#
# Bulk Modulus (GPa) = 74.37398 81.98892 78.18145
# Shear Modulus (GPa) = 74.05440 25.14799 49.60120
#
# Velocity S-wave (km/s) = 5.91001 3.44401 4.83680
# Velocity P-wave (km/s) = 9.03603 7.38143 8.25031
#
# Compressibility (1/GPa) = 0.01344556
#
# Stress axis : x y z
#
# Youngs Moduli (GPa) = 43.68494 48.04020 123.10503
#
# Poissons Ratio (x) = 0.75012 -0.06215
# Poissons Ratio (y) = 0.68212 0.50260
# Poissons Ratio (z) = -0.02205 0.19613
#
# Static dielectric constant tensor:
#      x y z
#    x 3.871900 0.000000 -0.065970 
#    y 0.000000 3.889450 0.000000 
#    z -0.065970 0.000000 4.161290 
# 
# 
# High freq. dielectric constant tensor:
#      x y z
#    x 1.840740 0.000000 0.000010 
#    y 0.000000 1.842800 0.000000 
#    z 0.000010 0.000000 1.855930 
# 
# From -- ./inp_files/3904.got.cif
#   From: 2010.06.25/outbox.cif.g09.slc.cpg/sg10_2_cif.got.tgz:3904.got - 2010.06.27 22:07:45.
