data_PCOD8067776
_publ_section_title
;
Structure prediction by ZEFSAII (Michael W. Deem and Ramdas Pophale) SiO2 
 PCOD8067776
Probable space group: P 2/M
;
_chemical_formula_sum "Si O2"
_cell_formula_units_Z 28
_cell_length_a 12.526881
_cell_length_b 18.083522
_cell_length_c 19.148919
_cell_angle_alpha 90.000000
_cell_angle_beta 159.900130
_cell_angle_gamma 90.000000
_cell_volume 1490.720212
_symmetry_space_group_name_H-M "P 2/M"
_symmetry_group_IT_number 10
_symmetry_cell_setting 'monoclinic'
loop_
_space_group_symop_operation_xyz
x,y,z
-x,y,-z
-x,-y,-z
x,-y,z
loop_
_atom_site_type_symbol
_atom_site_label
_atom_site_fract_x
_atom_site_fract_y
_atom_site_fract_z
Si Si1 0.564027 0.201479 0.434912
Si Si2 0.364117 0.328314 0.227867
Si Si3 0.681685 0.663772 0.042843
Si Si4 0.680546 0.582990 0.539180
Si Si5 0.893558 0.083933 0.855634
Si Si6 0.000532 0.208364 0.177454
Si Si7 0.363446 0.584558 0.729477
O O1 0.563929 0.252678 0.365449
O O2 0.891158 0.194364 0.675526
O O3 0.456682 0.116559 0.357081
O O4 0.297177 0.242595 0.318511
O O5 0.443319 0.389396 0.334512
O O6 0.458418 0.360224 0.211561
O O7 0.000000 0.308939 0.000000
O O8 0.719730 0.733549 0.012703
O O9 0.020080 0.635178 0.273183
O O10 0.500000 0.689301 0.000000
O O11 0.481196 0.601298 0.880313
O O12 0.500000 0.583470 0.500000
O O13 0.787939 0.500000 0.585752
O O14 0.098583 0.133472 0.926285
O O15 0.894909 0.000000 0.829347
O O16 0.000000 0.090408 0.000000
O O17 0.445658 0.500000 0.761885
O O18 0.000000 0.599238 0.500000
#
# Coordination Sequence:
#
# PCOD8067776 Si02
#       7
#     4   4   4   4   4   4   4
#     4   9  18  32  56  83 113 151 181 232 279 337
#     4  12  22  35  59  82 114 147 190 239 298 348
#     4  12  24  39  60  83 112 154 205 244 294 352
#     4  11  23  38  58  82 111 149 195 248 302 354
#     4   9  18  32  56  93 124 151 183 227 287 344
#     4   9  19  34  55  83 116 149 186 234 282 340
#     4  11  26  43  56  78 112 152 199 253 305 345
#
# _framework density 18.782867
#
# number of rings (size 3 to 8) (size 9 to 14) (size 15 to 20)
#    0.857    0.714    1.429    4.714    2.000    5.714 
#    0.000    0.000    0.000    0.429    0.000    0.000 
#    0.000    3.429    0.000    0.000    0.000    0.000 
#
# Total GULP energy -346926.861467 kJ/mol
# GULP energy per Si atom -12390.245052 kJ/mol
# Density = 1.874012 g / cm^3
# Si number density = 18.782867 Si / 1000 Ang^3
#
#
#
# Elastic Constant Matrix: (Units=GPa)
#
#
# Indices 1 2 3 4 5 6 
#
# 1 67.8477 39.4017 23.0314 0.0000 -6.9829 0.0000
# 2 39.4017 121.5127 26.9531 0.0000 -5.6483 0.0000
# 3 23.0314 26.9531 78.5339 0.0000 -13.8529 0.0000
# 4 0.0000 0.0000 0.0000 26.4521 0.0000 -6.9171
# 5 -6.9829 -5.6483 -13.8529 0.0000 26.8372 0.0000
# 6 0.0000 0.0000 0.0000 -6.9171 0.0000 25.1238
#
#
#
# Elastic Compliance Matrix: (Units=1/GPa)
#
#
# Indices 1 2 3 4 5 6 
#
# 1 0.019244 -0.005383 -0.003425 0.000000 0.002107 0.000000
# 2 -0.005383 0.010416 -0.002043 0.000000 -0.000263 0.000000
# 3 -0.003425 -0.002043 0.015629 0.000000 0.006746 0.000000
# 4 0.000000 0.000000 0.000000 0.040737 0.000000 0.011216
# 5 0.002107 -0.000263 0.006746 0.000000 0.041237 0.000000
# 6 0.000000 0.000000 0.000000 0.011216 0.000000 0.042891
#
#
# Mechanical properties :
#
#
# Convention : Reuss Voigt Hill
#
# Bulk Modulus (GPa) = 42.39270 49.62963 46.01117
# Shear Modulus (GPa) = 25.03554 27.58315 26.30935
#
# Velocity S-wave (km/s) = 3.65484 3.83629 3.74667
# Velocity P-wave (km/s) = 6.35841 6.78992 6.57771
#
# Compressibility (1/GPa) = 0.02358896
#
# Stress axis : x y z
#
# Youngs Moduli (GPa) = 51.96394 96.00815 63.98463
#
# Poissons Ratio (x) = 0.51677 0.21913
# Poissons Ratio (y) = 0.27970 0.13069
# Poissons Ratio (z) = 0.17796 0.19610
#
# Static dielectric constant tensor:
#      x y z
#    x 3.172350 0.000000 -0.232100 
#    y 0.000000 3.478230 0.000000 
#    z -0.232100 0.000000 3.489100 
# 
# 
# High freq. dielectric constant tensor:
#      x y z
#    x 1.712410 0.000000 -0.034020 
#    y 0.000000 1.720030 0.000000 
#    z -0.034020 0.000000 1.720900 
# 
# From -- ./inp_files/77218.got.cif
#   From: 2010.06.25/outbox.cif.g09.slc.cpg/sg10_39_cif.got.tgz:77218.got - 2010.06.27 22:07:45.
