data_PCOD8067798
_publ_section_title
;
Structure prediction by ZEFSAII (Michael W. Deem and Ramdas Pophale) SiO2 
 PCOD8067798
Probable space group: P 2/M
;
_chemical_formula_sum "Si O2"
_cell_formula_units_Z 24
_cell_length_a 9.404084
_cell_length_b 16.905994
_cell_length_c 15.158772
_cell_angle_alpha 90.000000
_cell_angle_beta 29.260333
_cell_angle_gamma 90.000000
_cell_volume 1177.967748
_symmetry_space_group_name_H-M "P 2/M"
_symmetry_group_IT_number 10
_symmetry_cell_setting 'monoclinic'
loop_
_space_group_symop_operation_xyz
x,y,z
-x,y,-z
-x,-y,-z
x,-y,z
loop_
_atom_site_type_symbol
_atom_site_label
_atom_site_fract_x
_atom_site_fract_y
_atom_site_fract_z
Si Si1 0.021157 0.847453 0.388243
Si Si2 0.342233 0.587636 0.492763
Si Si3 0.832377 0.700476 0.177192
Si Si4 0.028348 0.000000 0.882408
Si Si5 0.402995 0.000000 0.151418
Si Si6 0.423177 0.143616 0.638021
Si Si7 0.156705 0.698754 0.188592
O O1 0.240781 0.919985 0.265180
O O2 0.109057 0.778692 0.271303
O O3 0.000000 0.814139 0.500000
O O4 0.714101 0.886413 0.527692
O O5 0.500000 0.579785 0.500000
O O6 0.304254 0.500000 0.471570
O O7 0.560392 0.641401 0.319517
O O8 0.022472 0.627514 0.669038
O O9 0.706588 0.787716 0.231332
O O10 0.034692 0.703747 0.154784
O O11 0.000000 0.674491 0.000000
O O12 0.190249 0.925307 0.753160
O O13 0.694853 0.000000 0.045374
O O14 0.000000 0.000000 0.000000
O O15 0.500000 0.000000 0.000000
O O16 0.500000 0.178882 0.500000
O O17 0.500000 0.678656 0.000000
#
# Coordination Sequence:
#
# PCOD8067798 Si02
#       7
#     4   4   4   2   2   4   4
#     4  12  25  42  66  90 131 172 218 265 328 382
#     4   9  19  42  68  95 131 170 213 263 318 385
#     4  11  23  41  67  97 129 171 220 263 316 384
#     4  12  26  40  62  92 126 161 221 271 316 379
#     4  12  26  44  60  94 130 169 216 272 327 378
#     4  12  22  43  63  89 124 171 219 263 315 384
#     4  11  24  40  65 100 132 168 213 267 324 381
#
# _framework density 20.374072999999999
#
# number of rings (size 3 to 8) (size 9 to 14) (size 15 to 20)
#    0.000    0.833    3.333    4.500    4.667    0.667 
#    0.000    0.000    0.000    3.500    0.000    0.000 
#    0.000    0.000    0.000    0.000    0.000    0.000 
#
# Total GULP energy -297476.413281 kJ/mol
# GULP energy per Si atom -12394.850553 kJ/mol
# Density = 2.032770 g / cm^3
# Si number density = 20.374073 Si / 1000 Ang^3
#
#
#
# Elastic Constant Matrix: (Units=GPa)
#
#
# Indices 1 2 3 4 5 6 
#
# 1 109.0293 28.0387 60.4395 0.0000 -8.5851 0.0000
# 2 28.0387 161.9579 76.3724 0.0000 -15.6236 0.0000
# 3 60.4395 76.3724 159.7805 0.0000 -19.7694 0.0000
# 4 0.0000 0.0000 0.0000 26.8545 0.0000 9.8795
# 5 -8.5851 -15.6236 -19.7694 0.0000 51.9405 0.0000
# 6 0.0000 0.0000 0.0000 9.8795 0.0000 24.6355
#
#
#
# Elastic Compliance Matrix: (Units=1/GPa)
#
#
# Indices 1 2 3 4 5 6 
#
# 1 0.011610 0.000092 -0.004402 0.000000 0.000271 0.000000
# 2 0.000092 0.008021 -0.003745 0.000000 0.001003 0.000000
# 3 -0.004402 -0.003745 0.009953 0.000000 0.001934 0.000000
# 4 0.000000 0.000000 0.000000 0.043682 0.000000 -0.017518
# 5 0.000271 0.001003 0.001934 0.000000 0.020335 0.000000
# 6 0.000000 0.000000 0.000000 -0.017518 0.000000 0.047617
#
#
# Mechanical properties :
#
#
# Convention : Reuss Voigt Hill
#
# Bulk Modulus (GPa) = 74.21473 84.49655 79.35564
# Shear Modulus (GPa) = 30.89866 38.41390 34.65628
#
# Velocity S-wave (km/s) = 3.89854 4.34687 4.12879
# Velocity P-wave (km/s) = 7.53458 8.17045 7.85895
#
# Compressibility (1/GPa) = 0.01347441
#
# Stress axis : x y z
#
# Youngs Moduli (GPa) = 86.13454 124.67164 100.47287
#
# Poissons Ratio (x) = -0.01147 0.44228
# Poissons Ratio (y) = -0.00793 0.37624
# Poissons Ratio (z) = 0.37917 0.46686
#
# Static dielectric constant tensor:
#      x y z
#    x 3.619530 0.000000 0.029460 
#    y 0.000000 3.825110 0.000000 
#    z 0.029460 0.000000 3.776240 
# 
# 
# High freq. dielectric constant tensor:
#      x y z
#    x 1.792470 0.000000 -0.006780 
#    y 0.000000 1.792910 0.000000 
#    z -0.006780 0.000000 1.814800 
# 
# From -- ./inp_files/62272.got.cif
#   From: 2010.06.25/outbox.cif.g09.slc.cpg/sg10_32_cif.got.tgz:62272.got - 2010.06.27 22:07:45.
