data_PCOD8067578
_publ_section_title
;
Structure prediction by ZEFSAII (Michael W. Deem and Ramdas Pophale) SiO2 
 PCOD8067578
Probable space group: P 2/M
;
_chemical_formula_sum "Si O2"
_cell_formula_units_Z 24
_cell_length_a 8.865602
_cell_length_b 13.970977
_cell_length_c 10.220688
_cell_angle_alpha 90.000000
_cell_angle_beta 86.855190
_cell_angle_gamma 90.000000
_cell_volume 1264.039455
_symmetry_space_group_name_H-M "P 2/M"
_symmetry_group_IT_number 10
_symmetry_cell_setting 'monoclinic'
loop_
_space_group_symop_operation_xyz
x,y,z
-x,y,-z
-x,-y,-z
x,-y,z
loop_
_atom_site_type_symbol
_atom_site_label
_atom_site_fract_x
_atom_site_fract_y
_atom_site_fract_z
Si Si1 0.829646 0.112342 0.481613
Si Si2 0.321129 0.892326 0.020255
Si Si3 0.844765 0.608207 0.337974
Si Si4 0.703453 0.790837 0.239477
Si Si5 0.652336 0.209298 0.719966
Si Si6 0.191791 0.392109 0.357367
O O1 0.790520 0.142091 0.336771
O O2 0.716294 0.162980 0.585929
O O3 0.000000 0.146879 0.500000
O O4 0.811090 0.000000 0.500075
O O5 0.274572 0.844360 0.159447
O O6 0.254873 0.000000 0.017892
O O7 0.500000 0.895357 0.000000
O O8 0.252688 0.829218 0.906090
O O9 0.797518 0.500000 0.302857
O O10 0.756341 0.680763 0.247774
O O11 0.800197 0.630954 0.489117
O O12 0.023202 0.621702 0.311615
O O13 0.526522 0.799524 0.274347
O O14 0.697544 0.320935 0.724712
O O15 0.247633 0.500000 0.328093
#
# Coordination Sequence:
#
# PCOD8067578 Si02
#       6
#     4   4   4   4   4   4
#     4  11  23  37  54  79 112 145 181 230 280 329
#     4   9  20  38  56  77 112 152 185 223 276 333
#     4   9  18  34  56  81 113 150 182 220 275 333
#     4  11  21  35  58  85 110 143 186 232 278 325
#     4  11  21  35  58  85 110 143 186 232 278 325
#     4   9  18  34  56  81 113 150 182 220 275 333
#
# _framework density 18.986747000000001
#
# number of rings (size 3 to 8) (size 9 to 14) (size 15 to 20)
#    0.000    2.000    1.667    3.500    0.000    3.333 
#    0.000    5.833    0.000   11.000    0.000    0.000 
#    0.000    0.000    0.000    0.000    0.000    0.000 
#
# Total GULP energy -297658.710288 kJ/mol
# GULP energy per Si atom -12402.446262 kJ/mol
# Density = 1.894353 g / cm^3
# Si number density = 18.986747 Si / 1000 Ang^3
#
#
#
# Elastic Constant Matrix: (Units=GPa)
#
#
# Indices 1 2 3 4 5 6 
#
# 1 64.1497 35.7266 20.1666 0.0000 17.6785 0.0000
# 2 35.7266 129.3389 42.9427 0.0000 17.1867 0.0000
# 3 20.1666 42.9427 75.7711 0.0000 28.2151 0.0000
# 4 0.0000 0.0000 0.0000 34.6935 0.0000 4.6312
# 5 17.6785 17.1867 28.2151 0.0000 21.4603 0.0000
# 6 0.0000 0.0000 0.0000 4.6312 0.0000 33.6171
#
#
#
# Elastic Compliance Matrix: (Units=1/GPa)
#
#
# Indices 1 2 3 4 5 6 
#
# 1 0.022617 -0.005001 0.004430 0.000000 -0.020450 0.000000
# 2 -0.005001 0.010641 -0.005996 0.000000 0.003480 0.000000
# 3 0.004430 -0.005996 0.029363 0.000000 -0.037453 0.000000
# 4 0.000000 0.000000 0.000000 0.029364 0.000000 -0.004045
# 5 -0.020450 0.003480 -0.037453 0.000000 0.109898 0.000000
# 6 0.000000 0.000000 0.000000 -0.004045 0.000000 0.030304
#
#
# Mechanical properties :
#
#
# Convention : Reuss Voigt Hill
#
# Bulk Modulus (GPa) = 20.20711 51.88129 36.04420
# Shear Modulus (GPa) = 19.09732 29.31574 24.20653
#
# Velocity S-wave (km/s) = 3.17491 3.93365 3.57447
# Velocity P-wave (km/s) = 4.90978 6.92934 6.00507
#
# Compressibility (1/GPa) = 0.04948754
#
# Stress axis : x y z
#
# Youngs Moduli (GPa) = 44.21524 93.97459 34.05615
#
# Poissons Ratio (x) = 0.46993 -0.15086
# Poissons Ratio (y) = 0.22110 0.20420
# Poissons Ratio (z) = -0.19586 0.56346
#
# Static dielectric constant tensor:
#      x y z
#    x 3.316480 0.000000 0.096380 
#    y 0.000000 3.719670 0.000000 
#    z 0.096380 0.000000 3.389000 
# 
# 
# High freq. dielectric constant tensor:
#      x y z
#    x 1.725550 0.000000 0.006210 
#    y 0.000000 1.757880 0.000000 
#    z 0.006210 0.000000 1.719420 
# 
# From -- ./inp_files/18769.got.cif
#   From: 2010.06.25/outbox.cif.g09.slc.cpg/sg10_10_cif.got.tgz:18769.got - 2010.06.27 22:07:45.
