data_PCOD8067911
_publ_section_title
;
Structure prediction by ZEFSAII (Michael W. Deem and Ramdas Pophale) SiO2 
 PCOD8067911
Probable space group: P 2/M
;
_chemical_formula_sum "Si O2"
_cell_formula_units_Z 28
_cell_length_a 29.253562
_cell_length_b 9.715010
_cell_length_c 9.196289
_cell_angle_alpha 90.000000
_cell_angle_beta 141.805118
_cell_angle_gamma 90.000000
_cell_volume 1616.071947
_symmetry_space_group_name_H-M "P 2/M"
_symmetry_group_IT_number 10
_symmetry_cell_setting 'monoclinic'
loop_
_space_group_symop_operation_xyz
x,y,z
-x,y,-z
-x,-y,-z
x,-y,z
loop_
_atom_site_type_symbol
_atom_site_label
_atom_site_fract_x
_atom_site_fract_y
_atom_site_fract_z
Si Si1 0.631119 0.845327 0.000807
Si Si2 0.500000 0.344062 0.326281
Si Si3 0.073498 0.658650 0.604211
Si Si4 0.795145 0.154118 0.065159
Si Si5 0.073498 0.341350 0.263281
Si Si6 0.795145 0.845882 0.410569
Si Si7 0.368881 0.154673 0.345212
O O1 0.713226 0.803271 0.261405
O O2 0.611416 0.000000 0.005564
O O3 0.572170 0.735683 0.914945
O O4 0.629125 0.843914 0.822812
O O5 0.500000 0.344752 0.500000
O O6 0.500000 0.500000 0.265916
O O7 0.572170 0.264317 0.445903
O O8 0.088693 0.500000 0.678372
O O9 0.143201 0.742464 0.842824
O O10 0.062803 0.684172 0.407007
O O11 0.000000 0.711845 0.500000
O O12 0.795557 0.160477 0.238892
O O13 0.814036 0.000000 0.059114
O O14 0.713226 0.196729 0.804723
O O15 0.088693 0.500000 0.265094
O O16 0.143201 0.257537 0.373181
O O17 0.000000 0.288155 0.000000
O O18 0.814036 0.000000 0.511068
O O19 0.388584 0.000000 0.448481
#
# Coordination Sequence:
#
# PCOD8067911 Si02
#       7
#     4   4   4   4   4   4   4
#     4   8  13  21  31  42  60  88 119 149 182 220
#     4   9  15  19  25  41  63  87 118 153 184 215
#     4   9  17  28  41  57  77 101 128 158 193 231
#     4   8  14  24  37  52  69  92 124 158 190 226
#     4   9  17  28  41  57  77 101 128 158 193 231
#     4   8  14  24  37  52  69  92 124 158 190 226
#     4   8  13  21  31  42  60  88 119 149 182 220
#
# _framework density 17.325961
#
# number of rings (size 3 to 8) (size 9 to 14) (size 15 to 20)
#    0.000    3.571    0.000    2.143    0.000    3.429 
#    0.000    5.714    0.000    0.000    0.000    0.000 
#    0.000    0.000    0.000    1.286    0.000   27.429 
#
# Total GULP energy -346987.853272 kJ/mol
# GULP energy per Si atom -12392.423331 kJ/mol
# Density = 1.728653 g / cm^3
# Si number density = 17.325961 Si / 1000 Ang^3
#
#
#
# Elastic Constant Matrix: (Units=GPa)
#
#
# Indices 1 2 3 4 5 6 
#
# 1 57.2555 54.3877 41.0919 0.0000 41.1482 0.0000
# 2 54.3877 126.2561 69.4356 0.0000 50.2909 0.0000
# 3 41.0919 69.4356 84.2135 0.0000 48.9473 0.0000
# 4 0.0000 0.0000 0.0000 24.4934 0.0000 15.5619
# 5 41.1482 50.2909 48.9473 0.0000 40.3031 0.0000
# 6 0.0000 0.0000 0.0000 15.5619 0.0000 19.8371
#
#
#
# Elastic Compliance Matrix: (Units=1/GPa)
#
#
# Indices 1 2 3 4 5 6 
#
# 1 0.087272 -0.008686 0.034227 0.000000 -0.119831 0.000000
# 2 -0.008686 0.017344 -0.008968 0.000000 -0.001883 0.000000
# 3 0.034227 -0.008968 0.055674 0.000000 -0.091369 0.000000
# 4 0.000000 0.000000 0.000000 0.081398 0.000000 -0.063856
# 5 -0.119831 -0.001883 -0.091369 0.000000 0.260471 0.000000
# 6 0.000000 0.000000 0.000000 -0.063856 0.000000 0.100505
#
#
# Mechanical properties :
#
#
# Convention : Reuss Voigt Hill
#
# Bulk Modulus (GPa) = 5.16968 66.39506 35.78237
# Shear Modulus (GPa) = 7.88646 23.78069 15.83358
#
# Velocity S-wave (km/s) = 2.13581 3.70881 3.02630
# Velocity P-wave (km/s) = 3.01206 7.53291 5.73660
#
# Compressibility (1/GPa) = 0.19343569
#
# Stress axis : x y z
#
# Youngs Moduli (GPa) = 11.45842 57.65688 17.96161
#
# Poissons Ratio (x) = 0.50081 -0.61476
# Poissons Ratio (y) = 0.09953 0.16108
# Poissons Ratio (z) = -0.39218 0.51705
#
# Static dielectric constant tensor:
#      x y z
#    x 2.990720 0.000000 0.616350 
#    y 0.000000 3.414750 0.000000 
#    z 0.616350 0.000000 3.175140 
# 
# 
# High freq. dielectric constant tensor:
#      x y z
#    x 1.625930 0.000000 0.051870 
#    y 0.000000 1.670160 0.000000 
#    z 0.051870 0.000000 1.641450 
# 
# From -- ./inp_files/38016.got.cif
#   From: 2010.06.25/outbox.cif.g09.slc.cpg/sg10_20_cif.got.tgz:38016.got - 2010.06.27 22:07:45.
