data_PCOD8067523
_publ_section_title
;
Structure prediction by ZEFSAII (Michael W. Deem and Ramdas Pophale) SiO2 
 PCOD8067523
Probable space group: P 2/M
;
_chemical_formula_sum "Si O2"
_cell_formula_units_Z 28
_cell_length_a 11.475004
_cell_length_b 8.905969
_cell_length_c 18.913233
_cell_angle_alpha 90.000000
_cell_angle_beta 127.434014
_cell_angle_gamma 90.000000
_cell_volume 1534.792913
_symmetry_space_group_name_H-M "P 2/M"
_symmetry_group_IT_number 10
_symmetry_cell_setting 'monoclinic'
loop_
_space_group_symop_operation_xyz
x,y,z
-x,y,-z
-x,-y,-z
x,-y,z
loop_
_atom_site_type_symbol
_atom_site_label
_atom_site_fract_x
_atom_site_fract_y
_atom_site_fract_z
Si Si1 0.527262 0.334799 0.291631
Si Si2 0.185952 0.334970 0.131374
Si Si3 0.403724 0.176251 0.817906
Si Si4 0.876058 0.823663 0.754243
Si Si5 0.168214 0.322863 0.829625
Si Si6 0.296438 0.675960 0.027559
Si Si7 0.577324 0.676639 0.600481
O O1 0.598974 0.500000 0.308345
O O2 0.357790 0.344458 0.209142
O O3 0.607364 0.217392 0.269574
O O4 0.534804 0.283687 0.376564
O O5 0.114052 0.500000 0.117448
O O6 0.112238 0.218725 0.158059
O O7 0.174502 0.287723 0.044093
O O8 0.270736 0.257347 0.807162
O O9 0.556175 0.229716 0.907711
O O10 0.388731 0.000000 0.821956
O O11 0.726799 0.767982 0.663618
O O12 0.007800 0.746966 0.760130
O O13 0.888075 0.000000 0.751103
O O14 0.159351 0.500000 0.817937
O O15 0.229017 0.274989 0.928569
O O16 0.338295 0.500000 0.045086
O O17 0.500000 0.727138 0.500000
O O18 0.615308 0.500000 0.615579
#
# Coordination Sequence:
#
# PCOD8067523 Si02
#       7
#     4   4   4   4   4   4   4
#     4   8  15  30  52  76 101 131 166 201 240 291
#     4   8  15  31  51  70  96 131 171 210 248 295
#     4  11  21  32  49  74 104 135 170 213 256 295
#     4  11  22  34  49  75 108 135 163 202 256 310
#     4  11  22  36  52  68  95 138 181 216 251 294
#     4   9  19  34  52  72  94 130 180 222 252 290
#     4   9  18  35  60  85 105 128 162 201 241 295
#
# _framework density 18.243504000000001
#
# number of rings (size 3 to 8) (size 9 to 14) (size 15 to 20)
#    0.000    2.429    0.000    5.143    0.000    8.857 
#    0.000    2.857    0.000    0.857    0.000    6.000 
#    0.000    0.000    0.000    0.000    0.000    0.000 
#
# Total GULP energy -347132.657997 kJ/mol
# GULP energy per Si atom -12397.594928 kJ/mol
# Density = 1.820198 g / cm^3
# Si number density = 18.243504 Si / 1000 Ang^3
#
#
#
# Elastic Constant Matrix: (Units=GPa)
#
#
# Indices 1 2 3 4 5 6 
#
# 1 92.3296 61.7236 43.5124 0.0000 -6.1738 0.0000
# 2 61.7236 108.8970 39.9504 0.0000 0.3525 0.0000
# 3 43.5124 39.9504 77.6457 0.0000 -20.8338 0.0000
# 4 0.0000 0.0000 0.0000 10.8494 0.0000 9.6289
# 5 -6.1738 0.3525 -20.8338 0.0000 23.6846 0.0000
# 6 0.0000 0.0000 0.0000 9.6289 0.0000 -11.0348
#
#
#
# Elastic Compliance Matrix: (Units=1/GPa)
#
#
# Indices 1 2 3 4 5 6 
#
# 1 0.019837 -0.008748 -0.006798 0.000000 -0.000679 0.000000
# 2 -0.008748 0.016117 -0.005323 0.000000 -0.007202 0.000000
# 3 -0.006798 -0.005323 0.024835 0.000000 0.020153 0.000000
# 4 0.000000 0.000000 0.000000 0.051944 0.000000 0.045326
# 5 -0.000679 -0.007202 0.020153 0.000000 0.059879 0.000000
# 6 0.000000 0.000000 0.000000 0.045326 0.000000 -0.051071
#
#
# Mechanical properties :
#
#
# Convention : Reuss Voigt Hill
#
# Bulk Modulus (GPa) = 52.48828 63.24944 57.86886
# Shear Modulus (GPa) = 29.47621 13.61224 21.54422
#
# Velocity S-wave (km/s) = 4.02395 2.73452 3.44019
# Velocity P-wave (km/s) = 7.10091 6.68693 6.89703
#
# Compressibility (1/GPa) = 0.01905187
#
# Stress axis : x y z
#
# Youngs Moduli (GPa) = 50.41109 62.04477 40.26625
#
# Poissons Ratio (x) = 0.54275 0.27372
# Poissons Ratio (y) = 0.44098 0.21434
# Poissons Ratio (z) = 0.34268 0.33027
#
# Static dielectric constant tensor:
#      x y z
#    x 3.582670 0.000000 -0.365710 
#    y 0.000000 3.257750 0.000000 
#    z -0.365710 0.000000 3.325340 
# 
# 
# High freq. dielectric constant tensor:
#      x y z
#    x 1.709760 0.000000 -0.017180 
#    y 0.000000 1.699670 0.000000 
#    z -0.017180 0.000000 1.677940 
# 
# From -- ./inp_files/83404.got.cif
#   From: 2010.06.25/outbox.cif.g09.slc.cpg/sg10_42_cif.got.tgz:83404.got - 2010.06.27 22:07:45.
