data_PCOD8067474
_publ_section_title
;
Structure prediction by ZEFSAII (Michael W. Deem and Ramdas Pophale) SiO2 
 PCOD8067474
Probable space group: P 2/M
;
_chemical_formula_sum "Si O2"
_cell_formula_units_Z 28
_cell_length_a 22.936901
_cell_length_b 13.252756
_cell_length_c 28.518442
_cell_angle_alpha 90.000000
_cell_angle_beta 168.566865
_cell_angle_gamma 90.000000
_cell_volume 1718.396738
_symmetry_space_group_name_H-M "P 2/M"
_symmetry_group_IT_number 10
_symmetry_cell_setting 'monoclinic'
loop_
_space_group_symop_operation_xyz
x,y,z
-x,y,-z
-x,-y,-z
x,-y,z
loop_
_atom_site_type_symbol
_atom_site_label
_atom_site_fract_x
_atom_site_fract_y
_atom_site_fract_z
Si Si1 0.619218 0.757082 0.477713
Si Si2 0.715798 0.882634 0.712600
Si Si3 0.096691 0.882727 0.803459
Si Si4 0.226611 0.382425 0.318389
Si Si5 0.251277 0.881429 0.665152
Si Si6 0.711511 0.883844 0.411211
Si Si7 0.754063 0.240220 0.903661
O O1 0.394493 0.828775 0.327750
O O2 0.708721 0.661206 0.579247
O O3 0.457291 0.716394 0.303599
O O4 0.906169 0.821547 0.690941
O O5 0.500000 0.854940 0.500000
O O6 0.727973 0.000000 0.732884
O O7 0.039013 0.845779 0.954561
O O8 0.979030 0.866172 0.658018
O O9 0.081552 0.000000 0.806208
O O10 0.428161 0.839940 0.067307
O O11 0.500000 0.359250 0.500000
O O12 0.166092 0.500000 0.276009
O O13 0.934546 0.333179 0.066795
O O14 0.176974 0.854869 0.552697
O O15 0.000000 0.831461 0.500000
O O16 0.252574 0.000000 0.674754
O O17 0.436104 0.812854 0.205843
O O18 0.604116 0.000000 0.328170
#
# Coordination Sequence:
#
# PCOD8067474 Si02
#       7
#     4   4   4   4   4   4   4
#     4  11  20  34  52  70  94 126 163 200 242 285
#     4  11  21  31  47  71  99 130 161 196 236 278
#     4   9  18  30  46  70  99 128 157 194 236 277
#     4  11  23  38  50  66  92 122 165 212 250 285
#     4   9  17  28  44  65  93 133 170 192 218 267
#     4   9  18  30  46  70  99 128 157 194 236 277
#     4  11  20  34  52  70  94 126 163 200 242 285
#
# _framework density 16.294259
#
# number of rings (size 3 to 8) (size 9 to 14) (size 15 to 20)
#    0.000    1.857    2.857    2.143    0.000    3.429 
#    0.000    4.286    0.000    0.000    0.000    0.000 
#    0.000    9.143    0.000   25.143    0.000    1.143 
#
# Total GULP energy -347247.840016 kJ/mol
# GULP energy per Si atom -12401.708572 kJ/mol
# Density = 1.625717 g / cm^3
# Si number density = 16.294259 Si / 1000 Ang^3
#
#
#
# Elastic Constant Matrix: (Units=GPa)
#
#
# Indices 1 2 3 4 5 6 
#
# 1 103.3394 36.1862 34.4010 0.0000 2.1360 0.0000
# 2 36.1862 74.9700 25.4850 0.0000 -5.3896 0.0000
# 3 34.4010 25.4850 66.1906 0.0000 -2.3747 0.0000
# 4 0.0000 0.0000 0.0000 2.4608 0.0000 -2.6749
# 5 2.1360 -5.3896 -2.3747 0.0000 28.9254 0.0000
# 6 0.0000 0.0000 0.0000 -2.6749 0.0000 9.8578
#
#
#
# Elastic Compliance Matrix: (Units=1/GPa)
#
#
# Indices 1 2 3 4 5 6 
#
# 1 0.013067 -0.004756 -0.005041 0.000000 -0.002265 0.000000
# 2 -0.004756 0.017244 -0.004051 0.000000 0.003232 0.000000
# 3 -0.005041 -0.004051 0.019331 0.000000 0.001204 0.000000
# 4 0.000000 0.000000 0.000000 0.576376 0.000000 0.156397
# 5 -0.002265 0.003232 0.001204 0.000000 0.035440 0.000000
# 6 0.000000 0.000000 0.000000 0.156397 0.000000 0.143880
#
#
# Mechanical properties :
#
#
# Convention : Reuss Voigt Hill
#
# Bulk Modulus (GPa) = 45.57024 48.51604 47.04314
# Shear Modulus (GPa) = 5.94989 18.14400 12.04694
#
# Velocity S-wave (km/s) = 1.91297 3.34057 2.72202
# Velocity P-wave (km/s) = 5.73647 6.68721 6.23000
#
# Compressibility (1/GPa) = 0.02194414
#
# Stress axis : x y z
#
# Youngs Moduli (GPa) = 76.52584 57.99115 51.73004
#
# Poissons Ratio (x) = 0.27583 0.26079
# Poissons Ratio (y) = 0.36399 0.20958
# Poissons Ratio (z) = 0.38580 0.23494
#
# Static dielectric constant tensor:
#      x y z
#    x 3.209510 0.000000 -0.067060 
#    y 0.000000 2.741920 0.000000 
#    z -0.067060 0.000000 3.240750 
# 
# 
# High freq. dielectric constant tensor:
#      x y z
#    x 1.632910 0.000000 -0.013840 
#    y 0.000000 1.584760 0.000000 
#    z -0.013840 0.000000 1.633010 
# 
# From -- ./inp_files/85898.got.cif
#   From: 2010.06.25/outbox.cif.g09.slc.cpg/sg10_43_cif.got.tgz:85898.got - 2010.06.27 22:07:45.
