data_PCOD8067500
_publ_section_title
;
Structure prediction by ZEFSAII (Michael W. Deem and Ramdas Pophale) SiO2 
 PCOD8067500
Probable space group: P 2/M
;
_chemical_formula_sum "Si O2"
_cell_formula_units_Z 24
_cell_length_a 31.860848
_cell_length_b 7.825170
_cell_length_c 12.573553
_cell_angle_alpha 90.000000
_cell_angle_beta 24.809612
_cell_angle_gamma 90.000000
_cell_volume 1315.373619
_symmetry_space_group_name_H-M "P 2/M"
_symmetry_group_IT_number 10
_symmetry_cell_setting 'monoclinic'
loop_
_space_group_symop_operation_xyz
x,y,z
-x,y,-z
-x,-y,-z
x,-y,z
loop_
_atom_site_type_symbol
_atom_site_label
_atom_site_fract_x
_atom_site_fract_y
_atom_site_fract_z
Si Si1 0.381935 0.694133 0.488055
Si Si2 0.260553 0.195261 0.575906
Si Si3 0.715823 0.310554 0.851466
Si Si4 0.891921 0.500000 0.377777
Si Si5 0.593344 0.191655 0.944370
Si Si6 0.603103 0.701585 0.311041
Si Si7 0.119713 0.500000 0.848026
O O1 0.343340 0.500000 0.576032
O O2 0.308485 0.802585 0.582595
O O3 0.376724 0.778427 0.618119
O O4 0.495753 0.694015 0.184255
O O5 0.343633 0.260457 0.300772
O O6 0.168547 0.326638 0.780575
O O7 0.225552 0.000000 0.631301
O O8 0.665666 0.500000 0.953774
O O9 0.835505 0.330475 0.554971
O O10 0.664651 0.188561 0.883629
O O11 0.693121 0.245551 0.023667
O O12 0.877745 0.500000 0.284389
O O13 0.005942 0.500000 0.151859
O O14 0.556766 0.000000 0.005842
O O15 0.500000 0.776159 0.500000
O O16 0.593526 0.500000 0.348599
#
# Coordination Sequence:
#
# PCOD8067500 Si02
#       7
#     4   4   4   2   4   4   2
#     4  11  21  32  53  79 110 151 190 217 261 325
#     4  11  23  38  55  80 115 148 183 229 275 329
#     4   9  16  33  54  76 108 142 171 225 273 319
#     4   9  20  34  63  83 108 133 182 233 284 335
#     4  11  21  32  48  78 115 149 181 216 271 329
#     4   9  16  28  51  79 107 140 184 222 256 316
#     4  11  20  40  59  88 106 140 186 231 285 333
#
# _framework density 18.245764999999999
#
# number of rings (size 3 to 8) (size 9 to 14) (size 15 to 20)
#    0.500    1.333    4.167    1.500    1.167    2.000 
#    0.000    5.000    0.000    2.000    0.000    1.167 
#    0.000    0.000    0.000    0.000    0.000    0.000 
#
# Total GULP energy -297479.812835 kJ/mol
# GULP energy per Si atom -12394.992201 kJ/mol
# Density = 1.820424 g / cm^3
# Si number density = 18.245765 Si / 1000 Ang^3
#
#
#
# Elastic Constant Matrix: (Units=GPa)
#
#
# Indices 1 2 3 4 5 6 
#
# 1 123.4913 19.1859 57.9719 0.0000 5.3444 0.0000
# 2 19.1859 54.0621 22.0128 0.0000 -6.7202 0.0000
# 3 57.9719 22.0128 123.3839 0.0000 -3.5505 0.0000
# 4 0.0000 0.0000 0.0000 4.1913 0.0000 -3.1737
# 5 5.3444 -6.7202 -3.5505 0.0000 22.4552 0.0000
# 6 0.0000 0.0000 0.0000 -3.1737 0.0000 15.9516
#
#
#
# Elastic Compliance Matrix: (Units=1/GPa)
#
#
# Indices 1 2 3 4 5 6 
#
# 1 0.010909 -0.002420 -0.004811 0.000000 -0.004081 0.000000
# 2 -0.002420 0.021165 -0.002451 0.000000 0.006522 0.000000
# 3 -0.004811 -0.002451 0.010864 0.000000 0.002129 0.000000
# 4 0.000000 0.000000 0.000000 0.280906 0.000000 0.055888
# 5 -0.004081 0.006522 0.002129 0.000000 0.047793 0.000000
# 6 0.000000 0.000000 0.000000 0.055888 0.000000 0.073809
#
#
# Mechanical properties :
#
#
# Convention : Reuss Voigt Hill
#
# Bulk Modulus (GPa) = 42.42146 55.47537 48.94841
# Shear Modulus (GPa) = 10.57825 21.97074 16.27449
#
# Velocity S-wave (km/s) = 2.41044 3.47386 2.98981
# Velocity P-wave (km/s) = 5.57203 6.82355 6.22930
#
# Compressibility (1/GPa) = 0.02357298
#
# Stress axis : x y z
#
# Youngs Moduli (GPa) = 91.66811 47.24803 92.04716
#
# Poissons Ratio (x) = 0.11433 0.44287
# Poissons Ratio (y) = 0.22181 0.22565
# Poissons Ratio (z) = 0.44104 0.11582
#
# Static dielectric constant tensor:
#      x y z
#    x 3.412020 0.000000 0.225680 
#    y 0.000000 3.045210 0.000000 
#    z 0.225680 0.000000 3.264940 
# 
# 
# High freq. dielectric constant tensor:
#      x y z
#    x 1.704840 0.000000 0.020790 
#    y 0.000000 1.687290 0.000000 
#    z 0.020790 0.000000 1.678800 
# 
# From -- ./inp_files/57236.got.cif
#   From: 2010.06.25/outbox.cif.g09.slc.cpg/sg10_29_cif.got.tgz:57236.got - 2010.06.27 22:07:45.
