data_PCOD8067643
_publ_section_title
;
Structure prediction by ZEFSAII (Michael W. Deem and Ramdas Pophale) SiO2 
 PCOD8067643
Probable space group: P 2/M
;
_chemical_formula_sum "Si O2"
_cell_formula_units_Z 24
_cell_length_a 11.682893
_cell_length_b 11.230295
_cell_length_c 12.087432
_cell_angle_alpha 90.000000
_cell_angle_beta 133.857362
_cell_angle_gamma 90.000000
_cell_volume 1143.539530
_symmetry_space_group_name_H-M "P 2/M"
_symmetry_group_IT_number 10
_symmetry_cell_setting 'monoclinic'
loop_
_space_group_symop_operation_xyz
x,y,z
-x,y,-z
-x,-y,-z
x,-y,z
loop_
_atom_site_type_symbol
_atom_site_label
_atom_site_fract_x
_atom_site_fract_y
_atom_site_fract_z
Si Si1 0.400908 0.000000 0.042777
Si Si2 0.848941 0.000000 0.481238
Si Si3 0.500000 0.755556 0.500000
Si Si4 0.806569 0.636682 0.776890
Si Si5 0.942134 0.000000 0.170751
Si Si6 0.573156 0.362110 0.929573
Si Si7 0.567211 0.823111 0.304905
Si Si8 0.119645 0.256584 0.944037
O O1 0.430938 0.113188 0.140995
O O2 0.500000 0.000000 0.000000
O O3 0.224269 0.000000 0.875140
O O4 0.738616 0.117516 0.393064
O O5 0.000000 0.000000 0.500000
O O6 0.911147 0.000000 0.647807
O O7 0.653312 0.671240 0.603982
O O8 0.521939 0.835652 0.404312
O O9 0.798828 0.500000 0.807256
O O10 0.966038 0.661830 0.813702
O O11 0.809886 0.718099 0.887825
O O12 0.941086 0.879984 0.097638
O O13 0.599037 0.500000 0.917920
O O14 0.450126 0.311795 0.752829
O O15 0.500000 0.341996 0.000000
O O16 0.742854 0.294116 0.049196
#
# Coordination Sequence:
#
# PCOD8067643 Si02
#       8
#     2   2   2   4   2   4   4   4
#     4  11  21  39  69  93 121 173 224 270 324 390
#     4  11  27  43  67  95 134 183 223 268 336 414
#     4  12  23  41  64 100 142 179 217 278 344 402
#     4  11  23  41  66  94 132 183 228 273 331 411
#     4  12  22  39  60  96 126 170 214 272 334 390
#     4  11  23  41  70 102 133 173 230 294 338 392
#     4  11  24  43  65 100 136 176 222 278 335 410
#     4  11  23  40  66  96 133 168 230 286 331 398
#
# _framework density 20.987469000000001
#
# number of rings (size 3 to 8) (size 9 to 14) (size 15 to 20)
#    0.000    0.833    3.333    4.750    2.333    3.333 
#    0.000    6.667    0.000    0.500    0.000    0.000 
#    0.000    0.000    0.000    0.000    0.000    0.000 
#
# Total GULP energy -297487.771984 kJ/mol
# GULP energy per Si atom -12395.323833 kJ/mol
# Density = 2.093970 g / cm^3
# Si number density = 20.987469 Si / 1000 Ang^3
#
#
#
# Elastic Constant Matrix: (Units=GPa)
#
#
# Indices 1 2 3 4 5 6 
#
# 1 122.0100 39.7047 41.4731 0.0000 5.7364 0.0000
# 2 39.7047 125.8808 46.8209 0.0000 -5.9428 0.0000
# 3 41.4731 46.8209 115.5609 0.0000 14.7813 0.0000
# 4 0.0000 0.0000 0.0000 35.2573 0.0000 2.5131
# 5 5.7364 -5.9428 14.7813 0.0000 45.0834 0.0000
# 6 0.0000 0.0000 0.0000 2.5131 0.0000 22.6501
#
#
#
# Elastic Compliance Matrix: (Units=1/GPa)
#
#
# Indices 1 2 3 4 5 6 
#
# 1 0.009803 -0.002178 -0.002546 0.000000 -0.000700 0.000000
# 2 -0.002178 0.010135 -0.003686 0.000000 0.002821 0.000000
# 3 -0.002546 -0.003686 0.011566 0.000000 -0.003954 0.000000
# 4 0.000000 0.000000 0.000000 0.028589 0.000000 -0.003172
# 5 -0.000700 0.002821 -0.003954 0.000000 0.023938 0.000000
# 6 0.000000 0.000000 0.000000 -0.003172 0.000000 0.044502
#
#
# Mechanical properties :
#
#
# Convention : Reuss Voigt Hill
#
# Bulk Modulus (GPa) = 68.09770 68.82766 68.46268
# Shear Modulus (GPa) = 33.27818 36.29503 34.78661
#
# Velocity S-wave (km/s) = 3.98631 4.16308 4.07565
# Velocity P-wave (km/s) = 7.32836 7.48159 7.40537
#
# Compressibility (1/GPa) = 0.01468478
#
# Stress axis : x y z
#
# Youngs Moduli (GPa) = 102.00697 98.66761 86.45823
#
# Poissons Ratio (x) = 0.21490 0.22015
# Poissons Ratio (y) = 0.22217 0.31865
# Poissons Ratio (z) = 0.25974 0.36365
#
# Static dielectric constant tensor:
#      x y z
#    x 3.944370 0.000000 0.277580 
#    y 0.000000 4.034150 0.000000 
#    z 0.277580 0.000000 3.891540 
# 
# 
# High freq. dielectric constant tensor:
#      x y z
#    x 1.827390 0.000000 0.015780 
#    y 0.000000 1.828170 0.000000 
#    z 0.015780 0.000000 1.817910 
# 
# From -- ./inp_files/46830.got.cif
#   From: 2010.06.25/outbox.cif.g09.slc.cpg/sg10_24_cif.got.tgz:46830.got - 2010.06.27 22:07:45.
