data_PCOD8067173
_publ_section_title
;
Structure prediction by ZEFSAII (Michael W. Deem and Ramdas Pophale) SiO2 
 PCOD8067173
Probable space group: P 2/M
;
_chemical_formula_sum "Si O2"
_cell_formula_units_Z 20
_cell_length_a 8.818378
_cell_length_b 8.405839
_cell_length_c 25.465423
_cell_angle_alpha 90.000000
_cell_angle_beta 149.850917
_cell_angle_gamma 90.000000
_cell_volume 948.073664
_symmetry_space_group_name_H-M "P 2/M"
_symmetry_group_IT_number 10
_symmetry_cell_setting 'monoclinic'
loop_
_space_group_symop_operation_xyz
x,y,z
-x,y,-z
-x,-y,-z
x,-y,z
loop_
_atom_site_type_symbol
_atom_site_label
_atom_site_fract_x
_atom_site_fract_y
_atom_site_fract_z
Si Si1 0.654945 0.185893 0.492156
Si Si2 0.654716 0.683510 0.891883
Si Si3 0.296742 0.681532 0.289055
Si Si4 0.352216 0.183056 0.701209
Si Si5 0.350506 0.816598 0.900874
O O1 0.500000 0.236467 0.500000
O O2 0.508189 0.285452 0.401792
O O3 0.004052 0.232997 0.599904
O O4 0.608286 0.000000 0.466701
O O5 0.630877 0.500000 0.867849
O O6 0.496377 0.792405 0.801256
O O7 0.489800 0.707164 0.897661
O O8 0.000000 0.738349 0.000000
O O9 0.186848 0.500000 0.257539
O O10 0.482896 0.708724 0.291841
O O11 0.007975 0.795350 0.203674
O O12 0.386345 0.000000 0.694663
O O13 0.424513 0.000000 0.910905
O O14 0.500000 0.761722 0.000000
#
# Coordination Sequence:
#
# PCOD8067173 Si02
#       5
#     4   4   4   4   4
#     4  10  22  41  64  90 121 159 205 254 304 362
#     4  11  24  41  63  93 128 162 199 249 307 363
#     4  12  25  40  62  91 125 162 202 254 311 364
#     4  11  23  40  64  91 123 164 208 253 300 359
#     4  11  24  42  65  91 121 161 208 253 300 361
#
# _framework density 21.095407000000002
#
# number of rings (size 3 to 8) (size 9 to 14) (size 15 to 20)
#    0.000    1.000    0.000    6.600    0.000   12.400 
#    0.000    0.000    0.000    0.000    0.000    0.000 
#    0.000    0.000    0.000    0.000    0.000    0.000 
#
# Total GULP energy -248197.712067 kJ/mol
# GULP energy per Si atom -12409.885603 kJ/mol
# Density = 2.104739 g / cm^3
# Si number density = 21.095407 Si / 1000 Ang^3
#
#
#
# Elastic Constant Matrix: (Units=GPa)
#
#
# Indices 1 2 3 4 5 6 
#
# 1 138.8931 14.3692 53.9594 0.0000 2.5100 0.0000
# 2 14.3692 50.9932 23.9844 0.0000 -2.4975 0.0000
# 3 53.9594 23.9844 150.7513 0.0000 2.0602 0.0000
# 4 0.0000 0.0000 0.0000 35.4596 0.0000 -2.2088
# 5 2.5100 -2.4975 2.0602 0.0000 44.2883 0.0000
# 6 0.0000 0.0000 0.0000 -2.2088 0.0000 34.3153
#
#
#
# Elastic Compliance Matrix: (Units=1/GPa)
#
#
# Indices 1 2 3 4 5 6 
#
# 1 0.008420 -0.001057 -0.002840 0.000000 -0.000405 0.000000
# 2 -0.001057 0.021411 -0.003047 0.000000 0.001409 0.000000
# 3 -0.002840 -0.003047 0.008140 0.000000 -0.000390 0.000000
# 4 0.000000 0.000000 0.000000 0.028315 0.000000 0.001823
# 5 -0.000405 0.001409 -0.000390 0.000000 0.022700 0.000000
# 6 0.000000 0.000000 0.000000 0.001823 0.000000 0.029259
#
#
# Mechanical properties :
#
#
# Convention : Reuss Voigt Hill
#
# Bulk Modulus (GPa) = 41.52444 58.36264 49.94354
# Shear Modulus (GPa) = 35.67364 39.36762 37.52063
#
# Velocity S-wave (km/s) = 4.11671 4.32461 4.22194
# Velocity P-wave (km/s) = 6.50564 7.25689 6.89150
#
# Compressibility (1/GPa) = 0.02408221
#
# Stress axis : x y z
#
# Youngs Moduli (GPa) = 118.76807 46.70596 122.84712
#
# Poissons Ratio (x) = 0.04935 0.34890
# Poissons Ratio (y) = 0.12549 0.37437
# Poissons Ratio (z) = 0.33732 0.14234
#
# Static dielectric constant tensor:
#      x y z
#    x 3.851990 0.000000 0.056190 
#    y 0.000000 3.625500 0.000000 
#    z 0.056190 0.000000 3.887640 
# 
# 
# High freq. dielectric constant tensor:
#      x y z
#    x 1.841300 0.000000 0.000780 
#    y 0.000000 1.826030 0.000000 
#    z 0.000780 0.000000 1.842800 
# 
# From -- ./inp_files/22156.got.cif
#   From: 2010.06.25/outbox.cif.g09.slc.cpg/sg10_12_cif.got.tgz:22156.got - 2010.06.27 22:07:45.
