data_PCOD8067607
_publ_section_title
;
Structure prediction by ZEFSAII (Michael W. Deem and Ramdas Pophale) SiO2 
 PCOD8067607
Probable space group: P 2/M
;
_chemical_formula_sum "Si O2"
_cell_formula_units_Z 28
_cell_length_a 10.885787
_cell_length_b 14.547990
_cell_length_c 9.603969
_cell_angle_alpha 90.000000
_cell_angle_beta 63.515306
_cell_angle_gamma 90.000000
_cell_volume 1361.327394
_symmetry_space_group_name_H-M "P 2/M"
_symmetry_group_IT_number 10
_symmetry_cell_setting 'monoclinic'
loop_
_space_group_symop_operation_xyz
x,y,z
-x,y,-z
-x,-y,-z
x,-y,z
loop_
_atom_site_type_symbol
_atom_site_label
_atom_site_fract_x
_atom_site_fract_y
_atom_site_fract_z
Si Si1 0.249083 0.394620 0.817627
Si Si2 0.905721 0.268454 0.321180
Si Si3 0.802069 0.603600 0.576471
Si Si4 0.802806 0.315539 0.865626
Si Si5 0.524675 0.698303 0.641564
Si Si6 0.607763 0.174895 0.839687
Si Si7 0.155426 0.896828 0.472151
O O1 0.215959 0.500000 0.790327
O O2 0.175551 0.318872 0.760037
O O3 0.411009 0.377717 0.734083
O O4 0.198186 0.378585 0.999159
O O5 0.921711 0.336069 0.446066
O O6 0.824360 0.175577 0.411070
O O7 0.062494 0.249630 0.196712
O O8 0.823804 0.500000 0.518817
O O9 0.802728 0.611576 0.740872
O O10 0.665835 0.643071 0.572787
O O11 0.670517 0.251565 0.911276
O O12 0.500000 0.740311 0.500000
O O13 0.524114 0.781142 0.753233
O O14 0.733388 0.116391 0.709341
O O15 0.500000 0.121882 0.000000
O O16 0.000000 0.880993 0.500000
O O17 0.174014 0.000000 0.520700
#
# Coordination Sequence:
#
# PCOD8067607 Si02
#       7
#     4   4   4   4   4   4   4
#     4  12  25  38  59  90 132 180 216 254 311 375
#     4  12  22  40  62  88 125 165 211 265 316 375
#     4  11  22  34  58  86 118 162 211 264 307 367
#     4  11  23  39  57  89 127 163 215 259 310 377
#     4  11  21  37  58  85 123 167 217 261 306 372
#     4  11  21  40  67  94 125 168 206 264 326 373
#     4  11  22  42  73 101 124 157 211 270 330 391
#
# _framework density 20.568161
#
# number of rings (size 3 to 8) (size 9 to 14) (size 15 to 20)
#    0.000    0.714    7.143    2.143    0.000    4.286 
#    0.000    2.143    0.000    6.429    0.000    0.000 
#    0.000    0.000    0.000    0.000    0.000    0.000 
#
# Total GULP energy -346998.540935 kJ/mol
# GULP energy per Si atom -12392.805033 kJ/mol
# Density = 2.052135 g / cm^3
# Si number density = 20.568161 Si / 1000 Ang^3
#
#
#
# Elastic Constant Matrix: (Units=GPa)
#
#
# Indices 1 2 3 4 5 6 
#
# 1 89.6837 28.1658 51.0010 0.0000 0.6171 0.0000
# 2 28.1658 103.7352 38.3231 0.0000 22.9993 0.0000
# 3 51.0010 38.3231 127.1964 0.0000 2.1129 0.0000
# 4 0.0000 0.0000 0.0000 14.3890 0.0000 -0.9768
# 5 0.6171 22.9993 2.1129 0.0000 32.8032 0.0000
# 6 0.0000 0.0000 0.0000 -0.9768 0.0000 17.1671
#
#
#
# Elastic Compliance Matrix: (Units=1/GPa)
#
#
# Indices 1 2 3 4 5 6 
#
# 1 0.014914 -0.002512 -0.005253 0.000000 0.001819 0.000000
# 2 -0.002512 0.013422 -0.002884 0.000000 -0.009178 0.000000
# 3 -0.005253 -0.002884 0.010814 0.000000 0.001425 0.000000
# 4 0.000000 0.000000 0.000000 0.069767 0.000000 0.003970
# 5 0.001819 -0.009178 0.001425 0.000000 0.036794 0.000000
# 6 0.000000 0.000000 0.000000 0.003970 0.000000 0.058477
#
#
# Mechanical properties :
#
#
# Convention : Reuss Voigt Hill
#
# Bulk Modulus (GPa) = 56.02026 61.73280 58.87653
# Shear Modulus (GPa) = 21.60410 26.41355 24.00882
#
# Velocity S-wave (km/s) = 3.24445 3.58746 3.42026
# Velocity P-wave (km/s) = 6.42890 6.87304 6.65468
#
# Compressibility (1/GPa) = 0.01785068
#
# Stress axis : x y z
#
# Youngs Moduli (GPa) = 67.05036 74.50247 92.47571
#
# Poissons Ratio (x) = 0.18715 0.48581
# Poissons Ratio (y) = 0.16843 0.26674
# Poissons Ratio (z) = 0.35224 0.21489
#
# Static dielectric constant tensor:
#      x y z
#    x 3.845170 0.000000 -0.178240 
#    y 0.000000 3.431760 0.000000 
#    z -0.178240 0.000000 4.016030 
# 
# 
# High freq. dielectric constant tensor:
#      x y z
#    x 1.816240 0.000000 -0.012140 
#    y 0.000000 1.764400 0.000000 
#    z -0.012140 0.000000 1.819440 
# 
# From -- ./inp_files/25206.got.cif
#   From: 2010.06.25/outbox.cif.g09.slc.cpg/sg10_13_cif.got.tgz:25206.got - 2010.06.27 22:07:45.
