data_PCOD8067275
_publ_section_title
;
Structure prediction by ZEFSAII (Michael W. Deem and Ramdas Pophale) SiO2 
 PCOD8067275
Probable space group: P 2/M
;
_chemical_formula_sum "Si O2"
_cell_formula_units_Z 28
_cell_length_a 9.698764
_cell_length_b 12.155700
_cell_length_c 14.596754
_cell_angle_alpha 90.000000
_cell_angle_beta 57.336566
_cell_angle_gamma 90.000000
_cell_volume 1448.738998
_symmetry_space_group_name_H-M "P 2/M"
_symmetry_group_IT_number 10
_symmetry_cell_setting 'monoclinic'
loop_
_space_group_symop_operation_xyz
x,y,z
-x,y,-z
-x,-y,-z
x,-y,z
loop_
_atom_site_type_symbol
_atom_site_label
_atom_site_fract_x
_atom_site_fract_y
_atom_site_fract_z
Si Si1 0.677886 0.126773 0.398080
Si Si2 0.309368 0.500000 0.578708
Si Si3 0.121129 0.376130 0.105844
Si Si4 0.232293 0.317854 0.749885
Si Si5 0.597884 0.372879 0.127523
Si Si6 0.004098 0.873797 0.391629
Si Si7 0.812630 0.500000 0.582333
Si Si8 0.245785 0.685166 0.253172
O O1 0.500000 0.160404 0.500000
O O2 0.706101 0.195825 0.295794
O O3 0.823398 0.154406 0.417645
O O4 0.679751 0.000000 0.368769
O O5 0.500000 0.500000 0.500000
O O6 0.242757 0.392863 0.655190
O O7 0.257561 0.500000 0.493110
O O8 0.083390 0.500000 0.087400
O O9 0.173608 0.378389 0.192430
O O10 0.955510 0.307431 0.149955
O O11 0.262887 0.326237 0.990489
O O12 0.344218 0.368246 0.788584
O O13 0.553532 0.500000 0.119970
O O14 0.439835 0.295222 0.168187
O O15 0.000000 0.849868 0.500000
O O16 0.147017 0.799169 0.297265
O O17 0.050411 0.000000 0.353510
O O18 0.763020 0.610001 0.653562
O O19 0.000000 0.500000 0.500000
#
# Coordination Sequence:
#
# PCOD8067275 Si02
#       8
#     4   2   4   4   4   4   2   4
#     4  10  23  42  64  89 119 159 204 245 291 356
#     4  12  24  36  53  86 127 156 190 238 306 363
#     4  11  21  39  62  86 119 158 206 251 299 361
#     4  12  22  39  60  88 120 162 198 246 306 354
#     4  11  23  39  60  89 122 158 206 250 293 360
#     4  10  23  41  63  89 119 160 204 243 292 359
#     4  12  24  34  53  86 123 156 190 238 296 365
#     4  12  22  39  60  87 122 158 198 245 305 351
#
# _framework density 19.327152999999999
#
# number of rings (size 3 to 8) (size 9 to 14) (size 15 to 20)
#    0.000    0.857    4.286    3.429    4.000    2.286 
#    0.000    0.000    0.000    5.143    0.000    0.000 
#    0.000    0.000    0.000    0.000    0.000    0.000 
#
# Total GULP energy -347248.175436 kJ/mol
# GULP energy per Si atom -12401.720551 kJ/mol
# Density = 1.928316 g / cm^3
# Si number density = 19.327153 Si / 1000 Ang^3
#
#
#
# Elastic Constant Matrix: (Units=GPa)
#
#
# Indices 1 2 3 4 5 6 
#
# 1 117.9485 33.9538 42.0328 0.0000 -26.0607 0.0000
# 2 33.9538 83.2859 50.6716 0.0000 -17.8444 0.0000
# 3 42.0328 50.6716 98.8827 0.0000 -29.3820 0.0000
# 4 0.0000 0.0000 0.0000 22.4321 0.0000 -8.2573
# 5 -26.0607 -17.8444 -29.3820 0.0000 49.8923 0.0000
# 6 0.0000 0.0000 0.0000 -8.2573 0.0000 25.6673
#
#
#
# Elastic Compliance Matrix: (Units=1/GPa)
#
#
# Indices 1 2 3 4 5 6 
#
# 1 0.010719 -0.002157 -0.002444 0.000000 0.003388 0.000000
# 2 -0.002157 0.017938 -0.008125 0.000000 0.000504 0.000000
# 3 -0.002444 -0.008125 0.017058 0.000000 0.005863 0.000000
# 4 0.000000 0.000000 0.000000 0.050567 0.000000 0.016268
# 5 0.003388 0.000504 0.005863 0.000000 0.025446 0.000000
# 6 0.000000 0.000000 0.000000 0.016268 0.000000 0.044194
#
#
# Mechanical properties :
#
#
# Convention : Reuss Voigt Hill
#
# Bulk Modulus (GPa) = 49.35585 61.49261 55.42423
# Shear Modulus (GPa) = 25.23628 31.16227 28.19927
#
# Velocity S-wave (km/s) = 3.61743 4.01977 3.82389
# Velocity P-wave (km/s) = 6.56050 7.30962 6.94517
#
# Compressibility (1/GPa) = 0.02026102
#
# Stress axis : x y z
#
# Youngs Moduli (GPa) = 93.29395 55.74876 58.62383
#
# Poissons Ratio (x) = 0.12023 0.14330
# Poissons Ratio (y) = 0.20121 0.47635
# Poissons Ratio (z) = 0.22805 0.45299
#
# Static dielectric constant tensor:
#      x y z
#    x 3.704670 0.000000 -0.175490 
#    y 0.000000 3.360760 0.000000 
#    z -0.175490 0.000000 3.722550 
# 
# 
# High freq. dielectric constant tensor:
#      x y z
#    x 1.772980 0.000000 -0.009010 
#    y 0.000000 1.723560 0.000000 
#    z -0.009010 0.000000 1.756830 
# 
# From -- ./inp_files/61167.got.cif
#   From: 2010.06.25/outbox.cif.g09.slc.cpg/sg10_31_cif.got.tgz:61167.got - 2010.06.27 22:07:45.
