data_PCOD8067647
_publ_section_title
;
Structure prediction by ZEFSAII (Michael W. Deem and Ramdas Pophale) SiO2 
 PCOD8067647
Probable space group: P 2/M
;
_chemical_formula_sum "Si O2"
_cell_formula_units_Z 32
_cell_length_a 9.108586
_cell_length_b 22.228422
_cell_length_c 15.796865
_cell_angle_alpha 90.000000
_cell_angle_beta 151.331032
_cell_angle_gamma 90.000000
_cell_volume 1534.419106
_symmetry_space_group_name_H-M "P 2/M"
_symmetry_group_IT_number 10
_symmetry_cell_setting 'monoclinic'
loop_
_space_group_symop_operation_xyz
x,y,z
-x,y,-z
-x,-y,-z
x,-y,z
loop_
_atom_site_type_symbol
_atom_site_label
_atom_site_fract_x
_atom_site_fract_y
_atom_site_fract_z
Si Si1 0.359010 0.363423 0.689239
Si Si2 0.708039 0.360879 0.688369
Si Si3 0.346519 0.227382 0.701086
Si Si4 0.757173 0.159408 0.192031
Si Si5 0.308760 0.931173 0.488292
Si Si6 0.668762 0.571158 0.000251
Si Si7 0.832027 0.229795 0.706420
Si Si8 0.245338 0.145466 0.191771
O O1 0.510706 0.371412 0.673372
O O2 0.420993 0.296772 0.756713
O O3 0.000000 0.377494 0.500000
O O4 0.502505 0.407881 0.830435
O O5 0.500000 0.369391 0.500000
O O6 0.859327 0.294413 0.764906
O O7 0.979845 0.408468 0.822361
O O8 0.420037 0.182345 0.814923
O O9 0.564442 0.204994 0.736996
O O10 0.000000 0.219170 0.500000
O O11 0.998499 0.106774 0.331943
O O12 0.920303 0.221419 0.242752
O O13 0.500000 0.132943 0.000000
O O14 0.500000 0.921899 0.500000
O O15 0.528851 0.910077 0.676014
O O16 0.216612 0.000000 0.456650
O O17 0.664718 0.500000 0.997558
O O18 0.500000 0.595410 0.000000
O O19 0.500000 0.219604 0.500000
O O20 0.921183 0.172446 0.810106
O O21 0.000000 0.122418 0.000000
#
# Coordination Sequence:
#
# PCOD8067647 Si02
#       8
#     4   4   4   4   4   4   4   4
#     4  11  25  42  67 104 139 179 227 281 339 404
#     4  11  25  41  69 103 137 182 226 282 338 405
#     4  11  23  38  62  97 137 165 204 273 342 397
#     4  12  24  39  64  97 126 172 212 272 340 395
#     4  11  24  46  67  87 125 177 227 267 316 400
#     4  11  27  49  71  98 139 186 232 278 336 404
#     4  11  21  40  64  93 135 171 215 264 332 404
#     4  12  22  39  64  95 130 167 210 269 332 395
#
# _framework density 20.854797000000001
#
# number of rings (size 3 to 8) (size 9 to 14) (size 15 to 20)
#    0.000    0.750    5.000    1.875   10.500    2.000 
#    0.000    1.250    0.000    0.000    0.000    0.000 
#    0.000    0.000    0.000    0.000    0.000    0.000 
#
# Total GULP energy -396803.053095 kJ/mol
# GULP energy per Si atom -12400.095409 kJ/mol
# Density = 2.080733 g / cm^3
# Si number density = 20.854797 Si / 1000 Ang^3
#
#
#
# Elastic Constant Matrix: (Units=GPa)
#
#
# Indices 1 2 3 4 5 6 
#
# 1 99.4648 43.7066 40.4380 0.0000 -3.2844 0.0000
# 2 43.7066 102.8171 54.9373 0.0000 -4.8270 0.0000
# 3 40.4380 54.9373 140.3668 0.0000 -8.8616 0.0000
# 4 0.0000 0.0000 0.0000 19.6306 0.0000 -11.5694
# 5 -3.2844 -4.8270 -8.8616 0.0000 35.6213 0.0000
# 6 0.0000 0.0000 0.0000 -11.5694 0.0000 31.6943
#
#
#
# Elastic Compliance Matrix: (Units=1/GPa)
#
#
# Indices 1 2 3 4 5 6 
#
# 1 0.012779 -0.004380 -0.001961 0.000000 0.000097 0.000000
# 2 -0.004380 0.013807 -0.004114 0.000000 0.000444 0.000000
# 3 -0.001961 -0.004114 0.009400 0.000000 0.001600 0.000000
# 4 0.000000 0.000000 0.000000 0.064904 0.000000 0.023692
# 5 0.000097 0.000444 0.001600 0.000000 0.028540 0.000000
# 6 0.000000 0.000000 0.000000 0.023692 0.000000 0.040200
#
#
# Mechanical properties :
#
#
# Convention : Reuss Voigt Hill
#
# Bulk Modulus (GPa) = 66.32957 68.97916 67.65437
# Shear Modulus (GPa) = 25.56694 30.96036 28.26365
#
# Velocity S-wave (km/s) = 3.50516 3.85719 3.68538
# Velocity P-wave (km/s) = 6.94665 7.27907 7.11480
#
# Compressibility (1/GPa) = 0.01507623
#
# Stress axis : x y z
#
# Youngs Moduli (GPa) = 78.25419 72.42796 106.37887
#
# Poissons Ratio (x) = 0.31722 0.20863
# Poissons Ratio (y) = 0.34273 0.43764
# Poissons Ratio (z) = 0.15347 0.29797
#
# Static dielectric constant tensor:
#      x y z
#    x 3.904480 0.000000 -0.034330 
#    y 0.000000 3.668610 0.000000 
#    z -0.034330 0.000000 3.768610 
# 
# 
# High freq. dielectric constant tensor:
#      x y z
#    x 1.833220 0.000000 0.000090 
#    y 0.000000 1.798970 0.000000 
#    z 0.000090 0.000000 1.827040 
# 
# From -- ./inp_files/30596.got.cif
#   From: 2010.06.25/outbox.cif.g09.slc.cpg/sg10_16_cif.got.tgz:30596.got - 2010.06.27 22:07:45.
