data_PCOD8067716
_publ_section_title
;
Structure prediction by ZEFSAII (Michael W. Deem and Ramdas Pophale) SiO2 
 PCOD8067716
Probable space group: P 2/M
;
_chemical_formula_sum "Si O2"
_cell_formula_units_Z 24
_cell_length_a 10.305024
_cell_length_b 12.630231
_cell_length_c 17.454044
_cell_angle_alpha 90.000000
_cell_angle_beta 33.983232
_cell_angle_gamma 90.000000
_cell_volume 1269.783055
_symmetry_space_group_name_H-M "P 2/M"
_symmetry_group_IT_number 10
_symmetry_cell_setting 'monoclinic'
loop_
_space_group_symop_operation_xyz
x,y,z
-x,y,-z
-x,-y,-z
x,-y,z
loop_
_atom_site_type_symbol
_atom_site_label
_atom_site_fract_x
_atom_site_fract_y
_atom_site_fract_z
Si Si1 0.259657 0.881471 0.780882
Si Si2 0.470958 0.678997 0.924236
Si Si3 0.555689 0.691066 0.383797
Si Si4 0.704295 0.500000 0.565835
Si Si5 0.727114 0.880807 0.046691
Si Si6 0.998009 0.381889 0.086190
Si Si7 0.750192 0.500000 0.714568
O O1 0.458557 0.811257 0.641504
O O2 0.318091 0.880654 0.841344
O O3 0.281074 0.000000 0.737619
O O4 0.991418 0.841809 0.898883
O O5 0.457922 0.800360 0.900734
O O6 0.684502 0.609759 0.788511
O O7 0.500000 0.682002 0.000000
O O8 0.244987 0.617456 0.006036
O O9 0.500000 0.689007 0.500000
O O10 0.386593 0.607969 0.426876
O O11 0.821071 0.666028 0.233959
O O12 0.628117 0.500000 0.691399
O O13 0.976589 0.500000 0.424097
O O14 0.688056 0.000000 0.033797
O O15 0.909852 0.500000 0.114425
O O16 0.000000 0.325362 0.000000
#
# Coordination Sequence:
#
# PCOD8067716 Si02
#       7
#     4   4   4   2   4   4   2
#     4   9  18  35  61  89 115 148 197 251 298 351
#     4  12  24  35  60  88 124 154 192 250 304 349
#     4  12  24  35  60  88 124 154 192 250 304 349
#     4  11  25  41  57  81 119 163 201 235 285 361
#     4   9  18  35  61  89 115 148 197 251 298 351
#     4  11  22  38  63  89 115 156 208 249 293 358
#     4  11  25  41  57  81 119 163 201 235 285 361
#
# _framework density 18.900867000000002
#
# number of rings (size 3 to 8) (size 9 to 14) (size 15 to 20)
#    0.000    1.333    3.333    4.500    2.333    0.667 
#    0.000    0.000    0.000    1.000    0.000    4.667 
#    0.000    0.000    0.000    0.000    0.000    0.000 
#
# Total GULP energy -297432.380647 kJ/mol
# GULP energy per Si atom -12393.015860 kJ/mol
# Density = 1.885785 g / cm^3
# Si number density = 18.900867 Si / 1000 Ang^3
#
#
#
# Elastic Constant Matrix: (Units=GPa)
#
#
# Indices 1 2 3 4 5 6 
#
# 1 82.4670 41.6374 28.7476 0.0000 15.7459 0.0000
# 2 41.6374 136.1691 47.7936 0.0000 11.4160 0.0000
# 3 28.7476 47.7936 90.3699 0.0000 19.9553 0.0000
# 4 0.0000 0.0000 0.0000 -190.1861 0.0000 -169.7026
# 5 15.7459 11.4160 19.9553 0.0000 26.8300 0.0000
# 6 0.0000 0.0000 0.0000 -169.7026 0.0000 -129.8591
#
#
#
# Elastic Compliance Matrix: (Units=1/GPa)
#
#
# Indices 1 2 3 4 5 6 
#
# 1 0.015810 -0.003718 -0.001631 0.000000 -0.006483 0.000000
# 2 -0.003718 0.009895 -0.004310 0.000000 0.001178 0.000000
# 3 -0.001631 -0.004310 0.015851 0.000000 -0.008998 0.000000
# 4 0.000000 0.000000 0.000000 0.031661 0.000000 -0.041375
# 5 -0.006483 0.001178 -0.008998 0.000000 0.047268 0.000000
# 6 0.000000 0.000000 0.000000 -0.041375 0.000000 0.046369
#
#
# Mechanical properties :
#
#
# Convention : Reuss Voigt Hill
#
# Bulk Modulus (GPa) = 44.97169 60.59591 52.78380
# Shear Modulus (GPa) = 25.82838 -45.92123 -10.04642
#
# Velocity S-wave (km/s) = 3.70066 -4.93443 -2.30800
# Velocity P-wave (km/s) = 6.48883 0.57906 4.56999
#
# Compressibility (1/GPa) = 0.02223621
#
# Stress axis : x y z
#
# Youngs Moduli (GPa) = 63.25148 101.06226 63.08702
#
# Poissons Ratio (x) = 0.37577 0.10291
# Poissons Ratio (y) = 0.23518 0.27193
# Poissons Ratio (z) = 0.10318 0.43561
#
# Static dielectric constant tensor:
#      x y z
#    x 3.263120 0.000000 0.088670 
#    y 0.000000 4.022890 0.000000 
#    z 0.088670 0.000000 3.351000 
# 
# 
# High freq. dielectric constant tensor:
#      x y z
#    x 1.714880 0.000000 0.011480 
#    y 0.000000 1.761630 0.000000 
#    z 0.011480 0.000000 1.718590 
# 
# From -- ./inp_files/61715.got.cif
#   From: 2010.06.25/outbox.cif.g09.slc.cpg/sg10_31_cif.got.tgz:61715.got - 2010.06.27 22:07:45.
