data_PCOD8067802
_publ_section_title
;
Structure prediction by ZEFSAII (Michael W. Deem and Ramdas Pophale) SiO2 
 PCOD8067802
Probable space group: P 2/M
;
_chemical_formula_sum "Si O2"
_cell_formula_units_Z 24
_cell_length_a 17.767483
_cell_length_b 10.983643
_cell_length_c 11.522198
_cell_angle_alpha 90.000000
_cell_angle_beta 31.163565
_cell_angle_gamma 90.000000
_cell_volume 1163.600000
_symmetry_space_group_name_H-M "P 2/M"
_symmetry_group_IT_number 10
_symmetry_cell_setting 'monoclinic'
loop_
_space_group_symop_operation_xyz
x,y,z
-x,y,-z
-x,-y,-z
x,-y,z
loop_
_atom_site_type_symbol
_atom_site_label
_atom_site_fract_x
_atom_site_fract_y
_atom_site_fract_z
Si Si1 0.350906 0.360358 0.526783
Si Si2 0.175464 0.766179 0.579032
Si Si3 0.836411 0.000000 0.250983
Si Si4 0.868195 0.359836 0.978521
Si Si5 0.652941 0.236296 0.112320
Si Si6 0.655946 0.140737 0.853327
Si Si7 0.337927 0.000000 0.753887
O O1 0.398964 0.500000 0.473732
O O2 0.279111 0.338523 0.495318
O O3 0.492861 0.279206 0.361848
O O4 0.231377 0.324883 0.780356
O O5 0.221277 0.797262 0.387871
O O6 0.008662 0.725640 0.798742
O O7 0.205098 0.883436 0.618929
O O8 0.752889 0.000000 0.242013
O O9 0.000000 0.000000 0.000000
O O10 0.918105 0.500000 0.916625
O O11 0.774532 0.336618 0.985514
O O12 0.698891 0.115852 0.119682
O O13 0.655895 0.215701 0.971694
O O14 0.694772 0.000000 0.825383
O O15 0.500000 0.152914 0.000000
O O16 0.500000 0.000000 0.500000
#
# Coordination Sequence:
#
# PCOD8067802 Si02
#       7
#     4   4   2   4   4   4   2
#     4  11  23  42  68  97 133 176 220 268 325 393
#     4  12  23  43  67  98 130 173 223 264 330 392
#     4  12  24  39  63  99 135 164 207 273 329 393
#     4  11  25  44  67  97 137 175 213 274 337 383
#     4  12  23  43  66  99 132 173 223 266 331 392
#     4  11  24  45  68  95 133 179 216 269 329 394
#     4  12  24  35  63 101 131 162 207 277 333 379
#
# _framework density 20.625644999999999
#
# number of rings (size 3 to 8) (size 9 to 14) (size 15 to 20)
#    0.000    0.500    3.333    7.000    0.000    3.333 
#    0.000    5.833    0.000    0.000    0.000    0.000 
#    0.000    0.000    0.000    0.000    0.000    0.000 
#
# Total GULP energy -297749.883918 kJ/mol
# GULP energy per Si atom -12406.245163 kJ/mol
# Density = 2.057870 g / cm^3
# Si number density = 20.625645 Si / 1000 Ang^3
#
#
#
# Elastic Constant Matrix: (Units=GPa)
#
#
# Indices 1 2 3 4 5 6 
#
# 1 129.7452 46.9737 60.2530 0.0000 -2.3801 0.0000
# 2 46.9737 94.2860 60.6607 0.0000 6.1208 0.0000
# 3 60.2530 60.6607 110.4119 0.0000 -1.2939 0.0000
# 4 0.0000 0.0000 0.0000 16.9594 0.0000 -19.9341
# 5 -2.3801 6.1208 -1.2939 0.0000 43.6851 0.0000
# 6 0.0000 0.0000 0.0000 -19.9341 0.0000 -42.0898
#
#
#
# Elastic Compliance Matrix: (Units=1/GPa)
#
#
# Indices 1 2 3 4 5 6 
#
# 1 0.010699 -0.002525 -0.004442 0.000000 0.000805 0.000000
# 2 -0.002525 0.017293 -0.008156 0.000000 -0.002802 0.000000
# 3 -0.004442 -0.008156 0.015978 0.000000 0.001374 0.000000
# 4 0.000000 0.000000 0.000000 0.037878 0.000000 -0.017939
# 5 0.000805 -0.002802 0.001374 0.000000 0.023368 0.000000
# 6 0.000000 0.000000 0.000000 -0.017939 0.000000 -0.015262
#
#
# Mechanical properties :
#
#
# Convention : Reuss Voigt Hill
#
# Bulk Modulus (GPa) = 72.86099 74.46865 73.66482
# Shear Modulus (GPa) = 40.07217 14.81465 27.44341
#
# Velocity S-wave (km/s) = 4.41254 2.68295 3.65162
# Velocity P-wave (km/s) = 7.83344 6.76616 7.31928
#
# Compressibility (1/GPa) = 0.01372477
#
# Stress axis : x y z
#
# Youngs Moduli (GPa) = 93.46542 57.82683 62.58554
#
# Poissons Ratio (x) = 0.14599 0.27801
# Poissons Ratio (y) = 0.23597 0.51044
# Poissons Ratio (z) = 0.41519 0.47163
#
# Static dielectric constant tensor:
#      x y z
#    x 3.811560 0.000000 0.037880 
#    y 0.000000 4.242490 0.000000 
#    z 0.037880 0.000000 3.672110 
# 
# 
# High freq. dielectric constant tensor:
#      x y z
#    x 1.817500 0.000000 -0.006810 
#    y 0.000000 1.816660 0.000000 
#    z -0.006810 0.000000 1.802480 
# 
# From -- ./inp_files/53607.got.cif
#   From: 2010.06.25/outbox.cif.g09.slc.cpg/sg10_27_cif.got.tgz:53607.got - 2010.06.27 22:07:45.
