data_PCOD8067874
_publ_section_title
;
Structure prediction by ZEFSAII (Michael W. Deem and Ramdas Pophale) SiO2 
 PCOD8067874
Probable space group: P 2/M
;
_chemical_formula_sum "Si O2"
_cell_formula_units_Z 28
_cell_length_a 9.139112
_cell_length_b 9.780694
_cell_length_c 29.323559
_cell_angle_alpha 90.000000
_cell_angle_beta 38.816181
_cell_angle_gamma 90.000000
_cell_volume 1642.993649
_symmetry_space_group_name_H-M "P 2/M"
_symmetry_group_IT_number 10
_symmetry_cell_setting 'monoclinic'
loop_
_space_group_symop_operation_xyz
x,y,z
-x,y,-z
-x,-y,-z
x,-y,z
loop_
_atom_site_type_symbol
_atom_site_label
_atom_site_fract_x
_atom_site_fract_y
_atom_site_fract_z
Si Si1 0.740045 0.662751 0.069996
Si Si2 0.409975 0.337249 0.069996
Si Si3 0.113221 0.658037 0.786122
Si Si4 0.215110 0.846414 0.343964
Si Si5 0.434931 0.846414 0.656036
Si Si6 0.456170 0.658037 0.786122
Si Si7 0.159880 0.838004 0.500000
O O1 0.748105 0.500000 0.067016
O O2 0.576190 0.719800 0.069524
O O3 0.639432 0.713169 0.142646
O O4 0.000000 0.722281 0.000000
O O5 0.416818 0.500000 0.067015
O O6 0.147339 0.286832 0.142646
O O7 0.500000 0.277719 0.000000
O O8 0.115823 0.500000 0.770837
O O9 0.223645 0.743577 0.717688
O O10 0.252777 0.681597 0.798889
O O11 0.378354 0.843336 0.348659
O O12 0.312087 0.743577 0.282312
O O13 0.952006 0.798114 0.423455
O O14 0.208901 0.000000 0.325048
O O15 0.569282 0.798113 0.576545
O O16 0.334142 0.000000 0.674951
O O17 0.529990 0.500000 0.770837
O O18 0.000000 0.767894 0.500000
O O19 0.140533 0.000000 0.499999
#
# Coordination Sequence:
#
# PCOD8067874 Si02
#       7
#     4   4   4   4   4   4   4
#     4   9  16  26  41  60  81 106 135 165 197 235
#     4   9  16  26  41  60  81 106 135 165 197 235
#     4   9  16  25  38  59  85 107 129 163 204 239
#     4   8  13  22  37  56  79 108 138 165 196 236
#     4   8  13  22  37  56  79 108 138 165 196 236
#     4   9  16  25  38  59  85 107 129 163 204 239
#     4   7  10  18  33  53  76 103 136 168 194 227
#
# _framework density 17.042062000000001
#
# number of rings (size 3 to 8) (size 9 to 14) (size 15 to 20)
#    0.000    3.571    0.000    2.571    0.000    3.429 
#    0.000    0.714    0.000    6.000    0.000    1.000 
#    0.000    8.000    0.000    0.000    0.000    0.000 
#
# Total GULP energy -346886.819382 kJ/mol
# GULP energy per Si atom -12388.814978 kJ/mol
# Density = 1.700327 g / cm^3
# Si number density = 17.042062 Si / 1000 Ang^3
#
#
#
# Elastic Constant Matrix: (Units=GPa)
#
#
# Indices 1 2 3 4 5 6 
#
# 1 52.0301 19.3247 53.7987 0.0000 0.4681 0.0000
# 2 19.3247 44.5651 61.3283 0.0000 0.5409 0.0000
# 3 53.7987 61.3283 212.6473 0.0000 1.5998 0.0000
# 4 0.0000 0.0000 0.0000 17.9743 0.0000 0.1563
# 5 0.4681 0.5409 1.5998 0.0000 17.3092 0.0000
# 6 0.0000 0.0000 0.0000 0.1563 0.0000 5.8315
#
#
#
# Elastic Compliance Matrix: (Units=1/GPa)
#
#
# Indices 1 2 3 4 5 6 
#
# 1 0.026400 -0.003741 -0.005599 0.000000 -0.000079 0.000000
# 2 -0.003741 0.037736 -0.009936 0.000000 -0.000160 0.000000
# 3 -0.005599 -0.009936 0.008988 0.000000 -0.000369 0.000000
# 4 0.000000 0.000000 0.000000 0.055648 0.000000 -0.001492
# 5 -0.000079 -0.000160 -0.000369 0.000000 0.057814 0.000000
# 6 0.000000 0.000000 0.000000 -0.001492 0.000000 0.171522
#
#
# Mechanical properties :
#
#
# Convention : Reuss Voigt Hill
#
# Bulk Modulus (GPa) = 28.92583 64.23845 46.58214
# Shear Modulus (GPa) = 12.24943 19.87574 16.06258
#
# Velocity S-wave (km/s) = 2.68391 3.41878 3.07339
# Velocity P-wave (km/s) = 5.15893 7.30479 6.32355
#
# Compressibility (1/GPa) = 0.03457118
#
# Stress axis : x y z
#
# Youngs Moduli (GPa) = 37.87936 26.49982 111.26561
#
# Poissons Ratio (x) = 0.09913 0.62303
# Poissons Ratio (y) = 0.14170 1.10549
# Poissons Ratio (z) = 0.21210 0.26329
#
# Static dielectric constant tensor:
#      x y z
#    x 2.819070 0.000000 0.011680 
#    y 0.000000 2.806200 0.000000 
#    z 0.011680 0.000000 3.725900 
# 
# 
# High freq. dielectric constant tensor:
#      x y z
#    x 1.609690 0.000000 0.000950 
#    y 0.000000 1.604500 0.000000 
#    z 0.000950 0.000000 1.683300 
# 
# From -- ./inp_files/80217.got.cif
#   From: 2010.06.25/outbox.cif.g09.slc.cpg/sg10_41_cif.got.tgz:80217.got - 2010.06.27 22:07:45.
