data_PCOD8067761
_publ_section_title
;
Structure prediction by ZEFSAII (Michael W. Deem and Ramdas Pophale) SiO2 
 PCOD8067761
Probable space group: P 2/M
;
_chemical_formula_sum "Si O2"
_cell_formula_units_Z 32
_cell_length_a 14.871135
_cell_length_b 8.912495
_cell_length_c 30.544141
_cell_angle_alpha 90.000000
_cell_angle_beta 151.478190
_cell_angle_gamma 90.000000
_cell_volume 1933.029895
_symmetry_space_group_name_H-M "P 2/M"
_symmetry_group_IT_number 10
_symmetry_cell_setting 'monoclinic'
loop_
_space_group_symop_operation_xyz
x,y,z
-x,y,-z
-x,-y,-z
x,-y,z
loop_
_atom_site_type_symbol
_atom_site_label
_atom_site_fract_x
_atom_site_fract_y
_atom_site_fract_z
Si Si1 0.644420 0.822537 0.381474
Si Si2 0.246811 0.173183 0.431565
Si Si3 0.955910 0.173187 0.910736
Si Si4 0.698925 0.826820 0.883681
Si Si5 0.266847 0.324135 0.255616
Si Si6 0.065385 0.327676 0.431095
Si Si7 0.679617 0.826810 0.634439
Si Si8 0.662508 0.327677 0.296802
O O1 0.451781 0.756933 0.317263
O O2 0.818988 0.772022 0.485462
O O3 0.681572 0.772027 0.348055
O O4 0.627936 0.000000 0.375980
O O5 0.104725 0.275642 0.398331
O O6 0.232396 0.220098 0.374569
O O7 0.456507 0.200706 0.538947
O O8 0.191189 0.000000 0.413656
O O9 0.796154 0.200678 0.878603
O O10 0.911968 0.275740 0.850069
O O11 0.957098 0.000000 0.897018
O O12 0.158900 0.220107 0.016739
O O13 0.514465 0.724352 0.808068
O O14 0.641398 0.000000 0.863881
O O15 0.296895 0.500000 0.265633
O O16 0.226255 0.275735 0.288163
O O17 0.126256 0.500000 0.463159
O O18 0.845185 0.304802 0.345187
O O19 0.723117 0.000000 0.663052
O O20 0.636961 0.500000 0.300062
#
# Coordination Sequence:
#
# PCOD8067761 Si02
#       8
#     4   4   4   4   4   4   4   4
#     4  12  23  35  50  69  98 137 179 213 240 285
#     4   9  18  33  53  74  97 130 170 207 246 294
#     4   9  18  33  52  74 100 130 165 207 250 293
#     4   9  18  33  53  74  97 130 170 207 246 294
#     4  12  22  31  49  78 105 134 166 201 252 306
#     4  11  23  36  50  72 103 135 169 210 252 293
#     4   9  18  33  52  74 100 130 165 207 250 293
#     4  11  23  36  50  72 103 135 169 210 252 293
#
# _framework density 16.554321999999999
#
# number of rings (size 3 to 8) (size 9 to 14) (size 15 to 20)
#    0.000    1.750    2.500    4.875    0.000    4.500 
#    0.000    2.500    0.000    0.000    0.000    0.875 
#    0.000    7.000    0.000    0.000    0.000    0.000 
#
# Total GULP energy -396890.862945 kJ/mol
# GULP energy per Si atom -12402.839467 kJ/mol
# Density = 1.651664 g / cm^3
# Si number density = 16.554322 Si / 1000 Ang^3
#
#
#
# Elastic Constant Matrix: (Units=GPa)
#
#
# Indices 1 2 3 4 5 6 
#
# 1 90.4223 55.1512 52.0338 0.0000 -8.7959 0.0000
# 2 55.1512 116.9030 59.2357 0.0000 -7.3794 0.0000
# 3 52.0338 59.2357 100.5481 0.0000 -9.4997 0.0000
# 4 0.0000 0.0000 0.0000 21.7486 0.0000 3.0229
# 5 -8.7959 -7.3794 -9.4997 0.0000 22.9006 0.0000
# 6 0.0000 0.0000 0.0000 3.0229 0.0000 23.4199
#
#
#
# Elastic Compliance Matrix: (Units=1/GPa)
#
#
# Indices 1 2 3 4 5 6 
#
# 1 0.017964 -0.005307 -0.005911 0.000000 0.002738 0.000000
# 2 -0.005307 0.013783 -0.005357 0.000000 0.000181 0.000000
# 3 -0.005911 -0.005357 0.016427 0.000000 0.002818 0.000000
# 4 0.000000 0.000000 0.000000 0.046820 0.000000 -0.006043
# 5 0.002738 0.000181 0.002818 0.000000 0.045946 0.000000
# 6 0.000000 0.000000 0.000000 -0.006043 0.000000 0.043479
#
#
# Mechanical properties :
#
#
# Convention : Reuss Voigt Hill
#
# Bulk Modulus (GPa) = 66.55939 71.19054 68.87497
# Shear Modulus (GPa) = 22.46418 23.04399 22.75408
#
# Velocity S-wave (km/s) = 3.68774 3.73503 3.71146
# Velocity P-wave (km/s) = 7.64372 7.85482 7.74999
#
# Compressibility (1/GPa) = 0.01502418
#
# Stress axis : x y z
#
# Youngs Moduli (GPa) = 55.66708 72.55098 60.87633
#
# Poissons Ratio (x) = 0.38500 0.35987
# Poissons Ratio (y) = 0.29541 0.32611
# Poissons Ratio (z) = 0.32907 0.38865
#
# Static dielectric constant tensor:
#      x y z
#    x 3.043110 0.000000 -0.133930 
#    y 0.000000 3.165130 0.000000 
#    z -0.133930 0.000000 3.117200 
# 
# 
# High freq. dielectric constant tensor:
#      x y z
#    x 1.618440 0.000000 -0.013200 
#    y 0.000000 1.643960 0.000000 
#    z -0.013200 0.000000 1.625750 
# 
# From -- ./inp_files/66046.got.cif
#   From: 2010.06.25/outbox.cif.g09.slc.cpg/sg10_34_cif.got.tgz:66046.got - 2010.06.27 22:07:45.
