data_PCOD8067759
_publ_section_title
;
Structure prediction by ZEFSAII (Michael W. Deem and Ramdas Pophale) SiO2 
 PCOD8067759
Probable space group: P 2/M
;
_chemical_formula_sum "Si O2"
_cell_formula_units_Z 32
_cell_length_a 20.205375
_cell_length_b 9.194062
_cell_length_c 12.115198
_cell_angle_alpha 90.000000
_cell_angle_beta 126.238517
_cell_angle_gamma 90.000000
_cell_volume 1815.278260
_symmetry_space_group_name_H-M "P 2/M"
_symmetry_group_IT_number 10
_symmetry_cell_setting 'monoclinic'
loop_
_space_group_symop_operation_xyz
x,y,z
-x,y,-z
-x,-y,-z
x,-y,z
loop_
_atom_site_type_symbol
_atom_site_label
_atom_site_fract_x
_atom_site_fract_y
_atom_site_fract_z
Si Si1 0.380211 0.827494 0.801001
Si Si2 0.811377 0.831402 0.832728
Si Si3 0.787800 0.670163 0.382490
Si Si4 0.956873 0.834938 0.146471
Si Si5 0.300807 0.172731 0.090005
Si Si6 0.551889 0.828088 0.897804
Si Si7 0.123240 0.331158 0.303429
Si Si8 0.166615 0.831029 0.786590
O O1 0.299892 0.744125 0.682623
O O2 0.456870 0.778183 0.797822
O O3 0.364237 0.000000 0.779170
O O4 0.403331 0.774844 0.946788
O O5 0.731939 0.772016 0.823535
O O6 0.816226 0.742301 0.725109
O O7 0.801193 0.000000 0.792363
O O8 0.891546 0.805762 0.986008
O O9 0.774681 0.500000 0.349774
O O10 0.843464 0.702937 0.542788
O O11 0.836657 0.738026 0.327867
O O12 0.916858 0.807282 0.226997
O O13 0.031680 0.727864 0.201539
O O14 0.989349 0.000000 0.170711
O O15 0.394206 0.225002 0.155032
O O16 0.292505 0.000000 0.083711
O O17 0.242650 0.227981 0.933855
O O18 0.551918 0.000000 0.903663
O O19 0.121217 0.500000 0.274931
O O20 0.178589 0.000000 0.767317
#
# Coordination Sequence:
#
# PCOD8067759 Si02
#       8
#     4   4   4   4   4   4   4   4
#     4   9  16  28  50  76 100 130 162 194 238 294
#     4   9  18  33  55  78  97 121 159 208 251 287
#     4  11  23  35  46  66 102 140 170 201 236 283
#     4   9  19  35  56  80  99 117 155 211 258 294
#     4   8  13  26  51  79 103 122 148 197 252 292
#     4   8  13  24  49  81 104 122 153 196 245 295
#     4  11  24  37  48  66  97 138 173 202 242 288
#     4   9  17  32  54  76  98 127 159 195 247 301
#
# _framework density 17.628152
#
# number of rings (size 3 to 8) (size 9 to 14) (size 15 to 20)
#    0.000    2.750    1.250    3.375    0.000    5.000 
#    0.000    5.625    0.000    0.750    0.000    5.250 
#    0.000    0.000    0.000    0.000    0.000    0.000 
#
# Total GULP energy -396612.084533 kJ/mol
# GULP energy per Si atom -12394.127642 kJ/mol
# Density = 1.758803 g / cm^3
# Si number density = 17.628152 Si / 1000 Ang^3
#
#
#
# Elastic Constant Matrix: (Units=GPa)
#
#
# Indices 1 2 3 4 5 6 
#
# 1 116.0995 31.4427 18.1631 0.0000 -17.3170 0.0000
# 2 31.4427 56.2038 26.0186 0.0000 -12.5863 0.0000
# 3 18.1631 26.0186 27.6298 0.0000 -15.7686 0.0000
# 4 0.0000 0.0000 0.0000 3.3153 0.0000 5.1999
# 5 -17.3170 -12.5863 -15.7686 0.0000 25.7238 0.0000
# 6 0.0000 0.0000 0.0000 5.1999 0.0000 2.8450
#
#
#
# Elastic Compliance Matrix: (Units=1/GPa)
#
#
# Indices 1 2 3 4 5 6 
#
# 1 0.010657 -0.005186 0.000807 0.000000 0.005131 0.000000
# 2 -0.005186 0.034375 -0.032845 0.000000 -0.006806 0.000000
# 3 0.000807 -0.032845 0.088795 0.000000 0.038903 0.000000
# 4 0.000000 0.000000 0.000000 -0.161584 0.000000 0.295335
# 5 0.005131 -0.006806 0.038903 0.000000 0.062846 0.000000
# 6 0.000000 0.000000 0.000000 0.295335 0.000000 -0.188301
#
#
# Mechanical properties :
#
#
# Convention : Reuss Voigt Hill
#
# Bulk Modulus (GPa) = 16.84165 39.02022 27.93094
# Shear Modulus (GPa) = -84.79037 14.66407 -35.06315
#
# Velocity S-wave (km/s) = -6.94290 2.88732 -4.46471
# Velocity P-wave (km/s) = 7.39576 5.77050 3.27097
#
# Compressibility (1/GPa) = 0.05937659
#
# Stress axis : x y z
#
# Youngs Moduli (GPa) = 93.83474 29.09102 11.26189
#
# Poissons Ratio (x) = 0.15088 -0.00908
# Poissons Ratio (y) = 0.48666 0.36990
# Poissons Ratio (z) = -0.07568 0.95551
#
# Static dielectric constant tensor:
#      x y z
#    x 3.744390 0.000000 -0.036690 
#    y 0.000000 2.973120 0.000000 
#    z -0.036690 0.000000 2.969840 
# 
# 
# High freq. dielectric constant tensor:
#      x y z
#    x 1.704490 0.000000 -0.002880 
#    y 0.000000 1.650430 0.000000 
#    z -0.002880 0.000000 1.645900 
# 
# From -- ./inp_files/54827.got.cif
#   From: 2010.06.25/outbox.cif.g09.slc.cpg/sg10_28_cif.got.tgz:54827.got - 2010.06.27 22:07:45.
