data_PCOD8067990
_publ_section_title
;
Structure prediction by ZEFSAII (Michael W. Deem and Ramdas Pophale) SiO2 
 PCOD8067990
Probable space group: P 2/M
;
_chemical_formula_sum "Si O2"
_cell_formula_units_Z 28
_cell_length_a 19.347655
_cell_length_b 7.930784
_cell_length_c 22.519556
_cell_angle_alpha 90.000000
_cell_angle_beta 154.064344
_cell_angle_gamma 90.000000
_cell_volume 1511.279676
_symmetry_space_group_name_H-M "P 2/M"
_symmetry_group_IT_number 10
_symmetry_cell_setting 'monoclinic'
loop_
_space_group_symop_operation_xyz
x,y,z
-x,y,-z
-x,-y,-z
x,-y,z
loop_
_atom_site_type_symbol
_atom_site_label
_atom_site_fract_x
_atom_site_fract_y
_atom_site_fract_z
Si Si1 0.811854 0.189729 0.631736
Si Si2 0.244893 0.698982 0.806934
Si Si3 0.740279 0.500000 0.648472
Si Si4 0.611612 0.500000 0.674607
Si Si5 0.490052 0.693407 0.903205
Si Si6 0.460121 0.813750 0.310685
Si Si7 0.410002 0.804714 0.714549
Si Si8 0.909675 0.193887 0.582876
O O1 0.831626 0.329122 0.698896
O O2 0.632148 0.182311 0.472048
O O3 0.916034 0.257738 0.656225
O O4 0.862952 0.000000 0.692805
O O5 0.216136 0.500000 0.786421
O O6 0.332633 0.763641 0.814624
O O7 0.073142 0.782582 0.675371
O O8 0.348882 0.767035 0.943300
O O9 0.734087 0.500000 0.714889
O O10 0.566721 0.500000 0.486396
O O11 0.643931 0.668129 0.738638
O O12 0.493896 0.500000 0.924052
O O13 0.486965 0.715948 0.830678
O O14 0.474274 0.772691 0.251632
O O15 0.382192 0.000000 0.259595
O O16 0.236425 0.723908 0.566804
O O17 0.396671 0.000000 0.720373
O O18 0.861970 0.000000 0.551506
#
# Coordination Sequence:
#
# PCOD8067990 Si02
#       8
#     4   4   2   2   4   4   4   4
#     4   8  15  27  40  59  90 121 151 192 234 272
#     4   9  19  34  48  65  92 123 155 194 239 284
#     4   9  16  24  38  62  88 121 160 186 221 281
#     4   9  16  24  38  62  88 121 160 186 221 281
#     4   9  19  34  48  65  92 123 155 194 239 284
#     4   8  15  27  40  59  90 121 151 192 234 272
#     4   9  18  31  47  68  92 121 158 196 235 280
#     4   9  18  31  47  68  92 121 158 196 235 280
#
# _framework density 18.527346000000001
#
# number of rings (size 3 to 8) (size 9 to 14) (size 15 to 20)
#    0.000    3.286    0.000    2.571    2.000    2.857 
#    0.000    7.143    0.000    0.000    0.000    0.000 
#    0.000    2.286    0.000    6.286    0.000    6.286 
#
# Total GULP energy -346922.100648 kJ/mol
# GULP energy per Si atom -12390.075023 kJ/mol
# Density = 1.848518 g / cm^3
# Si number density = 18.527346 Si / 1000 Ang^3
#
#
#
# Elastic Constant Matrix: (Units=GPa)
#
#
# Indices 1 2 3 4 5 6 
#
# 1 89.7426 37.9131 18.8194 0.0000 -28.8878 0.0000
# 2 37.9131 74.1238 9.7624 0.0000 -11.8327 0.0000
# 3 18.8194 9.7624 32.5825 0.0000 -15.3818 0.0000
# 4 0.0000 0.0000 0.0000 8.0025 0.0000 1.4908
# 5 -28.8878 -11.8327 -15.3818 0.0000 16.0033 0.0000
# 6 0.0000 0.0000 0.0000 1.4908 0.0000 25.9309
#
#
#
# Elastic Compliance Matrix: (Units=1/GPa)
#
#
# Indices 1 2 3 4 5 6 
#
# 1 0.034130 -0.008238 0.016410 0.000000 0.071290 0.000000
# 2 -0.008238 0.017319 -0.002573 0.000000 -0.004538 0.000000
# 3 0.016410 -0.002573 0.064202 0.000000 0.089428 0.000000
# 4 0.000000 0.000000 0.000000 0.126315 0.000000 -0.007262
# 5 0.071290 -0.004538 0.089428 0.000000 0.273772 0.000000
# 6 0.000000 0.000000 0.000000 -0.007262 0.000000 0.038982
#
#
# Mechanical properties :
#
#
# Convention : Reuss Voigt Hill
#
# Bulk Modulus (GPa) = 7.88343 36.60430 22.24387
# Shear Modulus (GPa) = 8.53529 18.65094 13.59311
#
# Velocity S-wave (km/s) = 2.14869 3.17625 2.71159
# Velocity P-wave (km/s) = 3.22801 5.76639 4.67286
#
# Compressibility (1/GPa) = 0.12684826
#
# Stress axis : x y z
#
# Youngs Moduli (GPa) = 29.29991 57.74032 15.57593
#
# Poissons Ratio (x) = 0.47565 -0.25561
# Poissons Ratio (y) = 0.24137 0.04008
# Poissons Ratio (z) = -0.48082 0.14859
#
# Static dielectric constant tensor:
#      x y z
#    x 3.429570 0.000000 -0.080020 
#    y 0.000000 3.491440 0.000000 
#    z -0.080020 0.000000 2.892580 
# 
# 
# High freq. dielectric constant tensor:
#      x y z
#    x 1.714780 0.000000 -0.009410 
#    y 0.000000 1.718060 0.000000 
#    z -0.009410 0.000000 1.659720 
# 
# From -- ./inp_files/85678.got.cif
#   From: 2010.06.25/outbox.cif.g09.slc.cpg/sg10_43_cif.got.tgz:85678.got - 2010.06.27 22:07:45.
