data_PCOD8067617
_publ_section_title
;
Structure prediction by ZEFSAII (Michael W. Deem and Ramdas Pophale) SiO2 
 PCOD8067617
Probable space group: P 2/M
;
_chemical_formula_sum "Si O2"
_cell_formula_units_Z 28
_cell_length_a 10.289068
_cell_length_b 8.408150
_cell_length_c 30.294188
_cell_angle_alpha 90.000000
_cell_angle_beta 146.598071
_cell_angle_gamma 90.000000
_cell_volume 1442.779979
_symmetry_space_group_name_H-M "P 2/M"
_symmetry_group_IT_number 10
_symmetry_cell_setting 'monoclinic'
loop_
_space_group_symop_operation_xyz
x,y,z
-x,y,-z
-x,-y,-z
x,-y,z
loop_
_atom_site_type_symbol
_atom_site_label
_atom_site_fract_x
_atom_site_fract_y
_atom_site_fract_z
Si Si1 0.365718 0.688205 0.584283
Si Si2 0.375261 0.815495 0.009619
Si Si3 0.841159 0.817165 0.742508
Si Si4 0.912120 0.311504 0.408529
Si Si5 0.294447 0.314500 0.825722
Si Si6 0.400008 0.689010 0.757850
Si Si7 0.122521 0.314770 0.151773
O O1 0.407626 0.500000 0.594935
O O2 0.614621 0.776231 0.648022
O O3 0.257586 0.745981 0.600161
O O4 0.182995 0.743101 0.493863
O O5 0.480087 0.713313 0.079335
O O6 0.427186 0.000000 0.033005
O O7 0.500000 0.758132 0.000000
O O8 0.097515 0.785962 0.927997
O O9 0.836584 0.708830 0.784680
O O10 0.072922 0.784131 0.779938
O O11 0.841293 0.000000 0.757064
O O12 0.907625 0.500000 0.407799
O O13 0.810164 0.244764 0.333411
O O14 0.230383 0.500000 0.806355
O O15 0.357737 0.248338 0.795129
O O16 0.399814 0.500000 0.756456
O O17 0.651710 0.749390 0.811163
O O18 0.075117 0.500000 0.129550
#
# Coordination Sequence:
#
# PCOD8067617 Si02
#       7
#     4   4   4   4   4   4   4
#     4   9  16  30  58  87 111 145 190 235 280 327
#     4  11  23  39  58  84 119 149 183 231 283 334
#     4  12  23  36  54  83 119 152 189 233 280 334
#     4   8  14  29  56  88 115 141 182 239 285 322
#     4  11  23  39  61  84 111 150 192 232 282 336
#     4   9  19  36  59  89 117 142 184 241 286 327
#     4  11  21  37  64  88 111 144 190 237 280 333
#
# _framework density 19.406977000000001
#
# number of rings (size 3 to 8) (size 9 to 14) (size 15 to 20)
#    0.000    1.857    2.857    3.429    0.000    1.143 
#    0.000    7.857    0.000    4.286    0.000    0.000 
#    0.000    0.000    0.000    0.000    0.000    0.000 
#
# Total GULP energy -347219.260312 kJ/mol
# GULP energy per Si atom -12400.687868 kJ/mol
# Density = 1.936281 g / cm^3
# Si number density = 19.406977 Si / 1000 Ang^3
#
#
#
# Elastic Constant Matrix: (Units=GPa)
#
#
# Indices 1 2 3 4 5 6 
#
# 1 113.4079 11.9549 62.7870 0.0000 -6.1237 0.0000
# 2 11.9549 39.7669 13.2868 0.0000 -0.0647 0.0000
# 3 62.7870 13.2868 157.3559 0.0000 2.3020 0.0000
# 4 0.0000 0.0000 0.0000 11.2254 0.0000 2.1753
# 5 -6.1237 -0.0647 2.3020 0.0000 35.3181 0.0000
# 6 0.0000 0.0000 0.0000 2.1753 0.0000 8.3812
#
#
#
# Elastic Compliance Matrix: (Units=1/GPa)
#
#
# Indices 1 2 3 4 5 6 
#
# 1 0.011652 -0.001991 -0.004515 0.000000 0.002311 0.000000
# 2 -0.001991 0.026218 -0.001417 0.000000 -0.000205 0.000000
# 3 -0.004515 -0.001417 0.008296 0.000000 -0.001326 0.000000
# 4 0.000000 0.000000 0.000000 0.093801 0.000000 -0.024345
# 5 0.002311 -0.000205 -0.001326 0.000000 0.028801 0.000000
# 6 0.000000 0.000000 0.000000 -0.024345 0.000000 0.125634
#
#
# Mechanical properties :
#
#
# Convention : Reuss Voigt Hill
#
# Bulk Modulus (GPa) = 32.98014 54.06534 43.52274
# Shear Modulus (GPa) = 15.60777 25.81840 20.71309
#
# Velocity S-wave (km/s) = 2.83898 3.65138 3.27050
# Velocity P-wave (km/s) = 5.27041 6.75988 6.06107
#
# Compressibility (1/GPa) = 0.03032128
#
# Stress axis : x y z
#
# Youngs Moduli (GPa) = 85.82183 38.14186 120.54602
#
# Poissons Ratio (x) = 0.07592 0.54427
# Poissons Ratio (y) = 0.17083 0.17076
# Poissons Ratio (z) = 0.38749 0.05403
#
# Static dielectric constant tensor:
#      x y z
#    x 3.526330 0.000000 -0.038990 
#    y 0.000000 3.174450 0.000000 
#    z -0.038990 0.000000 3.900000 
# 
# 
# High freq. dielectric constant tensor:
#      x y z
#    x 1.734510 0.000000 0.009020 
#    y 0.000000 1.729910 0.000000 
#    z 0.009020 0.000000 1.773720 
# 
# From -- ./inp_files/92082.got.cif
#   From: 2010.06.25/outbox.cif.g09.slc.cpg/sg10_47_cif.got.tgz:92082.got - 2010.06.27 22:07:45.
