data_PCOD8067371
_publ_section_title
;
Structure prediction by ZEFSAII (Michael W. Deem and Ramdas Pophale) SiO2 
 PCOD8067371
Probable space group: P 2/M
;
_chemical_formula_sum "Si O2"
_cell_formula_units_Z 24
_cell_length_a 11.129771
_cell_length_b 11.362961
_cell_length_c 10.152365
_cell_angle_alpha 90.000000
_cell_angle_beta 88.158463
_cell_angle_gamma 90.000000
_cell_volume 1283.277584
_symmetry_space_group_name_H-M "P 2/M"
_symmetry_group_IT_number 10
_symmetry_cell_setting 'monoclinic'
loop_
_space_group_symop_operation_xyz
x,y,z
-x,y,-z
-x,-y,-z
x,-y,z
loop_
_atom_site_type_symbol
_atom_site_label
_atom_site_fract_x
_atom_site_fract_y
_atom_site_fract_z
Si Si1 0.253213 0.138594 0.259969
Si Si2 0.498308 0.751872 0.659253
Si Si3 0.864840 0.860893 0.001828
Si Si4 0.535971 0.500000 0.324434
Si Si5 0.748244 0.863155 0.279354
Si Si6 0.715027 0.500000 0.518792
Si Si7 0.137322 0.269298 0.486186
O O1 0.378913 0.194256 0.295490
O O2 0.153982 0.172126 0.372211
O O3 0.269154 0.000000 0.256277
O O4 0.208052 0.188677 0.121371
O O5 0.500000 0.729732 0.500000
O O6 0.476710 0.629114 0.742233
O O7 0.393698 0.842895 0.699639
O O8 0.791395 0.824015 0.133504
O O9 0.874210 0.000000 0.987690
O O10 0.000000 0.807530 0.000000
O O11 0.676291 0.500000 0.367355
O O12 0.418410 0.500000 0.420432
O O13 0.821430 0.783456 0.377373
O O14 0.776294 0.000000 0.304738
O O15 0.787722 0.384508 0.556729
O O16 0.000000 0.307435 0.500000
#
# Coordination Sequence:
#
# PCOD8067371 Si02
#       7
#     4   4   4   2   4   2   4
#     4  11  22  36  58  87 119 153 188 234 292 344
#     4  12  20  35  59  88 116 147 191 245 293 334
#     4   9  20  39  57  77 116 163 196 223 271 348
#     4  11  16  36  62  75 110 153 190 233 288 347
#     4  11  22  36  58  87 119 153 188 234 292 344
#     4  11  19  38  56  84 109 149 196 236 292 333
#     4  12  23  35  57  87 116 150 196 242 282 339
#
# _framework density 18.702110000000001
#
# number of rings (size 3 to 8) (size 9 to 14) (size 15 to 20)
#    0.000    1.000    6.667    2.250    0.000    4.000 
#    0.000    2.500    0.000    5.000    0.000    7.000 
#    0.000    0.000    0.000    0.000    0.000    0.000 
#
# Total GULP energy -297395.874885 kJ/mol
# GULP energy per Si atom -12391.494787 kJ/mol
# Density = 1.865954 g / cm^3
# Si number density = 18.702110 Si / 1000 Ang^3
#
#
#
# Elastic Constant Matrix: (Units=GPa)
#
#
# Indices 1 2 3 4 5 6 
#
# 1 112.0622 18.5863 36.6599 0.0000 8.5825 0.0000
# 2 18.5863 75.2507 19.3972 0.0000 13.2445 0.0000
# 3 36.6599 19.3972 106.7058 0.0000 13.4084 0.0000
# 4 0.0000 0.0000 0.0000 6.1494 0.0000 3.6182
# 5 8.5825 13.2445 13.4084 0.0000 26.8833 0.0000
# 6 0.0000 0.0000 0.0000 3.6182 0.0000 15.7077
#
#
#
# Elastic Compliance Matrix: (Units=1/GPa)
#
#
# Indices 1 2 3 4 5 6 
#
# 1 0.010279 -0.001565 -0.003128 0.000000 -0.000951 0.000000
# 2 -0.001565 0.015144 -0.001430 0.000000 -0.006248 0.000000
# 3 -0.003128 -0.001430 0.011194 0.000000 -0.003880 0.000000
# 4 0.000000 0.000000 0.000000 0.188114 0.000000 -0.043332
# 5 -0.000951 -0.006248 -0.003880 0.000000 0.042515 0.000000
# 6 0.000000 0.000000 0.000000 -0.043332 0.000000 0.073645
#
#
# Mechanical properties :
#
#
# Convention : Reuss Voigt Hill
#
# Bulk Modulus (GPa) = 41.03279 49.25616 45.14447
# Shear Modulus (GPa) = 13.84049 24.37307 19.10678
#
# Velocity S-wave (km/s) = 2.72334 3.61394 3.19977
# Velocity P-wave (km/s) = 5.64593 6.61880 6.15163
#
# Compressibility (1/GPa) = 0.02437075
#
# Stress axis : x y z
#
# Youngs Moduli (GPa) = 97.28404 66.03356 89.33716
#
# Poissons Ratio (x) = 0.10337 0.27940
# Poissons Ratio (y) = 0.15229 0.12775
# Poissons Ratio (z) = 0.30426 0.09443
#
# Static dielectric constant tensor:
#      x y z
#    x 3.615930 0.000000 0.054220 
#    y 0.000000 3.520140 0.000000 
#    z 0.054220 0.000000 3.429960 
# 
# 
# High freq. dielectric constant tensor:
#      x y z
#    x 1.745210 0.000000 0.005180 
#    y 0.000000 1.722300 0.000000 
#    z 0.005180 0.000000 1.696580 
# 
# From -- ./inp_files/24083.got.cif
#   From: 2010.06.25/outbox.cif.g09.slc.cpg/sg10_13_cif.got.tgz:24083.got - 2010.06.27 22:07:45.
