data_PCOD8067123
_publ_section_title
;
Structure prediction by ZEFSAII (Michael W. Deem and Ramdas Pophale) SiO2 
 PCOD8067123
Probable space group: P 2/M
;
_chemical_formula_sum "Si O2"
_cell_formula_units_Z 32
_cell_length_a 26.154272
_cell_length_b 8.756527
_cell_length_c 15.390893
_cell_angle_alpha 90.000000
_cell_angle_beta 152.895363
_cell_angle_gamma 90.000000
_cell_volume 1605.972927
_symmetry_space_group_name_H-M "P 2/M"
_symmetry_group_IT_number 10
_symmetry_cell_setting 'monoclinic'
loop_
_space_group_symop_operation_xyz
x,y,z
-x,y,-z
-x,-y,-z
x,-y,z
loop_
_atom_site_type_symbol
_atom_site_label
_atom_site_fract_x
_atom_site_fract_y
_atom_site_fract_z
Si Si1 0.729449 0.175269 0.919332
Si Si2 0.033052 0.823980 0.646015
Si Si3 0.073438 0.680211 0.351337
Si Si4 0.675347 0.679774 0.275781
Si Si5 0.513886 0.319437 0.881221
Si Si6 0.507705 0.821355 0.686428
Si Si7 0.718694 0.321348 0.720835
Si Si8 0.934993 0.180592 0.986588
O O1 0.617937 0.226637 0.800328
O O2 0.747494 0.280714 0.863307
O O3 0.720807 0.000000 0.874826
O O4 0.833755 0.198929 0.141625
O O5 0.000000 0.768945 0.500000
O O6 0.965416 0.719315 0.610601
O O7 0.998813 0.000000 0.609374
O O8 0.067093 0.500000 0.326391
O O9 0.199285 0.745994 0.528412
O O10 0.994005 0.762317 0.162815
O O11 0.680217 0.500000 0.273807
O O12 0.606070 0.723244 0.257314
O O13 0.612017 0.739168 0.093805
O O14 0.521372 0.500000 0.873495
O O15 0.527030 0.223822 0.814482
O O16 0.405341 0.731419 0.489914
O O17 0.483595 0.000000 0.642651
O O18 0.728463 0.500000 0.721643
O O19 0.808141 0.242985 0.791604
O O20 0.931424 0.000000 0.982877
O O21 0.000000 0.241785 0.000000
#
# Coordination Sequence:
#
# PCOD8067123 Si02
#       8
#     4   4   4   4   4   4   4   4
#     4  10  22  42  63  85 122 163 199 246 303 359
#     4  10  22  40  63  89 122 167 209 249 305 369
#     4  11  22  38  62  95 126 161 205 255 307 363
#     4   8  18  36  59  85 121 159 197 243 301 356
#     4   9  18  38  61  85 118 162 202 244 297 354
#     4  11  24  39  60  90 122 157 201 251 303 358
#     4  12  25  42  65  91 119 155 201 252 305 364
#     4  11  25  44  65  91 125 164 204 251 308 370
#
# _framework density 19.925616000000002
#
# number of rings (size 3 to 8) (size 9 to 14) (size 15 to 20)
#    0.000    1.750    1.250    3.375    3.500    3.750 
#    0.000    2.500    0.000    0.000    0.000    0.000 
#    0.000    0.000    0.000    0.000    0.000    0.000 
#
# Total GULP energy -396922.195010 kJ/mol
# GULP energy per Si atom -12403.818594 kJ/mol
# Density = 1.988026 g / cm^3
# Si number density = 19.925616 Si / 1000 Ang^3
#
#
#
# Elastic Constant Matrix: (Units=GPa)
#
#
# Indices 1 2 3 4 5 6 
#
# 1 121.3706 35.8754 32.9603 0.0000 11.7245 0.0000
# 2 35.8754 63.4828 22.4419 0.0000 5.4266 0.0000
# 3 32.9603 22.4419 78.6732 0.0000 21.9395 0.0000
# 4 0.0000 0.0000 0.0000 25.8483 0.0000 -1.6869
# 5 11.7245 5.4266 21.9395 0.0000 39.6885 0.0000
# 6 0.0000 0.0000 0.0000 -1.6869 0.0000 28.4691
#
#
#
# Elastic Compliance Matrix: (Units=1/GPa)
#
#
# Indices 1 2 3 4 5 6 
#
# 1 0.010523 -0.004894 -0.002757 0.000000 -0.000915 0.000000
# 2 -0.004894 0.019801 -0.003838 0.000000 0.000860 0.000000
# 3 -0.002757 -0.003838 0.017246 0.000000 -0.008194 0.000000
# 4 0.000000 0.000000 0.000000 0.038837 0.000000 0.002301
# 5 -0.000915 0.000860 -0.008194 0.000000 0.029879 0.000000
# 6 0.000000 0.000000 0.000000 0.002301 0.000000 0.035262
#
#
# Mechanical properties :
#
#
# Convention : Reuss Voigt Hill
#
# Bulk Modulus (GPa) = 40.66390 49.56465 45.11428
# Shear Modulus (GPa) = 27.36374 30.28446 28.82410
#
# Velocity S-wave (km/s) = 3.70982 3.90279 3.80753
# Velocity P-wave (km/s) = 6.22917 6.72591 6.48230
#
# Compressibility (1/GPa) = 0.02459184
#
# Stress axis : x y z
#
# Youngs Moduli (GPa) = 95.03012 50.50230 57.98479
#
# Poissons Ratio (x) = 0.24714 0.15989
# Poissons Ratio (y) = 0.46505 0.22254
# Poissons Ratio (z) = 0.26204 0.19382
#
# Static dielectric constant tensor:
#      x y z
#    x 3.791910 0.000000 0.234890 
#    y 0.000000 3.455140 0.000000 
#    z 0.234890 0.000000 4.018720 
# 
# 
# High freq. dielectric constant tensor:
#      x y z
#    x 1.785760 0.000000 0.006130 
#    y 0.000000 1.763730 0.000000 
#    z 0.006130 0.000000 1.791400 
# 
# From -- ./inp_files/71648.got.cif
#   From: 2010.06.25/outbox.cif.g09.slc.cpg/sg10_36_cif.got.tgz:71648.got - 2010.06.27 22:07:45.
