data_PCOD8067833
_publ_section_title
;
Structure prediction by ZEFSAII (Michael W. Deem and Ramdas Pophale) SiO2 
 PCOD8067833
Probable space group: P 2/M
;
_chemical_formula_sum "Si O2"
_cell_formula_units_Z 28
_cell_length_a 14.849998
_cell_length_b 19.183341
_cell_length_c 8.727502
_cell_angle_alpha 90.000000
_cell_angle_beta 31.313618
_cell_angle_gamma 90.000000
_cell_volume 1292.146792
_symmetry_space_group_name_H-M "P 2/M"
_symmetry_group_IT_number 10
_symmetry_cell_setting 'monoclinic'
loop_
_space_group_symop_operation_xyz
x,y,z
-x,y,-z
-x,-y,-z
x,-y,z
loop_
_atom_site_type_symbol
_atom_site_label
_atom_site_fract_x
_atom_site_fract_y
_atom_site_fract_z
Si Si1 0.450810 0.204131 0.408187
Si Si2 0.822079 0.422526 0.169340
Si Si3 0.058303 0.924160 0.649151
Si Si4 0.709052 0.077687 0.966213
Si Si5 0.640862 0.330454 0.673307
Si Si6 0.919549 0.201813 0.975414
Si Si7 0.994370 0.674234 0.686970
O O1 0.500000 0.240198 0.500000
O O2 0.437281 0.260008 0.289999
O O3 0.264495 0.170403 0.711648
O O4 0.572905 0.138994 0.190866
O O5 0.753243 0.500000 0.229157
O O6 0.675166 0.384731 0.485399
O O7 0.000000 0.428167 0.000000
O O8 0.864151 0.381784 0.951224
O O9 0.230874 0.919626 0.297157
O O10 0.881361 0.910117 0.813358
O O11 0.060742 0.860768 0.763870
O O12 0.051564 0.000000 0.738950
O O13 0.630648 0.000000 0.114376
O O14 0.815542 0.320777 0.516437
O O15 0.500000 0.359179 0.000000
O O16 0.908843 0.249557 0.839195
O O17 0.000000 0.248756 0.000000
O O18 0.000000 0.657526 0.500000
#
# Coordination Sequence:
#
# PCOD8067833 Si02
#       7
#     4   4   4   4   4   4   4
#     4  12  24  38  63  94 129 169 216 273 326 382
#     4   9  19  43  71  96 133 173 211 257 312 380
#     4   9  20  38  60  87 122 165 215 267 326 392
#     4   9  20  38  60  90 123 162 214 269 328 393
#     4  11  25  41  63 101 136 166 215 268 320 379
#     4  12  23  40  61  90 130 166 217 274 322 382
#     4  11  24  42  67  96 130 176 219 261 315 384
#
# _framework density 21.669364999999999
#
# number of rings (size 3 to 8) (size 9 to 14) (size 15 to 20)
#    0.000    1.571    4.286    1.286    6.000    1.714 
#    0.000    0.000    0.000    5.143    0.000    0.000 
#    0.000    0.000    0.000    0.000    0.000    0.000 
#
# Total GULP energy -346884.646693 kJ/mol
# GULP energy per Si atom -12388.737382 kJ/mol
# Density = 2.162004 g / cm^3
# Si number density = 21.669365 Si / 1000 Ang^3
#
#
#
# Elastic Constant Matrix: (Units=GPa)
#
#
# Indices 1 2 3 4 5 6 
#
# 1 89.1112 35.8525 39.6741 0.0000 18.5515 0.0000
# 2 35.8525 156.9997 76.9491 0.0000 17.9424 0.0000
# 3 39.6741 76.9491 150.2166 0.0000 20.5249 0.0000
# 4 0.0000 0.0000 0.0000 26.3635 0.0000 0.7350
# 5 18.5515 17.9424 20.5249 0.0000 35.6411 0.0000
# 6 0.0000 0.0000 0.0000 0.7350 0.0000 17.0595
#
#
#
# Elastic Compliance Matrix: (Units=1/GPa)
#
#
# Indices 1 2 3 4 5 6 
#
# 1 0.013885 -0.001505 -0.002184 0.000000 -0.005212 0.000000
# 2 -0.001505 0.008791 -0.003916 0.000000 -0.001387 0.000000
# 3 -0.002184 -0.003916 0.009568 0.000000 -0.002402 0.000000
# 4 0.000000 0.000000 0.000000 0.037977 0.000000 -0.001636
# 5 -0.005212 -0.001387 -0.002402 0.000000 0.032852 0.000000
# 6 0.000000 0.000000 0.000000 -0.001636 0.000000 0.058689
#
#
# Mechanical properties :
#
#
# Convention : Reuss Voigt Hill
#
# Bulk Modulus (GPa) = 58.70716 77.91988 68.31352
# Shear Modulus (GPa) = 27.37480 32.06960 29.72220
#
# Velocity S-wave (km/s) = 3.55814 3.85119 3.70756
# Velocity P-wave (km/s) = 6.63563 7.47075 7.06554
#
# Compressibility (1/GPa) = 0.01703370
#
# Stress axis : x y z
#
# Youngs Moduli (GPa) = 72.02127 113.75230 104.51203
#
# Poissons Ratio (x) = 0.17114 0.22829
# Poissons Ratio (y) = 0.10836 0.40931
# Poissons Ratio (z) = 0.15732 0.44549
#
# Static dielectric constant tensor:
#      x y z
#    x 3.897330 0.000000 0.219580 
#    y 0.000000 4.020100 0.000000 
#    z 0.219580 0.000000 4.126550 
# 
# 
# High freq. dielectric constant tensor:
#      x y z
#    x 1.836240 0.000000 0.010760 
#    y 0.000000 1.844520 0.000000 
#    z 0.010760 0.000000 1.860110 
# 
# From -- ./inp_files/30416.got.cif
#   From: 2010.06.25/outbox.cif.g09.slc.cpg/sg10_16_cif.got.tgz:30416.got - 2010.06.27 22:07:45.
