data_PCOD8067835
_publ_section_title
;
Structure prediction by ZEFSAII (Michael W. Deem and Ramdas Pophale) SiO2 
 PCOD8067835
Probable space group: P 2/M
;
_chemical_formula_sum "Si O2"
_cell_formula_units_Z 20
_cell_length_a 8.542913
_cell_length_b 12.620321
_cell_length_c 10.156643
_cell_angle_alpha 90.000000
_cell_angle_beta 74.661616
_cell_angle_gamma 90.000000
_cell_volume 1056.026848
_symmetry_space_group_name_H-M "P 2/M"
_symmetry_group_IT_number 10
_symmetry_cell_setting 'monoclinic'
loop_
_space_group_symop_operation_xyz
x,y,z
-x,y,-z
-x,-y,-z
x,-y,z
loop_
_atom_site_type_symbol
_atom_site_label
_atom_site_fract_x
_atom_site_fract_y
_atom_site_fract_z
Si Si1 0.204929 0.120919 0.593869
Si Si2 0.166908 0.120424 0.298875
Si Si3 0.195369 0.500000 0.100051
Si Si4 0.399142 0.314316 0.649051
Si Si5 0.381610 0.296234 0.146253
Si Si6 0.813203 0.500000 0.204393
O O1 0.210299 0.150306 0.438981
O O2 0.325671 0.197211 0.645426
O O3 0.023121 0.136427 0.687151
O O4 0.262223 0.000000 0.604142
O O5 0.265175 0.194806 0.178847
O O6 0.217218 0.000000 0.258467
O O7 0.271483 0.398239 0.150597
O O8 0.005752 0.500000 0.172144
O O9 0.240238 0.500000 0.936010
O O10 0.500000 0.352302 0.500000
O O11 0.518766 0.312301 0.744148
O O12 0.253968 0.396255 0.707700
O O13 0.500000 0.275508 0.000000
#
# Coordination Sequence:
#
# PCOD8067835 Si02
#       6
#     4   4   2   4   4   2
#     4   9  19  38  62  89 122 160 199 241 296 352
#     4   9  19  38  62  88 122 161 200 242 291 352
#     4  11  24  44  64  82 120 165 198 236 301 371
#     4  12  23  39  62  94 122 151 198 254 296 347
#     4  12  23  40  62  88 124 159 195 243 303 357
#     4  11  24  43  64  87 116 159 204 242 295 359
#
# _framework density 18.938911999999998
#
# number of rings (size 3 to 8) (size 9 to 14) (size 15 to 20)
#    0.000    1.400    4.000    3.600    0.000    1.600 
#    0.000    1.000    0.000    2.400    0.000    0.000 
#    0.000    0.000    0.000    0.000    0.000    0.000 
#
# Total GULP energy -248086.908236 kJ/mol
# GULP energy per Si atom -12404.345412 kJ/mol
# Density = 1.889581 g / cm^3
# Si number density = 18.938912 Si / 1000 Ang^3
#
#
#
# Elastic Constant Matrix: (Units=GPa)
#
#
# Indices 1 2 3 4 5 6 
#
# 1 102.5963 68.1369 62.5812 0.0000 0.2363 0.0000
# 2 68.1369 140.6195 56.9634 0.0000 -8.6197 0.0000
# 3 62.5812 56.9634 115.8441 0.0000 -5.8062 0.0000
# 4 0.0000 0.0000 0.0000 49.7015 0.0000 -22.5507
# 5 0.2363 -8.6197 -5.8062 0.0000 34.1681 0.0000
# 6 0.0000 0.0000 0.0000 -22.5507 0.0000 60.2214
#
#
#
# Elastic Compliance Matrix: (Units=1/GPa)
#
#
# Indices 1 2 3 4 5 6 
#
# 1 0.017999 -0.006117 -0.006857 0.000000 -0.002833 0.000000
# 2 -0.006117 0.011037 -0.001998 0.000000 0.002487 0.000000
# 3 -0.006857 -0.001998 0.013411 0.000000 0.001822 0.000000
# 4 0.000000 0.000000 0.000000 0.024238 0.000000 0.009076
# 5 -0.002833 0.002487 0.001822 0.000000 0.030224 0.000000
# 6 0.000000 0.000000 0.000000 0.009076 0.000000 0.020004
#
#
# Mechanical properties :
#
#
# Convention : Reuss Voigt Hill
#
# Bulk Modulus (GPa) = 79.98960 81.60257 80.79608
# Shear Modulus (GPa) = 33.10704 40.24341 36.67523
#
# Velocity S-wave (km/s) = 4.18556 4.61467 4.40534
# Velocity P-wave (km/s) = 8.10468 8.46016 8.28433
#
# Compressibility (1/GPa) = 0.01250163
#
# Stress axis : x y z
#
# Youngs Moduli (GPa) = 55.55912 90.60207 74.56784
#
# Poissons Ratio (x) = 0.55422 0.51134
# Poissons Ratio (y) = 0.33986 0.14899
# Poissons Ratio (z) = 0.38099 0.18103
#
# Static dielectric constant tensor:
#      x y z
#    x 3.511980 0.000000 -0.121600 
#    y 0.000000 3.581990 0.000000 
#    z -0.121600 0.000000 3.383800 
# 
# 
# High freq. dielectric constant tensor:
#      x y z
#    x 1.748780 0.000000 -0.008920 
#    y 0.000000 1.747250 0.000000 
#    z -0.008920 0.000000 1.727690 
# 
# From -- ./inp_files/17810.got.cif
#   From: 2010.06.25/outbox.cif.g09.slc.cpg/sg10_9_cif.got.tgz:17810.got - 2010.06.27 22:07:45.
