data_PCOD8067808
_publ_section_title
;
Structure prediction by ZEFSAII (Michael W. Deem and Ramdas Pophale) SiO2 
 PCOD8067808
Probable space group: P 2/M
;
_chemical_formula_sum "Si O2"
_cell_formula_units_Z 20
_cell_length_a 5.007115
_cell_length_b 23.213901
_cell_length_c 8.667823
_cell_angle_alpha 90.000000
_cell_angle_beta 125.178107
_cell_angle_gamma 90.000000
_cell_volume 823.496612
_symmetry_space_group_name_H-M "P 2/M"
_symmetry_group_IT_number 10
_symmetry_cell_setting 'monoclinic'
loop_
_space_group_symop_operation_xyz
x,y,z
-x,y,-z
-x,-y,-z
x,-y,z
loop_
_atom_site_type_symbol
_atom_site_label
_atom_site_fract_x
_atom_site_fract_y
_atom_site_fract_z
Si Si1 0.311137 0.689684 0.201880
Si Si2 0.899450 0.619934 0.294013
Si Si3 0.096315 0.135679 0.199269
Si Si4 0.500000 0.775996 0.500000
Si Si5 0.696099 0.935197 0.285323
Si Si6 0.874813 0.500000 0.129559
O O1 0.525144 0.645420 0.166925
O O2 0.544210 0.739317 0.354104
O O3 0.154683 0.661800 0.300476
O O4 0.000000 0.712606 0.000000
O O5 0.974210 0.558007 0.247251
O O6 0.000000 0.613337 0.500000
O O7 0.182657 0.184920 0.355056
O O8 0.401245 0.093511 0.279244
O O9 0.788871 0.099662 0.160811
O O10 0.000000 0.162439 0.000000
O O11 0.000000 0.935122 0.500000
O O12 0.596760 0.000000 0.205770
O O13 0.500000 0.500000 0.000000
O O14 0.000000 0.500000 0.000000
#
# Coordination Sequence:
#
# PCOD8067808 Si02
#       6
#     4   4   4   2   4   2
#     4  12  26  46  74 100 138 185 235 284 346 410
#     4  12  24  47  70 106 140 184 227 287 347 419
#     4  12  26  44  72 104 139 182 232 288 347 412
#     4  12  26  50  69 101 140 182 240 292 346 396
#     4  11  23  45  72 102 142 184 225 282 352 421
#     4  12  25  42  71 106 145 180 229 283 346 421
#
# _framework density 24.286683
#
# number of rings (size 3 to 8) (size 9 to 14) (size 15 to 20)
#    0.000    0.200    4.000    5.700    0.000    7.200 
#    0.000    7.000    0.000    0.000    0.000    0.000 
#    0.000    0.000    0.000    0.000    0.000    0.000 
#
# Total GULP energy -247884.252443 kJ/mol
# GULP energy per Si atom -12394.212622 kJ/mol
# Density = 2.423141 g / cm^3
# Si number density = 24.286683 Si / 1000 Ang^3
#
#
#
# Elastic Constant Matrix: (Units=GPa)
#
#
# Indices 1 2 3 4 5 6 
#
# 1 140.0550 49.3018 27.9935 0.0000 -15.3779 0.0000
# 2 49.3018 147.0024 68.6265 0.0000 -11.3433 0.0000
# 3 27.9935 68.6265 139.2833 0.0000 -8.8030 0.0000
# 4 0.0000 0.0000 0.0000 -4.4130 0.0000 -14.8533
# 5 -15.3779 -11.3433 -8.8030 0.0000 44.5120 0.0000
# 6 0.0000 0.0000 0.0000 -14.8533 0.0000 8.7627
#
#
#
# Elastic Compliance Matrix: (Units=1/GPa)
#
#
# Indices 1 2 3 4 5 6 
#
# 1 0.008313 -0.002473 -0.000315 0.000000 0.002179 0.000000
# 2 -0.002473 0.009658 -0.004213 0.000000 0.000774 0.000000
# 3 -0.000315 -0.004213 0.009361 0.000000 0.000669 0.000000
# 4 0.000000 0.000000 0.000000 -0.033795 0.000000 -0.057284
# 5 0.002179 0.000774 0.000669 0.000000 0.023548 0.000000
# 6 0.000000 0.000000 0.000000 -0.057284 0.000000 0.017020
#
#
# Mechanical properties :
#
#
# Convention : Reuss Voigt Hill
#
# Bulk Modulus (GPa) = 75.01132 79.79824 77.40478
# Shear Modulus (GPa) = 95.14864 28.46694 61.80779
#
# Velocity S-wave (km/s) = 6.26597 3.42734 5.05020
# Velocity P-wave (km/s) = 9.12703 6.97068 8.12074
#
# Compressibility (1/GPa) = 0.01333132
#
# Stress axis : x y z
#
# Youngs Moduli (GPa) = 120.29738 103.53640 106.82780
#
# Poissons Ratio (x) = 0.25604 0.03360
# Poissons Ratio (y) = 0.29749 0.45006
# Poissons Ratio (z) = 0.03784 0.43619
#
# Static dielectric constant tensor:
#      x y z
#    x 5.215990 0.000000 -0.140830 
#    y 0.000000 4.298210 0.000000 
#    z -0.140830 0.000000 4.591680 
# 
# 
# High freq. dielectric constant tensor:
#      x y z
#    x 1.957040 0.000000 -0.003140 
#    y 0.000000 1.967290 0.000000 
#    z -0.003140 0.000000 1.990150 
# 
# From -- ./inp_files/15356.got.cif
#   From: 2010.06.25/outbox.cif.g09.slc.cpg/sg10_8_cif.got.tgz:15356.got - 2010.06.27 22:07:45.
