data_PCOD8067051
_publ_section_title
;
Structure prediction by ZEFSAII (Michael W. Deem and Ramdas Pophale) SiO2 
 PCOD8067051
Probable space group: P 2/M
;
_chemical_formula_sum "Si O2"
_cell_formula_units_Z 28
_cell_length_a 12.608766
_cell_length_b 8.557412
_cell_length_c 14.625062
_cell_angle_alpha 90.000000
_cell_angle_beta 120.429702
_cell_angle_gamma 90.000000
_cell_volume 1360.650431
_symmetry_space_group_name_H-M "P 2/M"
_symmetry_group_IT_number 10
_symmetry_cell_setting 'monoclinic'
loop_
_space_group_symop_operation_xyz
x,y,z
-x,y,-z
-x,-y,-z
x,-y,z
loop_
_atom_site_type_symbol
_atom_site_label
_atom_site_fract_x
_atom_site_fract_y
_atom_site_fract_z
Si Si1 0.089660 0.185483 0.617020
Si Si2 0.805303 0.182334 0.984050
Si Si3 0.515240 0.683081 0.611827
Si Si4 0.448287 0.319957 0.076046
Si Si5 0.367112 0.817580 0.702692
Si Si6 0.789276 0.317204 0.782238
Si Si7 0.988445 0.184649 0.219648
O O1 0.227196 0.237896 0.652595
O O2 0.050959 0.254392 0.699094
O O3 0.000000 0.255090 0.500000
O O4 0.078831 0.000000 0.614040
O O5 0.666822 0.209366 0.956111
O O6 0.834281 0.270693 0.902682
O O7 0.827270 0.000000 0.976264
O O8 0.896416 0.249358 0.101452
O O9 0.500000 0.727218 0.500000
O O10 0.494443 0.500000 0.620090
O O11 0.411773 0.781471 0.619652
O O12 0.649019 0.736761 0.705969
O O13 0.406952 0.500000 0.066678
O O14 0.553578 0.286653 0.194634
O O15 0.500000 0.278510 0.000000
O O16 0.382464 0.000000 0.732305
O O17 0.802481 0.500000 0.773743
O O18 0.872892 0.234818 0.742406
O O19 0.978923 0.000000 0.218854
#
# Coordination Sequence:
#
# PCOD8067051 Si02
#       7
#     4   4   4   4   4   4   4
#     4   9  20  39  61  88 121 156 196 247 299 349
#     4  11  22  38  60  89 121 157 200 248 304 359
#     4  10  23  42  62  86 123 164 199 248 308 359
#     4  11  23  38  59  87 122 163 200 244 301 360
#     4  11  22  38  64  94 120 155 203 252 303 359
#     4  11  23  39  61  89 122 161 201 246 301 360
#     4  10  22  39  61  87 121 160 199 248 301 355
#
# _framework density 20.578393999999999
#
# number of rings (size 3 to 8) (size 9 to 14) (size 15 to 20)
#    0.000    1.571    1.429    3.000    2.000    6.000 
#    0.000    1.429    0.000    2.143    0.000    0.000 
#    0.000    0.000    0.000    0.000    0.000    0.000 
#
# Total GULP energy -347354.201085 kJ/mol
# GULP energy per Si atom -12405.507182 kJ/mol
# Density = 2.053156 g / cm^3
# Si number density = 20.578394 Si / 1000 Ang^3
#
#
#
# Elastic Constant Matrix: (Units=GPa)
#
#
# Indices 1 2 3 4 5 6 
#
# 1 155.3944 15.6261 56.7383 0.0000 -13.9131 0.0000
# 2 15.6261 15.6002 14.4460 0.0000 -2.6978 0.0000
# 3 56.7383 14.4460 118.7676 0.0000 -17.5870 0.0000
# 4 0.0000 0.0000 0.0000 10.0682 0.0000 -22.9930
# 5 -13.9131 -2.6978 -17.5870 0.0000 35.2609 0.0000
# 6 0.0000 0.0000 0.0000 -22.9930 0.0000 -8.2454
#
#
#
# Elastic Compliance Matrix: (Units=1/GPa)
#
#
# Indices 1 2 3 4 5 6 
#
# 1 0.008198 -0.005115 -0.003103 0.000000 0.001296 0.000000
# 2 -0.005115 0.075479 -0.006674 0.000000 0.000428 0.000000
# 3 -0.003103 -0.006674 0.011291 0.000000 0.003897 0.000000
# 4 0.000000 0.000000 0.000000 0.013480 0.000000 -0.037589
# 5 0.001296 0.000428 0.003897 0.000000 0.030848 0.000000
# 6 0.000000 0.000000 0.000000 -0.037589 0.000000 -0.016460
#
#
# Mechanical properties :
#
#
# Convention : Reuss Voigt Hill
#
# Bulk Modulus (GPa) = 15.34074 51.48698 33.41386
# Shear Modulus (GPa) = 28.67835 20.94686 24.81260
#
# Velocity S-wave (km/s) = 3.73716 3.19392 3.47617
# Velocity P-wave (km/s) = 5.10811 6.21898 5.69072
#
# Compressibility (1/GPa) = 0.06518589
#
# Stress axis : x y z
#
# Youngs Moduli (GPa) = 121.97441 13.24866 88.56823
#
# Poissons Ratio (x) = 0.06777 0.27479
# Poissons Ratio (y) = 0.62389 0.59109
# Poissons Ratio (z) = 0.37843 0.08842
#
# Static dielectric constant tensor:
#      x y z
#    x 3.687800 0.000000 -0.027120 
#    y 0.000000 3.457330 0.000000 
#    z -0.027120 0.000000 3.948460 
# 
# 
# High freq. dielectric constant tensor:
#      x y z
#    x 1.820370 0.000000 -0.004960 
#    y 0.000000 1.784860 0.000000 
#    z -0.004960 0.000000 1.813800 
# 
# From -- ./inp_files/63670.got.cif
#   From: 2010.06.25/outbox.cif.g09.slc.cpg/sg10_32_cif.got.tgz:63670.got - 2010.06.27 22:07:45.
