data_PCOD8067392
_publ_section_title
;
Structure prediction by ZEFSAII (Michael W. Deem and Ramdas Pophale) SiO2 
 PCOD8067392
Probable space group: P 2/M
;
_chemical_formula_sum "Si O2"
_cell_formula_units_Z 28
_cell_length_a 9.134761
_cell_length_b 15.524496
_cell_length_c 21.810024
_cell_angle_alpha 90.000000
_cell_angle_beta 26.686670
_cell_angle_gamma 90.000000
_cell_volume 1389.071726
_symmetry_space_group_name_H-M "P 2/M"
_symmetry_group_IT_number 10
_symmetry_cell_setting 'monoclinic'
loop_
_space_group_symop_operation_xyz
x,y,z
-x,y,-z
-x,-y,-z
x,-y,z
loop_
_atom_site_type_symbol
_atom_site_label
_atom_site_fract_x
_atom_site_fract_y
_atom_site_fract_z
Si Si1 0.657638 0.185188 0.505815
Si Si2 0.166114 0.092115 0.158949
Si Si3 0.196493 0.306473 0.984649
Si Si4 0.141130 0.729727 0.764075
Si Si5 0.281370 0.404751 0.141445
Si Si6 0.364120 0.150084 0.214498
Si Si7 0.614558 0.000000 0.571656
Si Si8 0.608997 0.000000 0.711553
O O1 0.500000 0.211054 0.500000
O O2 0.523518 0.254042 0.607105
O O3 0.046632 0.197068 0.362462
O O4 0.520545 0.088706 0.571812
O O5 0.226992 0.097686 0.208358
O O6 0.013876 0.177455 0.189335
O O7 0.964718 0.000000 0.224090
O O8 0.500000 0.078686 0.000000
O O9 0.490809 0.371747 0.888611
O O10 0.351246 0.214454 0.911446
O O11 0.000000 0.342790 0.000000
O O12 0.938957 0.299665 0.137091
O O13 0.010789 0.661291 0.762618
O O14 0.144889 0.500000 0.208778
O O15 0.500000 0.408836 0.000000
O O16 0.522362 0.085386 0.204693
O O17 0.470023 0.000000 0.694885
O O18 0.003566 0.000000 0.431091
#
# Coordination Sequence:
#
# PCOD8067392 Si02
#       8
#     4   4   4   4   4   4   2   2
#     4  11  21  32  56  81 108 145 198 243 280 326
#     4  11  19  31  54  80 111 153 192 236 284 322
#     4  11  23  38  57  83 117 147 186 233 282 344
#     4  11  21  37  56  89 116 144 188 238 282 338
#     4   9  18  37  65  87 111 145 181 231 289 341
#     4  11  20  36  54  75 110 155 193 235 283 327
#     4   9  21  34  47  72 110 154 196 239 271 324
#     4   9  20  36  49  67 109 159 201 229 274 329
#
# _framework density 20.157346
#
# number of rings (size 3 to 8) (size 9 to 14) (size 15 to 20)
#    0.000    1.571    5.000    0.643    3.000    0.286 
#    0.000    0.357    0.000    3.857    0.000    0.000 
#    0.000    9.143    0.000    0.000    0.000    0.000 
#
# Total GULP energy -347067.015724 kJ/mol
# GULP energy per Si atom -12395.250562 kJ/mol
# Density = 2.011147 g / cm^3
# Si number density = 20.157346 Si / 1000 Ang^3
#
#
#
# Elastic Constant Matrix: (Units=GPa)
#
#
# Indices 1 2 3 4 5 6 
#
# 1 98.8897 26.0103 19.1493 0.0000 13.9600 0.0000
# 2 26.0103 98.0054 24.5027 0.0000 -4.6603 0.0000
# 3 19.1493 24.5027 84.0641 0.0000 10.6805 0.0000
# 4 0.0000 0.0000 0.0000 15.2145 0.0000 -0.1168
# 5 13.9600 -4.6603 10.6805 0.0000 21.6552 0.0000
# 6 0.0000 0.0000 0.0000 -0.1168 0.0000 14.3633
#
#
#
# Elastic Compliance Matrix: (Units=1/GPa)
#
#
# Indices 1 2 3 4 5 6 
#
# 1 0.012352 -0.003492 -0.000735 0.000000 -0.008352 0.000000
# 2 -0.003492 0.012365 -0.003662 0.000000 0.006718 0.000000
# 3 -0.000735 -0.003662 0.014051 0.000000 -0.007244 0.000000
# 4 0.000000 0.000000 0.000000 0.065731 0.000000 0.000535
# 5 -0.008352 0.006718 -0.007244 0.000000 0.056581 0.000000
# 6 0.000000 0.000000 0.000000 0.000535 0.000000 0.069626
#
#
# Mechanical properties :
#
#
# Convention : Reuss Voigt Hill
#
# Bulk Modulus (GPa) = 43.49618 46.69819 45.09719
# Shear Modulus (GPa) = 19.67361 24.33305 22.00333
#
# Velocity S-wave (km/s) = 3.12749 3.47818 3.30749
# Velocity P-wave (km/s) = 5.88785 6.27276 6.08335
#
# Compressibility (1/GPa) = 0.02299052
#
# Stress axis : x y z
#
# Youngs Moduli (GPa) = 80.95914 80.87161 71.16922
#
# Poissons Ratio (x) = 0.28237 0.05230
# Poissons Ratio (y) = 0.28267 0.26065
# Poissons Ratio (z) = 0.05950 0.29618
#
# Static dielectric constant tensor:
#      x y z
#    x 3.619790 0.000000 0.140160 
#    y 0.000000 3.861230 0.000000 
#    z 0.140160 0.000000 3.972760 
# 
# 
# High freq. dielectric constant tensor:
#      x y z
#    x 1.772280 0.000000 0.009660 
#    y 0.000000 1.764890 0.000000 
#    z 0.009660 0.000000 1.790980 
# 
# From -- ./inp_files/82926.got.cif
#   From: 2010.06.25/outbox.cif.g09.slc.cpg/sg10_42_cif.got.tgz:82926.got - 2010.06.27 22:07:45.
