data_PCOD8067672
_publ_section_title
;
Structure prediction by ZEFSAII (Michael W. Deem and Ramdas Pophale) SiO2 
 PCOD8067672
Probable space group: P 2/M
;
_chemical_formula_sum "Si O2"
_cell_formula_units_Z 28
_cell_length_a 12.441901
_cell_length_b 13.482345
_cell_length_c 9.903565
_cell_angle_alpha 90.000000
_cell_angle_beta 65.221065
_cell_angle_gamma 90.000000
_cell_volume 1508.331774
_symmetry_space_group_name_H-M "P 2/M"
_symmetry_group_IT_number 10
_symmetry_cell_setting 'monoclinic'
loop_
_space_group_symop_operation_xyz
x,y,z
-x,y,-z
-x,-y,-z
x,-y,z
loop_
_atom_site_type_symbol
_atom_site_label
_atom_site_fract_x
_atom_site_fract_y
_atom_site_fract_z
Si Si1 0.628589 0.117932 0.205222
Si Si2 0.872325 0.388588 0.399816
Si Si3 0.855571 0.388509 0.724985
Si Si4 0.765968 0.197233 0.885180
Si Si5 0.001034 0.114376 0.848195
Si Si6 0.239487 0.804518 0.619177
Si Si7 0.358269 0.885770 0.301927
O O1 0.653517 0.164029 0.339227
O O2 0.495275 0.144414 0.236700
O O3 0.653553 0.000000 0.189475
O O4 0.716422 0.175750 0.059471
O O5 0.832153 0.500000 0.382390
O O6 0.850381 0.368100 0.568650
O O7 0.796088 0.311537 0.350481
O O8 0.010504 0.374038 0.292939
O O9 0.812475 0.500000 0.779902
O O10 0.765639 0.314106 0.848699
O O11 0.686137 0.134200 0.825198
O O12 0.902517 0.164473 0.805623
O O13 0.127044 0.127593 0.711475
O O14 0.968028 0.000000 0.875442
O O15 0.000000 0.160674 0.000000
O O16 0.280297 0.822242 0.445190
O O17 0.342924 0.000000 0.348227
#
# Coordination Sequence:
#
# PCOD8067672 Si02
#       7
#     4   4   4   4   4   4   4
#     4  11  24  41  58  79 120 169 199 228 288 352
#     4   9  18  35  58  86 118 151 188 236 299 357
#     4   9  18  35  58  86 118 151 188 236 299 357
#     4  12  21  37  61  86 117 153 195 242 289 346
#     4  11  22  35  54  85 126 160 179 225 308 367
#     4  12  21  37  61  86 117 153 195 242 289 346
#     4  11  24  39  58  85 114 155 211 248 270 332
#
# _framework density 18.563555999999998
#
# number of rings (size 3 to 8) (size 9 to 14) (size 15 to 20)
#    0.000    1.286    4.286    4.286    0.000    2.857 
#    0.000    2.143    0.000    7.714    0.000    0.000 
#    0.000    0.000    0.000    0.000    0.000    0.000 
#
# Total GULP energy -347279.802246 kJ/mol
# GULP energy per Si atom -12402.850080 kJ/mol
# Density = 1.852130 g / cm^3
# Si number density = 18.563556 Si / 1000 Ang^3
#
#
#
# Elastic Constant Matrix: (Units=GPa)
#
#
# Indices 1 2 3 4 5 6 
#
# 1 102.4331 34.3617 6.1559 0.0000 5.3192 0.0000
# 2 34.3617 100.8151 24.6744 0.0000 -2.5575 0.0000
# 3 6.1559 24.6744 49.9382 0.0000 -4.2478 0.0000
# 4 0.0000 0.0000 0.0000 25.5620 0.0000 5.2351
# 5 5.3192 -2.5575 -4.2478 0.0000 24.2836 0.0000
# 6 0.0000 0.0000 0.0000 5.2351 0.0000 24.2297
#
#
#
# Elastic Compliance Matrix: (Units=1/GPa)
#
#
# Indices 1 2 3 4 5 6 
#
# 1 0.011224 -0.003981 0.000344 0.000000 -0.002818 0.000000
# 2 -0.003981 0.012697 -0.005679 0.000000 0.001216 0.000000
# 3 0.000344 -0.005679 0.023075 0.000000 0.003363 0.000000
# 4 0.000000 0.000000 0.000000 0.040932 0.000000 -0.008844
# 5 -0.002818 0.001216 0.003363 0.000000 0.042513 0.000000
# 6 0.000000 0.000000 0.000000 -0.008844 0.000000 0.043182
#
#
# Mechanical properties :
#
#
# Convention : Reuss Voigt Hill
#
# Bulk Modulus (GPa) = 35.25858 42.61894 38.93876
# Shear Modulus (GPa) = 24.78808 27.34803 26.06806
#
# Velocity S-wave (km/s) = 3.65815 3.84241 3.75141
# Velocity P-wave (km/s) = 6.07268 6.53404 6.30758
#
# Compressibility (1/GPa) = 0.02836189
#
# Stress axis : x y z
#
# Youngs Moduli (GPa) = 89.09807 78.75932 43.33778
#
# Poissons Ratio (x) = 0.31355 -0.01490
# Poissons Ratio (y) = 0.35471 0.24613
# Poissons Ratio (z) = -0.03064 0.44730
#
# Static dielectric constant tensor:
#      x y z
#    x 3.373530 0.000000 0.042210 
#    y 0.000000 3.398400 0.000000 
#    z 0.042210 0.000000 3.268580 
# 
# 
# High freq. dielectric constant tensor:
#      x y z
#    x 1.716150 0.000000 0.002630 
#    y 0.000000 1.717390 0.000000 
#    z 0.002630 0.000000 1.711630 
# 
# From -- ./inp_files/25057.got.cif
#   From: 2010.06.25/outbox.cif.g09.slc.cpg/sg10_13_cif.got.tgz:25057.got - 2010.06.27 22:07:45.
