data_PCOD8067433
_publ_section_title
;
Structure prediction by ZEFSAII (Michael W. Deem and Ramdas Pophale) SiO2 
 PCOD8067433
Probable space group: P 2/M
;
_chemical_formula_sum "Si O2"
_cell_formula_units_Z 28
_cell_length_a 9.496024
_cell_length_b 11.609686
_cell_length_c 21.708547
_cell_angle_alpha 90.000000
_cell_angle_beta 41.207100
_cell_angle_gamma 90.000000
_cell_volume 1576.649708
_symmetry_space_group_name_H-M "P 2/M"
_symmetry_group_IT_number 10
_symmetry_cell_setting 'monoclinic'
loop_
_space_group_symop_operation_xyz
x,y,z
-x,y,-z
-x,-y,-z
x,-y,z
loop_
_atom_site_type_symbol
_atom_site_label
_atom_site_fract_x
_atom_site_fract_y
_atom_site_fract_z
Si Si1 0.964549 0.767127 0.444193
Si Si2 0.285612 0.000000 0.639106
Si Si3 0.220359 0.000000 0.528468
Si Si4 0.603381 0.135029 0.735308
Si Si5 0.434921 0.364966 0.453706
Si Si6 0.852442 0.138769 0.886928
Si Si7 0.300653 0.205564 0.722672
Si Si8 0.510114 0.134709 0.902749
O O1 0.812811 0.672185 0.464006
O O2 0.000000 0.718881 0.500000
O O3 0.186880 0.784867 0.336015
O O4 0.842641 0.888846 0.489819
O O5 0.234543 0.887782 0.694008
O O6 0.133463 0.000000 0.627841
O O7 0.531466 0.000000 0.542446
O O8 0.449024 0.161134 0.729103
O O9 0.496138 0.169584 0.835391
O O10 0.669109 0.000000 0.711296
O O11 0.500000 0.323943 0.500000
O O12 0.456409 0.500000 0.436977
O O13 0.581149 0.309663 0.351549
O O14 0.728289 0.175565 0.864823
O O15 0.060151 0.223242 0.827698
O O16 0.906128 0.000000 0.871073
O O17 0.702851 0.178396 0.993155
O O18 0.510608 0.000000 0.910561
#
# Coordination Sequence:
#
# PCOD8067433 Si02
#       8
#     4   2   2   4   4   4   4   4
#     4  12  22  35  54  79 113 144 176 218 270 323
#     4  11  20  30  48  81 109 134 183 214 261 323
#     4  11  21  30  50  77 110 145 171 215 265 320
#     4  11  21  32  48  83 120 148 177 214 265 324
#     4  11  26  44  57  75 104 143 190 233 270 319
#     4   9  17  32  52  78 111 149 180 213 259 321
#     4  12  21  34  54  80 107 145 183 223 267 322
#     4   8  18  32  48  76 117 150 177 209 259 325
#
# _framework density 17.759176
#
# number of rings (size 3 to 8) (size 9 to 14) (size 15 to 20)
#    0.000    1.429    5.000    1.929    4.000    0.857 
#    0.000    2.143    0.000    0.000    0.000    5.000 
#    0.000    0.000    0.000    0.000    0.000    0.000 
#
# Total GULP energy -346903.231819 kJ/mol
# GULP energy per Si atom -12389.401136 kJ/mol
# Density = 1.771876 g / cm^3
# Si number density = 17.759176 Si / 1000 Ang^3
#
#
#
# Elastic Constant Matrix: (Units=GPa)
#
#
# Indices 1 2 3 4 5 6 
#
# 1 106.8169 23.6002 54.2333 0.0000 -0.8000 0.0000
# 2 23.6002 29.5098 24.6123 0.0000 3.0042 0.0000
# 3 54.2333 24.6123 112.7490 0.0000 -5.7142 0.0000
# 4 0.0000 0.0000 0.0000 -9.5278 0.0000 17.4002
# 5 -0.8000 3.0042 -5.7142 0.0000 36.4962 0.0000
# 6 0.0000 0.0000 0.0000 17.4002 0.0000 7.4611
#
#
#
# Elastic Compliance Matrix: (Units=1/GPa)
#
#
# Indices 1 2 3 4 5 6 
#
# 1 0.013334 -0.006505 -0.004991 0.000000 0.000046 0.000000
# 2 -0.006505 0.045479 -0.007052 0.000000 -0.004990 0.000000
# 3 -0.004991 -0.007052 0.012936 0.000000 0.002496 0.000000
# 4 0.000000 0.000000 0.000000 -0.019957 0.000000 0.046543
# 5 0.000046 -0.004990 0.002496 0.000000 0.028203 0.000000
# 6 0.000000 0.000000 0.000000 0.046543 0.000000 0.025485
#
#
# Mechanical properties :
#
#
# Convention : Reuss Voigt Hill
#
# Bulk Modulus (GPa) = 28.85810 50.44083 39.64946
# Shear Modulus (GPa) = 32.44101 16.66121 24.55111
#
# Velocity S-wave (km/s) = 4.27865 3.06629 3.72216
# Velocity P-wave (km/s) = 6.37919 6.40316 6.39119
#
# Compressibility (1/GPa) = 0.03465232
#
# Stress axis : x y z
#
# Youngs Moduli (GPa) = 74.99867 21.98827 77.30441
#
# Poissons Ratio (x) = 0.14304 0.38584
# Poissons Ratio (y) = 0.48789 0.54511
# Poissons Ratio (z) = 0.37433 0.15505
#
# Static dielectric constant tensor:
#      x y z
#    x 3.485320 0.000000 0.054560 
#    y 0.000000 2.796410 0.000000 
#    z 0.054560 0.000000 3.996950 
# 
# 
# High freq. dielectric constant tensor:
#      x y z
#    x 1.707070 0.000000 0.000190 
#    y 0.000000 1.619810 0.000000 
#    z 0.000190 0.000000 1.698170 
# 
# From -- ./inp_files/82466.got.cif
#   From: 2010.06.25/outbox.cif.g09.slc.cpg/sg10_42_cif.got.tgz:82466.got - 2010.06.27 22:07:45.
