data_PCOD8067177
_publ_section_title
;
Structure prediction by ZEFSAII (Michael W. Deem and Ramdas Pophale) SiO2 
 PCOD8067177
Probable space group: P 2/M
;
_chemical_formula_sum "Si O2"
_cell_formula_units_Z 20
_cell_length_a 21.441979
_cell_length_b 7.639267
_cell_length_c 9.286335
_cell_angle_alpha 90.000000
_cell_angle_beta 39.857643
_cell_angle_gamma 90.000000
_cell_volume 974.853128
_symmetry_space_group_name_H-M "P 2/M"
_symmetry_group_IT_number 10
_symmetry_cell_setting 'monoclinic'
loop_
_space_group_symop_operation_xyz
x,y,z
-x,y,-z
-x,-y,-z
x,-y,z
loop_
_atom_site_type_symbol
_atom_site_label
_atom_site_fract_x
_atom_site_fract_y
_atom_site_fract_z
Si Si1 0.583102 0.500000 0.739313
Si Si2 0.903705 0.300358 0.092770
Si Si3 0.282061 0.204396 0.085578
Si Si4 0.563154 0.500000 0.249227
Si Si5 0.279346 0.193286 0.421209
Si Si6 0.091086 0.794027 0.245939
O O1 0.529423 0.500000 0.686818
O O2 0.646410 0.326609 0.640322
O O3 0.500000 0.500000 0.000000
O O4 0.885046 0.500000 0.171358
O O5 0.816633 0.186583 0.311188
O O6 0.910749 0.289916 0.908259
O O7 0.000000 0.228060 0.000000
O O8 0.254538 0.243909 0.300292
O O9 0.190089 0.258911 0.151678
O O10 0.309233 0.000000 0.014148
O O11 0.372651 0.324767 0.879990
O O12 0.500000 0.500000 0.500000
O O13 0.326653 0.000000 0.341763
O O14 0.000000 0.721760 0.500000
O O15 0.082058 0.000000 0.243506
#
# Coordination Sequence:
#
# PCOD8067177 Si02
#       6
#     2   4   4   2   4   4
#     4  12  24  46  67  96 127 162 223 268 315 394
#     4  11  24  40  63  98 134 169 215 262 312 383
#     4  10  23  43  66  96 127 165 214 258 316 385
#     4  12  28  44  67  90 129 172 205 270 327 368
#     4  11  23  42  70  96 129 169 211 268 322 374
#     4  10  22  41  64  93 131 170 211 258 313 384
#
# _framework density 20.515912
#
# number of rings (size 3 to 8) (size 9 to 14) (size 15 to 20)
#    0.000    1.200    3.000    1.800    4.200    5.200 
#    0.000    0.000    0.000    0.000    0.000    0.000 
#    0.000    0.000    0.000    0.000    0.000    0.000 
#
# Total GULP energy -248001.622797 kJ/mol
# GULP energy per Si atom -12400.081140 kJ/mol
# Density = 2.046922 g / cm^3
# Si number density = 20.515912 Si / 1000 Ang^3
#
#
#
# Elastic Constant Matrix: (Units=GPa)
#
#
# Indices 1 2 3 4 5 6 
#
# 1 190.0718 60.0695 74.5976 0.0000 -2.8341 0.0000
# 2 60.0695 101.9333 48.4300 0.0000 -13.0486 0.0000
# 3 74.5976 48.4300 161.9261 0.0000 8.1438 0.0000
# 4 0.0000 0.0000 0.0000 -62.5328 0.0000 68.3658
# 5 -2.8341 -13.0486 8.1438 0.0000 38.5343 0.0000
# 6 0.0000 0.0000 0.0000 68.3658 0.0000 -32.0726
#
#
#
# Elastic Compliance Matrix: (Units=1/GPa)
#
#
# Indices 1 2 3 4 5 6 
#
# 1 0.007173 -0.003101 -0.002376 0.000000 -0.000020 0.000000
# 2 -0.003101 0.013662 -0.002910 0.000000 0.005013 0.000000
# 3 -0.002376 -0.002910 0.008287 0.000000 -0.002911 0.000000
# 4 0.000000 0.000000 0.000000 0.012020 0.000000 0.025622
# 5 -0.000020 0.005013 -0.002911 0.000000 0.028262 0.000000
# 6 0.000000 0.000000 0.000000 0.025622 0.000000 0.023436
#
#
# Mechanical properties :
#
#
# Convention : Reuss Voigt Hill
#
# Bulk Modulus (GPa) = 80.98031 91.12502 86.05267
# Shear Modulus (GPa) = 43.96374 6.84137 25.40256
#
# Velocity S-wave (km/s) = 4.63418 1.82809 3.52261
# Velocity P-wave (km/s) = 8.25783 6.99779 7.65379
#
# Compressibility (1/GPa) = 0.01234868
#
# Stress axis : x y z
#
# Youngs Moduli (GPa) = 139.40202 73.19642 120.67023
#
# Poissons Ratio (x) = 0.22698 0.28675
# Poissons Ratio (y) = 0.43228 0.35111
# Poissons Ratio (z) = 0.33126 0.21298
#
# Static dielectric constant tensor:
#      x y z
#    x 3.788500 0.000000 0.030340 
#    y 0.000000 3.762760 0.000000 
#    z 0.030340 0.000000 3.717290 
# 
# 
# High freq. dielectric constant tensor:
#      x y z
#    x 1.813310 0.000000 0.005260 
#    y 0.000000 1.811530 0.000000 
#    z 0.005260 0.000000 1.806980 
# 
# From -- ./inp_files/33686.got.cif
#   From: 2010.06.25/outbox.cif.g09.slc.cpg/sg10_17_cif.got.tgz:33686.got - 2010.06.27 22:07:45.
