data_PCOD8067767
_publ_section_title
;
Structure prediction by ZEFSAII (Michael W. Deem and Ramdas Pophale) SiO2 
 PCOD8067767
Probable space group: P 2/M
;
_chemical_formula_sum "Si O2"
_cell_formula_units_Z 32
_cell_length_a 12.546194
_cell_length_b 8.872740
_cell_length_c 17.111626
_cell_angle_alpha 90.000000
_cell_angle_beta 90.005538
_cell_angle_gamma 90.000000
_cell_volume 1904.851094
_symmetry_space_group_name_H-M "P 2/M"
_symmetry_group_IT_number 10
_symmetry_cell_setting 'monoclinic'
loop_
_space_group_symop_operation_xyz
x,y,z
-x,y,-z
-x,-y,-z
x,-y,z
loop_
_atom_site_type_symbol
_atom_site_label
_atom_site_fract_x
_atom_site_fract_y
_atom_site_fract_z
Si Si1 0.873049 0.173833 0.331037
Si Si2 0.623097 0.826351 0.910149
Si Si3 0.623314 0.173651 0.089713
Si Si4 0.806047 0.676052 0.821178
Si Si5 0.116415 0.821872 0.500005
Si Si6 0.126931 0.826167 0.331047
Si Si7 0.999855 0.178171 0.910952
Si Si8 0.193713 0.676051 0.821213
O O1 0.827826 0.222594 0.417536
O O2 0.812524 0.278304 0.269459
O O3 0.999991 0.199181 0.326279
O O4 0.845795 0.000000 0.313161
O O5 0.499871 0.793601 0.892821
O O6 0.690482 0.719148 0.853925
O O7 0.650871 0.000000 0.892661
O O8 0.650475 0.788567 0.999916
O O9 0.690828 0.280885 0.145834
O O10 0.651143 0.000000 0.107173
O O11 0.825523 0.500000 0.829886
O O12 0.812566 0.721690 0.730522
O O13 0.894752 0.762662 0.869849
O O14 0.172165 0.777414 0.417550
O O15 0.000000 0.745684 0.500000
O O16 0.101172 0.000000 0.500007
O O17 0.154177 0.000000 0.313164
O O18 0.104798 0.237314 0.869644
O O19 0.999836 0.000000 0.904544
O O20 0.000000 0.233808 0.000000
O O21 0.174209 0.500000 0.829903
#
# Coordination Sequence:
#
# PCOD8067767 Si02
#       8
#     4   4   4   4   4   4   4   4
#     4   9  16  29  49  70  97 132 168 203 239 285
#     4   9  19  37  58  75  92 122 168 214 250 289
#     4   9  19  37  58  75  92 122 168 214 250 289
#     4  12  23  32  47  74 106 133 160 198 248 300
#     4   7  12  24  45  71  92 121 167 208 238 274
#     4   9  16  29  49  70  97 132 168 203 239 285
#     4  11  23  37  51  66  91 132 175 207 240 287
#     4  12  23  32  47  74 106 133 160 198 248 300
#
# _framework density 16.799213999999999
#
# number of rings (size 3 to 8) (size 9 to 14) (size 15 to 20)
#    0.000    2.250    1.250    5.625    0.000    5.000 
#    0.000    1.875    0.000    2.250    0.000    0.875 
#    0.000    7.000    0.000    0.000    0.000    0.000 
#
# Total GULP energy -396657.499529 kJ/mol
# GULP energy per Si atom -12395.546860 kJ/mol
# Density = 1.676098 g / cm^3
# Si number density = 16.799214 Si / 1000 Ang^3
#
#
#
# Elastic Constant Matrix: (Units=GPa)
#
#
# Indices 1 2 3 4 5 6 
#
# 1 56.6270 18.0240 40.7445 0.0000 -0.2067 0.0000
# 2 18.0240 46.1600 35.6727 0.0000 -0.1011 0.0000
# 3 40.7445 35.6727 139.0210 0.0000 -0.4091 0.0000
# 4 0.0000 0.0000 0.0000 0.9725 0.0000 0.0401
# 5 -0.2067 -0.1011 -0.4091 0.0000 9.8850 0.0000
# 6 0.0000 0.0000 0.0000 0.0401 0.0000 10.1665
#
#
#
# Elastic Compliance Matrix: (Units=1/GPa)
#
#
# Indices 1 2 3 4 5 6 
#
# 1 0.023182 -0.004741 -0.005577 0.000000 0.000206 0.000000
# 2 -0.004741 0.027992 -0.005793 0.000000 -0.000053 0.000000
# 3 -0.005577 -0.005793 0.010315 0.000000 0.000251 0.000000
# 4 0.000000 0.000000 0.000000 1.028476 0.000000 -0.004061
# 5 0.000206 -0.000053 0.000251 0.000000 0.101178 0.000000
# 6 0.000000 0.000000 0.000000 -0.004061 0.000000 0.098378
#
#
# Mechanical properties :
#
#
# Convention : Reuss Voigt Hill
#
# Bulk Modulus (GPa) = 34.16969 47.85448 41.01209
# Shear Modulus (GPa) = 3.75516 14.02924 8.89220
#
# Velocity S-wave (km/s) = 1.49672 2.89297 2.30320
# Velocity P-wave (km/s) = 4.83437 6.30135 5.61596
#
# Compressibility (1/GPa) = 0.02926570
#
# Stress axis : x y z
#
# Youngs Moduli (GPa) = 43.13668 35.72434 96.94657
#
# Poissons Ratio (x) = 0.16939 0.54067
# Poissons Ratio (y) = 0.20453 0.56164
# Poissons Ratio (z) = 0.24057 0.20696
#
# Static dielectric constant tensor:
#      x y z
#    x 2.955880 0.000000 0.001010 
#    y 0.000000 2.978140 0.000000 
#    z 0.001010 0.000000 3.569870 
# 
# 
# High freq. dielectric constant tensor:
#      x y z
#    x 1.609520 0.000000 -0.000020 
#    y 0.000000 1.634320 0.000000 
#    z -0.000020 0.000000 1.661450 
# 
# From -- ./inp_files/75996.got.cif
#   From: 2010.06.25/outbox.cif.g09.slc.cpg/sg10_38_cif.got.tgz:75996.got - 2010.06.27 22:07:45.
