data_PCOD8067888
_publ_section_title
;
Structure prediction by ZEFSAII (Michael W. Deem and Ramdas Pophale) SiO2 
 PCOD8067888
Probable space group: P 2/M
;
_chemical_formula_sum "Si O2"
_cell_formula_units_Z 32
_cell_length_a 21.598177
_cell_length_b 9.738969
_cell_length_c 10.223419
_cell_angle_alpha 90.000000
_cell_angle_beta 111.505951
_cell_angle_gamma 90.000000
_cell_volume 2000.720264
_symmetry_space_group_name_H-M "P 2/M"
_symmetry_group_IT_number 10
_symmetry_cell_setting 'monoclinic'
loop_
_space_group_symop_operation_xyz
x,y,z
-x,y,-z
-x,-y,-z
x,-y,z
loop_
_atom_site_type_symbol
_atom_site_label
_atom_site_fract_x
_atom_site_fract_y
_atom_site_fract_z
Si Si1 0.941059 0.340072 0.052419
Si Si2 0.465025 0.836040 0.344695
Si Si3 0.677448 0.163141 0.152727
Si Si4 0.178182 0.847303 0.731378
Si Si5 0.180805 0.153184 0.044140
Si Si6 0.325708 0.163246 0.141190
Si Si7 0.541784 0.836496 0.154383
Si Si8 0.941985 0.659309 0.355266
O O1 0.924084 0.500000 0.025871
O O2 0.876409 0.256957 0.953578
O O3 0.960448 0.303930 0.218392
O O4 0.000000 0.297502 0.000000
O O5 0.500000 0.775055 0.500000
O O6 0.388226 0.784370 0.276137
O O7 0.508373 0.776826 0.258658
O O8 0.466409 0.000000 0.346358
O O9 0.749962 0.205629 0.266387
O O10 0.618336 0.215522 0.201679
O O11 0.675433 0.000000 0.139897
O O12 0.666084 0.224724 0.998590
O O13 0.183571 0.852782 0.890817
O O14 0.121622 0.742603 0.642599
O O15 0.161330 0.000000 0.664544
O O16 0.165468 0.000000 0.087324
O O17 0.254020 0.206370 0.148395
O O18 0.326826 0.000000 0.133069
O O19 0.539315 0.000000 0.154676
O O20 0.500000 0.779920 0.000000
O O21 0.924335 0.500000 0.353623
O O22 0.000000 0.700943 0.500000
#
# Coordination Sequence:
#
# PCOD8067888 Si02
#       8
#     4   4   4   4   4   4   4   4
#     4   9  17  29  45  64  83 102 129 168 203 229
#     4   9  15  20  28  45  70 100 128 153 187 230
#     4   8  12  19  33  51  70  94 127 164 193 220
#     4   8  14  24  39  60  83 106 133 165 199 233
#     4   8  14  24  40  60  81 107 135 162 196 240
#     4   8  12  20  33  49  70  97 129 159 188 226
#     4   9  13  18  30  47  66  92 127 160 187 219
#     4   9  17  29  45  63  82 105 133 162 195 239
#
# _framework density 15.99424
#
# number of rings (size 3 to 8) (size 9 to 14) (size 15 to 20)
#    0.000    3.500    1.250    1.500    0.000    0.500 
#    0.000    0.000    2.750    0.000    0.000    0.000 
#    0.000    2.000    0.000    0.125    0.000    0.125 
#
# Total GULP energy -396435.537831 kJ/mol
# GULP energy per Si atom -12388.610557 kJ/mol
# Density = 1.595784 g / cm^3
# Si number density = 15.994240 Si / 1000 Ang^3
#
#
#
# Elastic Constant Matrix: (Units=GPa)
#
#
# Indices 1 2 3 4 5 6 
#
# 1 149.8113 39.0626 68.9140 0.0000 29.1006 0.0000
# 2 39.0626 27.3132 25.5240 0.0000 12.8804 0.0000
# 3 68.9140 25.5240 97.6300 0.0000 20.8089 0.0000
# 4 0.0000 0.0000 0.0000 6.3166 0.0000 -2.5312
# 5 29.1006 12.8804 20.8089 0.0000 29.2541 0.0000
# 6 0.0000 0.0000 0.0000 -2.5312 0.0000 2.9845
#
#
#
# Elastic Compliance Matrix: (Units=1/GPa)
#
#
# Indices 1 2 3 4 5 6 
#
# 1 0.012886 -0.011707 -0.005188 0.000000 -0.003973 0.000000
# 2 -0.011707 0.064954 -0.006016 0.000000 -0.012674 0.000000
# 3 -0.005188 -0.006016 0.016282 0.000000 -0.003771 0.000000
# 4 0.000000 0.000000 0.000000 0.239815 0.000000 0.203389
# 5 -0.003973 -0.012674 -0.003771 0.000000 0.046399 0.000000
# 6 0.000000 0.000000 0.000000 0.203389 0.000000 0.507558
#
#
# Mechanical properties :
#
#
# Convention : Reuss Voigt Hill
#
# Bulk Modulus (GPa) = 20.70454 60.19507 40.44980
# Shear Modulus (GPa) = 5.26417 17.12798 11.19608
#
# Velocity S-wave (km/s) = 1.81616 3.27599 2.64863
# Velocity P-wave (km/s) = 4.16785 7.21295 5.89057
#
# Compressibility (1/GPa) = 0.04829858
#
# Stress axis : x y z
#
# Youngs Moduli (GPa) = 77.60278 15.39539 61.41823
#
# Poissons Ratio (x) = 0.18024 0.31866
# Poissons Ratio (y) = 0.90850 0.36952
# Poissons Ratio (z) = 0.40263 0.09263
#
# Static dielectric constant tensor:
#      x y z
#    x 3.390470 0.000000 0.275110 
#    y 0.000000 2.604530 0.000000 
#    z 0.275110 0.000000 3.017940 
# 
# 
# High freq. dielectric constant tensor:
#      x y z
#    x 1.621760 0.000000 0.023390 
#    y 0.000000 1.555230 0.000000 
#    z 0.023390 0.000000 1.589960 
# 
# From -- ./inp_files/53382.got.cif
#   From: 2010.06.25/outbox.cif.g09.slc.cpg/sg10_27_cif.got.tgz:53382.got - 2010.06.27 22:07:45.
