data_PCOD8067788
_publ_section_title
;
Structure prediction by ZEFSAII (Michael W. Deem and Ramdas Pophale) SiO2 
 PCOD8067788
Probable space group: P 2/M
;
_chemical_formula_sum "Si O2"
_cell_formula_units_Z 24
_cell_length_a 13.464355
_cell_length_b 10.783015
_cell_length_c 20.150568
_cell_angle_alpha 90.000000
_cell_angle_beta 155.199486
_cell_angle_gamma 90.000000
_cell_volume 1227.167492
_symmetry_space_group_name_H-M "P 2/M"
_symmetry_group_IT_number 10
_symmetry_cell_setting 'monoclinic'
loop_
_space_group_symop_operation_xyz
x,y,z
-x,y,-z
-x,-y,-z
x,-y,z
loop_
_atom_site_type_symbol
_atom_site_label
_atom_site_fract_x
_atom_site_fract_y
_atom_site_fract_z
Si Si1 0.223424 0.000000 0.981659
Si Si2 0.797729 0.260862 0.461966
Si Si3 0.704418 0.642528 0.269882
Si Si4 0.300659 0.000000 0.285527
Si Si5 0.143680 0.355250 0.363318
Si Si6 0.333143 0.229582 0.957505
Si Si7 0.440760 0.000000 0.691117
Si Si8 0.500000 0.796670 0.500000
O O1 0.231875 0.881745 0.939427
O O2 0.979963 0.000000 0.874439
O O3 0.441616 0.000000 0.164912
O O4 0.654913 0.333529 0.317826
O O5 0.729262 0.324836 0.489864
O O6 0.729481 0.117089 0.421010
O O7 0.079633 0.269860 0.621345
O O8 0.775548 0.500000 0.300640
O O9 0.470100 0.674325 0.087447
O O10 0.352768 0.000000 0.238793
O O11 0.420029 0.120916 0.389505
O O12 0.143341 0.500000 0.348970
O O13 0.281382 0.289437 0.387335
O O14 0.877124 0.304990 0.204400
O O15 0.500000 0.177593 0.000000
#
# Coordination Sequence:
#
# PCOD8067788 Si02
#       8
#     2   4   4   2   4   4   2   2
#     4  12  25  46  64  89 133 167 216 273 314 380
#     4  11  23  39  65  94 126 170 214 260 317 370
#     4  11  23  42  62  92 135 174 212 255 314 388
#     4  11  23  43  68  89 123 165 218 267 328 376
#     4  12  24  42  67  97 132 170 213 262 319 386
#     4  12  25  41  65  98 130 174 211 258 325 383
#     4  12  24  42  69  92 122 167 221 273 316 380
#     4  11  23  42  68  94 123 169 214 266 326 377
#
# _framework density 19.557233
#
# number of rings (size 3 to 8) (size 9 to 14) (size 15 to 20)
#    0.000    0.500    6.667    3.250    0.000    3.333 
#    0.000    0.000    0.000    0.000    0.000    7.000 
#    0.000    0.000    0.000    0.000    0.000    0.000 
#
# Total GULP energy -297738.552847 kJ/mol
# GULP energy per Si atom -12405.773035 kJ/mol
# Density = 1.951272 g / cm^3
# Si number density = 19.557233 Si / 1000 Ang^3
#
#
#
# Elastic Constant Matrix: (Units=GPa)
#
#
# Indices 1 2 3 4 5 6 
#
# 1 92.7512 47.4446 35.1473 0.0000 -1.3824 0.0000
# 2 47.4446 144.5031 40.1980 0.0000 8.3271 0.0000
# 3 35.1473 40.1980 85.0316 0.0000 -2.2957 0.0000
# 4 0.0000 0.0000 0.0000 32.1272 0.0000 -18.3489
# 5 -1.3824 8.3271 -2.2957 0.0000 37.6471 0.0000
# 6 0.0000 0.0000 0.0000 -18.3489 0.0000 58.5372
#
#
#
# Elastic Compliance Matrix: (Units=1/GPa)
#
#
# Indices 1 2 3 4 5 6 
#
# 1 0.014195 -0.003566 -0.004153 0.000000 0.001057 0.000000
# 2 -0.003566 0.009017 -0.002850 0.000000 -0.002299 0.000000
# 3 -0.004153 -0.002850 0.014862 0.000000 0.001384 0.000000
# 4 0.000000 0.000000 0.000000 0.037914 0.000000 0.011884
# 5 0.001057 -0.002299 0.001384 0.000000 0.027194 0.000000
# 6 0.000000 0.000000 0.000000 0.011884 0.000000 0.020808
#
#
# Mechanical properties :
#
#
# Convention : Reuss Voigt Hill
#
# Bulk Modulus (GPa) = 59.05253 63.09618 61.07435
# Shear Modulus (GPa) = 33.16203 38.96202 36.06203
#
# Velocity S-wave (km/s) = 4.12228 4.46825 4.29875
# Velocity P-wave (km/s) = 7.27447 7.67807 7.47899
#
# Compressibility (1/GPa) = 0.01693408
#
# Stress axis : x y z
#
# Youngs Moduli (GPa) = 70.44577 110.90601 67.28612
#
# Poissons Ratio (x) = 0.39553 0.27944
# Poissons Ratio (y) = 0.25123 0.19180
# Poissons Ratio (z) = 0.29257 0.31614
#
# Static dielectric constant tensor:
#      x y z
#    x 3.681610 0.000000 -0.175640 
#    y 0.000000 3.522710 0.000000 
#    z -0.175640 0.000000 3.551690 
# 
# 
# High freq. dielectric constant tensor:
#      x y z
#    x 1.770320 0.000000 -0.013330 
#    y 0.000000 1.766710 0.000000 
#    z -0.013330 0.000000 1.761110 
# 
# From -- ./inp_files/76759.got.cif
#   From: 2010.06.25/outbox.cif.g09.slc.cpg/sg10_39_cif.got.tgz:76759.got - 2010.06.27 22:07:45.
