data_PCOD8067225
_publ_section_title
;
Structure prediction by ZEFSAII (Michael W. Deem and Ramdas Pophale) SiO2 
 PCOD8067225
Probable space group: P 2/M
;
_chemical_formula_sum "Si O2"
_cell_formula_units_Z 24
_cell_length_a 11.530578
_cell_length_b 8.741259
_cell_length_c 12.076780
_cell_angle_alpha 90.000000
_cell_angle_beta 69.018755
_cell_angle_gamma 90.000000
_cell_volume 1136.534184
_symmetry_space_group_name_H-M "P 2/M"
_symmetry_group_IT_number 10
_symmetry_cell_setting 'monoclinic'
loop_
_space_group_symop_operation_xyz
x,y,z
-x,y,-z
-x,-y,-z
x,-y,z
loop_
_atom_site_type_symbol
_atom_site_label
_atom_site_fract_x
_atom_site_fract_y
_atom_site_fract_z
Si Si1 0.786353 0.821267 0.323257
Si Si2 0.615269 0.323449 0.211036
Si Si3 0.858828 0.678845 0.525472
Si Si4 0.346561 0.325099 0.228891
Si Si5 0.988082 0.326944 0.873601
Si Si6 0.270178 0.178439 0.044450
O O1 0.668721 0.735935 0.309014
O O2 0.800635 0.771613 0.444583
O O3 0.909978 0.781981 0.213837
O O4 0.761185 0.000000 0.325698
O O5 0.652749 0.500000 0.182335
O O6 0.467259 0.299444 0.264322
O O7 0.674336 0.229845 0.090523
O O8 0.853517 0.500000 0.498413
O O9 0.776212 0.718922 0.660524
O O10 0.000000 0.731828 0.500000
O O11 0.340727 0.500000 0.190148
O O12 0.361418 0.218543 0.115331
O O13 0.006413 0.500000 0.823299
O O14 0.854502 0.268676 0.882417
O O15 0.000000 0.318600 0.000000
O O16 0.242810 0.000000 0.047574
#
# Coordination Sequence:
#
# PCOD8067225 Si02
#       6
#     4   4   4   4   4   4
#     4  12  25  40  63  95 130 163 203 260 320 372
#     4  11  23  41  63  89 125 169 216 259 305 370
#     4  10  22  43  69  93 121 161 210 259 309 372
#     4  10  23  42  65  91 122 168 219 260 303 367
#     4  11  22  38  63  90 121 163 206 250 303 367
#     4  12  24  38  62  95 131 164 203 261 321 373
#
# _framework density 21.11683
#
# number of rings (size 3 to 8) (size 9 to 14) (size 15 to 20)
#    0.000    1.000    1.667    5.500    0.000    7.000 
#    0.000    3.333    0.000    0.000    0.000    0.000 
#    0.000    0.000    0.000    0.000    0.000    0.000 
#
# Total GULP energy -297759.837926 kJ/mol
# GULP energy per Si atom -12406.659914 kJ/mol
# Density = 2.106877 g / cm^3
# Si number density = 21.116830 Si / 1000 Ang^3
#
#
#
# Elastic Constant Matrix: (Units=GPa)
#
#
# Indices 1 2 3 4 5 6 
#
# 1 116.9413 32.1356 31.4716 0.0000 9.4504 0.0000
# 2 32.1356 75.4461 31.4291 0.0000 11.5053 0.0000
# 3 31.4716 31.4291 71.0408 0.0000 13.5929 0.0000
# 4 0.0000 0.0000 0.0000 30.7745 0.0000 0.8768
# 5 9.4504 11.5053 13.5929 0.0000 36.3454 0.0000
# 6 0.0000 0.0000 0.0000 0.8768 0.0000 30.0267
#
#
#
# Elastic Compliance Matrix: (Units=1/GPa)
#
#
# Indices 1 2 3 4 5 6 
#
# 1 0.010255 -0.002985 -0.003116 0.000000 -0.000556 0.000000
# 2 -0.002985 0.017358 -0.005874 0.000000 -0.002522 0.000000
# 3 -0.003116 -0.005874 0.018897 0.000000 -0.004398 0.000000
# 4 0.000000 0.000000 0.000000 0.032522 0.000000 -0.000950
# 5 -0.000556 -0.002522 -0.004398 0.000000 0.030101 0.000000
# 6 0.000000 0.000000 0.000000 -0.000950 0.000000 0.033331
#
#
# Mechanical properties :
#
#
# Convention : Reuss Voigt Hill
#
# Bulk Modulus (GPa) = 44.32830 50.38897 47.35863
# Shear Modulus (GPa) = 28.74641 30.65543 29.70092
#
# Velocity S-wave (km/s) = 3.69359 3.81426 3.75441
# Velocity P-wave (km/s) = 6.26320 6.58118 6.42415
#
# Compressibility (1/GPa) = 0.02255895
#
# Stress axis : x y z
#
# Youngs Moduli (GPa) = 97.51170 57.61157 52.91822
#
# Poissons Ratio (x) = 0.17198 0.16489
# Poissons Ratio (y) = 0.29110 0.31085
# Poissons Ratio (z) = 0.30385 0.33842
#
# Static dielectric constant tensor:
#      x y z
#    x 4.097720 0.000000 0.107680 
#    y 0.000000 3.783330 0.000000 
#    z 0.107680 0.000000 4.053070 
# 
# 
# High freq. dielectric constant tensor:
#      x y z
#    x 1.843890 0.000000 0.006960 
#    y 0.000000 1.825040 0.000000 
#    z 0.006960 0.000000 1.823760 
# 
# From -- ./inp_files/45062.got.cif
#   From: 2010.06.25/outbox.cif.g09.slc.cpg/sg10_23_cif.got.tgz:45062.got - 2010.06.27 22:07:45.
