data_PCOD8067974
_publ_section_title
;
Structure prediction by ZEFSAII (Michael W. Deem and Ramdas Pophale) SiO2 
 PCOD8067974
Probable space group: P 2/M
;
_chemical_formula_sum "Si O2"
_cell_formula_units_Z 32
_cell_length_a 16.863741
_cell_length_b 9.656773
_cell_length_c 21.570065
_cell_angle_alpha 90.000000
_cell_angle_beta 148.539350
_cell_angle_gamma 90.000000
_cell_volume 1833.307848
_symmetry_space_group_name_H-M "P 2/M"
_symmetry_group_IT_number 10
_symmetry_cell_setting 'monoclinic'
loop_
_space_group_symop_operation_xyz
x,y,z
-x,y,-z
-x,-y,-z
x,-y,z
loop_
_atom_site_type_symbol
_atom_site_label
_atom_site_fract_x
_atom_site_fract_y
_atom_site_fract_z
Si Si1 0.120604 0.657833 0.204396
Si Si2 0.303869 0.662638 0.550364
Si Si3 0.462405 0.342927 0.783775
Si Si4 0.822998 0.844489 0.869086
Si Si5 0.232680 0.845080 0.687023
Si Si6 0.939135 0.843772 0.557119
Si Si7 0.218697 0.658436 0.046397
Si Si8 0.621119 0.340593 0.533206
O O1 0.138873 0.500000 0.192350
O O2 0.203611 0.759643 0.211589
O O3 0.206797 0.678053 0.326837
O O4 0.941881 0.693547 0.093653
O O5 0.269037 0.500000 0.521606
O O6 0.413305 0.697911 0.680919
O O7 0.141412 0.739202 0.449155
O O8 0.382743 0.719855 0.539504
O O9 0.414896 0.500000 0.765332
O O10 0.380047 0.253001 0.781799
O O11 0.644043 0.320813 0.910897
O O12 0.745439 0.760808 0.873015
O O13 0.754367 0.000000 0.818185
O O14 0.000000 0.852456 0.000000
O O15 0.146867 0.837837 0.565067
O O16 0.114961 0.798745 0.662613
O O17 0.290513 0.000000 0.738943
O O18 0.932991 0.000000 0.579722
O O19 0.219004 0.500000 0.071478
O O20 0.500000 0.268825 0.500000
O O21 0.573918 0.500000 0.496760
#
# Coordination Sequence:
#
# PCOD8067974 Si02
#       8
#     4   4   4   4   4   4   4   4
#     4   9  17  30  47  62  79 110 149 183 214 256
#     4   9  17  28  42  63  86 112 145 178 213 254
#     4   9  17  26  40  64  93 114 135 173 216 256
#     4   9  17  28  42  61  83 106 137 179 222 259
#     4   8  14  25  41  62  88 116 142 165 203 261
#     4   8  14  26  43  61  85 116 143 170 206 254
#     4   9  17  28  43  64  86 111 143 176 215 261
#     4   9  18  30  46  64  84 114 150 185 219 252
#
# _framework density 17.454789000000002
#
# number of rings (size 3 to 8) (size 9 to 14) (size 15 to 20)
#    0.000    3.250    0.000    1.125    1.750    2.500 
#    0.000    3.125    0.000    0.750    0.000    0.875 
#    0.000    7.000    0.000    0.000    0.000    0.000 
#
# Total GULP energy -396521.653170 kJ/mol
# GULP energy per Si atom -12391.301662 kJ/mol
# Density = 1.741506 g / cm^3
# Si number density = 17.454789 Si / 1000 Ang^3
#
#
#
# Elastic Constant Matrix: (Units=GPa)
#
#
# Indices 1 2 3 4 5 6 
#
# 1 89.1041 30.5311 27.4937 0.0000 25.8220 0.0000
# 2 30.5311 60.1648 18.1578 0.0000 15.2751 0.0000
# 3 27.4937 18.1578 50.8172 0.0000 17.5560 0.0000
# 4 0.0000 0.0000 0.0000 10.8572 0.0000 5.8433
# 5 25.8220 15.2751 17.5560 0.0000 25.8724 0.0000
# 6 0.0000 0.0000 0.0000 5.8433 0.0000 18.6439
#
#
#
# Elastic Compliance Matrix: (Units=1/GPa)
#
#
# Indices 1 2 3 4 5 6 
#
# 1 0.017478 -0.004684 -0.003542 0.000000 -0.012275 0.000000
# 2 -0.004684 0.021422 -0.003090 0.000000 -0.005876 0.000000
# 3 -0.003542 -0.003090 0.027231 0.000000 -0.013118 0.000000
# 4 0.000000 0.000000 0.000000 0.110793 0.000000 -0.034724
# 5 -0.012275 -0.005876 -0.013118 0.000000 0.063273 0.000000
# 6 0.000000 0.000000 0.000000 -0.034724 0.000000 0.064520
#
#
# Mechanical properties :
#
#
# Convention : Reuss Voigt Hill
#
# Bulk Modulus (GPa) = 22.98897 39.16125 31.07511
# Shear Modulus (GPa) = 14.62635 19.33493 16.98064
#
# Velocity S-wave (km/s) = 2.89789 3.33185 3.12242
# Velocity P-wave (km/s) = 4.93925 6.10624 5.55348
#
# Compressibility (1/GPa) = 0.04349912
#
# Stress axis : x y z
#
# Youngs Moduli (GPa) = 57.21529 46.67999 36.72302
#
# Poissons Ratio (x) = 0.21864 0.13006
# Poissons Ratio (y) = 0.26799 0.11349
# Poissons Ratio (z) = 0.20264 0.14426
#
# Static dielectric constant tensor:
#      x y z
#    x 3.334030 0.000000 0.319770 
#    y 0.000000 3.328980 0.000000 
#    z 0.319770 0.000000 3.043670 
# 
# 
# High freq. dielectric constant tensor:
#      x y z
#    x 1.655140 0.000000 0.029360 
#    y 0.000000 1.660110 0.000000 
#    z 0.029360 0.000000 1.643350 
# 
# From -- ./inp_files/79917.got.cif
#   From: 2010.06.25/outbox.cif.g09.slc.cpg/sg10_40_cif.got.tgz:79917.got - 2010.06.27 22:07:45.
