data_PCOD8067429
_publ_section_title
;
Structure prediction by ZEFSAII (Michael W. Deem and Ramdas Pophale) SiO2 
 PCOD8067429
Probable space group: P 2/M
;
_chemical_formula_sum "Si O2"
_cell_formula_units_Z 24
_cell_length_a 12.120432
_cell_length_b 8.635741
_cell_length_c 21.711730
_cell_angle_alpha 90.000000
_cell_angle_beta 38.473182
_cell_angle_gamma 90.000000
_cell_volume 1413.858763
_symmetry_space_group_name_H-M "P 2/M"
_symmetry_group_IT_number 10
_symmetry_cell_setting 'monoclinic'
loop_
_space_group_symop_operation_xyz
x,y,z
-x,y,-z
-x,-y,-z
x,-y,z
loop_
_atom_site_type_symbol
_atom_site_label
_atom_site_fract_x
_atom_site_fract_y
_atom_site_fract_z
Si Si1 0.226274 0.182437 0.737795
Si Si2 0.354004 0.181242 0.986601
Si Si3 0.931849 0.182060 0.327030
Si Si4 0.579078 0.179676 0.531835
Si Si5 0.712980 0.319007 0.853167
Si Si6 0.039357 0.320222 0.052796
O O1 0.129515 0.217064 0.715692
O O2 0.433078 0.243471 0.644440
O O3 0.132902 0.276940 0.832385
O O4 0.217629 0.000000 0.756091
O O5 0.538047 0.269682 0.891819
O O6 0.391371 0.000000 0.969322
O O7 0.279096 0.228188 0.085894
O O8 0.210753 0.223065 0.997768
O O9 0.781354 0.245486 0.441575
O O10 0.112975 0.273716 0.261990
O O11 0.963560 0.000000 0.322355
O O12 0.500000 0.210766 0.500000
O O13 0.596075 0.000000 0.537323
O O14 0.707982 0.500000 0.869138
O O15 0.082202 0.500000 0.042925
O O16 0.000000 0.276798 0.000000
#
# Coordination Sequence:
#
# PCOD8067429 Si02
#       6
#     4   4   4   4   4   4
#     4   9  16  28  47  68  93 126 162 199 232 274
#     4  11  21  34  50  68  91 124 166 202 235 280
#     4   9  15  26  45  70  98 128 158 189 230 284
#     4   7  12  23  41  66  94 123 155 190 232 276
#     4  11  20  30  47  71 101 129 154 191 242 291
#     4  11  23  36  49  68  97 130 161 198 244 286
#
# _framework density 16.974820999999999
#
# number of rings (size 3 to 8) (size 9 to 14) (size 15 to 20)
#    0.000    2.333    1.667    6.500    0.000    1.333 
#    0.000    0.833    0.000    3.000    0.000    1.167 
#    0.000    9.333    0.000    0.000    0.000    0.000 
#
# Total GULP energy -297375.077618 kJ/mol
# GULP energy per Si atom -12390.628234 kJ/mol
# Density = 1.693619 g / cm^3
# Si number density = 16.974821 Si / 1000 Ang^3
#
#
#
# Elastic Constant Matrix: (Units=GPa)
#
#
# Indices 1 2 3 4 5 6 
#
# 1 61.8393 21.3695 49.6877 0.0000 -14.4244 0.0000
# 2 21.3695 53.1562 21.2678 0.0000 -5.1618 0.0000
# 3 49.6877 21.2678 124.6105 0.0000 -34.3140 0.0000
# 4 0.0000 0.0000 0.0000 9.0471 0.0000 1.8224
# 5 -14.4244 -5.1618 -34.3140 0.0000 29.7619 0.0000
# 6 0.0000 0.0000 0.0000 1.8224 0.0000 15.0227
#
#
#
# Elastic Compliance Matrix: (Units=1/GPa)
#
#
# Indices 1 2 3 4 5 6 
#
# 1 0.025886 -0.006753 -0.008845 0.000000 0.001176 0.000000
# 2 -0.006753 0.021963 -0.001330 0.000000 -0.000998 0.000000
# 3 -0.008845 -0.001330 0.015436 0.000000 0.013279 0.000000
# 4 0.000000 0.000000 0.000000 0.113302 0.000000 -0.013744
# 5 0.001176 -0.000998 0.013279 0.000000 0.049307 0.000000
# 6 0.000000 0.000000 0.000000 -0.013744 0.000000 0.068233
#
#
# Mechanical properties :
#
#
# Convention : Reuss Voigt Hill
#
# Bulk Modulus (GPa) = 33.98295 47.13954 40.56125
# Shear Modulus (GPa) = 14.80191 20.58508 17.69350
#
# Velocity S-wave (km/s) = 2.95616 3.48614 3.23203
# Velocity P-wave (km/s) = 5.63160 6.63587 6.15425
#
# Compressibility (1/GPa) = 0.02942652
#
# Stress axis : x y z
#
# Youngs Moduli (GPa) = 38.63033 45.53148 64.78475
#
# Poissons Ratio (x) = 0.30749 0.57305
# Poissons Ratio (y) = 0.26088 0.08619
# Poissons Ratio (z) = 0.34170 0.06058
#
# Static dielectric constant tensor:
#      x y z
#    x 2.883380 0.000000 -0.423970 
#    y 0.000000 3.023410 0.000000 
#    z -0.423970 0.000000 3.613350 
# 
# 
# High freq. dielectric constant tensor:
#      x y z
#    x 1.605170 0.000000 -0.039980 
#    y 0.000000 1.645090 0.000000 
#    z -0.039980 0.000000 1.663390 
# 
# From -- ./inp_files/83283.got.cif
#   From: 2010.06.25/outbox.cif.g09.slc.cpg/sg10_42_cif.got.tgz:83283.got - 2010.06.27 22:07:45.
