data_PCOD8067640
_publ_section_title
;
Structure prediction by ZEFSAII (Michael W. Deem and Ramdas Pophale) SiO2 
 PCOD8067640
Probable space group: P 2/M
;
_chemical_formula_sum "Si O2"
_cell_formula_units_Z 24
_cell_length_a 14.734572
_cell_length_b 8.310110
_cell_length_c 14.990321
_cell_angle_alpha 90.000000
_cell_angle_beta 140.603073
_cell_angle_gamma 90.000000
_cell_volume 1164.974042
_symmetry_space_group_name_H-M "P 2/M"
_symmetry_group_IT_number 10
_symmetry_cell_setting 'monoclinic'
loop_
_space_group_symop_operation_xyz
x,y,z
-x,y,-z
-x,-y,-z
x,-y,z
loop_
_atom_site_type_symbol
_atom_site_label
_atom_site_fract_x
_atom_site_fract_y
_atom_site_fract_z
Si Si1 0.356543 0.684543 0.667150
Si Si2 0.347273 0.190688 0.354545
Si Si3 0.154716 0.813830 0.367529
Si Si4 0.662377 0.190166 0.854190
Si Si5 0.847686 0.314124 0.147182
Si Si6 0.652717 0.812962 0.151197
O O1 0.329538 0.500000 0.621399
O O2 0.269711 0.796419 0.533519
O O3 0.523439 0.725727 0.789043
O O4 0.302980 0.716241 0.726787
O O5 0.500000 0.265011 0.500000
O O6 0.224469 0.251219 0.328459
O O7 0.310500 0.246957 0.226650
O O8 0.356824 0.000000 0.368205
O O9 0.017086 0.707210 0.284102
O O10 0.110194 0.000000 0.325726
O O11 0.641265 0.000000 0.844502
O O12 0.798636 0.245891 0.014338
O O13 0.806711 0.500000 0.125661
O O14 0.772760 0.214456 0.168402
O O15 0.643131 0.000000 0.168346
O O16 0.500000 0.749738 0.000000
#
# Coordination Sequence:
#
# PCOD8067640 Si02
#       6
#     4   4   4   4   4   4
#     4  12  24  39  63  97 131 164 204 258 321 373
#     4   9  18  36  65  96 122 160 215 266 303 357
#     4  11  23  43  67  92 127 169 214 260 310 371
#     4  11  21  39  66  94 124 166 218 259 304 371
#     4  12  26  43  62  93 134 166 203 261 325 374
#     4  11  23  41  68  95 121 163 217 259 302 372
#
# _framework density 20.601316000000001
#
# number of rings (size 3 to 8) (size 9 to 14) (size 15 to 20)
#    0.000    1.000    3.333    4.500    0.000    2.000 
#    0.000   10.833    0.000    0.000    0.000    0.000 
#    0.000    0.000    0.000    0.000    0.000    0.000 
#
# Total GULP energy -297772.857326 kJ/mol
# GULP energy per Si atom -12407.202389 kJ/mol
# Density = 2.055443 g / cm^3
# Si number density = 20.601316 Si / 1000 Ang^3
#
#
#
# Elastic Constant Matrix: (Units=GPa)
#
#
# Indices 1 2 3 4 5 6 
#
# 1 113.7595 16.9796 37.2787 0.0000 -5.7449 0.0000
# 2 16.9796 62.1625 13.6457 0.0000 -3.5775 0.0000
# 3 37.2787 13.6457 78.3113 0.0000 -11.1709 0.0000
# 4 0.0000 0.0000 0.0000 28.0786 0.0000 3.7540
# 5 -5.7449 -3.5775 -11.1709 0.0000 40.8568 0.0000
# 6 0.0000 0.0000 0.0000 3.7540 0.0000 9.8921
#
#
#
# Elastic Compliance Matrix: (Units=1/GPa)
#
#
# Indices 1 2 3 4 5 6 
#
# 1 0.010619 -0.001861 -0.004725 0.000000 0.000038 0.000000
# 2 -0.001861 0.017072 -0.001991 0.000000 0.000689 0.000000
# 3 -0.004725 -0.001991 0.015865 0.000000 0.003499 0.000000
# 4 0.000000 0.000000 0.000000 0.037518 0.000000 -0.014238
# 5 0.000038 0.000689 0.003499 0.000000 0.025498 0.000000
# 6 0.000000 0.000000 0.000000 -0.014238 0.000000 0.106494
#
#
# Mechanical properties :
#
#
# Convention : Reuss Voigt Hill
#
# Bulk Modulus (GPa) = 37.87608 43.33793 40.60700
# Shear Modulus (GPa) = 20.91884 28.18746 24.55315
#
# Velocity S-wave (km/s) = 3.19001 3.70298 3.45603
# Velocity P-wave (km/s) = 5.65627 6.27415 5.97320
#
# Compressibility (1/GPa) = 0.02640189
#
# Stress axis : x y z
#
# Youngs Moduli (GPa) = 94.17474 58.57611 63.03267
#
# Poissons Ratio (x) = 0.10901 0.29783
# Poissons Ratio (y) = 0.17526 0.12547
# Poissons Ratio (z) = 0.44498 0.11660
#
# Static dielectric constant tensor:
#      x y z
#    x 3.848030 0.000000 -0.179560 
#    y 0.000000 3.519770 0.000000 
#    z -0.179560 0.000000 3.680320 
# 
# 
# High freq. dielectric constant tensor:
#      x y z
#    x 1.812990 0.000000 -0.010880 
#    y 0.000000 1.796880 0.000000 
#    z -0.010880 0.000000 1.806660 
# 
# From -- ./inp_files/60203.got.cif
#   From: 2010.06.25/outbox.cif.g09.slc.cpg/sg10_31_cif.got.tgz:60203.got - 2010.06.27 22:07:45.
