data_PCOD8067044
_publ_section_title
;
Structure prediction by ZEFSAII (Michael W. Deem and Ramdas Pophale) SiO2 
 PCOD8067044
Probable space group: P 2/M
;
_chemical_formula_sum "Si O2"
_cell_formula_units_Z 24
_cell_length_a 13.665257
_cell_length_b 14.632864
_cell_length_c 8.135086
_cell_angle_alpha 90.000000
_cell_angle_beta 46.310127
_cell_angle_gamma 90.000000
_cell_volume 1176.254213
_symmetry_space_group_name_H-M "P 2/M"
_symmetry_group_IT_number 10
_symmetry_cell_setting 'monoclinic'
loop_
_space_group_symop_operation_xyz
x,y,z
-x,y,-z
-x,-y,-z
x,-y,z
loop_
_atom_site_type_symbol
_atom_site_label
_atom_site_fract_x
_atom_site_fract_y
_atom_site_fract_z
Si Si1 0.801503 0.395559 0.360839
Si Si2 0.371108 0.748443 0.242981
Si Si3 0.893569 0.396360 0.893435
Si Si4 0.407375 0.103323 0.458349
Si Si5 0.143486 0.223955 0.255465
Si Si6 0.126902 0.896037 0.954678
O O1 0.756140 0.500000 0.442540
O O2 0.692213 0.329227 0.567956
O O3 0.947493 0.377847 0.270096
O O4 0.811782 0.375010 0.154965
O O5 0.433429 0.831087 0.275469
O O6 0.261300 0.793817 0.249222
O O7 0.500000 0.704728 0.000000
O O8 0.867207 0.500000 0.867399
O O9 0.842180 0.330531 0.809751
O O10 0.500000 0.137833 0.500000
O O11 0.250928 0.109023 0.686964
O O12 0.448659 0.000000 0.361480
O O13 0.000000 0.199565 0.500000
O O14 0.161440 0.161697 0.075098
O O15 0.096251 0.000000 0.045248
O O16 0.000000 0.854783 0.000000
#
# Coordination Sequence:
#
# PCOD8067044 Si02
#       6
#     4   4   4   4   4   4
#     4   9  19  38  62  86 116 159 205 244 286 344
#     4  12  25  38  57  93 129 153 187 247 310 355
#     4   9  19  37  63  88 112 155 212 249 274 341
#     4  10  22  43  66  83 109 160 211 242 280 351
#     4  12  23  35  59  90 122 157 192 244 304 354
#     4  10  22  39  60  85 116 155 199 245 292 348
#
# _framework density 20.403753999999999
#
# number of rings (size 3 to 8) (size 9 to 14) (size 15 to 20)
#    0.000    1.667    1.667    4.000    2.333    2.667 
#    0.000    0.000    0.000    2.500    0.000    0.000 
#    0.000    0.000    0.000    0.000    0.000    0.000 
#
# Total GULP energy -297693.071922 kJ/mol
# GULP energy per Si atom -12403.877997 kJ/mol
# Density = 2.035731 g / cm^3
# Si number density = 20.403754 Si / 1000 Ang^3
#
#
#
# Elastic Constant Matrix: (Units=GPa)
#
#
# Indices 1 2 3 4 5 6 
#
# 1 103.5942 33.8444 16.2882 0.0000 -2.8447 0.0000
# 2 33.8444 92.0601 35.6376 0.0000 12.6680 0.0000
# 3 16.2882 35.6376 98.7012 0.0000 -8.4873 0.0000
# 4 0.0000 0.0000 0.0000 9.1687 0.0000 -4.2414
# 5 -2.8447 12.6680 -8.4873 0.0000 29.4983 0.0000
# 6 0.0000 0.0000 0.0000 -4.2414 0.0000 26.4426
#
#
#
# Elastic Compliance Matrix: (Units=1/GPa)
#
#
# Indices 1 2 3 4 5 6 
#
# 1 0.011221 -0.004570 0.000062 0.000000 0.003063 0.000000
# 2 -0.004570 0.016028 -0.005806 0.000000 -0.008995 0.000000
# 3 0.000062 -0.005806 0.012748 0.000000 0.006167 0.000000
# 4 0.000000 0.000000 0.000000 0.117808 0.000000 0.018896
# 5 0.003063 -0.008995 0.006167 0.000000 0.039833 0.000000
# 6 0.000000 0.000000 0.000000 0.018896 0.000000 0.040849
#
#
# Mechanical properties :
#
#
# Convention : Reuss Voigt Hill
#
# Bulk Modulus (GPa) = 51.63420 51.76623 51.70021
# Shear Modulus (GPa) = 18.82726 26.92760 22.87743
#
# Velocity S-wave (km/s) = 3.04095 3.63676 3.35212
# Velocity P-wave (km/s) = 6.13930 6.56207 6.35420
#
# Compressibility (1/GPa) = 0.01936701
#
# Stress axis : x y z
#
# Youngs Moduli (GPa) = 89.12176 62.39005 78.44235
#
# Poissons Ratio (x) = 0.28515 -0.00486
# Poissons Ratio (y) = 0.40733 0.45547
# Poissons Ratio (z) = -0.00552 0.36226
#
# Static dielectric constant tensor:
#      x y z
#    x 3.585330 0.000000 0.048950 
#    y 0.000000 3.782240 0.000000 
#    z 0.048950 0.000000 3.659820 
# 
# 
# High freq. dielectric constant tensor:
#      x y z
#    x 1.790800 0.000000 0.006070 
#    y 0.000000 1.800590 0.000000 
#    z 0.006070 0.000000 1.798870 
# 
# From -- ./inp_files/29267.got.cif
#   From: 2010.06.25/outbox.cif.g09.slc.cpg/sg10_15_cif.got.tgz:29267.got - 2010.06.27 22:07:45.
