data_PCOD8067370
_publ_section_title
;
Structure prediction by ZEFSAII (Michael W. Deem and Ramdas Pophale) SiO2 
 PCOD8067370
Probable space group: P 2/M
;
_chemical_formula_sum "Si O2"
_cell_formula_units_Z 24
_cell_length_a 13.340262
_cell_length_b 11.062933
_cell_length_c 20.014075
_cell_angle_alpha 90.000000
_cell_angle_beta 154.466610
_cell_angle_gamma 90.000000
_cell_volume 1273.165128
_symmetry_space_group_name_H-M "P 2/M"
_symmetry_group_IT_number 10
_symmetry_cell_setting 'monoclinic'
loop_
_space_group_symop_operation_xyz
x,y,z
-x,y,-z
-x,-y,-z
x,-y,z
loop_
_atom_site_type_symbol
_atom_site_label
_atom_site_fract_x
_atom_site_fract_y
_atom_site_fract_z
Si Si1 0.046403 0.000000 0.810868
Si Si2 0.840559 0.260612 0.496888
Si Si3 0.674226 0.644822 0.263423
Si Si4 0.352565 0.000000 0.328323
Si Si5 0.137396 0.638843 0.351710
Si Si6 0.326267 0.238550 0.955168
Si Si7 0.238776 0.000000 0.501296
Si Si8 0.500000 0.787120 0.500000
O O1 0.209520 0.115908 0.909959
O O2 0.910493 0.000000 0.801782
O O3 0.871853 0.000000 0.641800
O O4 0.666460 0.300735 0.333462
O O5 0.749943 0.323381 0.509916
O O6 0.097458 0.308805 0.636469
O O7 0.852038 0.115738 0.512493
O O8 0.672576 0.500000 0.264184
O O9 0.449421 0.695085 0.090668
O O10 0.469074 0.125883 0.419008
O O11 0.471606 0.000000 0.325550
O O12 0.176362 0.500000 0.361773
O O13 0.269994 0.707467 0.371991
O O14 0.865683 0.669843 0.188367
O O15 0.500000 0.206358 0.000000
#
# Coordination Sequence:
#
# PCOD8067370 Si02
#       8
#     2   4   4   2   4   4   2   2
#     4  12  20  37  60  88 125 151 197 253 301 357
#     4  11  22  38  62  86 119 165 200 244 299 352
#     4  11  24  41  57  85 128 166 198 237 298 369
#     4  11  16  35  60  82 118 149 195 251 314 343
#     4  12  22  36  60  92 121 158 207 246 293 359
#     4  12  23  37  60  91 124 161 194 246 307 353
#     4  12  19  37  64  90 116 148 205 262 293 350
#     4  11  19  36  60  90 115 157 198 256 300 343
#
# _framework density 18.850657000000002
#
# number of rings (size 3 to 8) (size 9 to 14) (size 15 to 20)
#    0.000    0.500    8.333    3.000    0.000    3.333 
#    0.000    0.000    0.000    5.000    0.000    7.000 
#    0.000    0.000    0.000    0.000    0.000    0.000 
#
# Total GULP energy -297374.890935 kJ/mol
# GULP energy per Si atom -12390.620456 kJ/mol
# Density = 1.880775 g / cm^3
# Si number density = 18.850657 Si / 1000 Ang^3
#
#
#
# Elastic Constant Matrix: (Units=GPa)
#
#
# Indices 1 2 3 4 5 6 
#
# 1 64.4236 45.9327 47.5148 0.0000 5.3675 0.0000
# 2 45.9327 175.1203 45.6206 0.0000 4.6944 0.0000
# 3 47.5148 45.6206 82.6961 0.0000 -1.3826 0.0000
# 4 0.0000 0.0000 0.0000 28.1982 0.0000 -1.2372
# 5 5.3675 4.6944 -1.3826 0.0000 30.0418 0.0000
# 6 0.0000 0.0000 0.0000 -1.2372 0.0000 24.9044
#
#
#
# Elastic Compliance Matrix: (Units=1/GPa)
#
#
# Indices 1 2 3 4 5 6 
#
# 1 0.029819 -0.003723 -0.015170 0.000000 -0.005444 0.000000
# 2 -0.003723 0.007178 -0.001830 0.000000 -0.000541 0.000000
# 3 -0.015170 -0.001830 0.021885 0.000000 0.004004 0.000000
# 4 0.000000 0.000000 0.000000 0.035541 0.000000 0.001766
# 5 -0.005444 -0.000541 0.004004 0.000000 0.034528 0.000000
# 6 0.000000 0.000000 0.000000 0.001766 0.000000 0.040241
#
#
# Mechanical properties :
#
#
# Convention : Reuss Voigt Hill
#
# Bulk Modulus (GPa) = 57.35268 66.70848 62.03058
# Shear Modulus (GPa) = 23.09990 28.84033 25.97012
#
# Velocity S-wave (km/s) = 3.50439 3.91568 3.71573
# Velocity P-wave (km/s) = 6.84581 7.47718 7.16845
#
# Compressibility (1/GPa) = 0.01743598
#
# Stress axis : x y z
#
# Youngs Moduli (GPa) = 33.53548 139.31260 45.69320
#
# Poissons Ratio (x) = 0.51872 0.69317
# Poissons Ratio (y) = 0.12487 0.08360
# Poissons Ratio (z) = 0.50874 0.25488
#
# Static dielectric constant tensor:
#      x y z
#    x 3.594570 0.000000 0.091900 
#    y 0.000000 3.629050 0.000000 
#    z 0.091900 0.000000 3.424320 
# 
# 
# High freq. dielectric constant tensor:
#      x y z
#    x 1.732110 0.000000 0.015260 
#    y 0.000000 1.756530 0.000000 
#    z 0.015260 0.000000 1.701980 
# 
# From -- ./inp_files/76757.got.cif
#   From: 2010.06.25/outbox.cif.g09.slc.cpg/sg10_39_cif.got.tgz:76757.got - 2010.06.27 22:07:45.
