data_PCOD8067575
_publ_section_title
;
Structure prediction by ZEFSAII (Michael W. Deem and Ramdas Pophale) SiO2 
 PCOD8067575
Probable space group: P 2/M
;
_chemical_formula_sum "Si O2"
_cell_formula_units_Z 30
_cell_length_a 14.328688
_cell_length_b 21.559455
_cell_length_c 14.773793
_cell_angle_alpha 90.000000
_cell_angle_beta 160.319907
_cell_angle_gamma 90.000000
_cell_volume 1536.976406
_symmetry_space_group_name_H-M "P 2/M"
_symmetry_group_IT_number 10
_symmetry_cell_setting 'monoclinic'
loop_
_space_group_symop_operation_xyz
x,y,z
-x,y,-z
-x,-y,-z
x,-y,z
loop_
_atom_site_type_symbol
_atom_site_label
_atom_site_fract_x
_atom_site_fract_y
_atom_site_fract_z
Si Si1 0.185577 0.131981 0.092438
Si Si2 0.360393 0.200983 0.964275
Si Si3 0.625435 0.309491 0.513312
Si Si4 0.191195 0.251227 0.988508
Si Si5 0.176924 0.874894 0.525947
Si Si6 0.263450 0.070697 0.417648
Si Si7 0.293690 0.000000 0.728704
Si Si8 0.199715 0.432949 0.263797
O O1 0.464870 0.099168 0.382270
O O2 0.267110 0.182454 0.091998
O O3 0.000000 0.165842 0.000000
O O4 0.996810 0.074706 0.886324
O O5 0.616374 0.178410 0.257289
O O6 0.500000 0.228966 0.000000
O O7 0.224456 0.252344 0.908268
O O8 0.136609 0.146887 0.731758
O O9 0.500000 0.300490 0.500000
O O10 0.769440 0.377793 0.634415
O O11 0.869224 0.260959 0.718034
O O12 0.387213 0.300930 0.219624
O O13 0.174709 0.884219 0.417598
O O14 0.311725 0.937681 0.687884
O O15 0.311830 0.000000 0.492402
O O16 0.000000 0.000000 0.500000
O O17 0.500000 0.000000 0.000000
O O18 0.500000 0.444957 0.500000
O O19 0.094540 0.500000 0.208128
O O20 0.000000 0.410589 0.000000
#
# Coordination Sequence:
#
# PCOD8067575 Si02
#       8
#     4   4   4   4   4   4   2   4
#     4  12  25  41  60  80 108 146 185 232 286 337
#     4  12  25  42  62  79 107 144 182 228 290 349
#     4  11  21  35  57  88 122 159 195 231 275 321
#     4  12  23  39  58  84 115 146 194 241 280 338
#     4  12  22  42  59  80 106 133 170 222 288 355
#     4  12  24  42  61  79 106 138 181 232 284 350
#     4  12  24  36  58  88 103 124 165 216 286 362
#     4   9  17  31  52  82 124 168 202 230 267 319
#
# _framework density 19.518840999999998
#
# number of rings (size 3 to 8) (size 9 to 14) (size 15 to 20)
#    0.000    0.533    3.333    7.600    0.000    1.600 
#    0.000    0.000    0.000    0.000    0.000    0.000 
#    0.000    3.200    0.000    0.000    0.000    0.000 
#
# Total GULP energy -371668.231930 kJ/mol
# GULP energy per Si atom -12388.941064 kJ/mol
# Density = 1.947441 g / cm^3
# Si number density = 19.518841 Si / 1000 Ang^3
#
#
#
# Elastic Constant Matrix: (Units=GPa)
#
#
# Indices 1 2 3 4 5 6 
#
# 1 112.0635 26.8669 25.8648 0.0000 1.7123 0.0000
# 2 26.8669 71.2409 20.8792 0.0000 -2.4621 0.0000
# 3 25.8648 20.8792 112.5022 0.0000 0.5397 0.0000
# 4 0.0000 0.0000 0.0000 29.0590 0.0000 -4.0089
# 5 1.7123 -2.4621 0.5397 0.0000 27.6171 0.0000
# 6 0.0000 0.0000 0.0000 -4.0089 0.0000 11.6910
#
#
#
# Elastic Compliance Matrix: (Units=1/GPa)
#
#
# Indices 1 2 3 4 5 6 
#
# 1 0.010134 -0.003354 -0.001703 0.000000 -0.000894 0.000000
# 2 -0.003354 0.016007 -0.002208 0.000000 0.001678 0.000000
# 3 -0.001703 -0.002208 0.009691 0.000000 -0.000281 0.000000
# 4 0.000000 0.000000 0.000000 0.036122 0.000000 0.012386
# 5 -0.000894 0.001678 -0.000281 0.000000 0.036420 0.000000
# 6 0.000000 0.000000 0.000000 0.012386 0.000000 0.089783
#
#
# Mechanical properties :
#
#
# Convention : Reuss Voigt Hill
#
# Bulk Modulus (GPa) = 46.94133 49.22537 48.08335
# Shear Modulus (GPa) = 22.74925 28.48646 25.61786
#
# Velocity S-wave (km/s) = 3.41765 3.82440 3.62673
# Velocity P-wave (km/s) = 6.29883 6.69145 6.49811
#
# Compressibility (1/GPa) = 0.02130319
#
# Stress axis : x y z
#
# Youngs Moduli (GPa) = 98.67467 62.47400 103.18464
#
# Poissons Ratio (x) = 0.20952 0.17575
# Poissons Ratio (y) = 0.33092 0.22780
# Poissons Ratio (z) = 0.16807 0.13792
#
# Static dielectric constant tensor:
#      x y z
#    x 3.618740 0.000000 0.038820 
#    y 0.000000 3.568190 0.000000 
#    z 0.038820 0.000000 3.765610 
# 
# 
# High freq. dielectric constant tensor:
#      x y z
#    x 1.739410 0.000000 0.007470 
#    y 0.000000 1.722180 0.000000 
#    z 0.007470 0.000000 1.791200 
# 
# From -- ./inp_files/67888.got.cif
#   From: 2010.06.25/outbox.cif.g09.slc.cpg/sg10_34_cif.got.tgz:67888.got - 2010.06.27 22:07:45.
