data_PCOD8067175
_publ_section_title
;
Structure prediction by ZEFSAII (Michael W. Deem and Ramdas Pophale) SiO2 
 PCOD8067175
Probable space group: P 2/M
;
_chemical_formula_sum "Si O2"
_cell_formula_units_Z 28
_cell_length_a 12.064894
_cell_length_b 11.121095
_cell_length_c 22.715161
_cell_angle_alpha 90.000000
_cell_angle_beta 28.007785
_cell_angle_gamma 90.000000
_cell_volume 1431.222430
_symmetry_space_group_name_H-M "P 2/M"
_symmetry_group_IT_number 10
_symmetry_cell_setting 'monoclinic'
loop_
_space_group_symop_operation_xyz
x,y,z
-x,y,-z
-x,-y,-z
x,-y,z
loop_
_atom_site_type_symbol
_atom_site_label
_atom_site_fract_x
_atom_site_fract_y
_atom_site_fract_z
Si Si1 0.990579 0.000000 0.907104
Si Si2 0.167706 0.637929 0.971719
Si Si3 0.606462 0.000000 0.184958
Si Si4 0.604503 0.748598 0.718103
Si Si5 0.236628 0.359934 0.143693
Si Si6 0.065836 0.251270 0.811440
Si Si7 0.462073 0.360861 0.377883
Si Si8 0.937988 0.637953 0.646935
O O1 0.007739 0.115795 0.857467
O O2 0.205191 0.000000 0.851498
O O3 0.742057 0.000000 0.058682
O O4 0.215637 0.500000 0.935423
O O5 0.413118 0.707088 0.856085
O O6 0.000000 0.695820 0.000000
O O7 0.047728 0.653108 0.090670
O O8 0.428496 0.889389 0.276528
O O9 0.565932 0.674004 0.677002
O O10 0.855954 0.720781 0.630515
O O11 0.183235 0.500000 0.156466
O O12 0.205426 0.329261 0.226967
O O13 0.047225 0.277335 0.198797
O O14 0.500000 0.325588 0.000000
O O15 0.346248 0.276983 0.679346
O O16 0.540415 0.500000 0.344551
O O17 0.215594 0.339322 0.527099
O O18 0.891674 0.500000 0.650672
#
# Coordination Sequence:
#
# PCOD8067175 Si02
#       8
#     2   4   2   4   4   4   4   4
#     4  11  22  40  57  89 128 160 200 256 307 351
#     4  11  19  29  52  88 118 141 186 252 307 356
#     4  11  22  38  59  88 125 166 201 249 309 360
#     4  12  21  37  59  88 124 163 202 249 305 364
#     4  10  22  41  64  92 123 157 198 251 312 368
#     4  12  22  38  61  88 121 161 208 251 299 363
#     4  11  22  37  61  92 123 160 204 252 311 370
#     4  10  23  41  61  89 128 163 198 251 310 367
#
# _framework density 19.563694999999999
#
# number of rings (size 3 to 8) (size 9 to 14) (size 15 to 20)
#    0.000    1.000    4.286    3.857    0.000    2.857 
#    0.000    5.357    0.000    0.857    0.000    0.000 
#    0.000    0.000    0.000    0.000    0.000    0.000 
#
# Total GULP energy -347315.630520 kJ/mol
# GULP energy per Si atom -12404.129661 kJ/mol
# Density = 1.951917 g / cm^3
# Si number density = 19.563695 Si / 1000 Ang^3
#
#
#
# Elastic Constant Matrix: (Units=GPa)
#
#
# Indices 1 2 3 4 5 6 
#
# 1 97.8738 33.6294 18.0210 0.0000 -9.2617 0.0000
# 2 33.6294 90.1332 19.0955 0.0000 -3.0282 0.0000
# 3 18.0210 19.0955 77.3631 0.0000 -5.5485 0.0000
# 4 0.0000 0.0000 0.0000 18.3268 0.0000 -5.6894
# 5 -9.2617 -3.0282 -5.5485 0.0000 20.7534 0.0000
# 6 0.0000 0.0000 0.0000 -5.6894 0.0000 25.6438
#
#
#
# Elastic Compliance Matrix: (Units=1/GPa)
#
#
# Indices 1 2 3 4 5 6 
#
# 1 0.012344 -0.004130 -0.001534 0.000000 0.004496 0.000000
# 2 -0.004130 0.013107 -0.002313 0.000000 -0.000549 0.000000
# 3 -0.001534 -0.002313 0.014050 0.000000 0.002735 0.000000
# 4 0.000000 0.000000 0.000000 0.058601 0.000000 0.013001
# 5 0.004496 -0.000549 0.002735 0.000000 0.050842 0.000000
# 6 0.000000 0.000000 0.000000 0.013001 0.000000 0.041880
#
#
# Mechanical properties :
#
#
# Convention : Reuss Voigt Hill
#
# Bulk Modulus (GPa) = 42.46372 45.20686 43.83529
# Shear Modulus (GPa) = 23.29624 25.91974 24.60799
#
# Velocity S-wave (km/s) = 3.45453 3.64385 3.55045
# Velocity P-wave (km/s) = 6.13711 6.39228 6.26599
#
# Compressibility (1/GPa) = 0.02354952
#
# Stress axis : x y z
#
# Youngs Moduli (GPa) = 81.01065 76.29498 71.17314
#
# Poissons Ratio (x) = 0.31508 0.10915
# Poissons Ratio (y) = 0.33455 0.16459
# Poissons Ratio (z) = 0.12424 0.17644
#
# Static dielectric constant tensor:
#      x y z
#    x 3.500950 0.000000 -0.161080 
#    y 0.000000 3.453200 0.000000 
#    z -0.161080 0.000000 3.643900 
# 
# 
# High freq. dielectric constant tensor:
#      x y z
#    x 1.753060 0.000000 -0.009500 
#    y 0.000000 1.748060 0.000000 
#    z -0.009500 0.000000 1.762430 
# 
# From -- ./inp_files/83970.got.cif
#   From: 2010.06.25/outbox.cif.g09.slc.cpg/sg10_42_cif.got.tgz:83970.got - 2010.06.27 22:07:45.
