data_PCOD8067547
_publ_section_title
;
Structure prediction by ZEFSAII (Michael W. Deem and Ramdas Pophale) SiO2 
 PCOD8067547
Probable space group: P 2/M
;
_chemical_formula_sum "Si O2"
_cell_formula_units_Z 28
_cell_length_a 14.289969
_cell_length_b 9.201279
_cell_length_c 13.297793
_cell_angle_alpha 90.000000
_cell_angle_beta 57.499574
_cell_angle_gamma 90.000000
_cell_volume 1474.640608
_symmetry_space_group_name_H-M "P 2/M"
_symmetry_group_IT_number 10
_symmetry_cell_setting 'monoclinic'
loop_
_space_group_symop_operation_xyz
x,y,z
-x,y,-z
-x,-y,-z
x,-y,z
loop_
_atom_site_type_symbol
_atom_site_label
_atom_site_fract_x
_atom_site_fract_y
_atom_site_fract_z
Si Si1 0.833559 0.327950 0.271075
Si Si2 0.744978 0.168576 0.798764
Si Si3 0.605375 0.327306 0.500000
Si Si4 0.604635 0.672050 0.728924
Si Si5 0.043742 0.168575 0.201235
Si Si6 0.395709 0.165318 0.924460
Si Si7 0.820168 0.165317 0.075541
O O1 0.841536 0.500000 0.269618
O O2 0.717821 0.270676 0.383382
O O3 0.844727 0.275424 0.150582
O O4 0.933151 0.262752 0.280517
O O5 0.713671 0.262754 0.719481
O O6 0.866591 0.216389 0.766819
O O7 0.745368 0.000000 0.769104
O O8 0.655159 0.198368 0.937439
O O9 0.500000 0.263313 0.500000
O O10 0.601601 0.500000 0.500001
O O11 0.601204 0.270676 0.616617
O O12 0.611154 0.500000 0.730381
O O13 0.495310 0.724578 0.849417
O O14 0.014473 0.000000 0.230896
O O15 0.092599 0.198363 0.062560
O O16 0.303952 0.190512 0.892097
O O17 0.440250 0.000000 0.894695
O O18 0.834942 0.000000 0.105311
#
# Coordination Sequence:
#
# PCOD8067547 Si02
#       7
#     4   4   4   4   4   4   4
#     4  11  21  33  53  78 103 135 174 216 259 300
#     4   9  19  36  55  75 104 140 171 204 254 312
#     4   9  20  38  54  71 102 140 171 203 252 309
#     4  11  21  33  53  78 103 135 174 216 259 300
#     4   9  19  36  55  75 104 140 171 204 254 312
#     4   9  18  33  53  77 106 139 171 205 252 310
#     4   9  18  33  53  77 106 139 171 205 252 310
#
# _framework density 18.987677000000001
#
# number of rings (size 3 to 8) (size 9 to 14) (size 15 to 20)
#    0.000    2.429    0.000    4.286    0.000    6.857 
#    0.000    6.429    0.000    9.429    0.000    0.000 
#    0.000    0.000    0.000    0.000    0.000    0.000 
#
# Total GULP energy -347244.276164 kJ/mol
# GULP energy per Si atom -12401.581292 kJ/mol
# Density = 1.894446 g / cm^3
# Si number density = 18.987677 Si / 1000 Ang^3
#
#
#
# Elastic Constant Matrix: (Units=GPa)
#
#
# Indices 1 2 3 4 5 6 
#
# 1 159.5310 61.7373 74.6297 0.0000 1.0590 0.0000
# 2 61.7373 67.1090 37.3185 0.0000 1.6599 0.0000
# 3 74.6297 37.3185 63.8396 0.0000 5.4471 0.0000
# 4 0.0000 0.0000 0.0000 8.3809 0.0000 1.8840
# 5 1.0590 1.6599 5.4471 0.0000 34.3604 0.0000
# 6 0.0000 0.0000 0.0000 1.8840 0.0000 36.0899
#
#
#
# Elastic Compliance Matrix: (Units=1/GPa)
#
#
# Indices 1 2 3 4 5 6 
#
# 1 0.015530 -0.006137 -0.014751 0.000000 0.002156 0.000000
# 2 -0.006137 0.024537 -0.007181 0.000000 0.000142 0.000000
# 3 -0.014751 -0.007181 0.037546 0.000000 -0.005150 0.000000
# 4 0.000000 0.000000 0.000000 0.120735 0.000000 -0.006303
# 5 0.002156 0.000142 -0.005150 0.000000 0.029846 0.000000
# 6 0.000000 0.000000 0.000000 -0.006303 0.000000 0.028038
#
#
# Mechanical properties :
#
#
# Convention : Reuss Voigt Hill
#
# Bulk Modulus (GPa) = 46.56827 70.87228 58.72027
# Shear Modulus (GPa) = 15.64811 23.55252 19.60032
#
# Velocity S-wave (km/s) = 2.87386 3.52577 3.21637
# Velocity P-wave (km/s) = 5.96581 7.34719 6.69224
#
# Compressibility (1/GPa) = 0.02147385
#
# Stress axis : x y z
#
# Youngs Moduli (GPa) = 64.39304 40.75500 26.63434
#
# Poissons Ratio (x) = 0.25012 0.39288
# Poissons Ratio (y) = 0.39519 0.19126
# Poissons Ratio (z) = 0.94985 0.29267
#
# Static dielectric constant tensor:
#      x y z
#    x 3.747100 0.000000 0.028230 
#    y 0.000000 3.220100 0.000000 
#    z 0.028230 0.000000 3.331960 
# 
# 
# High freq. dielectric constant tensor:
#      x y z
#    x 1.759020 0.000000 0.002830 
#    y 0.000000 1.718560 0.000000 
#    z 0.002830 0.000000 1.717390 
# 
# From -- ./inp_files/49541.got.cif
#   From: 2010.06.25/outbox.cif.g09.slc.cpg/sg10_25_cif.got.tgz:49541.got - 2010.06.27 22:07:45.
