data_PCOD8067598
_publ_section_title
;
Structure prediction by ZEFSAII (Michael W. Deem and Ramdas Pophale) SiO2 
 PCOD8067598
Probable space group: P 2/M
;
_chemical_formula_sum "Si O2"
_cell_formula_units_Z 24
_cell_length_a 11.257393
_cell_length_b 11.712647
_cell_length_c 17.265112
_cell_angle_alpha 90.000000
_cell_angle_beta 32.265570
_cell_angle_gamma 90.000000
_cell_volume 1215.281563
_symmetry_space_group_name_H-M "P 2/M"
_symmetry_group_IT_number 10
_symmetry_cell_setting 'monoclinic'
loop_
_space_group_symop_operation_xyz
x,y,z
-x,y,-z
-x,-y,-z
x,-y,z
loop_
_atom_site_type_symbol
_atom_site_label
_atom_site_fract_x
_atom_site_fract_y
_atom_site_fract_z
Si Si1 0.575308 0.500000 0.045684
Si Si2 0.519816 0.630991 0.654706
Si Si3 0.040485 0.712594 0.646586
Si Si4 0.629168 0.132128 0.849634
Si Si5 0.124338 0.500000 0.350374
Si Si6 0.094309 0.635551 0.790247
Si Si7 0.321539 0.289676 0.924205
O O1 0.388086 0.500000 0.217675
O O2 0.697766 0.381137 0.993331
O O3 0.500000 0.500000 0.000000
O O4 0.613844 0.500000 0.604291
O O5 0.723585 0.719052 0.528979
O O6 0.345701 0.644087 0.681670
O O7 0.403905 0.660345 0.798832
O O8 0.094482 0.691286 0.705652
O O9 0.881956 0.821365 0.717661
O O10 0.907319 0.608915 0.684579
O O11 0.479734 0.186051 0.862899
O O12 0.650520 0.000000 0.817567
O O13 0.500000 0.154927 0.000000
O O14 0.000000 0.500000 0.500000
O O15 0.022996 0.500000 0.830127
O O16 0.948066 0.721640 0.928076
#
# Coordination Sequence:
#
# PCOD8067598 Si02
#       7
#     2   4   4   4   2   4   4
#     4  12  20  30  53  88 119 148 194 241 294 364
#     4  11  23  37  57  92 135 165 187 236 300 363
#     4  12  22  37  61  88 123 162 198 241 301 364
#     4  11  25  43  65  88 113 155 207 263 308 345
#     4  12  22  32  53  90 131 160 182 235 307 371
#     4  11  21  36  59  91 127 164 203 235 286 365
#     4  12  21  37  60  89 123 159 198 244 302 357
#
# _framework density 19.748508999999999
#
# number of rings (size 3 to 8) (size 9 to 14) (size 15 to 20)
#    0.000    0.500    6.667    3.500    0.000    2.667 
#    0.000    1.667    0.000    6.000    0.000    0.000 
#    0.000    0.000    0.000    0.000    0.000    0.000 
#
# Total GULP energy -297339.617189 kJ/mol
# GULP energy per Si atom -12389.150716 kJ/mol
# Density = 1.970356 g / cm^3
# Si number density = 19.748509 Si / 1000 Ang^3
#
#
#
# Elastic Constant Matrix: (Units=GPa)
#
#
# Indices 1 2 3 4 5 6 
#
# 1 57.6185 29.8309 1.5729 0.0000 -0.9882 0.0000
# 2 29.8309 86.7070 13.1055 0.0000 -10.1054 0.0000
# 3 1.5729 13.1055 92.2403 0.0000 -5.2228 0.0000
# 4 0.0000 0.0000 0.0000 26.9567 0.0000 -4.1120
# 5 -0.9882 -10.1054 -5.2228 0.0000 33.0084 0.0000
# 6 0.0000 0.0000 0.0000 -4.1120 0.0000 18.9013
#
#
#
# Elastic Compliance Matrix: (Units=1/GPa)
#
#
# Indices 1 2 3 4 5 6 
#
# 1 0.021239 -0.007587 0.000626 0.000000 -0.001588 0.000000
# 2 -0.007587 0.014881 -0.001756 0.000000 0.004051 0.000000
# 3 0.000626 -0.001756 0.011151 0.000000 0.001246 0.000000
# 4 0.000000 0.000000 0.000000 0.038370 0.000000 0.008347
# 5 -0.001588 0.004051 0.001246 0.000000 0.031685 0.000000
# 6 0.000000 0.000000 0.000000 0.008347 0.000000 0.054722
#
#
# Mechanical properties :
#
#
# Convention : Reuss Voigt Hill
#
# Bulk Modulus (GPa) = 33.51492 36.17603 34.84548
# Shear Modulus (GPa) = 25.07192 28.57707 26.82449
#
# Velocity S-wave (km/s) = 3.56695 3.80814 3.68952
# Velocity P-wave (km/s) = 5.82854 6.13954 5.98606
#
# Compressibility (1/GPa) = 0.02983745
#
# Stress axis : x y z
#
# Youngs Moduli (GPa) = 47.08289 67.20106 89.68188
#
# Poissons Ratio (x) = 0.50984 -0.05613
# Poissons Ratio (y) = 0.35721 0.15744
# Poissons Ratio (z) = -0.02947 0.11797
#
# Static dielectric constant tensor:
#      x y z
#    x 3.767140 0.000000 -0.254620 
#    y 0.000000 3.320730 0.000000 
#    z -0.254620 0.000000 4.024830 
# 
# 
# High freq. dielectric constant tensor:
#      x y z
#    x 1.785050 0.000000 -0.010290 
#    y 0.000000 1.713100 0.000000 
#    z -0.010290 0.000000 1.798130 
# 
# From -- ./inp_files/53722.got.cif
#   From: 2010.06.25/outbox.cif.g09.slc.cpg/sg10_27_cif.got.tgz:53722.got - 2010.06.27 22:07:45.
