data_PCOD8067656
_publ_section_title
;
Structure prediction by ZEFSAII (Michael W. Deem and Ramdas Pophale) SiO2 
 PCOD8067656
Probable space group: P 2/M
;
_chemical_formula_sum "Si O2"
_cell_formula_units_Z 32
_cell_length_a 26.895544
_cell_length_b 17.810166
_cell_length_c 27.398069
_cell_angle_alpha 90.000000
_cell_angle_beta 10.990635
_cell_angle_gamma 90.000000
_cell_volume 2502.083231
_symmetry_space_group_name_H-M "P 2/M"
_symmetry_group_IT_number 10
_symmetry_cell_setting 'monoclinic'
loop_
_space_group_symop_operation_xyz
x,y,z
-x,y,-z
-x,-y,-z
x,-y,z
loop_
_atom_site_type_symbol
_atom_site_label
_atom_site_fract_x
_atom_site_fract_y
_atom_site_fract_z
Si Si1 0.225150 0.410459 1.000000
Si Si2 0.559151 0.169543 1.000000
Si Si3 0.781205 0.589315 0.500000
Si Si4 0.559019 0.340243 0.000000
Si Si5 0.112738 0.410490 0.000001
Si Si6 0.894206 0.410895 0.500000
Si Si7 0.443783 0.410466 0.499999
Si Si8 0.059280 0.915113 0.499999
O O1 0.225058 0.500000 1.000000
O O2 0.168885 0.379640 0.000000
O O3 0.003635 0.379144 0.249685
O O4 0.503006 0.379143 0.750313
O O5 0.329711 0.127479 0.250355
O O6 0.500000 0.167675 0.000000
O O7 0.578390 0.254816 1.000000
O O8 0.830422 0.127479 0.749644
O O9 0.779991 0.500000 0.500001
O O10 0.837670 0.618411 0.500001
O O11 0.828458 0.381572 0.749915
O O12 0.500000 0.343756 0.000000
O O13 0.328286 0.381572 0.250087
O O14 0.112633 0.500000 0.000000
O O15 0.834488 0.379669 0.249939
O O16 0.334364 0.379669 0.750063
O O17 0.896657 0.500000 0.500000
O O18 0.500000 0.379624 0.500000
O O19 0.443975 0.500000 0.500000
O O20 0.000000 0.914845 0.500000
O O21 0.079676 0.000000 0.500000
#
# Coordination Sequence:
#
# PCOD8067656 Si02
#       8
#     4   4   4   4   4   4   4   4
#     4   9  15  24  37  50  62  74  91 120 160 201
#     4   9  17  28  40  56  77  97 115 133 157 188
#     4   9  17  28  40  52  64  76  93 127 172 209
#     4  11  22  34  46  58  74  95 115 139 170 205
#     4   9  15  21  30  43  56  73  96 117 141 178
#     4  11  22  34  46  58  70  87 115 147 180 217
#     4   9  15  21  27  37  56  79  99 117 135 160
#     4   9  15  24  40  60  79  97 115 133 151 176
#
# _framework density 12.789343000000001
#
# number of rings (size 3 to 8) (size 9 to 14) (size 15 to 20)
#    0.000    2.500    0.000    3.750    0.000   11.500 
#    0.000    0.000    0.000    0.000    0.000    0.000 
#    0.000    0.000    0.000    0.000    0.000    0.000 
#
# Total GULP energy -396780.314289 kJ/mol
# GULP energy per Si atom -12399.384822 kJ/mol
# Density = 1.276023 g / cm^3
# Si number density = 12.789343 Si / 1000 Ang^3
#
#
#
# Elastic Constant Matrix: (Units=GPa)
#
#
# Indices 1 2 3 4 5 6 
#
# 1 89.4887 18.0483 52.6089 0.0000 -0.1701 0.0000
# 2 18.0483 52.2021 32.9188 0.0000 -0.6153 0.0000
# 3 52.6089 32.9188 144.2777 0.0000 -2.0970 0.0000
# 4 0.0000 0.0000 0.0000 12.8552 0.0000 -0.5343
# 5 -0.1701 -0.6153 -2.0970 0.0000 20.5727 0.0000
# 6 0.0000 0.0000 0.0000 -0.5343 0.0000 -0.0591
#
#
#
# Elastic Compliance Matrix: (Units=1/GPa)
#
#
# Indices 1 2 3 4 5 6 
#
# 1 0.014395 -0.001948 -0.004811 0.000000 -0.000430 0.000000
# 2 -0.001948 0.022640 -0.004452 0.000000 0.000207 0.000000
# 3 -0.004811 -0.004452 0.009713 0.000000 0.000817 0.000000
# 4 0.000000 0.000000 0.000000 0.056539 0.000000 -0.511300
# 5 -0.000430 0.000207 0.000817 0.000000 0.048694 0.000000
# 6 0.000000 0.000000 0.000000 -0.511300 0.000000-12.302331
#
#
# Mechanical properties :
#
#
# Convention : Reuss Voigt Hill
#
# Bulk Modulus (GPa) = 41.10914 54.79117 47.95015
# Shear Modulus (GPa) = -0.41255 18.83326 9.21036
#
# Velocity S-wave (km/s) = -0.56857 3.84158 2.68649
# Velocity P-wave (km/s) = 5.63756 7.91273 6.86998
#
# Compressibility (1/GPa) = 0.02432549
#
# Stress axis : x y z
#
# Youngs Moduli (GPa) = 69.46966 44.16974 102.95607
#
# Poissons Ratio (x) = 0.08606 0.49528
# Poissons Ratio (y) = 0.13535 0.45838
# Poissons Ratio (z) = 0.33419 0.19665
#
# Static dielectric constant tensor:
#      x y z
#    x 2.561690 0.000000 -0.011760 
#    y 0.000000 2.232710 0.000000 
#    z -0.011760 0.000000 2.846010 
# 
# 
# High freq. dielectric constant tensor:
#      x y z
#    x 1.467990 0.000000 -0.001880 
#    y 0.000000 1.421330 0.000000 
#    z -0.001880 0.000000 1.513510 
# 
# From -- ./inp_files/12905.got.cif
#   From: 2010.06.25/outbox.cif.g09.slc.cpg/sg10_7_cif.got.tgz:12905.got - 2010.06.27 22:07:45.
