data_PCOD8067068
_publ_section_title
;
Structure prediction by ZEFSAII (Michael W. Deem and Ramdas Pophale) SiO2 
 PCOD8067068
Probable space group: P 2/M
;
_chemical_formula_sum "Si O2"
_cell_formula_units_Z 28
_cell_length_a 15.469573
_cell_length_b 19.298921
_cell_length_c 9.384476
_cell_angle_alpha 90.000000
_cell_angle_beta 29.235126
_cell_angle_gamma 90.000000
_cell_volume 1368.334721
_symmetry_space_group_name_H-M "P 2/M"
_symmetry_group_IT_number 10
_symmetry_cell_setting 'monoclinic'
loop_
_space_group_symop_operation_xyz
x,y,z
-x,y,-z
-x,-y,-z
x,-y,z
loop_
_atom_site_type_symbol
_atom_site_label
_atom_site_fract_x
_atom_site_fract_y
_atom_site_fract_z
Si Si1 0.691919 0.581225 0.280192
Si Si2 0.149351 0.077180 0.982521
Si Si3 0.179046 0.319860 0.667801
Si Si4 0.674941 0.211179 0.157528
Si Si5 0.049146 0.667516 0.262644
Si Si6 0.760934 0.923219 0.475867
Si Si7 0.452195 0.790345 0.216757
O O1 0.500000 0.604615 0.500000
O O2 0.702304 0.500000 0.291243
O O3 0.733012 0.615522 0.375306
O O4 0.833617 0.601698 0.954333
O O5 0.264384 0.133471 0.898470
O O6 0.197385 0.081746 0.749463
O O7 0.195570 0.000000 0.974312
O O8 0.940854 0.092074 0.304735
O O9 0.301475 0.253289 0.511993
O O10 0.133499 0.334985 0.566696
O O11 0.000000 0.297273 0.000000
O O12 0.500000 0.231340 0.500000
O O13 0.626964 0.209768 0.060424
O O14 0.834925 0.265131 0.948330
O O15 0.000000 0.664053 0.500000
O O16 0.612995 0.867450 0.727471
O O17 0.689985 0.000000 0.616222
O O18 0.500000 0.752819 0.000000
#
# Coordination Sequence:
#
# PCOD8067068 Si02
#       7
#     4   4   4   4   4   4   4
#     4  10  22  42  67  93 121 154 193 237 283 337
#     4   9  19  35  58  82 106 146 200 250 289 343
#     4  10  22  39  63  85 117 160 199 237 275 346
#     4  12  22  36  59  86 117 150 198 248 287 346
#     4  11  23  39  61  90 123 157 194 239 288 343
#     4   9  19  36  56  79 111 150 194 242 298 354
#     4  12  24  36  56  86 120 152 188 244 303 345
#
# _framework density 20.46283
#
# number of rings (size 3 to 8) (size 9 to 14) (size 15 to 20)
#    0.000    1.571    1.429    5.571    2.000    4.000 
#    0.000    0.000    0.000    4.286    0.000    0.000 
#    0.000    0.000    0.000    0.000    0.000    0.000 
#
# Total GULP energy -347129.478699 kJ/mol
# GULP energy per Si atom -12397.481382 kJ/mol
# Density = 2.041626 g / cm^3
# Si number density = 20.462830 Si / 1000 Ang^3
#
#
#
# Elastic Constant Matrix: (Units=GPa)
#
#
# Indices 1 2 3 4 5 6 
#
# 1 151.8375 54.7803 43.6898 0.0000 -3.3464 0.0000
# 2 54.7803 110.7314 36.0574 0.0000 -11.1159 0.0000
# 3 43.6898 36.0574 47.1406 0.0000 -4.1106 0.0000
# 4 0.0000 0.0000 0.0000 13.9459 0.0000 -13.6332
# 5 -3.3464 -11.1159 -4.1106 0.0000 31.7713 0.0000
# 6 0.0000 0.0000 0.0000 -13.6332 0.0000 30.5420
#
#
#
# Elastic Compliance Matrix: (Units=1/GPa)
#
#
# Indices 1 2 3 4 5 6 
#
# 1 0.009465 -0.002506 -0.006923 0.000000 -0.000776 0.000000
# 2 -0.002506 0.012990 -0.007322 0.000000 0.003333 0.000000
# 3 -0.006923 -0.007322 0.033319 0.000000 0.001020 0.000000
# 4 0.000000 0.000000 0.000000 0.127220 0.000000 0.056788
# 5 -0.000776 0.003333 0.001020 0.000000 0.032691 0.000000
# 6 0.000000 0.000000 0.000000 0.056788 0.000000 0.058091
#
#
# Mechanical properties :
#
#
# Convention : Reuss Voigt Hill
#
# Bulk Modulus (GPa) = 44.90148 64.30715 54.60432
# Shear Modulus (GPa) = 15.88802 26.93065 21.40933
#
# Velocity S-wave (km/s) = 2.78948 3.63171 3.23810
# Velocity P-wave (km/s) = 5.68907 7.00574 6.38145
#
# Compressibility (1/GPa) = 0.02227098
#
# Stress axis : x y z
#
# Youngs Moduli (GPa) = 105.65185 76.98442 30.01275
#
# Poissons Ratio (x) = 0.19292 0.20778
# Poissons Ratio (y) = 0.26476 0.21977
# Poissons Ratio (z) = 0.73143 0.56371
#
# Static dielectric constant tensor:
#      x y z
#    x 4.048420 0.000000 -0.242130 
#    y 0.000000 3.796370 0.000000 
#    z -0.242130 0.000000 3.678090 
# 
# 
# High freq. dielectric constant tensor:
#      x y z
#    x 1.809380 0.000000 -0.013370 
#    y 0.000000 1.796670 0.000000 
#    z -0.013370 0.000000 1.785170 
# 
# From -- ./inp_files/30399.got.cif
#   From: 2010.06.25/outbox.cif.g09.slc.cpg/sg10_16_cif.got.tgz:30399.got - 2010.06.27 22:07:45.
