data_PCOD8067875
_publ_section_title
;
Structure prediction by ZEFSAII (Michael W. Deem and Ramdas Pophale) SiO2 
 PCOD8067875
Probable space group: P 2/M
;
_chemical_formula_sum "Si O2"
_cell_formula_units_Z 32
_cell_length_a 9.541277
_cell_length_b 9.389121
_cell_length_c 28.297960
_cell_angle_alpha 90.000000
_cell_angle_beta 132.402122
_cell_angle_gamma 90.000000
_cell_volume 1871.958070
_symmetry_space_group_name_H-M "P 2/M"
_symmetry_group_IT_number 10
_symmetry_cell_setting 'monoclinic'
loop_
_space_group_symop_operation_xyz
x,y,z
-x,y,-z
-x,-y,-z
x,-y,z
loop_
_atom_site_type_symbol
_atom_site_label
_atom_site_fract_x
_atom_site_fract_y
_atom_site_fract_z
Si Si1 0.158901 0.169279 0.999960
Si Si2 0.117005 0.670339 0.637084
Si Si3 0.152758 0.335175 0.245143
Si Si4 0.833539 0.343846 0.500044
Si Si5 0.098202 0.166751 0.879998
Si Si6 0.431487 0.329663 0.636998
Si Si7 0.578052 0.833247 0.119916
Si Si8 0.172665 0.664827 0.754943
O O1 0.366381 0.224250 0.062317
O O2 0.158587 0.000000 0.999973
O O3 0.116673 0.224220 0.937549
O O4 0.000000 0.229116 0.000000
O O5 0.103995 0.500000 0.633010
O O6 0.304761 0.722541 0.652289
O O7 0.130174 0.727150 0.693364
O O8 0.925953 0.732803 0.567423
O O9 0.165646 0.500000 0.233266
O O10 0.356515 0.272872 0.306770
O O11 0.078205 0.248438 0.183227
O O12 0.017328 0.311642 0.258749
O O13 0.763420 0.500000 0.500064
O O14 0.656315 0.267193 0.432687
O O15 0.000000 0.360381 0.500000
O O16 0.293411 0.200855 0.896720
O O17 0.052596 0.000000 0.868141
O O18 0.428136 0.500000 0.632910
O O19 0.654343 0.751575 0.183118
O O20 0.579774 0.000000 0.131748
O O21 0.233063 0.500000 0.766840
#
# Coordination Sequence:
#
# PCOD8067875 Si02
#       8
#     4   4   4   4   4   4   4   4
#     4   9  17  29  46  67  86 102 128 171 210 232
#     4   8  13  22  37  56  79 108 138 166 199 240
#     4   9  17  28  41  60  86 110 132 164 204 239
#     4   7  10  18  33  53  76 103 136 168 196 233
#     4   9  17  30  47  63  80 107 139 164 192 239
#     4   8  13  22  37  56  79 108 138 166 199 240
#     4   9  17  30  47  63  80 107 139 164 192 239
#     4   9  17  28  41  60  86 110 132 164 204 239
#
# _framework density 17.0944
#
# number of rings (size 3 to 8) (size 9 to 14) (size 15 to 20)
#    0.000    3.500    0.000    1.875    0.000    2.500 
#    0.000    1.250    0.000    7.500    0.000    0.875 
#    0.000    7.000    0.000    0.000    0.000    0.000 
#
# Total GULP energy -396499.147585 kJ/mol
# GULP energy per Si atom -12390.598362 kJ/mol
# Density = 1.705549 g / cm^3
# Si number density = 17.094400 Si / 1000 Ang^3
#
#
#
# Elastic Constant Matrix: (Units=GPa)
#
#
# Indices 1 2 3 4 5 6 
#
# 1 79.9794 19.5242 89.3646 0.0000 5.5437 0.0000
# 2 19.5242 19.7052 36.6228 0.0000 1.1723 0.0000
# 3 89.3646 36.6228 210.1016 0.0000 3.4018 0.0000
# 4 0.0000 0.0000 0.0000 0.6014 0.0000 -0.6811
# 5 5.5437 1.1723 3.4018 0.0000 35.7752 0.0000
# 6 0.0000 0.0000 0.0000 -0.6811 0.0000 10.6736
#
#
#
# Elastic Compliance Matrix: (Units=1/GPa)
#
#
# Indices 1 2 3 4 5 6 
#
# 1 0.024772 -0.007221 -0.009234 0.000000 -0.002724 0.000000
# 2 -0.007221 0.077225 -0.010383 0.000000 -0.000424 0.000000
# 3 -0.009234 -0.010383 0.010484 0.000000 0.000774 0.000000
# 4 0.000000 0.000000 0.000000 1.792400 0.000000 0.114375
# 5 -0.002724 -0.000424 0.000774 0.000000 0.028315 0.000000
# 6 0.000000 0.000000 0.000000 0.114375 0.000000 0.100987
#
#
# Mechanical properties :
#
#
# Convention : Reuss Voigt Hill
#
# Bulk Modulus (GPa) = 17.00515 66.75660 41.88088
# Shear Modulus (GPa) = 2.37252 20.36168 11.36710
#
# Velocity S-wave (km/s) = 1.17937 3.45502 2.58148
# Velocity P-wave (km/s) = 3.43859 7.41975 5.78259
#
# Compressibility (1/GPa) = 0.05880572
#
# Stress axis : x y z
#
# Youngs Moduli (GPa) = 40.36798 12.94926 95.38043
#
# Poissons Ratio (x) = 0.09351 0.88072
# Poissons Ratio (y) = 0.29151 0.99030
# Poissons Ratio (z) = 0.37275 0.13445
#
# Static dielectric constant tensor:
#      x y z
#    x 3.146880 0.000000 0.034870 
#    y 0.000000 2.664280 0.000000 
#    z 0.034870 0.000000 3.659190 
# 
# 
# High freq. dielectric constant tensor:
#      x y z
#    x 1.644290 0.000000 0.002550 
#    y 0.000000 1.595300 0.000000 
#    z 0.002550 0.000000 1.681760 
# 
# From -- ./inp_files/54879.got.cif
#   From: 2010.06.25/outbox.cif.g09.slc.cpg/sg10_28_cif.got.tgz:54879.got - 2010.06.27 22:07:45.
