data_PCOD8067065
_publ_section_title
;
Structure prediction by ZEFSAII (Michael W. Deem and Ramdas Pophale) SiO2 
 PCOD8067065
Probable space group: P 2/M
;
_chemical_formula_sum "Si O2"
_cell_formula_units_Z 18
_cell_length_a 7.752124
_cell_length_b 9.566597
_cell_length_c 12.366916
_cell_angle_alpha 90.000000
_cell_angle_beta 61.150183
_cell_angle_gamma 90.000000
_cell_volume 803.318778
_symmetry_space_group_name_H-M "P 2/M"
_symmetry_group_IT_number 10
_symmetry_cell_setting 'monoclinic'
loop_
_space_group_symop_operation_xyz
x,y,z
-x,y,-z
-x,-y,-z
x,-y,z
loop_
_atom_site_type_symbol
_atom_site_label
_atom_site_fract_x
_atom_site_fract_y
_atom_site_fract_z
Si Si1 0.656276 0.155047 0.045269
Si Si2 0.062388 0.843836 0.601556
Si Si3 0.950802 0.341966 0.829144
Si Si4 0.601639 0.651249 0.246301
Si Si5 0.500000 0.237123 0.500000
O O1 0.827664 0.257122 0.954534
O O2 0.736756 0.000000 0.052814
O O3 0.500000 0.136935 0.000000
O O4 0.543869 0.224757 0.181670
O O5 0.298307 0.851155 0.551659
O O6 0.000000 0.797414 0.500000
O O7 0.951393 0.735999 0.713565
O O8 0.981948 0.000000 0.649015
O O9 0.867725 0.500000 0.839109
O O10 0.165537 0.346528 0.812917
O O11 0.534467 0.500000 0.220640
O O12 0.501135 0.668126 0.392982
#
# Coordination Sequence:
#
# PCOD8067065 Si02
#       5
#     4   4   4   4   2
#     4  11  25  41  60  90 126 163 206 257 311 370
#     4  10  22  39  62  91 127 168 210 259 310 372
#     4  10  22  41  63  90 121 159 207 256 313 373
#     4  10  22  41  65  91 124 162 205 258 311 371
#     4  10  22  40  64  96 128 166 210 260 312 374
#
# _framework density 22.407043999999999
#
# number of rings (size 3 to 8) (size 9 to 14) (size 15 to 20)
#    0.000    1.778    0.000    2.667    3.111   11.111 
#    0.000    0.000    0.000    0.000    0.000    0.000 
#    0.000    0.000    0.000    0.000    0.000    0.000 
#
# Total GULP energy -223152.222903 kJ/mol
# GULP energy per Si atom -12397.345717 kJ/mol
# Density = 2.235604 g / cm^3
# Si number density = 22.407044 Si / 1000 Ang^3
#
#
#
# Elastic Constant Matrix: (Units=GPa)
#
#
# Indices 1 2 3 4 5 6 
#
# 1 33.2081 11.8434 14.9670 0.0000 15.1265 0.0000
# 2 11.8434 204.8619 85.2567 0.0000 16.6289 0.0000
# 3 14.9670 85.2567 143.5730 0.0000 16.4485 0.0000
# 4 0.0000 0.0000 0.0000 -8.1746 0.0000 14.1269
# 5 15.1265 16.6289 16.4485 0.0000 36.9203 0.0000
# 6 0.0000 0.0000 0.0000 14.1269 0.0000 10.6289
#
#
#
# Elastic Compliance Matrix: (Units=1/GPa)
#
#
# Indices 1 2 3 4 5 6 
#
# 1 0.037717 -0.000081 -0.002231 0.000000 -0.014422 0.000000
# 2 -0.000081 0.006541 -0.003732 0.000000 -0.001250 0.000000
# 3 -0.002231 -0.003732 0.009607 0.000000 -0.001685 0.000000
# 4 0.000000 0.000000 0.000000 -0.037105 0.000000 0.049316
# 5 -0.014422 -0.001250 -0.001685 0.000000 0.034308 0.000000
# 6 0.000000 0.000000 0.000000 0.049316 0.000000 0.028537
#
#
# Mechanical properties :
#
#
# Convention : Reuss Voigt Hill
#
# Bulk Modulus (GPa) = 23.93768 67.30859 45.62313
# Shear Modulus (GPa) = 47.33947 25.84664 36.59305
#
# Velocity S-wave (km/s) = 4.60140 3.40001 4.04555
# Velocity P-wave (km/s) = 6.23994 6.74668 6.49825
#
# Compressibility (1/GPa) = 0.04177515
#
# Stress axis : x y z
#
# Youngs Moduli (GPa) = 26.51309 152.88679 104.08952
#
# Poissons Ratio (x) = 0.01241 0.23226
# Poissons Ratio (y) = 0.00215 0.38850
# Poissons Ratio (z) = 0.05916 0.57064
#
# Static dielectric constant tensor:
#      x y z
#    x 3.877590 0.000000 0.007500 
#    y 0.000000 4.487920 0.000000 
#    z 0.007500 0.000000 4.211370 
# 
# 
# High freq. dielectric constant tensor:
#      x y z
#    x 1.870190 0.000000 0.007460 
#    y 0.000000 1.891370 0.000000 
#    z 0.007460 0.000000 1.889890 
# 
# From -- ./inp_files/22024.got.cif
#   From: 2010.06.25/outbox.cif.g09.slc.cpg/sg10_12_cif.got.tgz:22024.got - 2010.06.27 22:07:45.
