data_PCOD8067465
_publ_section_title
;
Structure prediction by ZEFSAII (Michael W. Deem and Ramdas Pophale) SiO2 
 PCOD8067465
Probable space group: P 2/M
;
_chemical_formula_sum "Si O2"
_cell_formula_units_Z 28
_cell_length_a 11.999137
_cell_length_b 14.079517
_cell_length_c 10.113703
_cell_angle_alpha 90.000000
_cell_angle_beta 112.180599
_cell_angle_gamma 90.000000
_cell_volume 1582.188541
_symmetry_space_group_name_H-M "P 2/M"
_symmetry_group_IT_number 10
_symmetry_cell_setting 'monoclinic'
loop_
_space_group_symop_operation_xyz
x,y,z
-x,y,-z
-x,-y,-z
x,-y,z
loop_
_atom_site_type_symbol
_atom_site_label
_atom_site_fract_x
_atom_site_fract_y
_atom_site_fract_z
Si Si1 0.349947 0.104032 0.295552
Si Si2 0.621816 0.702972 0.288729
Si Si3 0.023620 0.612090 0.365765
Si Si4 0.776917 0.388214 0.131116
Si Si5 0.345966 0.295260 0.168918
Si Si6 0.286458 0.611929 0.412673
Si Si7 0.635039 0.895965 0.402045
O O1 0.300039 0.188363 0.180978
O O2 0.305748 0.119966 0.426772
O O3 0.492924 0.108328 0.356748
O O4 0.305538 0.000000 0.225141
O O5 0.698525 0.642066 0.221517
O O6 0.483403 0.702742 0.180058
O O7 0.629799 0.658517 0.438328
O O8 0.672892 0.811634 0.318863
O O9 0.030639 0.500000 0.384311
O O10 0.915554 0.639491 0.218775
O O11 0.000000 0.657274 0.500000
O O12 0.149493 0.650346 0.364971
O O13 0.759280 0.500000 0.101934
O O14 0.739197 0.333609 0.983395
O O15 0.336597 0.361358 0.292548
O O16 0.293237 0.500000 0.434306
O O17 0.673641 0.000000 0.363090
#
# Coordination Sequence:
#
# PCOD8067465 Si02
#       7
#     4   4   4   4   4   4   4
#     4   8  14  28  49  72 102 135 166 207 254 300
#     4  11  20  33  52  77 108 140 171 203 255 321
#     4   9  18  36  56  71  90 130 188 226 246 286
#     4  11  23  37  52  71 105 147 176 208 255 305
#     4  11  22  33  48  81 113 134 167 207 260 319
#     4  11  21  33  53  76 101 135 177 220 249 290
#     4   8  14  27  49  75 100 130 171 213 249 293
#
# _framework density 17.697005000000001
#
# number of rings (size 3 to 8) (size 9 to 14) (size 15 to 20)
#    0.000    2.143    2.857    2.571    0.000    4.000 
#    0.000    2.857    0.000    3.429    0.000    6.000 
#    0.000    0.000    0.000    0.000    0.000    0.000 
#
# Total GULP energy -347087.247918 kJ/mol
# GULP energy per Si atom -12395.973140 kJ/mol
# Density = 1.765673 g / cm^3
# Si number density = 17.697005 Si / 1000 Ang^3
#
#
#
# Elastic Constant Matrix: (Units=GPa)
#
#
# Indices 1 2 3 4 5 6 
#
# 1 36.3654 17.4816 8.4344 0.0000 4.4481 0.0000
# 2 17.4816 105.9601 42.9861 0.0000 13.9522 0.0000
# 3 8.4344 42.9861 92.9472 0.0000 7.9098 0.0000
# 4 0.0000 0.0000 0.0000 29.2498 0.0000 -5.4893
# 5 4.4481 13.9522 7.9098 0.0000 17.7369 0.0000
# 6 0.0000 0.0000 0.0000 -5.4893 0.0000 1.3613
#
#
#
# Elastic Compliance Matrix: (Units=1/GPa)
#
#
# Indices 1 2 3 4 5 6 
#
# 1 0.030141 -0.004276 -0.000416 0.000000 -0.004010 0.000000
# 2 -0.004276 0.013127 -0.005089 0.000000 -0.006984 0.000000
# 3 -0.000416 -0.005089 0.013305 0.000000 -0.001826 0.000000
# 4 0.000000 0.000000 0.000000 0.140550 0.000000 0.566748
# 5 -0.004010 -0.006984 -0.001826 0.000000 0.063694 0.000000
# 6 0.000000 0.000000 0.000000 0.566748 0.000000 3.019904
#
#
# Mechanical properties :
#
#
# Convention : Reuss Voigt Hill
#
# Bulk Modulus (GPa) = 27.01838 41.45297 34.23568
# Shear Modulus (GPa) = 1.50938 20.76097 11.13518
#
# Velocity S-wave (km/s) = 0.92453 3.42882 2.51113
# Velocity P-wave (km/s) = 4.05463 6.25702 5.27211
#
# Compressibility (1/GPa) = 0.03701184
#
# Stress axis : x y z
#
# Youngs Moduli (GPa) = 33.17719 76.17912 75.15775
#
# Poissons Ratio (x) = 0.32573 0.03130
# Poissons Ratio (y) = 0.14186 0.38244
# Poissons Ratio (z) = 0.01382 0.38764
#
# Static dielectric constant tensor:
#      x y z
#    x 3.151730 0.000000 0.067250 
#    y 0.000000 3.605450 0.000000 
#    z 0.067250 0.000000 3.245550 
# 
# 
# High freq. dielectric constant tensor:
#      x y z
#    x 1.654110 0.000000 -0.002590 
#    y 0.000000 1.685490 0.000000 
#    z -0.002590 0.000000 1.672360 
# 
# From -- ./inp_files/24924.got.cif
#   From: 2010.06.25/outbox.cif.g09.slc.cpg/sg10_13_cif.got.tgz:24924.got - 2010.06.27 22:07:45.
