data_PCOD8067740
_publ_section_title
;
Structure prediction by ZEFSAII (Michael W. Deem and Ramdas Pophale) SiO2 
 PCOD8067740
Probable space group: P 2/M
;
_chemical_formula_sum "Si O2"
_cell_formula_units_Z 32
_cell_length_a 14.694159
_cell_length_b 18.031019
_cell_length_c 11.641367
_cell_angle_alpha 90.000000
_cell_angle_beta 29.673510
_cell_angle_gamma 90.000000
_cell_volume 1526.947851
_symmetry_space_group_name_H-M "P 2/M"
_symmetry_group_IT_number 10
_symmetry_cell_setting 'monoclinic'
loop_
_space_group_symop_operation_xyz
x,y,z
-x,y,-z
-x,-y,-z
x,-y,z
loop_
_atom_site_type_symbol
_atom_site_label
_atom_site_fract_x
_atom_site_fract_y
_atom_site_fract_z
Si Si1 0.183771 0.298538 0.115398
Si Si2 0.518474 0.203616 0.114425
Si Si3 0.460699 0.084638 0.719227
Si Si4 0.782857 0.581203 0.751830
Si Si5 0.813344 0.415421 0.276926
Si Si6 0.698809 0.280840 0.271215
Si Si7 0.222598 0.673204 0.455507
Si Si8 0.796799 0.873087 0.198098
O O1 0.257285 0.376841 0.085075
O O2 0.966670 0.286337 0.371667
O O3 0.277698 0.233681 0.085413
O O4 0.238591 0.299153 0.924092
O O5 0.500840 0.128273 0.205148
O O6 0.370661 0.263849 0.325180
O O7 0.500000 0.186763 0.000000
O O8 0.281557 0.115861 0.846331
O O9 0.650078 0.087675 0.440617
O O10 0.418790 0.000000 0.797237
O O11 0.691159 0.500000 0.858213
O O12 0.696044 0.626534 0.740430
O O13 0.000000 0.574304 0.500000
O O14 0.738287 0.500000 0.359292
O O15 0.679481 0.357325 0.362563
O O16 0.831762 0.385926 0.386081
O O17 0.000000 0.410408 0.000000
O O18 0.500000 0.242777 0.500000
O O19 0.823226 0.215952 0.190328
O O20 0.000000 0.907816 0.000000
#
# Coordination Sequence:
#
# PCOD8067740 Si02
#       8
#     4   4   4   4   4   4   4   4
#     4  11  22  40  62  92 122 167 219 270 315 377
#     4  12  25  43  67  95 126 166 219 268 316 382
#     4  11  25  44  66 102 136 164 206 255 315 392
#     4   9  19  36  61  89 117 163 221 279 328 364
#     4  11  23  37  57  90 128 171 219 266 327 391
#     4  12  22  39  63  91 132 169 215 264 317 383
#     4  11  22  41  66  87 125 171 218 269 320 382
#     4  11  22  41  72 101 132 168 208 260 315 381
#
# _framework density 20.956838999999999
#
# number of rings (size 3 to 8) (size 9 to 14) (size 15 to 20)
#    0.000    1.000    5.000    3.000    1.750    2.500 
#    0.000    3.125    0.000    0.000    0.000    3.500 
#    0.000    0.000    0.000    0.000    0.000    0.000 
#
# Total GULP energy -396663.868503 kJ/mol
# GULP energy per Si atom -12395.745891 kJ/mol
# Density = 2.090914 g / cm^3
# Si number density = 20.956839 Si / 1000 Ang^3
#
#
#
# Elastic Constant Matrix: (Units=GPa)
#
#
# Indices 1 2 3 4 5 6 
#
# 1 83.6789 37.1157 21.3718 0.0000 -6.1431 0.0000
# 2 37.1157 141.2396 22.7011 0.0000 -2.5059 0.0000
# 3 21.3718 22.7011 62.9114 0.0000 -6.3730 0.0000
# 4 0.0000 0.0000 0.0000 19.9713 0.0000 6.5666
# 5 -6.1431 -2.5059 -6.3730 0.0000 32.7892 0.0000
# 6 0.0000 0.0000 0.0000 6.5666 0.0000 29.6756
#
#
#
# Elastic Compliance Matrix: (Units=1/GPa)
#
#
# Indices 1 2 3 4 5 6 
#
# 1 0.014401 -0.003180 -0.003566 0.000000 0.001762 0.000000
# 2 -0.003180 0.008218 -0.001920 0.000000 -0.000341 0.000000
# 3 -0.003566 -0.001920 0.018073 0.000000 0.002698 0.000000
# 4 0.000000 0.000000 0.000000 0.054001 0.000000 -0.011949
# 5 0.001762 -0.000341 0.002698 0.000000 0.031326 0.000000
# 6 0.000000 0.000000 0.000000 -0.011949 0.000000 0.036342
#
#
# Mechanical properties :
#
#
# Convention : Reuss Voigt Hill
#
# Bulk Modulus (GPa) = 42.80768 50.02302 46.41535
# Shear Modulus (GPa) = 26.66950 30.26332 28.46641
#
# Velocity S-wave (km/s) = 3.57121 3.80423 3.68956
# Velocity P-wave (km/s) = 6.12174 6.57400 6.35190
#
# Compressibility (1/GPa) = 0.02336029
#
# Stress axis : x y z
#
# Youngs Moduli (GPa) = 69.43918 121.67939 55.33142
#
# Poissons Ratio (x) = 0.38693 0.19733
# Poissons Ratio (y) = 0.22081 0.10622
# Poissons Ratio (z) = 0.24764 0.23360
#
# Static dielectric constant tensor:
#      x y z
#    x 3.894010 0.000000 0.038460 
#    y 0.000000 3.845360 0.000000 
#    z 0.038460 0.000000 3.648020 
# 
# 
# High freq. dielectric constant tensor:
#      x y z
#    x 1.824680 0.000000 -0.001770 
#    y 0.000000 1.814460 0.000000 
#    z -0.001770 0.000000 1.812810 
# 
# From -- ./inp_files/51945.got.cif
#   From: 2010.06.25/outbox.cif.g09.slc.cpg/sg10_26_cif.got.tgz:51945.got - 2010.06.27 22:07:45.
