data_PCOD8067184
_publ_section_title
;
Structure prediction by ZEFSAII (Michael W. Deem and Ramdas Pophale) SiO2 
 PCOD8067184
Probable space group: P 2/M
;
_chemical_formula_sum "Si O2"
_cell_formula_units_Z 24
_cell_length_a 8.832278
_cell_length_b 14.434760
_cell_length_c 7.879544
_cell_angle_alpha 90.000000
_cell_angle_beta 86.354057
_cell_angle_gamma 90.000000
_cell_volume 1002.544146
_symmetry_space_group_name_H-M "P 2/M"
_symmetry_group_IT_number 10
_symmetry_cell_setting 'monoclinic'
loop_
_space_group_symop_operation_xyz
x,y,z
-x,y,-z
-x,-y,-z
x,-y,z
loop_
_atom_site_type_symbol
_atom_site_label
_atom_site_fract_x
_atom_site_fract_y
_atom_site_fract_z
Si Si1 0.909689 0.105625 0.660584
Si Si2 0.811427 0.106170 0.139496
Si Si3 0.836543 0.601964 0.826610
Si Si4 0.825805 0.603289 0.230116
Si Si5 0.389230 0.770992 0.668679
Si Si6 0.674884 0.782306 0.839592
O O1 0.747610 0.153527 0.688588
O O2 0.000000 0.153071 0.500000
O O3 0.008356 0.113297 0.830503
O O4 0.877279 0.000000 0.617766
O O5 0.722487 0.139230 0.317797
O O6 0.768807 0.000000 0.092861
O O7 0.752531 0.181420 0.007463
O O8 0.788190 0.500000 0.763680
O O9 0.717329 0.678557 0.778877
O O10 0.000255 0.628288 0.733741
O O11 0.830026 0.602662 0.028620
O O12 0.782790 0.500000 0.299799
O O13 0.707138 0.676135 0.316241
O O14 0.500000 0.770302 0.500000
O O15 0.492893 0.783976 0.834261
#
# Coordination Sequence:
#
# PCOD8067184 Si02
#       6
#     4   4   4   4   4   4
#     4  10  22  41  65  93 125 164 207 255 314 372
#     4  11  24  42  64  90 122 163 213 263 305 362
#     4   9  19  37  66  95 119 156 207 268 315 356
#     4   9  19  39  64  91 124 161 206 256 311 372
#     4  12  26  41  59  89 132 174 204 250 320 378
#     4  12  23  37  64  95 125 163 211 261 309 367
#
# _framework density 23.939094000000001
#
# number of rings (size 3 to 8) (size 9 to 14) (size 15 to 20)
#    0.000    1.500    1.667    4.500    2.333    4.667 
#    0.000    1.667    0.000    2.500    0.000    0.000 
#    0.000    0.000    0.000    0.000    0.000    0.000 
#
# Total GULP energy -297348.989600 kJ/mol
# GULP energy per Si atom -12389.541233 kJ/mol
# Density = 2.388461 g / cm^3
# Si number density = 23.939094 Si / 1000 Ang^3
#
#
#
# Elastic Constant Matrix: (Units=GPa)
#
#
# Indices 1 2 3 4 5 6 
#
# 1 90.0219 56.4288 -23.5535 0.0000 -12.9538 0.0000
# 2 56.4288 135.8078 -1.8204 0.0000 -9.9480 0.0000
# 3 -23.5535 -1.8204 24.2288 0.0000 -5.8016 0.0000
# 4 0.0000 0.0000 0.0000 7.3464 0.0000 -57.4449
# 5 -12.9538 -9.9480 -5.8016 0.0000 30.1614 0.0000
# 6 0.0000 0.0000 0.0000 -57.4449 0.0000 -78.3107
#
#
#
# Elastic Compliance Matrix: (Units=1/GPa)
#
#
# Indices 1 2 3 4 5 6 
#
# 1 0.026538 -0.009646 0.028347 0.000000 0.013669 0.000000
# 2 -0.009646 0.011086 -0.009078 0.000000 -0.002232 0.000000
# 3 0.028347 -0.009078 0.073742 0.000000 0.023365 0.000000
# 4 0.000000 0.000000 0.000000 0.020208 0.000000 -0.014824
# 5 0.013669 -0.002232 0.023365 0.000000 0.042783 0.000000
# 6 0.000000 0.000000 0.000000 -0.014824 0.000000 -0.001896
#
#
# Mechanical properties :
#
#
# Convention : Reuss Voigt Hill
#
# Bulk Modulus (GPa) = 7.65624 34.68536 21.17080
# Shear Modulus (GPa) = 25.41246 6.43964 15.92605
#
# Velocity S-wave (km/s) = 3.26167 1.64190 2.58209
# Velocity P-wave (km/s) = 4.17011 4.25616 4.21336
#
# Compressibility (1/GPa) = 0.13061250
#
# Stress axis : x y z
#
# Youngs Moduli (GPa) = 37.68158 90.20467 13.56071
#
# Poissons Ratio (x) = 0.87007 -0.38440
# Poissons Ratio (y) = 0.36346 0.12311
# Poissons Ratio (z) = -1.06815 0.81890
#
# Static dielectric constant tensor:
#      x y z
#    x 4.438430 0.000000 -0.186490 
#    y 0.000000 4.873650 0.000000 
#    z -0.186490 0.000000 4.195770 
# 
# 
# High freq. dielectric constant tensor:
#      x y z
#    x 1.946620 0.000000 -0.016270 
#    y 0.000000 1.951400 0.000000 
#    z -0.016270 0.000000 1.945940 
# 
# From -- ./inp_files/18774.got.cif
#   From: 2010.06.25/outbox.cif.g09.slc.cpg/sg10_10_cif.got.tgz:18774.got - 2010.06.27 22:07:45.
