data_PCOD8067214
_publ_section_title
;
Structure prediction by ZEFSAII (Michael W. Deem and Ramdas Pophale) SiO2 
 PCOD8067214
Probable space group: P 2/M
;
_chemical_formula_sum "Si O2"
_cell_formula_units_Z 16
_cell_length_a 13.018640
_cell_length_b 7.468784
_cell_length_c 9.449250
_cell_angle_alpha 90.000000
_cell_angle_beta 125.677668
_cell_angle_gamma 90.000000
_cell_volume 746.337293
_symmetry_space_group_name_H-M "P 2/M"
_symmetry_group_IT_number 10
_symmetry_cell_setting 'monoclinic'
loop_
_space_group_symop_operation_xyz
x,y,z
-x,y,-z
-x,-y,-z
x,-y,z
loop_
_atom_site_type_symbol
_atom_site_label
_atom_site_fract_x
_atom_site_fract_y
_atom_site_fract_z
Si Si1 0.105217 0.288374 0.881977
Si Si2 0.580288 0.708151 0.425811
Si Si3 0.860499 0.000000 0.315258
Si Si4 0.583143 0.000000 0.207709
Si Si5 0.163978 0.710389 0.234735
O O1 0.114659 0.500000 0.855687
O O2 0.962840 0.217604 0.794801
O O3 0.157174 0.180101 0.790649
O O4 0.182440 0.231838 0.085524
O O5 0.500000 0.749438 0.500000
O O6 0.571448 0.500000 0.376347
O O7 0.721076 0.773333 0.577052
O O8 0.538043 0.824525 0.258155
O O9 0.000000 0.000000 0.500000
O O10 0.736101 0.000000 0.314306
O O11 0.500000 0.000000 0.000000
O O12 0.150913 0.500000 0.219216
#
# Coordination Sequence:
#
# PCOD8067214 Si02
#       5
#     4   4   2   2   4
#     4   9  19  36  60  89 121 152 197 260 307 353
#     4  10  22  42  69  91 116 162 215 258 302 362
#     4  12  26  39  58  87 120 171 211 229 301 387
#     4  12  29  44  58  93 137 167 199 252 315 373
#     4   8  16  34  62  94 117 146 202 264 309 343
#
# _framework density 21.438029
#
# number of rings (size 3 to 8) (size 9 to 14) (size 15 to 20)
#    0.000    2.250    0.000    3.375    3.500    5.000 
#    0.000    0.000    0.000    0.000    0.000    0.000 
#    0.000    0.000    0.000    0.000    0.000    0.000 
#
# Total GULP energy -198294.942285 kJ/mol
# GULP energy per Si atom -12393.433893 kJ/mol
# Density = 2.138923 g / cm^3
# Si number density = 21.438029 Si / 1000 Ang^3
#
#
#
# Elastic Constant Matrix: (Units=GPa)
#
#
# Indices 1 2 3 4 5 6 
#
# 1 80.8850 46.6049 35.6225 0.0000 -12.3904 0.0000
# 2 46.6049 117.5327 56.9671 0.0000 -21.1684 0.0000
# 3 35.6225 56.9671 121.5615 0.0000 -12.9428 0.0000
# 4 0.0000 0.0000 0.0000 14.8782 0.0000 4.3987
# 5 -12.3904 -21.1684 -12.9428 0.0000 27.4995 0.0000
# 6 0.0000 0.0000 0.0000 4.3987 0.0000 14.2113
#
#
#
# Elastic Compliance Matrix: (Units=1/GPa)
#
#
# Indices 1 2 3 4 5 6 
#
# 1 0.016655 -0.005059 -0.002238 0.000000 0.002557 0.000000
# 2 -0.005059 0.013717 -0.004278 0.000000 0.006265 0.000000
# 3 -0.002238 -0.004278 0.010979 0.000000 0.000866 0.000000
# 4 0.000000 0.000000 0.000000 0.073982 0.000000 -0.022899
# 5 0.002557 0.006265 0.000866 0.000000 0.042747 0.000000
# 6 0.000000 0.000000 0.000000 -0.022899 0.000000 0.077455
#
#
# Mechanical properties :
#
#
# Convention : Reuss Voigt Hill
#
# Bulk Modulus (GPa) = 54.94276 66.48535 60.71405
# Shear Modulus (GPa) = 18.88559 23.37011 21.12785
#
# Velocity S-wave (km/s) = 2.97128 3.30528 3.14272
# Velocity P-wave (km/s) = 6.12010 6.75623 6.44602
#
# Compressibility (1/GPa) = 0.01820076
#
# Stress axis : x y z
#
# Youngs Moduli (GPa) = 60.04040 72.90482 91.08211
#
# Poissons Ratio (x) = 0.36885 0.20380
# Poissons Ratio (y) = 0.30376 0.38967
# Poissons Ratio (z) = 0.13434 0.31191
#
# Static dielectric constant tensor:
#      x y z
#    x 5.346010 0.000000 1.688640 
#    y 0.000000 3.731080 0.000000 
#    z 1.688640 0.000000 5.606200 
# 
# 
# High freq. dielectric constant tensor:
#      x y z
#    x 1.834010 0.000000 0.001330 
#    y 0.000000 1.841480 0.000000 
#    z 0.001330 0.000000 1.839930 
# 
# From -- ./inp_files/22489.got.cif
#   From: 2010.06.25/outbox.cif.g09.slc.cpg/sg10_12_cif.got.tgz:22489.got - 2010.06.27 22:07:45.
