data_PCOD8067286
_publ_section_title
;
Structure prediction by ZEFSAII (Michael W. Deem and Ramdas Pophale) SiO2 
 PCOD8067286
Probable space group: P 2/M
;
_chemical_formula_sum "Si O2"
_cell_formula_units_Z 26
_cell_length_a 6.552301
_cell_length_b 19.592191
_cell_length_c 10.488840
_cell_angle_alpha 90.000000
_cell_angle_beta 63.501787
_cell_angle_gamma 90.000000
_cell_volume 1205.042164
_symmetry_space_group_name_H-M "P 2/M"
_symmetry_group_IT_number 10
_symmetry_cell_setting 'monoclinic'
loop_
_space_group_symop_operation_xyz
x,y,z
-x,y,-z
-x,-y,-z
x,-y,z
loop_
_atom_site_type_symbol
_atom_site_label
_atom_site_fract_x
_atom_site_fract_y
_atom_site_fract_z
Si Si1 0.456178 0.677022 0.653892
Si Si2 0.039997 0.639034 0.133239
Si Si3 0.147245 0.925052 0.838932
Si Si4 0.489836 0.186956 0.246117
Si Si5 0.184532 0.422513 0.342312
Si Si6 0.500000 0.273795 0.000000
Si Si7 0.862133 0.926674 0.666233
O O1 0.500000 0.649476 0.500000
O O2 0.552275 0.754533 0.635978
O O3 0.593646 0.626434 0.710434
O O4 0.189007 0.680127 0.765151
O O5 0.073579 0.580565 0.231233
O O6 0.268467 0.683609 0.082985
O O7 0.000000 0.610266 0.000000
O O8 0.012518 0.933176 0.747910
O O9 0.328711 0.867521 0.756852
O O10 0.252789 0.000000 0.843791
O O11 0.000000 0.899635 0.000000
O O12 0.271478 0.142637 0.275862
O O13 0.563742 0.226484 0.099843
O O14 0.263808 0.500000 0.345172
O O15 0.000000 0.399565 0.500000
O O16 0.000000 0.916068 0.500000
O O17 0.726867 0.000000 0.692830
#
# Coordination Sequence:
#
# PCOD8067286 Si02
#       7
#     4   4   4   4   4   2   4
#     4  12  27  43  71 108 144 183 234 289 350 421
#     4  12  24  47  70 101 148 181 228 288 352 410
#     4  10  23  42  63  92 129 173 228 281 333 402
#     4  12  25  38  69  96 132 178 225 283 344 409
#     4  11  25  48  76 106 142 184 233 285 346 424
#     4  12  26  42  68 104 136 188 222 290 350 418
#     4  10  24  43  63  92 133 178 228 286 345 407
#
# _framework density 21.576008999999999
#
# number of rings (size 3 to 8) (size 9 to 14) (size 15 to 20)
#    0.000    0.769    4.615    1.385    6.462    1.846 
#    0.000    8.077    0.000    0.000    0.000    0.000 
#    0.000    0.000    0.000    0.000    0.000    0.000 
#
# Total GULP energy -322175.171160 kJ/mol
# GULP energy per Si atom -12391.352737 kJ/mol
# Density = 2.152690 g / cm^3
# Si number density = 21.576009 Si / 1000 Ang^3
#
#
#
# Elastic Constant Matrix: (Units=GPa)
#
#
# Indices 1 2 3 4 5 6 
#
# 1 99.6304 46.8399 44.4363 0.0000 -0.6345 0.0000
# 2 46.8399 127.7377 18.6608 0.0000 -10.7063 0.0000
# 3 44.4363 18.6608 111.9899 0.0000 18.7776 0.0000
# 4 0.0000 0.0000 0.0000 66.4414 0.0000 31.5021
# 5 -0.6345 -10.7063 18.7776 0.0000 45.5954 0.0000
# 6 0.0000 0.0000 0.0000 31.5021 0.0000 59.8153
#
#
#
# Elastic Compliance Matrix: (Units=1/GPa)
#
#
# Indices 1 2 3 4 5 6 
#
# 1 0.014454 -0.004428 -0.005217 0.000000 0.001310 0.000000
# 2 -0.004428 0.009682 -0.000244 0.000000 0.002312 0.000000
# 3 -0.005217 -0.000244 0.011882 0.000000 -0.005023 0.000000
# 4 0.000000 0.000000 0.000000 0.020060 0.000000 -0.010565
# 5 0.001310 0.002312 -0.005023 0.000000 0.024562 0.000000
# 6 0.000000 0.000000 0.000000 -0.010565 0.000000 0.022282
#
#
# Mechanical properties :
#
#
# Convention : Reuss Voigt Hill
#
# Bulk Modulus (GPa) = 61.57633 62.13690 61.85662
# Shear Modulus (GPa) = 39.02781 49.66518 44.34649
#
# Velocity S-wave (km/s) = 4.25767 4.80299 4.53853
# Velocity P-wave (km/s) = 7.26441 7.72139 7.49638
#
# Compressibility (1/GPa) = 0.01624001
#
# Stress axis : x y z
#
# Youngs Moduli (GPa) = 69.18417 103.28703 84.15854
#
# Poissons Ratio (x) = 0.45738 0.43906
# Poissons Ratio (y) = 0.30637 0.02052
# Poissons Ratio (z) = 0.36093 0.02519
#
# Static dielectric constant tensor:
#      x y z
#    x 3.741530 0.000000 0.331640 
#    y 0.000000 3.901110 0.000000 
#    z 0.331640 0.000000 3.903310 
# 
# 
# High freq. dielectric constant tensor:
#      x y z
#    x 1.849950 0.000000 0.016220 
#    y 0.000000 1.850830 0.000000 
#    z 0.016220 0.000000 1.853620 
# 
# From -- ./inp_files/39687.got.cif
#   From: 2010.06.25/outbox.cif.g09.slc.cpg/sg10_20_cif.got.tgz:39687.got - 2010.06.27 22:07:45.
