data_PCOD8067916
_publ_section_title
;
Structure prediction by ZEFSAII (Michael W. Deem and Ramdas Pophale) SiO2 
 PCOD8067916
Probable space group: P 2/M
;
_chemical_formula_sum "Si O2"
_cell_formula_units_Z 28
_cell_length_a 29.656825
_cell_length_b 9.499072
_cell_length_c 9.344402
_cell_angle_alpha 90.000000
_cell_angle_beta 141.972110
_cell_angle_gamma 90.000000
_cell_volume 1621.697225
_symmetry_space_group_name_H-M "P 2/M"
_symmetry_group_IT_number 10
_symmetry_cell_setting 'monoclinic'
loop_
_space_group_symop_operation_xyz
x,y,z
-x,y,-z
-x,-y,-z
x,-y,z
loop_
_atom_site_type_symbol
_atom_site_label
_atom_site_fract_x
_atom_site_fract_y
_atom_site_fract_z
Si Si1 0.294596 0.667553 0.076874
Si Si2 0.133486 0.342876 0.663310
Si Si3 0.569409 0.332061 0.084866
Si Si4 0.569409 0.667939 0.762178
Si Si5 0.133486 0.657124 0.004122
Si Si6 0.705404 0.667553 0.603894
Si Si7 0.000000 0.158578 0.329089
O O1 0.297944 0.500000 0.092174
O O2 0.214088 0.712289 0.818021
O O3 0.356614 0.727103 0.125948
O O4 0.308683 0.728124 0.271708
O O5 0.118487 0.500000 0.565158
O O6 0.071980 0.237540 0.449147
O O7 0.130804 0.348812 0.827011
O O8 0.569781 0.500000 0.085535
O O9 0.643386 0.272897 0.342877
O O10 0.500000 0.275222 0.000000
O O11 0.564912 0.273583 0.912280
O O12 0.500000 0.724778 0.500000
O O13 0.569781 0.500000 0.763368
O O14 0.118487 0.500000 0.027277
O O15 0.214088 0.712289 0.252417
O O16 0.071980 0.762460 0.910752
O O17 0.702056 0.500000 0.602453
O O18 0.000000 0.159578 0.500000
O O19 1.000000 0.000000 0.269452
#
# Coordination Sequence:
#
# PCOD8067916 Si02
#       7
#     4   4   4   4   4   4   4
#     4   8  13  21  32  46  66  95 130 161 187 222
#     4   8  13  21  33  48  69 100 133 160 189 229
#     4   9  15  21  30  46  70  99 127 155 189 228
#     4   9  15  21  30  46  70  99 127 155 189 228
#     4   8  13  21  33  48  69 100 133 160 189 229
#     4   8  13  21  32  46  66  95 130 161 187 222
#     4   9  15  21  31  51  78 101 122 156 200 237
#
# _framework density 17.265861000000001
#
# number of rings (size 3 to 8) (size 9 to 14) (size 15 to 20)
#    0.000    3.571    0.000    3.000    0.000    5.143 
#    0.000    0.000    0.000    0.000    0.000    1.000 
#    0.000   10.286    0.000    2.000    0.000    2.857 
#
# Total GULP energy -346976.196278 kJ/mol
# GULP energy per Si atom -12392.007010 kJ/mol
# Density = 1.722656 g / cm^3
# Si number density = 17.265861 Si / 1000 Ang^3
#
#
#
# Elastic Constant Matrix: (Units=GPa)
#
#
# Indices 1 2 3 4 5 6 
#
# 1 112.3497 30.6331 79.6432 0.0000 27.3736 0.0000
# 2 30.6331 47.6946 35.4303 0.0000 16.0407 0.0000
# 3 79.6432 35.4303 130.0610 0.0000 31.8488 0.0000
# 4 0.0000 0.0000 0.0000 2.7113 0.0000 -0.3111
# 5 27.3736 16.0407 31.8488 0.0000 35.4110 0.0000
# 6 0.0000 0.0000 0.0000 -0.3111 0.0000 2.8043
#
#
#
# Elastic Compliance Matrix: (Units=1/GPa)
#
#
# Indices 1 2 3 4 5 6 
#
# 1 0.016655 -0.003157 -0.008383 0.000000 -0.003906 0.000000
# 2 -0.003157 0.028316 -0.004151 0.000000 -0.006653 0.000000
# 3 -0.008383 -0.004151 0.015268 0.000000 -0.005372 0.000000
# 4 0.000000 0.000000 0.000000 0.373581 0.000000 0.041438
# 5 -0.003906 -0.006653 -0.005372 0.000000 0.039104 0.000000
# 6 0.000000 0.000000 0.000000 0.041438 0.000000 0.361197
#
#
# Mechanical properties :
#
#
# Convention : Reuss Voigt Hill
#
# Bulk Modulus (GPa) = 34.65303 64.61319 49.63311
# Shear Modulus (GPa) = 5.71349 17.81188 11.76269
#
# Velocity S-wave (km/s) = 1.82107 3.21538 2.61294
# Velocity P-wave (km/s) = 4.95334 7.16161 6.15728
#
# Compressibility (1/GPa) = 0.02885750
#
# Stress axis : x y z
#
# Youngs Moduli (GPa) = 60.04035 35.31628 65.49571
#
# Poissons Ratio (x) = 0.11148 0.54903
# Poissons Ratio (y) = 0.18953 0.27190
# Poissons Ratio (z) = 0.50330 0.14661
#
# Static dielectric constant tensor:
#      x y z
#    x 3.268070 0.000000 0.379520 
#    y 0.000000 2.710740 0.000000 
#    z 0.379520 0.000000 3.381570 
# 
# 
# High freq. dielectric constant tensor:
#      x y z
#    x 1.649470 0.000000 0.035550 
#    y 0.000000 1.593430 0.000000 
#    z 0.035550 0.000000 1.660100 
# 
# From -- ./inp_files/38004.got.cif
#   From: 2010.06.25/outbox.cif.g09.slc.cpg/sg10_20_cif.got.tgz:38004.got - 2010.06.27 22:07:45.
