data_PCOD8067951
_publ_section_title
;
Structure prediction by ZEFSAII (Michael W. Deem and Ramdas Pophale) SiO2 
 PCOD8067951
Probable space group: P 2/M
;
_chemical_formula_sum "Si O2"
_cell_formula_units_Z 32
_cell_length_a 14.393896
_cell_length_b 19.279687
_cell_length_c 22.425888
_cell_angle_alpha 90.000000
_cell_angle_beta 161.311086
_cell_angle_gamma 90.000000
_cell_volume 1994.163519
_symmetry_space_group_name_H-M "P 2/M"
_symmetry_group_IT_number 10
_symmetry_cell_setting 'monoclinic'
loop_
_space_group_symop_operation_xyz
x,y,z
-x,y,-z
-x,-y,-z
x,-y,z
loop_
_atom_site_type_symbol
_atom_site_label
_atom_site_fract_x
_atom_site_fract_y
_atom_site_fract_z
Si Si1 0.160895 0.579563 0.160850
Si Si2 0.346066 0.076890 0.998415
Si Si3 0.839038 0.578006 0.339086
Si Si4 0.664899 0.655536 0.412175
Si Si5 0.955650 0.923115 0.303267
Si Si6 0.543743 0.197000 0.194043
Si Si7 0.855006 0.803009 0.505282
Si Si8 0.654273 0.344465 0.906907
O O1 0.213248 0.500000 0.213184
O O2 0.465158 0.620843 0.341558
O O3 0.000000 0.579861 0.000000
O O4 0.971125 0.620853 0.094563
O O5 0.656735 0.076183 0.156722
O O6 0.347175 0.133223 0.051790
O O7 0.281799 0.000000 0.985635
O O8 0.103201 0.096504 0.801566
O O9 0.786406 0.500000 0.286421
O O10 0.527507 0.614872 0.153498
O O11 0.000000 0.582020 0.500000
O O12 0.031231 0.614901 0.405383
O O13 0.729966 0.736347 0.464258
O O14 0.507547 0.647642 0.253753
O O15 0.165793 0.866773 0.461173
O O16 0.097361 0.000000 0.393489
O O17 0.656232 0.177815 0.328087
O O18 0.332646 0.263658 0.066991
O O19 0.817352 0.212741 0.317365
#
# Coordination Sequence:
#
# PCOD8067951 Si02
#       8
#     4   4   4   4   4   4   4   4
#     4   9  16  24  34  50  76 109 140 168 201 243
#     4   8  14  24  37  55  81 109 134 163 200 240
#     4   9  14  20  32  48  70 101 132 162 201 245
#     4   9  15  23  33  50  76 105 135 167 202 239
#     4   8  14  24  37  55  81 109 134 163 200 240
#     4   9  15  23  36  55  81 109 134 164 202 243
#     4   9  15  23  36  55  81 109 134 164 202 243
#     4   9  15  23  33  50  76 105 135 167 202 239
#
# _framework density 16.04683
#
# number of rings (size 3 to 8) (size 9 to 14) (size 15 to 20)
#    0.000    3.250    1.250    1.500    0.000    3.500 
#    0.000    2.500    0.000    0.000    0.000    1.750 
#    0.000   13.000    0.000    0.000    0.000    0.000 
#
# Total GULP energy -396577.977946 kJ/mol
# GULP energy per Si atom -12393.061811 kJ/mol
# Density = 1.601031 g / cm^3
# Si number density = 16.046830 Si / 1000 Ang^3
#
#
#
# Elastic Constant Matrix: (Units=GPa)
#
#
# Indices 1 2 3 4 5 6 
#
# 1 46.6825 59.9482 38.9252 0.0000 11.8175 0.0000
# 2 59.9482 164.5489 59.9056 0.0000 2.7567 0.0000
# 3 38.9252 59.9056 46.8240 0.0000 11.9783 0.0000
# 4 0.0000 0.0000 0.0000 11.8243 0.0000 8.4603
# 5 11.8175 2.7567 11.9783 0.0000 22.5120 0.0000
# 6 0.0000 0.0000 0.0000 8.4603 0.0000 11.7665
#
#
#
# Elastic Compliance Matrix: (Units=1/GPa)
#
#
# Indices 1 2 3 4 5 6 
#
# 1 0.079801 -0.011352 -0.047986 0.000000 -0.014968 0.000000
# 2 -0.011352 0.014149 -0.011281 0.000000 0.010229 0.000000
# 3 -0.047986 -0.011281 0.079737 0.000000 -0.015855 0.000000
# 4 0.000000 0.000000 0.000000 0.174183 0.000000 -0.125241
# 5 -0.014968 0.010229 -0.015855 0.000000 0.059462 0.000000
# 6 0.000000 0.000000 0.000000 -0.125241 0.000000 0.175037
#
#
# Mechanical properties :
#
#
# Convention : Reuss Voigt Hill
#
# Bulk Modulus (GPa) = 30.81937 63.95704 47.38821
# Shear Modulus (GPa) = 6.80806 15.83898 11.32352
#
# Velocity S-wave (km/s) = 2.06200 3.14514 2.65930
# Velocity P-wave (km/s) = 4.99166 7.28919 6.24696
#
# Compressibility (1/GPa) = 0.03244713
#
# Stress axis : x y z
#
# Youngs Moduli (GPa) = 12.53113 70.67801 12.54127
#
# Poissons Ratio (x) = 0.80237 0.60181
# Poissons Ratio (y) = 0.14226 0.14148
# Poissons Ratio (z) = 0.60132 0.79731
#
# Static dielectric constant tensor:
#      x y z
#    x 2.767150 0.000000 0.146650 
#    y 0.000000 3.344290 0.000000 
#    z 0.146650 0.000000 2.767790 
# 
# 
# High freq. dielectric constant tensor:
#      x y z
#    x 1.568730 0.000000 0.012140 
#    y 0.000000 1.633890 0.000000 
#    z 0.012140 0.000000 1.568760 
# 
# From -- ./inp_files/71935.got.cif
#   From: 2010.06.25/outbox.cif.g09.slc.cpg/sg10_36_cif.got.tgz:71935.got - 2010.06.27 22:07:45.
