data_PCOD8067994
_publ_section_title
;
Structure prediction by ZEFSAII (Michael W. Deem and Ramdas Pophale) SiO2 
 PCOD8067994
Probable space group: P 2/M
;
_chemical_formula_sum "Si O2"
_cell_formula_units_Z 24
_cell_length_a 19.605098
_cell_length_b 9.273036
_cell_length_c 16.934813
_cell_angle_alpha 90.000000
_cell_angle_beta 149.744544
_cell_angle_gamma 90.000000
_cell_volume 1551.236463
_symmetry_space_group_name_H-M "P 2/M"
_symmetry_group_IT_number 10
_symmetry_cell_setting 'monoclinic'
loop_
_space_group_symop_operation_xyz
x,y,z
-x,y,-z
-x,-y,-z
x,-y,z
loop_
_atom_site_type_symbol
_atom_site_label
_atom_site_fract_x
_atom_site_fract_y
_atom_site_fract_z
Si Si1 0.851343 0.661568 0.141051
Si Si2 0.343258 0.668713 0.189993
Si Si3 0.851576 0.338432 0.561933
Si Si4 0.660813 0.162646 0.660847
Si Si5 0.999956 0.830408 0.408854
Si Si6 0.656951 0.668715 0.503752
O O1 0.809401 0.500000 0.125836
O O2 0.864631 0.763112 0.232222
O O3 0.999859 0.658373 0.247562
O O4 0.740674 0.723665 0.969764
O O5 0.318708 0.500000 0.181186
O O6 0.287287 0.754692 0.209620
O O7 0.500114 0.702481 0.330438
O O8 0.809586 0.500000 0.493246
O O9 0.740983 0.276315 0.512000
O O10 0.864772 0.236908 0.497233
O O11 0.500000 0.163763 0.500000
O O12 0.712820 0.245311 0.635245
O O13 0.718022 0.000000 0.718068
O O14 0.000000 0.786390 0.500000
O O15 0.999967 0.000000 0.396317
O O16 0.681476 0.500000 0.544024
#
# Coordination Sequence:
#
# PCOD8067994 Si02
#       6
#     4   4   4   4   4   4
#     4   8  16  29  45  66  88 110 141 177 214 253
#     4   9  16  28  46  65  86 114 147 180 213 250
#     4   8  16  29  45  66  88 110 141 177 214 253
#     4   9  17  27  40  61  88 118 151 180 208 248
#     4   9  17  29  47  68  87 110 141 173 208 257
#     4   9  16  28  46  65  86 114 147 180 213 250
#
# _framework density 15.471529
#
# number of rings (size 3 to 8) (size 9 to 14) (size 15 to 20)
#    1.000    2.333    0.000    0.500    0.000    4.667 
#    0.000    0.833    0.000    6.000    0.000    7.000 
#    0.000    0.000    0.000    0.000    0.000    0.000 
#
# Total GULP energy -297351.225483 kJ/mol
# GULP energy per Si atom -12389.634395 kJ/mol
# Density = 1.543632 g / cm^3
# Si number density = 15.471529 Si / 1000 Ang^3
#
#
#
# Elastic Constant Matrix: (Units=GPa)
#
#
# Indices 1 2 3 4 5 6 
#
# 1 125.3348 62.1308 49.8143 0.0000 -23.1583 0.0000
# 2 62.1308 78.4865 39.7079 0.0000 -20.3282 0.0000
# 3 49.8143 39.7079 73.5891 0.0000 -23.8258 0.0000
# 4 0.0000 0.0000 0.0000 16.5727 0.0000 -5.5553
# 5 -23.1583 -20.3282 -23.8258 0.0000 24.4623 0.0000
# 6 0.0000 0.0000 0.0000 -5.5553 0.0000 22.7212
#
#
#
# Elastic Compliance Matrix: (Units=1/GPa)
#
#
# Indices 1 2 3 4 5 6 
#
# 1 0.014395 -0.008605 -0.004388 0.000000 0.002203 0.000000
# 2 -0.008605 0.023756 -0.004732 0.000000 0.006987 0.000000
# 3 -0.004388 -0.004732 0.024092 0.000000 0.015379 0.000000
# 4 0.000000 0.000000 0.000000 0.065727 0.000000 0.016070
# 5 0.002203 0.006987 0.015379 0.000000 0.063750 0.000000
# 6 0.000000 0.000000 0.000000 0.016070 0.000000 0.047941
#
#
# Mechanical properties :
#
#
# Convention : Reuss Voigt Hill
#
# Bulk Modulus (GPa) = 37.32193 64.52408 50.92300
# Shear Modulus (GPa) = 17.60308 21.13507 19.36907
#
# Velocity S-wave (km/s) = 3.37675 3.70004 3.54208
# Velocity P-wave (km/s) = 6.27523 7.74915 7.05081
#
# Compressibility (1/GPa) = 0.02679390
#
# Stress axis : x y z
#
# Youngs Moduli (GPa) = 69.46663 42.09441 41.50820
#
# Poissons Ratio (x) = 0.36221 0.18214
# Poissons Ratio (y) = 0.59775 0.19640
# Poissons Ratio (z) = 0.30483 0.19918
#
# Static dielectric constant tensor:
#      x y z
#    x 2.839550 0.000000 -0.078640 
#    y 0.000000 2.969880 0.000000 
#    z -0.078640 0.000000 2.752470 
# 
# 
# High freq. dielectric constant tensor:
#      x y z
#    x 1.575980 0.000000 -0.010150 
#    y 0.000000 1.595700 0.000000 
#    z -0.010150 0.000000 1.564740 
# 
# From -- ./inp_files/54374.got.cif
#   From: 2010.06.25/outbox.cif.g09.slc.cpg/sg10_28_cif.got.tgz:54374.got - 2010.06.27 22:07:45.
