data_PCOD8067618
_publ_section_title
;
Structure prediction by ZEFSAII (Michael W. Deem and Ramdas Pophale) SiO2 
 PCOD8067618
Probable space group: P 2/M
;
_chemical_formula_sum "Si O2"
_cell_formula_units_Z 28
_cell_length_a 9.350037
_cell_length_b 14.851045
_cell_length_c 11.236368
_cell_angle_alpha 90.000000
_cell_angle_beta 118.048014
_cell_angle_gamma 90.000000
_cell_volume 1377.011346
_symmetry_space_group_name_H-M "P 2/M"
_symmetry_group_IT_number 10
_symmetry_cell_setting 'monoclinic'
loop_
_space_group_symop_operation_xyz
x,y,z
-x,y,-z
-x,-y,-z
x,-y,z
loop_
_atom_site_type_symbol
_atom_site_label
_atom_site_fract_x
_atom_site_fract_y
_atom_site_fract_z
Si Si1 0.622630 0.725607 0.763847
Si Si2 0.325289 0.605461 0.589256
Si Si3 0.170948 0.255685 0.379631
Si Si4 0.808356 0.901138 0.435354
Si Si5 0.834661 0.398727 0.994992
Si Si6 0.178895 0.320212 0.765847
Si Si7 0.583601 0.833845 0.151679
O O1 0.490617 0.662134 0.649569
O O2 0.756927 0.760921 0.723256
O O3 0.695653 0.666518 0.897611
O O4 0.549837 0.813993 0.798666
O O5 0.360775 0.500000 0.586455
O O6 0.221476 0.643454 0.438538
O O7 0.216475 0.623087 0.662883
O O8 0.246375 0.179695 0.497818
O O9 0.975792 0.253619 0.307156
O O10 0.720691 0.893772 0.271464
O O11 0.000000 0.894207 0.500000
O O12 0.762939 0.000000 0.469949
O O13 0.790014 0.500000 0.940809
O O14 0.852102 0.392341 0.143431
O O15 0.000000 0.367009 0.000000
O O16 0.333251 0.258837 0.858323
O O17 0.500000 0.878251 0.000000
#
# Coordination Sequence:
#
# PCOD8067618 Si02
#       7
#     4   4   4   4   4   4   4
#     4  11  23  37  59  87 124 162 205 257 313 369
#     4  11  24  37  56  86 120 162 207 259 316 364
#     4  12  22  40  62  89 124 162 209 258 314 376
#     4  11  23  43  71  98 124 163 209 259 317 385
#     4  11  22  36  55  86 123 170 220 259 306 368
#     4  11  21  38  60  86 120 163 215 258 300 366
#     4  11  22  40  66  93 121 159 206 253 312 373
#
# _framework density 20.333891999999999
#
# number of rings (size 3 to 8) (size 9 to 14) (size 15 to 20)
#    0.000    0.857    7.143    1.714    0.000    3.714 
#    0.000    3.571    0.000    0.000    0.000    3.000 
#    0.000    0.000    0.000    0.000    0.000    0.000 
#
# Total GULP energy -347133.789632 kJ/mol
# GULP energy per Si atom -12397.635344 kJ/mol
# Density = 2.028761 g / cm^3
# Si number density = 20.333892 Si / 1000 Ang^3
#
#
#
# Elastic Constant Matrix: (Units=GPa)
#
#
# Indices 1 2 3 4 5 6 
#
# 1 69.2674 11.6475 19.3746 0.0000 -2.9661 0.0000
# 2 11.6475 79.3048 20.2175 0.0000 0.7413 0.0000
# 3 19.3746 20.2175 106.0773 0.0000 4.3896 0.0000
# 4 0.0000 0.0000 0.0000 11.0888 0.0000 -6.1872
# 5 -2.9661 0.7413 4.3896 0.0000 30.2614 0.0000
# 6 0.0000 0.0000 0.0000 -6.1872 0.0000 7.0540
#
#
#
# Elastic Compliance Matrix: (Units=1/GPa)
#
#
# Indices 1 2 3 4 5 6 
#
# 1 0.015523 -0.001634 -0.002604 0.000000 0.001939 0.000000
# 2 -0.001634 0.013426 -0.002254 0.000000 -0.000162 0.000000
# 3 -0.002604 -0.002254 0.010403 0.000000 -0.001709 0.000000
# 4 0.000000 0.000000 0.000000 0.176624 0.000000 0.154922
# 5 0.001939 -0.000162 -0.001709 0.000000 0.033487 0.000000
# 6 0.000000 0.000000 0.000000 0.154922 0.000000 0.277650
#
#
# Mechanical properties :
#
#
# Convention : Reuss Voigt Hill
#
# Bulk Modulus (GPa) = 37.92479 39.68099 38.80289
# Shear Modulus (GPa) = 9.10936 23.24147 16.17542
#
# Velocity S-wave (km/s) = 2.11887 3.38448 2.82350
# Velocity P-wave (km/s) = 4.96766 5.90170 5.45471
#
# Compressibility (1/GPa) = 0.02636798
#
# Stress axis : x y z
#
# Youngs Moduli (GPa) = 64.42057 74.48443 96.12659
#
# Poissons Ratio (x) = 0.12172 0.25031
# Poissons Ratio (y) = 0.10527 0.21663
# Poissons Ratio (z) = 0.16775 0.16786
#
# Static dielectric constant tensor:
#      x y z
#    x 3.709570 0.000000 0.120190 
#    y 0.000000 3.480950 0.000000 
#    z 0.120190 0.000000 3.816720 
# 
# 
# High freq. dielectric constant tensor:
#      x y z
#    x 1.798670 0.000000 0.005440 
#    y 0.000000 1.764920 0.000000 
#    z 0.005440 0.000000 1.801380 
# 
# From -- ./inp_files/25172.got.cif
#   From: 2010.06.25/outbox.cif.g09.slc.cpg/sg10_13_cif.got.tgz:25172.got - 2010.06.27 22:07:45.
