data_PCOD8067488
_publ_section_title
;
Structure prediction by ZEFSAII (Michael W. Deem and Ramdas Pophale) SiO2 
 PCOD8067488
Probable space group: P 2/M
;
_chemical_formula_sum "Si O2"
_cell_formula_units_Z 28
_cell_length_a 9.123215
_cell_length_b 14.358446
_cell_length_c 11.172460
_cell_angle_alpha 90.000000
_cell_angle_beta 62.488524
_cell_angle_gamma 90.000000
_cell_volume 1298.039140
_symmetry_space_group_name_H-M "P 2/M"
_symmetry_group_IT_number 10
_symmetry_cell_setting 'monoclinic'
loop_
_space_group_symop_operation_xyz
x,y,z
-x,y,-z
-x,-y,-z
x,-y,z
loop_
_atom_site_type_symbol
_atom_site_label
_atom_site_fract_x
_atom_site_fract_y
_atom_site_fract_z
Si Si1 0.090613 0.899384 0.802823
Si Si2 0.427333 0.104531 0.228372
Si Si3 0.193659 0.783774 0.156086
Si Si4 0.718005 0.761232 0.136140
Si Si5 0.348960 0.603896 0.644033
Si Si6 0.072586 0.675795 0.598535
Si Si7 0.320186 0.844971 0.515054
O O1 0.114665 0.807232 0.875539
O O2 0.225558 0.907206 0.647051
O O3 0.907381 0.880026 0.822147
O O4 0.090613 0.000000 0.868888
O O5 0.353080 0.181107 0.166929
O O6 0.604022 0.147563 0.192106
O O7 0.328224 0.096766 0.390033
O O8 0.442706 0.000000 0.168335
O O9 0.087177 0.708703 0.268075
O O10 0.255253 0.732189 0.011400
O O11 0.657968 0.675115 0.240705
O O12 0.500000 0.632232 0.500000
O O13 0.378476 0.500000 0.684509
O O14 0.174771 0.599991 0.636777
O O15 0.209748 0.755135 0.527018
O O16 0.000000 0.637210 0.500000
O O17 0.500000 0.816321 0.500000
#
# Coordination Sequence:
#
# PCOD8067488 Si02
#       7
#     4   4   4   4   4   4   4
#     4  11  23  36  60  91 128 174 219 264 313 376
#     4  12  24  38  62  93 134 182 223 263 312 377
#     4  11  25  40  58  93 135 172 213 258 317 380
#     4  12  24  41  65  91 129 172 218 267 319 383
#     4  11  25  47  75 100 123 161 216 272 333 397
#     4  11  21  40  69  95 128 168 206 261 331 382
#     4  11  20  37  59  89 125 168 224 273 309 367
#
# _framework density 21.570997999999999
#
# number of rings (size 3 to 8) (size 9 to 14) (size 15 to 20)
#    0.000    0.714    5.714    3.429    0.000    4.286 
#    0.000    3.571    0.000    1.714    0.000    0.000 
#    0.000    0.000    0.000    0.000    0.000    0.000 
#
# Total GULP energy -346950.206434 kJ/mol
# GULP energy per Si atom -12391.078801 kJ/mol
# Density = 2.152190 g / cm^3
# Si number density = 21.570998 Si / 1000 Ang^3
#
#
#
# Elastic Constant Matrix: (Units=GPa)
#
#
# Indices 1 2 3 4 5 6 
#
# 1 71.0864 13.6517 32.2365 0.0000 9.1826 0.0000
# 2 13.6517 95.9750 36.6474 0.0000 0.4672 0.0000
# 3 32.2365 36.6474 148.1994 0.0000 17.6183 0.0000
# 4 0.0000 0.0000 0.0000 -10.1922 0.0000 6.3613
# 5 9.1826 0.4672 17.6183 0.0000 30.6198 0.0000
# 6 0.0000 0.0000 0.0000 6.3613 0.0000 15.4521
#
#
#
# Elastic Compliance Matrix: (Units=1/GPa)
#
#
# Indices 1 2 3 4 5 6 
#
# 1 0.015976 -0.001185 -0.002806 0.000000 -0.003158 0.000000
# 2 -0.001185 0.011664 -0.002842 0.000000 0.001813 0.000000
# 3 -0.002806 -0.002842 0.008540 0.000000 -0.004029 0.000000
# 4 0.000000 0.000000 0.000000 -0.078057 0.000000 0.032135
# 5 -0.003158 0.001813 -0.004029 0.000000 0.035896 0.000000
# 6 0.000000 0.000000 0.000000 0.032135 0.000000 0.051487
#
#
# Mechanical properties :
#
#
# Convention : Reuss Voigt Hill
#
# Bulk Modulus (GPa) = 44.42071 53.37021 48.89546
# Shear Modulus (GPa) = 74.98766 22.69094 48.83930
#
# Velocity S-wave (km/s) = 5.90243 3.24685 4.76344
# Velocity P-wave (km/s) = 8.19079 6.23309 7.27806
#
# Compressibility (1/GPa) = 0.02251202
#
# Stress axis : x y z
#
# Youngs Moduli (GPa) = 62.59523 85.73095 117.09763
#
# Poissons Ratio (x) = 0.10163 0.32863
# Poissons Ratio (y) = 0.07420 0.33280
# Poissons Ratio (z) = 0.17567 0.24365
#
# Static dielectric constant tensor:
#      x y z
#    x 4.097670 0.000000 -0.001280 
#    y 0.000000 3.486870 0.000000 
#    z -0.001280 0.000000 4.004590 
# 
# 
# High freq. dielectric constant tensor:
#      x y z
#    x 1.857790 0.000000 -0.006030 
#    y 0.000000 1.811150 0.000000 
#    z -0.006030 0.000000 1.855660 
# 
# From -- ./inp_files/42880.got.cif
#   From: 2010.06.25/outbox.cif.g09.slc.cpg/sg10_22_cif.got.tgz:42880.got - 2010.06.27 22:07:45.
