data_PCOD8067777
_publ_section_title
;
Structure prediction by ZEFSAII (Michael W. Deem and Ramdas Pophale) SiO2 
 PCOD8067777
Probable space group: P 2/M
;
_chemical_formula_sum "Si O2"
_cell_formula_units_Z 32
_cell_length_a 14.685191
_cell_length_b 8.391929
_cell_length_c 11.809416
_cell_angle_alpha 90.000000
_cell_angle_beta 93.447027
_cell_angle_gamma 90.000000
_cell_volume 1452.724934
_symmetry_space_group_name_H-M "P 2/M"
_symmetry_group_IT_number 10
_symmetry_cell_setting 'monoclinic'
loop_
_space_group_symop_operation_xyz
x,y,z
-x,y,-z
-x,-y,-z
x,-y,z
loop_
_atom_site_type_symbol
_atom_site_label
_atom_site_fract_x
_atom_site_fract_y
_atom_site_fract_z
Si Si1 0.499584 0.814664 0.369552
Si Si2 0.338749 0.315917 0.216435
Si Si3 0.184240 0.684196 0.566361
Si Si4 0.334649 0.684978 0.756076
Si Si5 0.176219 0.184483 0.329167
Si Si6 0.969795 0.184575 0.307772
Si Si7 0.721213 0.185862 0.013201
Si Si8 0.084962 0.314115 0.928586
O O1 0.500000 0.754895 0.500000
O O2 0.401416 0.784716 0.306604
O O3 0.571485 0.715772 0.301606
O O4 0.524849 0.000000 0.366295
O O5 0.366745 0.500000 0.223573
O O6 0.234856 0.290197 0.247940
O O7 0.346728 0.252619 0.088571
O O8 0.197170 0.500000 0.536393
O O9 0.251670 0.739593 0.670565
O O10 0.210007 0.788734 0.459615
O O11 0.080921 0.718551 0.597203
O O12 0.326485 0.500000 0.786756
O O13 0.328396 0.783835 0.871234
O O14 0.073017 0.246930 0.308314
O O15 0.185803 0.000000 0.296620
O O16 0.919398 0.212530 0.185769
O O17 0.966646 0.000000 0.340761
O O18 0.737255 0.000000 0.996433
O O19 0.818569 0.274053 0.006726
O O20 0.080445 0.500000 0.897941
O O21 0.000000 0.262810 0.000000
#
# Coordination Sequence:
#
# PCOD8067777 Si02
#       8
#     4   4   4   4   4   4   4   4
#     4  11  25  46  73 104 136 171 215 268 326 392
#     4  12  26  45  69  97 132 171 216 269 327 390
#     4  11  23  39  63  93 130 172 218 271 328 391
#     4  11  24  43  68  99 134 173 220 272 329 393
#     4  11  24  41  62  92 131 172 220 273 328 391
#     4  11  23  38  59  89 126 170 219 271 327 389
#     4  12  25  43  68  96 131 173 220 271 329 392
#     4  11  23  39  61  90 127 172 222 275 328 389
#
# _framework density 22.027571999999999
#
# number of rings (size 3 to 8) (size 9 to 14) (size 15 to 20)
#    0.000    0.750    1.250    6.375    0.000   11.500 
#    0.000    2.500    0.000    0.000    0.000    0.000 
#    0.000    0.000    0.000    0.000    0.000    0.000 
#
# Total GULP energy -397077.982935 kJ/mol
# GULP energy per Si atom -12408.686967 kJ/mol
# Density = 2.197744 g / cm^3
# Si number density = 22.027572 Si / 1000 Ang^3
#
#
#
# Elastic Constant Matrix: (Units=GPa)
#
#
# Indices 1 2 3 4 5 6 
#
# 1 91.1948 9.6995 31.7207 0.0000 -1.8640 0.0000
# 2 9.6995 59.2649 18.2997 0.0000 2.7814 0.0000
# 3 31.7207 18.2997 125.4579 0.0000 7.0467 0.0000
# 4 0.0000 0.0000 0.0000 29.7867 0.0000 -1.9270
# 5 -1.8640 2.7814 7.0467 0.0000 39.7724 0.0000
# 6 0.0000 0.0000 0.0000 -1.9270 0.0000 34.7817
#
#
#
# Elastic Compliance Matrix: (Units=1/GPa)
#
#
# Indices 1 2 3 4 5 6 
#
# 1 0.012143 -0.001125 -0.002972 0.000000 0.001174 0.000000
# 2 -0.001125 0.017798 -0.002261 0.000000 -0.000897 0.000000
# 3 -0.002972 -0.002261 0.009142 0.000000 -0.001601 0.000000
# 4 0.000000 0.000000 0.000000 0.033693 0.000000 0.001867
# 5 0.001174 -0.000897 -0.001601 0.000000 0.025544 0.000000
# 6 0.000000 0.000000 0.000000 0.001867 0.000000 0.028854
#
#
# Mechanical properties :
#
#
# Convention : Reuss Voigt Hill
#
# Bulk Modulus (GPa) = 37.92695 43.92859 40.92777
# Shear Modulus (GPa) = 33.62939 35.28133 34.45536
#
# Velocity S-wave (km/s) = 3.91153 4.00645 3.95928
# Velocity P-wave (km/s) = 6.13640 6.43336 6.28663
#
# Compressibility (1/GPa) = 0.02636647
#
# Stress axis : x y z
#
# Youngs Moduli (GPa) = 82.35212 56.18667 109.38487
#
# Poissons Ratio (x) = 0.06320 0.32511
# Poissons Ratio (y) = 0.09263 0.24735
# Poissons Ratio (z) = 0.24476 0.12706
#
# Static dielectric constant tensor:
#      x y z
#    x 3.956610 0.000000 0.023130 
#    y 0.000000 3.802980 0.000000 
#    z 0.023130 0.000000 4.054950 
# 
# 
# High freq. dielectric constant tensor:
#      x y z
#    x 1.867220 0.000000 -0.000660 
#    y 0.000000 1.867820 0.000000 
#    z -0.000660 0.000000 1.879240 
# 
# From -- ./inp_files/49941.got.cif
#   From: 2010.06.25/outbox.cif.g09.slc.cpg/sg10_25_cif.got.tgz:49941.got - 2010.06.27 22:07:45.
