data_PCOD8067573
_publ_section_title
;
Structure prediction by ZEFSAII (Michael W. Deem and Ramdas Pophale) SiO2 
 PCOD8067573
Probable space group: P 2/M
;
_chemical_formula_sum "Si O2"
_cell_formula_units_Z 24
_cell_length_a 15.295244
_cell_length_b 11.790815
_cell_length_c 21.582843
_cell_angle_alpha 90.000000
_cell_angle_beta 160.532572
_cell_angle_gamma 90.000000
_cell_volume 1297.198125
_symmetry_space_group_name_H-M "P 2/M"
_symmetry_group_IT_number 10
_symmetry_cell_setting 'monoclinic'
loop_
_space_group_symop_operation_xyz
x,y,z
-x,y,-z
-x,-y,-z
x,-y,z
loop_
_atom_site_type_symbol
_atom_site_label
_atom_site_fract_x
_atom_site_fract_y
_atom_site_fract_z
Si Si1 0.571679 0.870623 0.447971
Si Si2 0.923418 0.129347 0.799567
Si Si3 0.575349 0.727468 0.877198
Si Si4 0.782516 0.727440 0.480781
Si Si5 0.924645 0.500000 0.302308
Si Si6 0.819446 0.873943 0.319412
Si Si7 0.564223 0.500000 0.942113
O O1 0.294797 0.844693 0.294864
O O2 0.806132 0.850869 0.653046
O O3 0.598803 0.784534 0.409394
O O4 0.577753 0.000000 0.427507
O O5 0.023522 0.000000 0.873133
O O6 0.158816 0.215618 0.969328
O O7 0.381122 0.707905 0.690561
O O8 0.448674 0.808985 0.844357
O O9 0.634477 0.607676 0.947592
O O10 0.886775 0.607748 0.573828
O O11 0.031050 0.809077 0.635506
O O12 0.742637 0.500000 0.242534
O O13 0.745189 0.500000 0.122577
O O14 0.000000 0.880152 0.500000
O O15 0.748980 0.000000 0.248894
#
# Coordination Sequence:
#
# PCOD8067573 Si02
#       7
#     4   4   4   4   2   4   2
#     4   9  19  37  59  83 115 153 189 228 278 334
#     4   9  19  37  59  83 115 153 189 228 278 334
#     4  11  21  35  57  83 114 147 187 234 280 332
#     4  11  21  35  57  83 114 147 187 234 280 332
#     4  11  23  39  58  79 110 151 193 231 277 338
#     4   9  18  31  49  78 114 145 172 215 278 335
#     4  11  23  39  58  79 110 151 193 231 277 338
#
# _framework density 18.501414
#
# number of rings (size 3 to 8) (size 9 to 14) (size 15 to 20)
#    0.000    2.000    1.667    3.500    0.000    3.333 
#    0.000    2.500    0.000    9.000    0.000    0.000 
#    0.000    0.000    0.000    0.000    0.000    0.000 
#
# Total GULP energy -297692.473416 kJ/mol
# GULP energy per Si atom -12403.853059 kJ/mol
# Density = 1.845930 g / cm^3
# Si number density = 18.501414 Si / 1000 Ang^3
#
#
#
# Elastic Constant Matrix: (Units=GPa)
#
#
# Indices 1 2 3 4 5 6 
#
# 1 90.6635 54.3374 25.6222 0.0000 6.1794 0.0000
# 2 54.3374 151.1025 46.2617 0.0000 10.1946 0.0000
# 3 25.6222 46.2617 76.8997 0.0000 11.0907 0.0000
# 4 0.0000 0.0000 0.0000 25.0707 0.0000 1.0783
# 5 6.1794 10.1946 11.0907 0.0000 23.8230 0.0000
# 6 0.0000 0.0000 0.0000 1.0783 0.0000 25.8701
#
#
#
# Elastic Compliance Matrix: (Units=1/GPa)
#
#
# Indices 1 2 3 4 5 6 
#
# 1 0.014337 -0.004501 -0.001941 0.000000 -0.000889 0.000000
# 2 -0.004501 0.009562 -0.004107 0.000000 -0.001013 0.000000
# 3 -0.001941 -0.004107 0.016932 0.000000 -0.005622 0.000000
# 4 0.000000 0.000000 0.000000 0.039959 0.000000 -0.001666
# 5 -0.000889 -0.001013 -0.005622 0.000000 0.045257 0.000000
# 6 0.000000 0.000000 0.000000 -0.001666 0.000000 0.038724
#
#
# Mechanical properties :
#
#
# Convention : Reuss Voigt Hill
#
# Bulk Modulus (GPa) = 50.67548 63.45648 57.06598
# Shear Modulus (GPa) = 25.98122 27.78238 26.88180
#
# Velocity S-wave (km/s) = 3.75144 3.87930 3.81591
# Velocity P-wave (km/s) = 6.79808 7.37821 7.09408
#
# Compressibility (1/GPa) = 0.01973341
#
# Stress axis : x y z
#
# Youngs Moduli (GPa) = 69.75119 104.57613 59.06010
#
# Poissons Ratio (x) = 0.47074 0.11461
# Poissons Ratio (y) = 0.31398 0.24254
# Poissons Ratio (z) = 0.13536 0.42947
#
# Static dielectric constant tensor:
#      x y z
#    x 3.306830 0.000000 0.078090 
#    y 0.000000 3.453940 0.000000 
#    z 0.078090 0.000000 3.242200 
# 
# 
# High freq. dielectric constant tensor:
#      x y z
#    x 1.713900 0.000000 0.004740 
#    y 0.000000 1.723220 0.000000 
#    z 0.004740 0.000000 1.709840 
# 
# From -- ./inp_files/24077.got.cif
#   From: 2010.06.25/outbox.cif.g09.slc.cpg/sg10_13_cif.got.tgz:24077.got - 2010.06.27 22:07:45.
