data_PCOD8067553
_publ_section_title
;
Structure prediction by ZEFSAII (Michael W. Deem and Ramdas Pophale) SiO2 
 PCOD8067553
Probable space group: P 2/M
;
_chemical_formula_sum "Si O2"
_cell_formula_units_Z 22
_cell_length_a 12.122992
_cell_length_b 21.068174
_cell_length_c 12.048623
_cell_angle_alpha 90.000000
_cell_angle_beta 24.509694
_cell_angle_gamma 90.000000
_cell_volume 1276.621895
_symmetry_space_group_name_H-M "P 2/M"
_symmetry_group_IT_number 10
_symmetry_cell_setting 'monoclinic'
loop_
_space_group_symop_operation_xyz
x,y,z
-x,y,-z
-x,-y,-z
x,-y,z
loop_
_atom_site_type_symbol
_atom_site_label
_atom_site_fract_x
_atom_site_fract_y
_atom_site_fract_z
Si Si1 0.607593 0.135022 0.519313
Si Si2 0.785435 0.500000 0.291209
Si Si3 0.227748 0.273314 0.698090
Si Si4 0.514375 0.425881 0.117491
Si Si5 0.107726 0.927516 0.025398
Si Si6 0.084377 0.615176 0.673239
O O1 0.500000 0.109387 0.500000
O O2 0.685333 0.208579 0.441625
O O3 0.862600 0.094810 0.327276
O O4 0.357895 0.118268 0.827576
O O5 0.500000 0.500000 0.500000
O O6 0.814267 0.562457 0.336179
O O7 0.000000 0.500000 0.000000
O O8 0.500000 0.303222 0.500000
O O9 0.111880 0.317446 0.707945
O O10 0.000000 0.261978 0.000000
O O11 0.506836 0.500000 0.157365
O O12 0.262664 0.389298 0.399427
O O13 0.500000 0.416858 0.000000
O O14 0.779032 0.394326 0.922168
O O15 0.187009 0.000000 0.976052
O O16 0.000000 0.916346 0.000000
#
# Coordination Sequence:
#
# PCOD8067553 Si02
#       6
#     4   2   4   4   4   4
#     4   9  16  26  39  56  84 120 159 196 228 264
#     4  12  22  34  49  72 101 126 156 196 232 270
#     4  11  21  34  48  67  97 134 167 195 228 284
#     4  11  22  39  58  76  94 116 152 203 255 300
#     4   9  15  23  37  57  80 111 157 207 238 255
#     4  12  22  37  54  75  96 126 160 196 246 288
#
# _framework density 17.232980999999999
#
# number of rings (size 3 to 8) (size 9 to 14) (size 15 to 20)
#    0.000    1.455    1.818    7.091    0.000    3.636 
#    0.000    0.000    0.000    0.000    0.000    0.000 
#    0.000    0.000    0.000    0.000    0.000   63.636 
#
# Total GULP energy -272701.569201 kJ/mol
# GULP energy per Si atom -12395.525873 kJ/mol
# Density = 1.719376 g / cm^3
# Si number density = 17.232981 Si / 1000 Ang^3
#
#
#
# Elastic Constant Matrix: (Units=GPa)
#
#
# Indices 1 2 3 4 5 6 
#
# 1 38.0892 24.8785 11.7305 0.0000 -1.4307 0.0000
# 2 24.8785 103.0853 42.0238 0.0000 -0.0326 0.0000
# 3 11.7305 42.0238 100.2891 0.0000 -1.4976 0.0000
# 4 0.0000 0.0000 0.0000 33.6976 0.0000 -23.5139
# 5 -1.4307 -0.0326 -1.4976 0.0000 22.4526 0.0000
# 6 0.0000 0.0000 0.0000 -23.5139 0.0000 50.6538
#
#
#
# Elastic Compliance Matrix: (Units=1/GPa)
#
#
# Indices 1 2 3 4 5 6 
#
# 1 0.031281 -0.007319 -0.000563 0.000000 0.001945 0.000000
# 2 -0.007319 0.013414 -0.004776 0.000000 -0.000765 0.000000
# 3 -0.000563 -0.004776 0.012050 0.000000 0.000761 0.000000
# 4 0.000000 0.000000 0.000000 0.043894 0.000000 0.020376
# 5 0.001945 -0.000765 0.000761 0.000000 0.044712 0.000000
# 6 0.000000 0.000000 0.000000 0.020376 0.000000 0.029201
#
#
# Mechanical properties :
#
#
# Convention : Reuss Voigt Hill
#
# Bulk Modulus (GPa) = 31.81842 44.30327 38.06085
# Shear Modulus (GPa) = 23.77061 32.21619 27.99340
#
# Velocity S-wave (km/s) = 3.71801 4.32840 4.03477
# Velocity P-wave (km/s) = 6.07744 7.12351 6.62116
#
# Compressibility (1/GPa) = 0.03142833
#
# Stress axis : x y z
#
# Youngs Moduli (GPa) = 31.96802 74.54937 82.98976
#
# Poissons Ratio (x) = 0.54565 0.04671
# Poissons Ratio (y) = 0.23398 0.39637
# Poissons Ratio (z) = 0.01799 0.35606
#
# Static dielectric constant tensor:
#      x y z
#    x 2.838350 0.000000 -0.214260 
#    y 0.000000 3.088620 0.000000 
#    z -0.214260 0.000000 3.823250 
# 
# 
# High freq. dielectric constant tensor:
#      x y z
#    x 1.600160 0.000000 -0.022460 
#    y 0.000000 1.662060 0.000000 
#    z -0.022460 0.000000 1.698230 
# 
# From -- ./inp_files/48093.got.cif
#   From: 2010.06.25/outbox.cif.g09.slc.cpg/sg10_25_cif.got.tgz:48093.got - 2010.06.27 22:07:45.
