data_PCOD8067304
_publ_section_title
;
Structure prediction by ZEFSAII (Michael W. Deem and Ramdas Pophale) SiO2 
 PCOD8067304
Probable space group: P 2/M
;
_chemical_formula_sum "Si O2"
_cell_formula_units_Z 20
_cell_length_a 8.817316
_cell_length_b 12.202273
_cell_length_c 9.579090
_cell_angle_alpha 90.000000
_cell_angle_beta 106.427998
_cell_angle_gamma 90.000000
_cell_volume 988.552300
_symmetry_space_group_name_H-M "P 2/M"
_symmetry_group_IT_number 10
_symmetry_cell_setting 'monoclinic'
loop_
_space_group_symop_operation_xyz
x,y,z
-x,y,-z
-x,-y,-z
x,-y,z
loop_
_atom_site_type_symbol
_atom_site_label
_atom_site_fract_x
_atom_site_fract_y
_atom_site_fract_z
Si Si1 0.385120 0.797161 0.093077
Si Si2 0.145707 0.627603 0.131669
Si Si3 0.835849 0.000000 0.043267
Si Si4 0.157164 0.627869 0.457199
Si Si5 0.388184 0.813325 0.597047
Si Si6 0.160571 0.000000 0.621699
O O1 0.298904 0.686868 0.114549
O O2 0.499455 0.832489 0.244407
O O3 0.500000 0.764342 0.000000
O O4 0.263391 0.893198 0.023969
O O5 0.174765 0.500000 0.118270
O O6 0.119304 0.657825 0.286670
O O7 0.000000 0.668804 0.000000
O O8 0.864399 0.000000 0.217221
O O9 0.000000 0.000000 0.000000
O O10 0.197886 0.500000 0.486538
O O11 0.310938 0.692967 0.553308
O O12 0.000000 0.660709 0.500000
O O13 0.500000 0.847536 0.500000
O O14 0.244064 0.893279 0.584134
O O15 0.000000 0.000000 0.500000
#
# Coordination Sequence:
#
# PCOD8067304 Si02
#       6
#     4   4   2   4   4   2
#     4  12  25  44  68  94 132 171 212 266 326 381
#     4  10  23  43  66  95 131 173 219 262 313 382
#     4  12  28  47  68  92 131 175 211 262 325 384
#     4  10  23  43  66  95 133 173 214 263 319 379
#     4  12  25  43  68  99 129 168 214 268 325 379
#     4  12  28  46  68  96 129 168 219 264 315 390
#
# _framework density 20.231604000000001
#
# number of rings (size 3 to 8) (size 9 to 14) (size 15 to 20)
#    0.000    0.800    4.000    2.400    5.600    4.800 
#    0.000    0.000    0.000    0.000    0.000    0.000 
#    0.000    0.000    0.000    0.000    0.000    0.000 
#
# Total GULP energy -247992.610457 kJ/mol
# GULP energy per Si atom -12399.630523 kJ/mol
# Density = 2.018556 g / cm^3
# Si number density = 20.231604 Si / 1000 Ang^3
#
#
#
# Elastic Constant Matrix: (Units=GPa)
#
#
# Indices 1 2 3 4 5 6 
#
# 1 164.4520 61.0286 85.6028 0.0000 -16.0569 0.0000
# 2 61.0286 80.8750 49.5995 0.0000 -2.6648 0.0000
# 3 85.6028 49.5995 164.3022 0.0000 -7.7787 0.0000
# 4 0.0000 0.0000 0.0000 20.3700 0.0000 -6.4993
# 5 -16.0569 -2.6648 -7.7787 0.0000 51.4106 0.0000
# 6 0.0000 0.0000 0.0000 -6.4993 0.0000 37.8698
#
#
#
# Elastic Compliance Matrix: (Units=1/GPa)
#
#
# Indices 1 2 3 4 5 6 
#
# 1 0.010171 -0.005419 -0.003551 0.000000 0.002358 0.000000
# 2 -0.005419 0.018062 -0.002684 0.000000 -0.001162 0.000000
# 3 -0.003551 -0.002684 0.008751 0.000000 0.000076 0.000000
# 4 0.000000 0.000000 0.000000 0.051936 0.000000 0.008913
# 5 0.002358 -0.001162 0.000076 0.000000 0.020139 0.000000
# 6 0.000000 0.000000 0.000000 0.008913 0.000000 0.027936
#
#
# Mechanical properties :
#
#
# Convention : Reuss Voigt Hill
#
# Bulk Modulus (GPa) = 73.13288 89.12122 81.12705
# Shear Modulus (GPa) = 30.32847 36.15661 33.24254
#
# Velocity S-wave (km/s) = 3.87598 4.23204 4.05791
# Velocity P-wave (km/s) = 7.50048 8.24781 7.88301
#
# Compressibility (1/GPa) = 0.01367374
#
# Stress axis : x y z
#
# Youngs Moduli (GPa) = 98.32064 55.36505 114.27828
#
# Poissons Ratio (x) = 0.30003 0.40586
# Poissons Ratio (y) = 0.53281 0.30674
# Poissons Ratio (z) = 0.34918 0.14861
#
# Static dielectric constant tensor:
#      x y z
#    x 3.636120 0.000000 -0.194680 
#    y 0.000000 3.432580 0.000000 
#    z -0.194680 0.000000 3.927000 
# 
# 
# High freq. dielectric constant tensor:
#      x y z
#    x 1.806790 0.000000 -0.002750 
#    y 0.000000 1.796730 0.000000 
#    z -0.002750 0.000000 1.809880 
# 
# From -- ./inp_files/17806.got.cif
#   From: 2010.06.25/outbox.cif.g09.slc.cpg/sg10_9_cif.got.tgz:17806.got - 2010.06.27 22:07:45.
