data_PCOD8067907
_publ_section_title
;
Structure prediction by ZEFSAII (Michael W. Deem and Ramdas Pophale) SiO2 
 PCOD8067907
Probable space group: P 2/M
;
_chemical_formula_sum "Si O2"
_cell_formula_units_Z 32
_cell_length_a 27.768755
_cell_length_b 10.016537
_cell_length_c 22.262241
_cell_angle_alpha 90.000000
_cell_angle_beta 18.165052
_cell_angle_gamma 90.000000
_cell_volume 1930.442622
_symmetry_space_group_name_H-M "P 2/M"
_symmetry_group_IT_number 10
_symmetry_cell_setting 'monoclinic'
loop_
_space_group_symop_operation_xyz
x,y,z
-x,y,-z
-x,-y,-z
x,-y,z
loop_
_atom_site_type_symbol
_atom_site_label
_atom_site_fract_x
_atom_site_fract_y
_atom_site_fract_z
Si Si1 0.994638 0.654729 0.173620
Si Si2 0.408422 0.149248 0.017351
Si Si3 0.261951 0.848132 0.815389
Si Si4 0.259982 0.850769 0.313971
Si Si5 0.848152 0.352074 0.469793
Si Si6 0.483321 0.352085 0.199022
Si Si7 0.329771 0.654725 0.502249
Si Si8 0.584579 0.848120 0.492452
O O1 0.041414 0.500000 0.111236
O O2 0.966971 0.689555 0.276543
O O3 0.842172 0.686082 0.316236
O O4 0.129172 0.746271 0.989578
O O5 0.578138 0.151549 0.843859
O O6 0.398163 0.249272 0.972911
O O7 0.369601 0.000000 0.040648
O O8 0.286281 0.193198 0.213541
O O9 0.407718 0.820291 0.685111
O O10 0.306816 0.823583 0.693367
O O11 0.203800 0.000000 0.893028
O O12 0.140353 0.750654 0.488178
O O13 0.190143 0.000000 0.399233
O O14 0.888633 0.500000 0.445999
O O15 0.678008 0.353498 0.644200
O O16 0.557155 0.500000 0.108601
O O17 0.452830 0.310350 0.304023
O O18 0.345251 0.500000 0.502410
O O19 0.364635 0.746331 0.517115
O O20 0.604029 0.000000 0.492424
#
# Coordination Sequence:
#
# PCOD8067907 Si02
#       8
#     4   4   4   4   4   4   4   4
#     4   9  18  31  46  67  94 120 148 184 223 264
#     4   8  13  20  30  47  73 105 141 178 212 248
#     4   9  19  35  51  67  89 116 147 184 223 264
#     4   8  13  20  30  47  73 105 141 178 212 248
#     4   8  14  24  36  52  78 110 141 174 212 253
#     4   8  14  24  36  52  78 110 141 174 212 253
#     4   9  18  31  46  67  94 120 148 184 223 264
#     4   9  19  35  51  67  89 116 147 184 223 264
#
# _framework density 16.576509000000001
#
# number of rings (size 3 to 8) (size 9 to 14) (size 15 to 20)
#    0.000    3.500    0.000    3.000    0.000    3.500 
#    0.000    8.750    0.000    0.000    0.000    0.000 
#    0.000    1.000    0.000   11.000    0.000   18.000 
#
# Total GULP energy -396594.733426 kJ/mol
# GULP energy per Si atom -12393.585420 kJ/mol
# Density = 1.653878 g / cm^3
# Si number density = 16.576509 Si / 1000 Ang^3
#
#
#
# Elastic Constant Matrix: (Units=GPa)
#
#
# Indices 1 2 3 4 5 6 
#
# 1 55.8492 73.3712 69.0337 0.0000 21.9147 0.0000
# 2 73.3712 129.7629 78.6215 0.0000 27.6963 0.0000
# 3 69.0337 78.6215 64.7367 0.0000 25.3152 0.0000
# 4 0.0000 0.0000 0.0000 32.4291 0.0000 10.4888
# 5 21.9147 27.6963 25.3152 0.0000 17.5443 0.0000
# 6 0.0000 0.0000 0.0000 10.4888 0.0000 30.7023
#
#
#
# Elastic Compliance Matrix: (Units=1/GPa)
#
#
# Indices 1 2 3 4 5 6 
#
# 1 -0.038661 -0.014611 0.071298 0.000000 -0.031521 0.000000
# 2 -0.014611 0.024724 -0.014504 0.000000 0.000149 0.000000
# 3 0.071298 -0.014504 -0.039234 0.000000 -0.009550 0.000000
# 4 0.000000 0.000000 0.000000 0.034667 0.000000 -0.011843
# 5 -0.031521 0.000149 -0.009550 0.000000 0.109917 0.000000
# 6 0.000000 0.000000 0.000000 -0.011843 0.000000 0.036617
#
#
# Mechanical properties :
#
#
# Convention : Reuss Voigt Hill
#
# Bulk Modulus (GPa) = 32.05620 76.93353 54.49487
# Shear Modulus (GPa) = 92.48855 18.08996 55.28926
#
# Velocity S-wave (km/s) = 7.47771 3.30707 5.78156
# Velocity P-wave (km/s) = 9.69201 7.81628 8.80424
#
# Compressibility (1/GPa) = 0.03119521
#
# Stress axis : x y z
#
# Youngs Moduli (GPa) = -25.86571 40.44695 -25.48796
#
# Poissons Ratio (x) = 0.59096 1.81725
# Poissons Ratio (y) = -0.37792 -0.36968
# Poissons Ratio (z) = 1.84418 0.58665
#
# Static dielectric constant tensor:
#      x y z
#    x 2.901040 0.000000 0.366160 
#    y 0.000000 3.352650 0.000000 
#    z 0.366160 0.000000 2.955020 
# 
# 
# High freq. dielectric constant tensor:
#      x y z
#    x 1.609990 0.000000 0.034040 
#    y 0.000000 1.645900 0.000000 
#    z 0.034040 0.000000 1.615050 
# 
# From -- ./inp_files/32192.got.cif
#   From: 2010.06.25/outbox.cif.g09.slc.cpg/sg10_17_cif.got.tgz:32192.got - 2010.06.27 22:07:45.
