data_PCOD8067536
_publ_section_title
;
Structure prediction by ZEFSAII (Michael W. Deem and Ramdas Pophale) SiO2 
 PCOD8067536
Probable space group: P 2/M
;
_chemical_formula_sum "Si O2"
_cell_formula_units_Z 32
_cell_length_a 20.608191
_cell_length_b 13.864819
_cell_length_c 19.283753
_cell_angle_alpha 90.000000
_cell_angle_beta 21.002056
_cell_angle_gamma 90.000000
_cell_volume 1974.764872
_symmetry_space_group_name_H-M "P 2/M"
_symmetry_group_IT_number 10
_symmetry_cell_setting 'monoclinic'
loop_
_space_group_symop_operation_xyz
x,y,z
-x,y,-z
-x,-y,-z
x,-y,z
loop_
_atom_site_type_symbol
_atom_site_label
_atom_site_fract_x
_atom_site_fract_y
_atom_site_fract_z
Si Si1 0.510464 0.115114 0.253713
Si Si2 0.501592 0.885843 0.104550
Si Si3 0.788108 0.198879 0.352781
Si Si4 0.214986 0.107852 0.785269
Si Si5 0.803388 0.797100 0.057326
Si Si6 0.296176 0.392558 0.621253
Si Si7 0.795672 0.114742 0.704261
Si Si8 0.276020 0.607113 0.797273
O O1 0.502664 0.149989 0.182214
O O2 0.325638 0.151503 0.472467
O O3 0.682004 0.170242 0.114368
O O4 0.531343 0.000000 0.240995
O O5 0.318427 0.848807 0.249022
O O6 0.500041 0.000000 0.103018
O O7 0.684197 0.849537 0.883407
O O8 0.709097 0.161576 0.358158
O O9 0.775929 0.315324 0.362861
O O10 0.994307 0.164857 0.158927
O O11 0.286581 0.158158 0.783566
O O12 0.291440 0.000000 0.707723
O O13 0.000000 0.110689 0.000000
O O14 0.811330 0.681729 0.061126
O O15 0.233668 0.500000 0.660913
O O16 0.510301 0.387716 0.409964
O O17 0.216502 0.368841 0.777437
O O18 0.000000 0.158792 0.500000
O O19 0.809250 0.000000 0.690371
O O20 0.206865 0.500000 0.885988
#
# Coordination Sequence:
#
# PCOD8067536 Si02
#       8
#     4   4   4   4   4   4   4   4
#     4  11  23  35  46  63  95 134 164 194 230 273
#     4   8  16  29  43  65  92 118 153 188 221 266
#     4  11  21  33  48  66  88 119 160 204 247 288
#     4   9  18  31  44  59  81 114 162 209 237 267
#     4  11  21  33  48  66  88 119 160 204 247 288
#     4   9  17  31  51  71  88 109 146 201 261 311
#     4   8  13  25  48  71  89 112 145 187 227 261
#     4   9  17  31  51  71  88 109 146 201 261 311
#
# _framework density 16.204460999999998
#
# number of rings (size 3 to 8) (size 9 to 14) (size 15 to 20)
#    0.000    2.500    2.500    2.250    0.000    3.500 
#    0.000    5.000    0.000    0.000    0.000    0.000 
#    0.000    0.000    0.000    9.000    0.000   20.500 
#
# Total GULP energy -396652.522795 kJ/mol
# GULP energy per Si atom -12395.391337 kJ/mol
# Density = 1.616758 g / cm^3
# Si number density = 16.204461 Si / 1000 Ang^3
#
#
#
# Elastic Constant Matrix: (Units=GPa)
#
#
# Indices 1 2 3 4 5 6 
#
# 1 82.7560 14.0853 42.6755 0.0000 16.8397 0.0000
# 2 14.0853 64.9840 8.3668 0.0000 11.2300 0.0000
# 3 42.6755 8.3668 87.6302 0.0000 2.7518 0.0000
# 4 0.0000 0.0000 0.0000 12.2090 0.0000 -3.0587
# 5 16.8397 11.2300 2.7518 0.0000 23.0913 0.0000
# 6 0.0000 0.0000 0.0000 -3.0587 0.0000 8.3095
#
#
#
# Elastic Compliance Matrix: (Units=1/GPa)
#
#
# Indices 1 2 3 4 5 6 
#
# 1 0.019450 -0.000865 -0.008991 0.000000 -0.012692 0.000000
# 2 -0.000865 0.017000 -0.000966 0.000000 -0.007522 0.000000
# 3 -0.008991 -0.000966 0.015721 0.000000 0.005153 0.000000
# 4 0.000000 0.000000 0.000000 0.090228 0.000000 0.033213
# 5 -0.012692 -0.007522 0.005153 0.000000 0.055606 0.000000
# 6 0.000000 0.000000 0.000000 0.033213 0.000000 0.132569
#
#
# Mechanical properties :
#
#
# Convention : Reuss Voigt Hill
#
# Bulk Modulus (GPa) = 32.75730 40.62505 36.69118
# Shear Modulus (GPa) = 13.79719 20.07147 16.93433
#
# Velocity S-wave (km/s) = 2.92112 3.52325 3.23622
# Velocity P-wave (km/s) = 5.62460 6.45568 6.05441
#
# Compressibility (1/GPa) = 0.03052754
#
# Stress axis : x y z
#
# Youngs Moduli (GPa) = 51.41379 58.82324 63.61109
#
# Poissons Ratio (x) = 0.05087 0.57192
# Poissons Ratio (y) = 0.04446 0.06143
# Poissons Ratio (z) = 0.46226 0.05681
#
# Static dielectric constant tensor:
#      x y z
#    x 3.020430 0.000000 -0.027370 
#    y 0.000000 3.027200 0.000000 
#    z -0.027370 0.000000 3.083820 
# 
# 
# High freq. dielectric constant tensor:
#      x y z
#    x 1.594720 0.000000 -0.019710 
#    y 0.000000 1.596210 0.000000 
#    z -0.019710 0.000000 1.625100 
# 
# From -- ./inp_files/79701.got.cif
#   From: 2010.06.25/outbox.cif.g09.slc.cpg/sg10_40_cif.got.tgz:79701.got - 2010.06.27 22:07:45.
