data_PCOD8067864
_publ_section_title
;
Structure prediction by ZEFSAII (Michael W. Deem and Ramdas Pophale) SiO2 
 PCOD8067864
Probable space group: P 2/M
;
_chemical_formula_sum "Si O2"
_cell_formula_units_Z 20
_cell_length_a 11.818676
_cell_length_b 17.533812
_cell_length_c 9.280487
_cell_angle_alpha 90.000000
_cell_angle_beta 141.740747
_cell_angle_gamma 90.000000
_cell_volume 1190.862040
_symmetry_space_group_name_H-M "P 2/M"
_symmetry_group_IT_number 10
_symmetry_cell_setting 'monoclinic'
loop_
_space_group_symop_operation_xyz
x,y,z
-x,y,-z
-x,-y,-z
x,-y,z
loop_
_atom_site_type_symbol
_atom_site_label
_atom_site_fract_x
_atom_site_fract_y
_atom_site_fract_z
Si Si1 0.708084 0.909652 0.708076
Si Si2 0.000011 0.173745 0.848323
Si Si3 0.712077 0.412953 0.547059
Si Si4 0.287994 0.412953 0.122932
Si Si5 0.999964 0.682383 0.330324
O O1 0.500000 0.878762 0.500000
O O2 0.816372 0.879268 0.672968
O O3 0.710787 0.000000 0.710767
O O4 0.816365 0.879276 0.959754
O O5 0.000039 0.228162 0.710687
O O6 0.000000 0.222828 0.000000
O O7 0.761550 0.500000 0.557637
O O8 0.500040 0.397226 0.309504
O O9 0.765686 0.396466 0.765714
O O10 0.819638 0.357035 0.550342
O O11 0.238537 0.500000 0.034568
O O12 0.180470 0.357034 0.911108
O O13 0.000000 0.675147 0.500000
#
# Coordination Sequence:
#
# PCOD8067864 Si02
#       5
#     4   4   4   4   4
#     4   8  15  31  58  83  97 116 156 210 250 278
#     4   8  18  31  49  77 102 127 162 201 238 295
#     4   9  19  36  56  73  91 126 179 229 263 294
#     4   9  19  36  56  73  91 126 179 229 263 294
#     4  12  23  33  46  72 110 144 166 199 252 306
#
# _framework density 16.794557000000001
#
# number of rings (size 3 to 8) (size 9 to 14) (size 15 to 20)
#    1.200    1.400    0.000    4.800    0.000    5.600 
#    0.000    2.000    0.000    2.400    0.000    2.800 
#    0.000    0.000    0.000    0.000    0.000    0.000 
#
# Total GULP energy -247767.423422 kJ/mol
# GULP energy per Si atom -12388.371171 kJ/mol
# Density = 1.675633 g / cm^3
# Si number density = 16.794557 Si / 1000 Ang^3
#
#
#
# Elastic Constant Matrix: (Units=GPa)
#
#
# Indices 1 2 3 4 5 6 
#
# 1 77.8350 50.9786 75.2171 0.0000 5.5959 0.0000
# 2 50.9786 91.6785 52.6003 0.0000 5.0880 0.0000
# 3 75.2171 52.6003 84.3203 0.0000 15.0712 0.0000
# 4 0.0000 0.0000 0.0000 38.4325 0.0000 26.4654
# 5 5.5959 5.0880 15.0712 0.0000 33.9198 0.0000
# 6 0.0000 0.0000 0.0000 26.4654 0.0000 30.5017
#
#
#
# Elastic Compliance Matrix: (Units=1/GPa)
#
#
# Indices 1 2 3 4 5 6 
#
# 1 0.116089 -0.005923 -0.104930 0.000000 0.028359 0.000000
# 2 -0.005923 0.017464 -0.005776 0.000000 0.000924 0.000000
# 3 -0.104930 -0.005776 0.114944 0.000000 -0.032895 0.000000
# 4 0.000000 0.000000 0.000000 0.064644 0.000000 -0.056090
# 5 0.028359 0.000924 -0.032895 0.000000 0.039280 0.000000
# 6 0.000000 0.000000 0.000000 -0.056090 0.000000 0.081453
#
#
# Mechanical properties :
#
#
# Convention : Reuss Voigt Hill
#
# Bulk Modulus (GPa) = 65.62081 67.93622 66.77851
# Shear Modulus (GPa) = 7.43813 25.57332 16.50573
#
# Velocity S-wave (km/s) = 2.10678 3.90643 3.13837
# Velocity P-wave (km/s) = 6.71383 7.80295 7.27879
#
# Compressibility (1/GPa) = 0.01523907
#
# Stress axis : x y z
#
# Youngs Moduli (GPa) = 8.61408 57.26149 8.69987
#
# Poissons Ratio (x) = 0.33914 0.91288
# Poissons Ratio (y) = 0.05102 0.05025
# Poissons Ratio (z) = 0.90388 0.33074
#
# Static dielectric constant tensor:
#      x y z
#    x 3.006220 0.000000 0.275480 
#    y 0.000000 2.980420 0.000000 
#    z 0.275480 0.000000 3.088800 
# 
# 
# High freq. dielectric constant tensor:
#      x y z
#    x 1.628590 0.000000 0.031700 
#    y 0.000000 1.640990 0.000000 
#    z 0.031700 0.000000 1.638090 
# 
# From -- ./inp_files/25936.got.cif
#   From: 2010.06.25/outbox.cif.g09.slc.cpg/sg10_13_cif.got.tgz:25936.got - 2010.06.27 22:07:45.
