data_PCOD8067410
_publ_section_title
;
Structure prediction by ZEFSAII (Michael W. Deem and Ramdas Pophale) SiO2 
 PCOD8067410
Probable space group: P 2/M
;
_chemical_formula_sum "Si O2"
_cell_formula_units_Z 32
_cell_length_a 13.416283
_cell_length_b 18.720655
_cell_length_c 10.462061
_cell_angle_alpha 90.000000
_cell_angle_beta 32.459629
_cell_angle_gamma 90.000000
_cell_volume 1410.283140
_symmetry_space_group_name_H-M "P 2/M"
_symmetry_group_IT_number 10
_symmetry_cell_setting 'monoclinic'
loop_
_space_group_symop_operation_xyz
x,y,z
-x,y,-z
-x,-y,-z
x,-y,z
loop_
_atom_site_type_symbol
_atom_site_label
_atom_site_fract_x
_atom_site_fract_y
_atom_site_fract_z
Si Si1 0.287679 0.169073 0.973362
Si Si2 0.773696 0.697795 0.517211
Si Si3 0.182527 0.673135 0.059114
Si Si4 0.368771 0.125018 0.545712
Si Si5 0.484042 0.418772 0.865893
Si Si6 0.706452 0.836007 0.748844
Si Si7 0.701451 0.278143 0.310398
Si Si8 0.944651 0.918641 0.287777
O O1 0.501692 0.143796 0.719468
O O2 0.300159 0.253861 0.938402
O O3 0.205164 0.162356 0.206016
O O4 0.132078 0.126408 0.059410
O O5 0.695801 0.755564 0.701485
O O6 0.779155 0.729033 0.369490
O O7 0.979837 0.676651 0.340833
O O8 0.654851 0.626425 0.629617
O O9 0.291171 0.610804 0.016067
O O10 0.165038 0.670919 0.921933
O O11 0.500000 0.077967 0.500000
O O12 0.312818 0.192179 0.702064
O O13 0.184860 0.084760 0.698892
O O14 0.503689 0.500000 0.797882
O O15 0.500000 0.413070 0.000000
O O16 0.825005 0.888525 0.533982
O O17 0.500000 0.864488 0.000000
O O18 0.500000 0.313183 0.500000
O O19 0.999815 0.000000 0.256171
#
# Coordination Sequence:
#
# PCOD8067410 Si02
#       8
#     4   4   4   4   4   4   4   4
#     4  12  23  41  68 101 128 170 228 285 334 397
#     4  12  23  41  69 103 138 175 224 286 335 395
#     4  12  23  40  72 104 132 178 233 276 333 403
#     4  11  22  44  69  90 131 175 221 278 342 402
#     4  11  26  46  68 101 145 185 222 275 343 409
#     4  12  23  41  69  97 130 173 230 281 336 405
#     4  11  19  39  70 102 132 170 227 280 333 394
#     4  12  28  45  64  97 137 178 224 282 351 416
#
# _framework density 22.690480000000001
#
# number of rings (size 3 to 8) (size 9 to 14) (size 15 to 20)
#    0.000    0.375    7.500    2.625    0.000    4.500 
#    0.000    3.125    0.000    1.500    0.000    0.000 
#    0.000    0.000    0.000    0.000    0.000    0.000 
#
# Total GULP energy -396504.989359 kJ/mol
# GULP energy per Si atom -12390.780917 kJ/mol
# Density = 2.263884 g / cm^3
# Si number density = 22.690480 Si / 1000 Ang^3
#
#
#
# Elastic Constant Matrix: (Units=GPa)
#
#
# Indices 1 2 3 4 5 6 
#
# 1 94.4786 22.6874 7.3301 0.0000 -6.6736 0.0000
# 2 22.6874 106.5366 16.5146 0.0000 -9.9766 0.0000
# 3 7.3301 16.5146 65.9136 0.0000 -15.7875 0.0000
# 4 0.0000 0.0000 0.0000 7.7570 0.0000 -12.3910
# 5 -6.6736 -9.9766 -15.7875 0.0000 34.9104 0.0000
# 6 0.0000 0.0000 0.0000 -12.3910 0.0000 17.5770
#
#
#
# Elastic Compliance Matrix: (Units=1/GPa)
#
#
# Indices 1 2 3 4 5 6 
#
# 1 0.011239 -0.002209 -0.000373 0.000000 0.001348 0.000000
# 2 -0.002209 0.010312 -0.001944 0.000000 0.001646 0.000000
# 3 -0.000373 -0.001944 0.017439 0.000000 0.007259 0.000000
# 4 0.000000 0.000000 0.000000 -1.022370 0.000000 -0.720727
# 5 0.001348 0.001646 0.007259 0.000000 0.032656 0.000000
# 6 0.000000 0.000000 0.000000 -0.720727 0.000000 -0.451189
#
#
# Mechanical properties :
#
#
# Convention : Reuss Voigt Hill
#
# Bulk Modulus (GPa) = 33.40347 39.99921 36.70134
# Shear Modulus (GPa) = -3.61564 26.74201 11.56318
#
# Velocity S-wave (km/s) = -1.26369 3.43674 2.25989
# Velocity P-wave (km/s) = 3.55304 5.78054 4.79785
#
# Compressibility (1/GPa) = 0.02993701
#
# Stress axis : x y z
#
# Youngs Moduli (GPa) = 88.97483 96.97105 57.34373
#
# Poissons Ratio (x) = 0.21424 0.02141
# Poissons Ratio (y) = 0.19657 0.11147
# Poissons Ratio (z) = 0.03322 0.18850
#
# Static dielectric constant tensor:
#      x y z
#    x 4.729430 0.000000 0.222380 
#    y 0.000000 3.699790 0.000000 
#    z 0.222380 0.000000 4.154400 
# 
# 
# High freq. dielectric constant tensor:
#      x y z
#    x 1.922960 0.000000 0.002400 
#    y 0.000000 1.841820 0.000000 
#    z 0.002400 0.000000 1.908610 
# 
# From -- ./inp_files/51944.got.cif
#   From: 2010.06.25/outbox.cif.g09.slc.cpg/sg10_26_cif.got.tgz:51944.got - 2010.06.27 22:07:45.
