data_PCOD8067104
_publ_section_title
;
Structure prediction by ZEFSAII (Michael W. Deem and Ramdas Pophale) SiO2 
 PCOD8067104
Probable space group: P 2/M
;
_chemical_formula_sum "Si O2"
_cell_formula_units_Z 32
_cell_length_a 13.274582
_cell_length_b 8.521925
_cell_length_c 13.331147
_cell_angle_alpha 90.000000
_cell_angle_beta 82.302997
_cell_angle_gamma 90.000000
_cell_volume 1494.498359
_symmetry_space_group_name_H-M "P 2/M"
_symmetry_group_IT_number 10
_symmetry_cell_setting 'monoclinic'
loop_
_space_group_symop_operation_xyz
x,y,z
-x,y,-z
-x,-y,-z
x,-y,z
loop_
_atom_site_type_symbol
_atom_site_label
_atom_site_fract_x
_atom_site_fract_y
_atom_site_fract_z
Si Si1 0.471487 0.682094 0.296865
Si Si2 0.022059 0.180850 0.189450
Si Si3 0.326392 0.180264 0.656294
Si Si4 0.214251 0.680751 0.061774
Si Si5 0.719148 0.317679 0.545310
Si Si6 0.079554 0.817121 0.404816
Si Si7 0.577621 0.817480 0.904008
Si Si8 0.184614 0.319840 0.837637
O O1 0.462648 0.500000 0.269581
O O2 0.574977 0.711636 0.343375
O O3 0.378349 0.736661 0.378348
O O4 0.474005 0.784311 0.195789
O O5 0.127754 0.211305 0.120240
O O6 0.030327 0.225116 0.305057
O O7 0.935381 0.286650 0.150985
O O8 0.992362 0.000000 0.179622
O O9 0.274525 0.218709 0.557345
O O10 0.243790 0.208993 0.753325
O O11 0.359754 0.000000 0.654892
O O12 0.185499 0.500000 0.083923
O O13 0.319774 0.717930 0.102028
O O14 0.225217 0.718667 0.942927
O O15 0.712630 0.500000 0.519069
O O16 0.818426 0.283236 0.597746
O O17 0.000000 0.765613 0.500000
O O18 0.107517 0.000000 0.409039
O O19 0.603881 0.000000 0.911903
O O20 0.500000 0.761871 0.000000
O O21 0.205621 0.500000 0.806681
#
# Coordination Sequence:
#
# PCOD8067104 Si02
#       8
#     4   4   4   4   4   4   4   4
#     4  11  24  42  64  91 124 161 203 251 304 364
#     4  11  23  39  63  93 125 162 205 255 307 361
#     4  12  25  41  64  92 123 160 202 250 305 363
#     4  11  24  41  62  89 123 164 206 251 306 365
#     4  11  24  41  63  91 122 159 203 250 301 361
#     4  10  22  40  61  88 122 159 201 249 301 358
#     4  11  24  41  63  92 124 160 205 256 309 365
#     4  11  24  42  64  90 123 162 205 253 305 363
#
# _framework density 21.411866
#
# number of rings (size 3 to 8) (size 9 to 14) (size 15 to 20)
#    0.000    1.000    0.000    6.375    0.000   14.250 
#    0.000    0.000    0.000    0.000    0.000    0.000 
#    0.000    0.000    0.000    0.000    0.000    0.000 
#
# Total GULP energy -397149.292722 kJ/mol
# GULP energy per Si atom -12410.915398 kJ/mol
# Density = 2.136313 g / cm^3
# Si number density = 21.411866 Si / 1000 Ang^3
#
#
#
# Elastic Constant Matrix: (Units=GPa)
#
#
# Indices 1 2 3 4 5 6 
#
# 1 88.2354 15.7646 -2.8747 0.0000 -3.3047 0.0000
# 2 15.7646 58.5344 37.5020 0.0000 -3.1161 0.0000
# 3 -2.8747 37.5020 72.2969 0.0000 -3.2718 0.0000
# 4 0.0000 0.0000 0.0000 29.9788 0.0000 2.0102
# 5 -3.3047 -3.1161 -3.2718 0.0000 39.3712 0.0000
# 6 0.0000 0.0000 0.0000 2.0102 0.0000 37.7397
#
#
#
# Elastic Compliance Matrix: (Units=1/GPa)
#
#
# Indices 1 2 3 4 5 6 
#
# 1 0.012453 -0.005466 0.003371 0.000000 0.000893 0.000000
# 2 -0.005466 0.028021 -0.014728 0.000000 0.000535 0.000000
# 3 0.003371 -0.014728 0.021647 0.000000 0.000916 0.000000
# 4 0.000000 0.000000 0.000000 0.033477 0.000000 -0.001783
# 5 0.000893 0.000535 0.000916 0.000000 0.025593 0.000000
# 6 0.000000 0.000000 0.000000 -0.001783 0.000000 0.026592
#
#
# Mechanical properties :
#
#
# Convention : Reuss Voigt Hill
#
# Bulk Modulus (GPa) = 35.11910 35.53894 35.32902
# Shear Modulus (GPa) = 26.18893 32.66292 29.42592
#
# Velocity S-wave (km/s) = 3.50108 3.90995 3.71115
# Velocity P-wave (km/s) = 5.72545 6.08419 5.90755
#
# Compressibility (1/GPa) = 0.02847453
#
# Stress axis : x y z
#
# Youngs Moduli (GPa) = 80.30077 35.68801 46.19551
#
# Poissons Ratio (x) = 0.19507 -0.15572
# Poissons Ratio (y) = 0.43893 0.68037
# Poissons Ratio (z) = -0.27069 0.52562
#
# Static dielectric constant tensor:
#      x y z
#    x 3.813560 0.000000 -0.000450 
#    y 0.000000 3.729530 0.000000 
#    z -0.000450 0.000000 3.933380 
# 
# 
# High freq. dielectric constant tensor:
#      x y z
#    x 1.850200 0.000000 0.000380 
#    y 0.000000 1.842410 0.000000 
#    z 0.000380 0.000000 1.853460 
# 
# From -- ./inp_files/63779.got.cif
#   From: 2010.06.25/outbox.cif.g09.slc.cpg/sg10_32_cif.got.tgz:63779.got - 2010.06.27 22:07:45.
