data_PCOD8067601
_publ_section_title
;
Structure prediction by ZEFSAII (Michael W. Deem and Ramdas Pophale) SiO2 
 PCOD8067601
Probable space group: P 2/M
;
_chemical_formula_sum "Si O2"
_cell_formula_units_Z 20
_cell_length_a 8.661084
_cell_length_b 22.401966
_cell_length_c 10.012791
_cell_angle_alpha 90.000000
_cell_angle_beta 29.854015
_cell_angle_gamma 90.000000
_cell_volume 967.077521
_symmetry_space_group_name_H-M "P 2/M"
_symmetry_group_IT_number 10
_symmetry_cell_setting 'monoclinic'
loop_
_space_group_symop_operation_xyz
x,y,z
-x,y,-z
-x,-y,-z
x,-y,z
loop_
_atom_site_type_symbol
_atom_site_label
_atom_site_fract_x
_atom_site_fract_y
_atom_site_fract_z
Si Si1 0.097508 0.741084 0.074806
Si Si2 0.259141 0.313516 0.419533
Si Si3 0.258651 0.069511 0.411649
Si Si4 0.080702 0.879027 0.089910
Si Si5 0.359494 0.435525 0.247041
O O1 0.465132 0.732492 0.819086
O O2 0.014878 0.809597 0.165679
O O3 0.000000 0.722076 0.000000
O O4 0.896260 0.699732 0.322614
O O5 0.410179 0.380419 0.311017
O O6 0.000000 0.307866 0.500000
O O7 0.563952 0.106246 0.145365
O O8 0.000000 0.089748 0.500000
O O9 0.336484 0.000000 0.339878
O O10 0.145699 0.083595 0.645427
O O11 0.000000 0.897777 0.000000
O O12 0.503086 0.500000 0.187387
O O13 0.000000 0.445643 0.500000
O O14 0.500000 0.415958 0.000000
#
# Coordination Sequence:
#
# PCOD8067601 Si02
#       5
#     4   4   4   4   4
#     4  11  24  40  57  82 120 157 187 233 294 342
#     4  11  21  36  60  88 112 146 199 242 279 338
#     4  11  24  41  62  89 119 148 183 236 296 341
#     4  11  24  41  61  85 114 154 198 232 276 344
#     4   9  17  31  53  83 116 146 184 239 290 330
#
# _framework density 20.680865000000001
#
# number of rings (size 3 to 8) (size 9 to 14) (size 15 to 20)
#    0.000    1.400    0.000    6.600    0.000   12.000 
#    0.000    0.000    0.000    3.600    0.000    0.000 
#    0.000    0.000    0.000    0.000    0.000    0.000 
#
# Total GULP energy -248021.967398 kJ/mol
# GULP energy per Si atom -12401.098370 kJ/mol
# Density = 2.063379 g / cm^3
# Si number density = 20.680865 Si / 1000 Ang^3
#
#
#
# Elastic Constant Matrix: (Units=GPa)
#
#
# Indices 1 2 3 4 5 6 
#
# 1 58.3157 46.4947 17.3572 0.0000 7.1682 0.0000
# 2 46.4947 80.6906 35.0611 0.0000 17.3102 0.0000
# 3 17.3572 35.0611 131.9599 0.0000 11.5860 0.0000
# 4 0.0000 0.0000 0.0000 28.6099 0.0000 9.7917
# 5 7.1682 17.3102 11.5860 0.0000 36.2582 0.0000
# 6 0.0000 0.0000 0.0000 9.7917 0.0000 15.7841
#
#
#
# Elastic Compliance Matrix: (Units=1/GPa)
#
#
# Indices 1 2 3 4 5 6 
#
# 1 0.032021 -0.019323 0.000687 0.000000 0.002675 0.000000
# 2 -0.019323 0.026898 -0.003923 0.000000 -0.007768 0.000000
# 3 0.000687 -0.003923 0.008619 0.000000 -0.001017 0.000000
# 4 0.000000 0.000000 0.000000 0.044374 0.000000 -0.027528
# 5 0.002675 -0.007768 -0.001017 0.000000 0.031085 0.000000
# 6 0.000000 0.000000 0.000000 -0.027528 0.000000 0.080432
#
#
# Mechanical properties :
#
#
# Convention : Reuss Voigt Hill
#
# Bulk Modulus (GPa) = 44.60184 52.08803 48.34494
# Shear Modulus (GPa) = 18.11456 27.60064 22.85760
#
# Velocity S-wave (km/s) = 2.96279 3.65718 3.32814
# Velocity P-wave (km/s) = 5.77215 6.56312 6.18030
#
# Compressibility (1/GPa) = 0.02242060
#
# Stress axis : x y z
#
# Youngs Moduli (GPa) = 31.22944 37.17696 116.01874
#
# Poissons Ratio (x) = 0.71839 -0.07975
# Poissons Ratio (y) = 0.60346 0.45515
# Poissons Ratio (z) = -0.02147 0.14585
#
# Static dielectric constant tensor:
#      x y z
#    x 3.640210 0.000000 0.017210 
#    y 0.000000 4.163680 0.000000 
#    z 0.017210 0.000000 3.985450 
# 
# 
# High freq. dielectric constant tensor:
#      x y z
#    x 1.780900 0.000000 -0.001890 
#    y 0.000000 1.821550 0.000000 
#    z -0.001890 0.000000 1.832180 
# 
# From -- ./inp_files/20593.got.cif
#   From: 2010.06.25/outbox.cif.g09.slc.cpg/sg10_11_cif.got.tgz:20593.got - 2010.06.27 22:07:45.
