data_PCOD8067276
_publ_section_title
;
Structure prediction by ZEFSAII (Michael W. Deem and Ramdas Pophale) SiO2 
 PCOD8067276
Probable space group: P 2/M
;
_chemical_formula_sum "Si O2"
_cell_formula_units_Z 18
_cell_length_a 7.620828
_cell_length_b 20.451207
_cell_length_c 4.964413
_cell_angle_alpha 90.000000
_cell_angle_beta 83.277557
_cell_angle_gamma 90.000000
_cell_volume 768.409751
_symmetry_space_group_name_H-M "P 2/M"
_symmetry_group_IT_number 10
_symmetry_cell_setting 'monoclinic'
loop_
_space_group_symop_operation_xyz
x,y,z
-x,y,-z
-x,-y,-z
x,-y,z
loop_
_atom_site_type_symbol
_atom_site_label
_atom_site_fract_x
_atom_site_fract_y
_atom_site_fract_z
Si Si1 0.361262 0.121168 0.321531
Si Si2 0.500000 0.761501 0.000000
Si Si3 0.207588 0.572078 0.445817
Si Si4 0.209098 0.343193 0.944498
Si Si5 0.821881 0.923957 0.166270
O O1 0.500000 0.083078 0.500000
O O2 0.433254 0.194435 0.262755
O O3 0.190996 0.116758 0.549853
O O4 0.332775 0.089535 0.029043
O O5 0.327960 0.721073 0.943335
O O6 0.295574 0.500000 0.458839
O O7 0.269415 0.622457 0.660122
O O8 0.000000 0.563018 0.500000
O O9 0.263718 0.603844 0.155955
O O10 0.000000 0.324705 0.000000
O O11 0.832483 0.000000 0.237069
O O12 0.000000 0.897872 0.000000
#
# Coordination Sequence:
#
# PCOD8067276 Si02
#       5
#     4   2   4   4   4
#     4  12  25  46  68 100 136 184 224 278 347 398
#     4  12  28  46  66  96 142 184 238 280 322 414
#     4   9  18  37  65  97 129 167 221 283 348 408
#     4  10  23  41  66  93 129 180 224 279 341 397
#     4  11  25  47  74 105 136 171 225 290 351 417
#
# _framework density 23.425001999999999
#
# number of rings (size 3 to 8) (size 9 to 14) (size 15 to 20)
#    0.000    1.333    2.222    2.000    3.111    8.000 
#    4.000    3.333    0.000    0.000    0.000    0.000 
#    0.000    0.000    0.000    0.000    0.000    0.222 
#
# Total GULP energy -223050.293284 kJ/mol
# GULP energy per Si atom -12391.682960 kJ/mol
# Density = 2.337169 g / cm^3
# Si number density = 23.425002 Si / 1000 Ang^3
#
#
#
# Elastic Constant Matrix: (Units=GPa)
#
#
# Indices 1 2 3 4 5 6 
#
# 1 74.3839 56.9224 19.1389 0.0000 -2.4533 0.0000
# 2 56.9224 114.8937 45.7361 0.0000 -16.3997 0.0000
# 3 19.1389 45.7361 130.3810 0.0000 5.0630 0.0000
# 4 0.0000 0.0000 0.0000 45.0068 0.0000 12.3050
# 5 -2.4533 -16.3997 5.0630 0.0000 30.7011 0.0000
# 6 0.0000 0.0000 0.0000 12.3050 0.0000 1.1618
#
#
#
# Elastic Compliance Matrix: (Units=1/GPa)
#
#
# Indices 1 2 3 4 5 6 
#
# 1 0.022356 -0.012269 0.001215 0.000000 -0.004967 0.000000
# 2 -0.012269 0.018094 -0.004915 0.000000 0.009495 0.000000
# 3 0.001215 -0.004915 0.009374 0.000000 -0.004074 0.000000
# 4 0.000000 0.000000 0.000000 -0.011721 0.000000 0.124137
# 5 -0.004967 0.009495 -0.004074 0.000000 0.037919 0.000000
# 6 0.000000 0.000000 0.000000 0.124137 0.000000 -0.454046
#
#
# Mechanical properties :
#
#
# Convention : Reuss Voigt Hill
#
# Bulk Modulus (GPa) = 55.90853 62.58374 59.24613
# Shear Modulus (GPa) = -14.70049 28.56468 6.93210
#
# Velocity S-wave (km/s) = -2.50782 3.49579 1.72212
# Velocity P-wave (km/s) = 3.94123 6.56268 5.41304
#
# Compressibility (1/GPa) = 0.01788636
#
# Stress axis : x y z
#
# Youngs Moduli (GPa) = 44.73099 55.26755 106.68046
#
# Poissons Ratio (x) = 0.67805 -0.12960
# Poissons Ratio (y) = 0.54878 0.52432
# Poissons Ratio (z) = -0.05434 0.27163
#
# Static dielectric constant tensor:
#      x y z
#    x 3.676970 0.000000 0.505980 
#    y 0.000000 4.009690 0.000000 
#    z 0.505980 0.000000 4.107940 
# 
# 
# High freq. dielectric constant tensor:
#      x y z
#    x 1.928120 0.000000 -0.005250 
#    y 0.000000 1.906740 0.000000 
#    z -0.005250 0.000000 1.951260 
# 
# From -- ./inp_files/4126.got.cif
#   From: 2010.06.25/outbox.cif.g09.slc.cpg/sg10_3_cif.got.tgz:4126.got - 2010.06.27 22:07:45.
