data_PCOD8067902
_publ_section_title
;
Structure prediction by ZEFSAII (Michael W. Deem and Ramdas Pophale) SiO2 
 PCOD8067902
Probable space group: P 2/M
;
_chemical_formula_sum "Si O2"
_cell_formula_units_Z 32
_cell_length_a 14.584474
_cell_length_b 9.243396
_cell_length_c 29.027277
_cell_angle_alpha 90.000000
_cell_angle_beta 28.283530
_cell_angle_gamma 90.000000
_cell_volume 1854.196887
_symmetry_space_group_name_H-M "P 2/M"
_symmetry_group_IT_number 10
_symmetry_cell_setting 'monoclinic'
loop_
_space_group_symop_operation_xyz
x,y,z
-x,y,-z
-x,-y,-z
x,-y,z
loop_
_atom_site_type_symbol
_atom_site_label
_atom_site_fract_x
_atom_site_fract_y
_atom_site_fract_z
Si Si1 0.578385 0.170083 0.658648
Si Si2 0.317639 0.172336 0.608766
Si Si3 0.304816 0.831454 0.292002
Si Si4 0.444729 0.170649 0.132769
Si Si5 0.819200 0.827988 0.916789
Si Si6 0.059613 0.337990 0.526376
Si Si7 0.240597 0.171401 0.744517
Si Si8 0.108280 0.171719 0.217794
O O1 0.584866 0.212931 0.709772
O O2 0.373162 0.221681 0.728668
O O3 0.741217 0.250990 0.556864
O O4 0.612361 0.000000 0.636922
O O5 0.500000 0.238490 0.500000
O O6 0.327493 0.227217 0.657373
O O7 0.113186 0.226847 0.677149
O O8 0.326458 0.000000 0.603087
O O9 0.442637 0.792721 0.188034
O O10 0.106842 0.744198 0.371934
O O11 0.249484 0.000000 0.317370
O O12 0.252054 0.234644 0.193282
O O13 0.446817 0.000000 0.123662
O O14 0.638760 0.239606 0.024820
O O15 0.808563 0.777624 0.868449
O O16 0.021804 0.770509 0.848911
O O17 0.811517 0.000000 0.923369
O O18 0.084875 0.500000 0.534775
O O19 0.000000 0.341207 0.500000
O O20 0.232936 0.000000 0.745307
O O21 0.104539 0.000000 0.221044
#
# Coordination Sequence:
#
# PCOD8067902 Si02
#       8
#     4   4   4   4   4   4   4   4
#     4   9  16  27  42  59  82 111 137 161 195 241
#     4   8  13  20  29  45  71 100 131 166 200 236
#     4   9  17  27  39  60  87 109 132 164 201 241
#     4   9  15  22  34  53  79 109 136 166 206 245
#     4   8  13  22  34  50  76 108 139 169 202 241
#     4   9  17  29  44  60  79 106 138 169 200 235
#     4   8  14  23  35  51  74 106 137 163 196 238
#     4   8  13  20  31  48  73 107 139 164 199 245
#
# _framework density 17.258146
#
# number of rings (size 3 to 8) (size 9 to 14) (size 15 to 20)
#    0.000    3.500    0.000    2.250    0.000    4.000 
#    0.000    4.375    0.000    3.750    0.000    0.875 
#    0.000   18.500    0.000    0.000    0.000    0.250 
#
# Total GULP energy -396500.828027 kJ/mol
# GULP energy per Si atom -12390.650876 kJ/mol
# Density = 1.721887 g / cm^3
# Si number density = 17.258146 Si / 1000 Ang^3
#
#
#
# Elastic Constant Matrix: (Units=GPa)
#
#
# Indices 1 2 3 4 5 6 
#
# 1 124.3439 14.4123 74.7270 0.0000 -15.0644 0.0000
# 2 14.4123 19.4287 15.0902 0.0000 -1.3016 0.0000
# 3 74.7270 15.0902 155.9891 0.0000 -9.2441 0.0000
# 4 0.0000 0.0000 0.0000 2.1413 0.0000 0.7999
# 5 -15.0644 -1.3016 -9.2441 0.0000 22.9322 0.0000
# 6 0.0000 0.0000 0.0000 0.7999 0.0000 3.7190
#
#
#
# Elastic Compliance Matrix: (Units=1/GPa)
#
#
# Indices 1 2 3 4 5 6 
#
# 1 0.012381 -0.004818 -0.005121 0.000000 0.005795 0.000000
# 2 -0.004818 0.057550 -0.003333 0.000000 -0.001242 0.000000
# 3 -0.005121 -0.003333 0.009196 0.000000 0.000153 0.000000
# 4 0.000000 0.000000 0.000000 0.507812 0.000000 -0.109227
# 5 0.005795 -0.001242 0.000153 0.000000 0.047405 0.000000
# 6 0.000000 0.000000 0.000000 -0.109227 0.000000 0.292382
#
#
# Mechanical properties :
#
#
# Convention : Reuss Voigt Hill
#
# Bulk Modulus (GPa) = 19.01813 56.46895 37.74354
# Shear Modulus (GPa) = 5.15041 18.79398 11.97220
#
# Velocity S-wave (km/s) = 1.72940 3.30357 2.63670
# Velocity P-wave (km/s) = 3.87704 6.88060 5.58454
#
# Compressibility (1/GPa) = 0.05258140
#
# Stress axis : x y z
#
# Youngs Moduli (GPa) = 80.77187 17.37631 108.74717
#
# Poissons Ratio (x) = 0.08372 0.55694
# Poissons Ratio (y) = 0.38915 0.36243
# Poissons Ratio (z) = 0.41367 0.05791
#
# Static dielectric constant tensor:
#      x y z
#    x 3.398330 0.000000 -0.203270 
#    y 0.000000 2.634000 0.000000 
#    z -0.203270 0.000000 3.488860 
# 
# 
# High freq. dielectric constant tensor:
#      x y z
#    x 1.663470 0.000000 -0.007590 
#    y 0.000000 1.591170 0.000000 
#    z -0.007590 0.000000 1.667990 
# 
# From -- ./inp_files/93125.got.cif
#   From: 2010.06.25/outbox.cif.g09.slc.cpg/sg10_47_cif.got.tgz:93125.got - 2010.06.27 22:07:45.
