data_PCOD8067901
_publ_section_title
;
Structure prediction by ZEFSAII (Michael W. Deem and Ramdas Pophale) SiO2 
 PCOD8067901
Probable space group: P 2/M
;
_chemical_formula_sum "Si O2"
_cell_formula_units_Z 32
_cell_length_a 12.999708
_cell_length_b 9.310745
_cell_length_c 17.086199
_cell_angle_alpha 90.000000
_cell_angle_beta 89.999989
_cell_angle_gamma 90.000000
_cell_volume 2068.061692
_symmetry_space_group_name_H-M "P 2/M"
_symmetry_group_IT_number 10
_symmetry_cell_setting 'monoclinic'
loop_
_space_group_symop_operation_xyz
x,y,z
-x,y,-z
-x,-y,-z
x,-y,z
loop_
_atom_site_type_symbol
_atom_site_label
_atom_site_fract_x
_atom_site_fract_y
_atom_site_fract_z
Si Si1 0.120487 0.666329 0.849909
Si Si2 0.613944 0.670868 0.411974
Si Si3 0.613943 0.329132 0.588026
Si Si4 1.000000 0.671417 0.588304
Si Si5 0.805430 0.329059 0.683525
Si Si6 0.805431 0.329059 0.316475
Si Si7 0.120487 0.666329 0.150091
Si Si8 0.122360 0.162152 1.000000
O O1 0.141560 0.500000 0.868353
O O2 0.182225 0.719988 0.773430
O O3 0.163193 0.757523 0.922774
O O4 1.000000 0.692389 0.834505
O O5 0.616898 0.500000 0.410730
O O6 0.500000 0.724782 0.386891
O O7 0.639401 0.724170 0.500000
O O8 0.698634 0.732773 0.351659
O O9 0.616898 0.500000 0.589270
O O10 0.698634 0.267227 0.648341
O O11 1.000000 0.500000 0.589411
O O12 0.899316 0.732050 0.631994
O O13 0.000000 0.730152 0.500000
O O14 0.100683 0.732051 0.631994
O O15 0.807801 0.500000 0.679609
O O16 0.817775 0.280011 0.773430
O O17 0.807801 0.500000 0.320392
O O18 0.141560 0.500000 0.131647
O O19 0.163193 0.757523 0.077225
O O20 0.164381 0.000000 0.000000
O O21 0.000000 0.166933 0.000000
#
# Coordination Sequence:
#
# PCOD8067901 Si02
#       8
#     4   4   4   4   4   4   4   4
#     4   9  15  24  37  54  77 102 127 156 191 229
#     4   8  13  20  29  43  68 103 135 158 185 222
#     4   8  13  20  29  43  68 103 135 158 185 222
#     4   9  14  18  26  43  69  98 124 151 185 221
#     4   9  14  20  30  47  71  99 128 156 186 222
#     4   9  14  20  30  47  71  99 128 156 186 222
#     4   9  15  24  37  54  77 102 127 156 191 229
#     4   9  17  27  39  55  76 101 128 154 187 232
#
# _framework density 15.473426
#
# number of rings (size 3 to 8) (size 9 to 14) (size 15 to 20)
#    0.000    3.250    1.250    1.875    0.000    4.500 
#    0.000    0.000    0.000    0.000    0.000    0.875 
#    0.000   13.000    0.000    2.750    0.000    2.500 
#
# Total GULP energy -396600.361894 kJ/mol
# GULP energy per Si atom -12393.761309 kJ/mol
# Density = 1.543821 g / cm^3
# Si number density = 15.473426 Si / 1000 Ang^3
#
#
#
# Elastic Constant Matrix: (Units=GPa)
#
#
# Indices 1 2 3 4 5 6 
#
# 1 100.3981 17.6419 75.4774 0.0000 0.0001 0.0000
# 2 17.6419 30.2248 37.0708 0.0000 0.0000 0.0000
# 3 75.4774 37.0708 162.0054 0.0000 0.0002 0.0000
# 4 0.0000 0.0000 0.0000 1.2362 0.0000 0.0000
# 5 0.0001 0.0000 0.0002 0.0000 20.7829 0.0000
# 6 0.0000 0.0000 0.0000 0.0000 0.0000 3.2152
#
#
#
# Elastic Compliance Matrix: (Units=1/GPa)
#
#
# Indices 1 2 3 4 5 6 
#
# 1 0.015331 -0.000261 -0.007083 0.000000 0.000000 0.000000
# 2 -0.000261 0.045998 -0.010404 0.000000 0.000000 0.000000
# 3 -0.007083 -0.010404 0.011853 0.000000 0.000000 0.000000
# 4 0.000000 0.000000 0.000000 0.808963 0.000000 0.000001
# 5 0.000000 0.000000 0.000000 0.000000 0.048117 0.000000
# 6 0.000000 0.000000 0.000000 0.000001 0.000000 0.311024
#
#
# Mechanical properties :
#
#
# Convention : Reuss Voigt Hill
#
# Bulk Modulus (GPa) = 26.53480 61.44538 43.99009
# Shear Modulus (GPa) = 3.87794 15.87606 9.87700
#
# Velocity S-wave (km/s) = 1.58481 3.20663 2.52924
# Velocity P-wave (km/s) = 4.53152 7.31481 6.08445
#
# Compressibility (1/GPa) = 0.03768635
#
# Stress axis : x y z
#
# Youngs Moduli (GPa) = 65.22731 21.73999 84.36628
#
# Poissons Ratio (x) = 0.00568 0.59755
# Poissons Ratio (y) = 0.01706 0.87772
# Poissons Ratio (z) = 0.46199 0.22618
#
# Static dielectric constant tensor:
#      x y z
#    x 3.017060 0.000000 0.000000 
#    y 0.000000 2.415070 0.000000 
#    z 0.000000 0.000000 3.158060 
# 
# 
# High freq. dielectric constant tensor:
#      x y z
#    x 1.566550 0.000000 0.000000 
#    y 0.000000 1.528300 0.000000 
#    z 0.000000 0.000000 1.602800 
# 
# From -- ./inp_files/75969.got.cif
#   From: 2010.06.25/outbox.cif.g09.slc.cpg/sg10_38_cif.got.tgz:75969.got - 2010.06.27 22:07:45.
