data_PCOD8067134
_publ_section_title
;
Structure prediction by ZEFSAII (Michael W. Deem and Ramdas Pophale) SiO2 
 PCOD8067134
Probable space group: P 2/M
;
_chemical_formula_sum "Si O2"
_cell_formula_units_Z 28
_cell_length_a 13.034421
_cell_length_b 13.195397
_cell_length_c 8.800464
_cell_angle_alpha 90.000000
_cell_angle_beta 70.682776
_cell_angle_gamma 90.000000
_cell_volume 1428.415141
_symmetry_space_group_name_H-M "P 2/M"
_symmetry_group_IT_number 10
_symmetry_cell_setting 'monoclinic'
loop_
_space_group_symop_operation_xyz
x,y,z
-x,y,-z
-x,-y,-z
x,-y,z
loop_
_atom_site_type_symbol
_atom_site_label
_atom_site_fract_x
_atom_site_fract_y
_atom_site_fract_z
Si Si1 0.695306 0.613139 0.267046
Si Si2 0.275712 0.294999 0.428964
Si Si3 0.904549 0.613992 0.651817
Si Si4 0.517592 0.617865 0.815060
Si Si5 0.882753 0.891999 0.126233
Si Si6 0.114633 0.883375 0.522359
Si Si7 0.119695 0.690973 0.008676
O O1 0.678716 0.500000 0.341026
O O2 0.711383 0.691697 0.396556
O O3 0.591497 0.646223 0.220751
O O4 0.799881 0.609090 0.104596
O O5 0.203653 0.386263 0.396437
O O6 0.392280 0.304094 0.291412
O O7 0.213605 0.189436 0.418304
O O8 0.933303 0.500000 0.689268
O O9 0.887157 0.682798 0.807597
O O10 0.000000 0.659948 0.500000
O O11 0.550024 0.500000 0.772816
O O12 0.500000 0.640153 0.000000
O O13 0.898816 0.863197 0.293175
O O14 0.818654 0.000000 0.140137
O O15 0.826616 0.800128 0.062232
O O16 0.000000 0.907192 0.000000
O O17 0.000000 0.855332 0.500000
O O18 0.146248 0.000000 0.470331
O O19 0.000000 0.677291 0.000000
#
# Coordination Sequence:
#
# PCOD8067134 Si02
#       7
#     4   4   4   4   4   4   4
#     4  11  22  37  59  87 118 157 202 249 299 360
#     4  12  22  37  61  87 115 154 202 253 302 357
#     4  11  24  37  52  80 121 161 195 239 299 363
#     4  10  22  41  62  85 117 160 207 252 298 357
#     4   9  19  36  57  83 117 154 197 245 296 355
#     4  10  22  40  63  92 125 160 201 251 309 370
#     4  11  22  36  56  84 118 158 197 246 302 367
#
# _framework density 19.602145
#
# number of rings (size 3 to 8) (size 9 to 14) (size 15 to 20)
#    0.000    1.429    1.429    4.286    6.000    4.571 
#    0.000    0.000    0.000    3.429    0.000    0.000 
#    0.000    0.000    0.000    0.000    0.000    0.000 
#
# Total GULP energy -347091.652502 kJ/mol
# GULP energy per Si atom -12396.130447 kJ/mol
# Density = 1.955753 g / cm^3
# Si number density = 19.602145 Si / 1000 Ang^3
#
#
#
# Elastic Constant Matrix: (Units=GPa)
#
#
# Indices 1 2 3 4 5 6 
#
# 1 129.5476 47.6273 57.2444 0.0000 -0.7991 0.0000
# 2 47.6273 105.6512 46.9872 0.0000 4.5598 0.0000
# 3 57.2444 46.9872 139.2454 0.0000 4.2365 0.0000
# 4 0.0000 0.0000 0.0000 -116.9465 0.0000 45.6700
# 5 -0.7991 4.5598 4.2365 0.0000 37.8250 0.0000
# 6 0.0000 0.0000 0.0000 45.6700 0.0000 15.1745
#
#
#
# Elastic Compliance Matrix: (Units=1/GPa)
#
#
# Indices 1 2 3 4 5 6 
#
# 1 0.010335 -0.003292 -0.003167 0.000000 0.000970 0.000000
# 2 -0.003292 0.012217 -0.002732 0.000000 -0.001236 0.000000
# 3 -0.003167 -0.002732 0.009430 0.000000 -0.000794 0.000000
# 4 0.000000 0.000000 0.000000 -0.003931 0.000000 0.011831
# 5 0.000970 -0.001236 -0.000794 0.000000 0.026696 0.000000
# 6 0.000000 0.000000 0.000000 0.011831 0.000000 0.030294
#
#
# Mechanical properties :
#
#
# Convention : Reuss Voigt Hill
#
# Bulk Modulus (GPa) = 73.53100 75.35132 74.44116
# Shear Modulus (GPa) = 46.31461 2.04962 24.18211
#
# Velocity S-wave (km/s) = 4.86607 1.02366 3.51614
# Velocity P-wave (km/s) = 8.31653 6.31830 7.38531
#
# Compressibility (1/GPa) = 0.01359971
#
# Stress axis : x y z
#
# Youngs Moduli (GPa) = 96.75731 81.85005 106.04911
#
# Poissons Ratio (x) = 0.26947 0.33590
# Poissons Ratio (y) = 0.31855 0.28968
# Poissons Ratio (z) = 0.30647 0.22358
#
# Static dielectric constant tensor:
#      x y z
#    x 3.473820 0.000000 0.111250 
#    y 0.000000 4.074720 0.000000 
#    z 0.111250 0.000000 3.671570 
# 
# 
# High freq. dielectric constant tensor:
#      x y z
#    x 1.744090 0.000000 0.010540 
#    y 0.000000 1.757270 0.000000 
#    z 0.010540 0.000000 1.775280 
# 
# From -- ./inp_files/24871.got.cif
#   From: 2010.06.25/outbox.cif.g09.slc.cpg/sg10_13_cif.got.tgz:24871.got - 2010.06.27 22:07:45.
