data_PCOD8067361
_publ_section_title
;
Structure prediction by ZEFSAII (Michael W. Deem and Ramdas Pophale) SiO2 
 PCOD8067361
Probable space group: P 2/M
;
_chemical_formula_sum "Si O2"
_cell_formula_units_Z 28
_cell_length_a 12.498209
_cell_length_b 8.485597
_cell_length_c 13.310419
_cell_angle_alpha 90.000000
_cell_angle_beta 68.328872
_cell_angle_gamma 90.000000
_cell_volume 1311.857379
_symmetry_space_group_name_H-M "P 2/M"
_symmetry_group_IT_number 10
_symmetry_cell_setting 'monoclinic'
loop_
_space_group_symop_operation_xyz
x,y,z
-x,y,-z
-x,-y,-z
x,-y,z
loop_
_atom_site_type_symbol
_atom_site_label
_atom_site_fract_x
_atom_site_fract_y
_atom_site_fract_z
Si Si1 0.628218 0.681171 0.427133
Si Si2 0.900085 0.316471 0.108251
Si Si3 0.524164 0.682672 0.875605
Si Si4 0.995234 0.818400 0.275049
Si Si5 0.221138 0.317645 0.273243
Si Si6 0.661940 0.819041 0.203196
Si Si7 0.185159 0.819955 0.498504
O O1 0.500000 0.729486 0.500000
O O2 0.654777 0.500000 0.445138
O O3 0.643742 0.705648 0.303867
O O4 0.711602 0.794664 0.459615
O O5 0.874976 0.500000 0.101476
O O6 0.934825 0.286582 0.211393
O O7 0.787175 0.219957 0.114571
O O8 0.000000 0.256554 0.000000
O O9 0.507626 0.500000 0.852549
O O10 0.652241 0.740147 0.802652
O O11 0.434831 0.787388 0.845509
O O12 0.500000 0.713316 0.000000
O O13 0.934475 0.782069 0.403075
O O14 0.129545 0.778141 0.238599
O O15 0.979233 0.000000 0.250403
O O16 0.205090 0.500000 0.252850
O O17 0.200503 0.292809 0.398409
O O18 0.655662 0.000000 0.239240
O O19 0.186607 0.000000 0.460060
#
# Coordination Sequence:
#
# PCOD8067361 Si02
#       7
#     4   4   4   4   4   4   4
#     4  11  23  39  63  93 127 170 217 264 315 379
#     4  11  25  44  69  97 128 170 218 265 318 381
#     4  10  24  46  68  91 125 170 219 268 317 378
#     4  11  24  42  65  96 133 169 210 264 324 383
#     4  11  24  41  65  95 127 171 221 266 318 380
#     4  12  25  42  66  98 132 167 210 265 326 383
#     4  11  23  40  62  93 130 169 210 261 326 383
#
# _framework density 21.343785
#
# number of rings (size 3 to 8) (size 9 to 14) (size 15 to 20)
#    0.000    1.000    1.429    4.714    2.000   10.571 
#    0.000    0.000    0.000    0.000    0.000    0.000 
#    0.000    0.000    0.000    0.000    0.000    0.000 
#
# Total GULP energy -347436.152513 kJ/mol
# GULP energy per Si atom -12408.434018 kJ/mol
# Density = 2.129521 g / cm^3
# Si number density = 21.343785 Si / 1000 Ang^3
#
#
#
# Elastic Constant Matrix: (Units=GPa)
#
#
# Indices 1 2 3 4 5 6 
#
# 1 130.0481 27.7696 31.1610 0.0000 -23.6982 0.0000
# 2 27.7696 51.9569 23.4849 0.0000 -12.0062 0.0000
# 3 31.1610 23.4849 83.2911 0.0000 -22.8594 0.0000
# 4 0.0000 0.0000 0.0000 25.6242 0.0000 13.3452
# 5 -23.6982 -12.0062 -22.8594 0.0000 37.8537 0.0000
# 6 0.0000 0.0000 0.0000 13.3452 0.0000 45.1411
#
#
#
# Elastic Compliance Matrix: (Units=1/GPa)
#
#
# Indices 1 2 3 4 5 6 
#
# 1 0.009513 -0.003499 -0.001489 0.000000 0.003946 0.000000
# 2 -0.003499 0.023832 -0.004719 0.000000 0.002518 0.000000
# 3 -0.001489 -0.004719 0.015855 0.000000 0.007145 0.000000
# 4 0.000000 0.000000 0.000000 0.046128 0.000000 -0.013637
# 5 0.003946 0.002518 0.007145 0.000000 0.034002 0.000000
# 6 0.000000 0.000000 0.000000 -0.013637 0.000000 0.026184
#
#
# Mechanical properties :
#
#
# Convention : Reuss Voigt Hill
#
# Bulk Modulus (GPa) = 33.57515 47.79191 40.68353
# Shear Modulus (GPa) = 27.04788 33.91583 30.48186
#
# Velocity S-wave (km/s) = 3.56371 3.99058 3.78317
# Velocity P-wave (km/s) = 5.71823 6.60856 6.17945
#
# Compressibility (1/GPa) = 0.02978393
#
# Stress axis : x y z
#
# Youngs Moduli (GPa) = 105.12390 41.96017 63.07151
#
# Poissons Ratio (x) = 0.14683 0.09393
# Poissons Ratio (y) = 0.36785 0.29766
# Poissons Ratio (z) = 0.15655 0.19803
#
# Static dielectric constant tensor:
#      x y z
#    x 2.600360 0.000000 -0.571870 
#    y 0.000000 3.700570 0.000000 
#    z -0.571870 0.000000 3.826840 
# 
# 
# High freq. dielectric constant tensor:
#      x y z
#    x 1.850330 0.000000 -0.009510 
#    y 0.000000 1.836730 0.000000 
#    z -0.009510 0.000000 1.841990 
# 
# From -- ./inp_files/63663.got.cif
#   From: 2010.06.25/outbox.cif.g09.slc.cpg/sg10_32_cif.got.tgz:63663.got - 2010.06.27 22:07:45.
