data_PCOD8067032
_publ_section_title
;
Structure prediction by ZEFSAII (Michael W. Deem and Ramdas Pophale) SiO2 
 PCOD8067032
Probable space group: P 2/M
;
_chemical_formula_sum "Si O2"
_cell_formula_units_Z 28
_cell_length_a 15.688739
_cell_length_b 8.734762
_cell_length_c 21.812800
_cell_angle_alpha 90.000000
_cell_angle_beta 153.707762
_cell_angle_gamma 90.000000
_cell_volume 1324.051813
_symmetry_space_group_name_H-M "P 2/M"
_symmetry_group_IT_number 10
_symmetry_cell_setting 'monoclinic'
loop_
_space_group_symop_operation_xyz
x,y,z
-x,y,-z
-x,-y,-z
x,-y,z
loop_
_atom_site_type_symbol
_atom_site_label
_atom_site_fract_x
_atom_site_fract_y
_atom_site_fract_z
Si Si1 0.258692 0.823013 0.302642
Si Si2 0.142939 0.329362 0.536809
Si Si3 0.645644 0.181353 0.041449
Si Si4 0.449694 0.321892 0.151977
Si Si5 0.067913 0.323608 0.975633
Si Si6 0.385125 0.677704 0.507772
Si Si7 0.047040 0.822126 0.357476
O O1 0.294012 0.717312 0.383779
O O2 0.417685 0.773630 0.354554
O O3 0.046130 0.789413 0.142534
O O4 0.279013 0.000000 0.333861
O O5 0.174328 0.500000 0.528687
O O6 0.348647 0.259963 0.691149
O O7 0.031408 0.214155 0.419229
O O8 0.000000 0.343211 0.500000
O O9 0.859595 0.234007 0.199461
O O10 0.630706 0.000000 0.029324
O O11 0.500000 0.244346 0.000000
O O12 0.600084 0.242821 0.944577
O O13 0.466932 0.500000 0.147837
O O14 0.290845 0.291842 0.103007
O O15 0.014733 0.500000 0.928129
O O16 0.000000 0.279186 0.000000
O O17 0.435524 0.500000 0.545206
O O18 0.233349 0.723803 0.460747
O O19 0.082447 0.000000 0.367700
#
# Coordination Sequence:
#
# PCOD8067032 Si02
#       7
#     4   4   4   4   4   4   4
#     4  11  22  38  59  87 121 152 196 251 302 353
#     4  10  22  40  61  89 124 162 206 256 308 369
#     4  10  22  40  62  89 122 160 202 251 313 377
#     4  10  22  39  61  90 122 161 209 255 305 364
#     4  10  22  39  59  84 119 165 211 250 296 362
#     4  11  22  38  61  86 116 157 198 242 303 364
#     4  11  23  38  60  91 122 155 202 255 307 366
#
# _framework density 21.147207999999999
#
# number of rings (size 3 to 8) (size 9 to 14) (size 15 to 20)
#    0.000    1.571    0.000    5.571    2.000    5.429 
#    0.000    0.000    0.000    0.000    0.000    0.000 
#    0.000    0.000    0.000    0.000    0.000    0.000 
#
# Total GULP energy -347163.549509 kJ/mol
# GULP energy per Si atom -12398.698197 kJ/mol
# Density = 2.109908 g / cm^3
# Si number density = 21.147208 Si / 1000 Ang^3
#
#
#
# Elastic Constant Matrix: (Units=GPa)
#
#
# Indices 1 2 3 4 5 6 
#
# 1 95.8329 13.7408 23.3045 0.0000 7.7448 0.0000
# 2 13.7408 55.8353 22.8765 0.0000 1.5330 0.0000
# 3 23.3045 22.8765 121.3198 0.0000 3.8281 0.0000
# 4 0.0000 0.0000 0.0000 28.8618 0.0000 -0.1835
# 5 7.7448 1.5330 3.8281 0.0000 34.6397 0.0000
# 6 0.0000 0.0000 0.0000 -0.1835 0.0000 23.6804
#
#
#
# Elastic Compliance Matrix: (Units=1/GPa)
#
#
# Indices 1 2 3 4 5 6 
#
# 1 0.011326 -0.002019 -0.001724 0.000000 -0.002252 0.000000
# 2 -0.002019 0.019776 -0.003340 0.000000 -0.000055 0.000000
# 3 -0.001724 -0.003340 0.009219 0.000000 -0.000486 0.000000
# 4 0.000000 0.000000 0.000000 0.034650 0.000000 0.000268
# 5 -0.002252 -0.000055 -0.000486 0.000000 0.029428 0.000000
# 6 0.000000 0.000000 0.000000 0.000268 0.000000 0.042231
#
#
# Mechanical properties :
#
#
# Convention : Reuss Voigt Hill
#
# Bulk Modulus (GPa) = 38.23198 43.64794 40.93996
# Shear Modulus (GPa) = 29.49621 31.64078 30.56850
#
# Velocity S-wave (km/s) = 3.73876 3.87229 3.80611
# Velocity P-wave (km/s) = 6.06267 6.37791 6.22229
#
# Compressibility (1/GPa) = 0.02615611
#
# Stress axis : x y z
#
# Youngs Moduli (GPa) = 88.29603 50.56513 108.47364
#
# Poissons Ratio (x) = 0.10209 0.18698
# Poissons Ratio (y) = 0.17828 0.36225
# Poissons Ratio (z) = 0.15220 0.16886
#
# Static dielectric constant tensor:
#      x y z
#    x 4.016150 0.000000 0.211590 
#    y 0.000000 3.693810 0.000000 
#    z 0.211590 0.000000 4.033090 
# 
# 
# High freq. dielectric constant tensor:
#      x y z
#    x 1.838140 0.000000 0.011030 
#    y 0.000000 1.817850 0.000000 
#    z 0.011030 0.000000 1.834750 
# 
# From -- ./inp_files/84969.got.cif
#   From: 2010.06.25/outbox.cif.g09.slc.cpg/sg10_43_cif.got.tgz:84969.got - 2010.06.27 22:07:45.
