data_PCOD8067157
_publ_section_title
;
Structure prediction by ZEFSAII (Michael W. Deem and Ramdas Pophale) SiO2 
 PCOD8067157
Probable space group: P 2/M
;
_chemical_formula_sum "Si O2"
_cell_formula_units_Z 28
_cell_length_a 12.301123
_cell_length_b 14.153712
_cell_length_c 9.891624
_cell_angle_alpha 90.000000
_cell_angle_beta 50.276890
_cell_angle_gamma 90.000000
_cell_volume 1324.613438
_symmetry_space_group_name_H-M "P 2/M"
_symmetry_group_IT_number 10
_symmetry_cell_setting 'monoclinic'
loop_
_space_group_symop_operation_xyz
x,y,z
-x,y,-z
-x,-y,-z
x,-y,z
loop_
_atom_site_type_symbol
_atom_site_label
_atom_site_fract_x
_atom_site_fract_y
_atom_site_fract_z
Si Si1 0.607231 0.891991 0.130409
Si Si2 0.890561 0.610905 0.277683
Si Si3 0.362518 0.707390 0.037453
Si Si4 0.844795 0.732208 0.574314
Si Si5 0.203644 0.610251 0.937745
Si Si6 0.704050 0.891613 0.537756
Si Si7 0.155385 0.888802 0.847604
O O1 0.465749 0.880946 0.333344
O O2 0.742391 0.862487 0.111421
O O3 0.619850 0.000000 0.066510
O O4 0.609008 0.819861 0.003959
O O5 0.866338 0.500000 0.319088
O O6 0.833800 0.664586 0.453775
O O7 0.055599 0.632933 0.127722
O O8 0.804827 0.645241 0.211737
O O9 0.232968 0.682977 0.238584
O O10 0.331227 0.661567 0.915665
O O11 0.500000 0.662474 0.000000
O O12 0.766109 0.831075 0.611006
O O13 0.000000 0.755876 0.500000
O O14 0.235674 0.500000 0.914965
O O15 0.776451 0.849901 0.344694
O O16 0.746761 0.000000 0.528064
O O17 0.141325 0.000000 0.843839
O O18 0.000000 0.843833 0.000000
#
# Coordination Sequence:
#
# PCOD8067157 Si02
#       7
#     4   4   4   4   4   4   4
#     4  10  22  41  63  85 124 178 222 260 312 380
#     4   9  20  42  71  98 125 163 210 258 318 391
#     4  12  25  42  61  96 134 168 213 262 321 382
#     4  12  25  40  61  98 132 164 211 266 326 379
#     4   9  20  42  71  98 125 163 209 260 319 385
#     4  10  22  41  61  86 127 175 221 262 314 379
#     4   9  19  35  59  91 118 154 213 274 321 361
#
# _framework density 21.138242999999999
#
# number of rings (size 3 to 8) (size 9 to 14) (size 15 to 20)
#    0.000    1.857    2.857    1.286    4.000    4.000 
#    0.000    0.714    0.000    1.714    0.000    0.000 
#    0.000    0.000    0.000    0.000    0.000    0.000 
#
# Total GULP energy -347177.383026 kJ/mol
# GULP energy per Si atom -12399.192251 kJ/mol
# Density = 2.109013 g / cm^3
# Si number density = 21.138243 Si / 1000 Ang^3
#
#
#
# Elastic Constant Matrix: (Units=GPa)
#
#
# Indices 1 2 3 4 5 6 
#
# 1 162.9712 43.2460 41.8472 0.0000 -1.1668 0.0000
# 2 43.2460 55.0723 28.6231 0.0000 11.4716 0.0000
# 3 41.8472 28.6231 108.1847 0.0000 -0.1184 0.0000
# 4 0.0000 0.0000 0.0000 23.9196 0.0000 3.8253
# 5 -1.1668 11.4716 -0.1184 0.0000 35.7548 0.0000
# 6 0.0000 0.0000 0.0000 3.8253 0.0000 26.6854
#
#
#
# Elastic Compliance Matrix: (Units=1/GPa)
#
#
# Indices 1 2 3 4 5 6 
#
# 1 0.008158 -0.006060 -0.001550 0.000000 0.002205 0.000000
# 2 -0.006060 0.027333 -0.004897 0.000000 -0.008984 0.000000
# 3 -0.001550 -0.004897 0.011140 0.000000 0.001558 0.000000
# 4 0.000000 0.000000 0.000000 0.042788 0.000000 -0.006134
# 5 0.002205 -0.008984 0.001558 0.000000 0.030928 0.000000
# 6 0.000000 0.000000 0.000000 -0.006134 0.000000 0.038353
#
#
# Mechanical properties :
#
#
# Convention : Reuss Voigt Hill
#
# Bulk Modulus (GPa) = 46.25983 61.51786 53.88884
# Shear Modulus (GPa) = 26.18898 31.43941 28.81420
#
# Velocity S-wave (km/s) = 3.52367 3.86077 3.69607
# Velocity P-wave (km/s) = 6.20379 7.00285 6.61539
#
# Compressibility (1/GPa) = 0.02161703
#
# Stress axis : x y z
#
# Youngs Moduli (GPa) = 122.58114 36.58548 89.76327
#
# Poissons Ratio (x) = 0.22170 0.13912
# Poissons Ratio (y) = 0.74283 0.43962
# Poissons Ratio (z) = 0.18998 0.17918
#
# Static dielectric constant tensor:
#      x y z
#    x 3.813410 0.000000 -0.003230 
#    y 0.000000 3.641420 0.000000 
#    z -0.003230 0.000000 3.813860 
# 
# 
# High freq. dielectric constant tensor:
#      x y z
#    x 1.833050 0.000000 0.006380 
#    y 0.000000 1.822510 0.000000 
#    z 0.006380 0.000000 1.822020 
# 
# From -- ./inp_files/25212.got.cif
#   From: 2010.06.25/outbox.cif.g09.slc.cpg/sg10_13_cif.got.tgz:25212.got - 2010.06.27 22:07:45.
