data_PCOD8067805
_publ_section_title
;
Structure prediction by ZEFSAII (Michael W. Deem and Ramdas Pophale) SiO2 
 PCOD8067805
Probable space group: P 2/M
;
_chemical_formula_sum "Si O2"
_cell_formula_units_Z 12
_cell_length_a 4.937503
_cell_length_b 14.730841
_cell_length_c 7.642561
_cell_angle_alpha 90.000000
_cell_angle_beta 56.774877
_cell_angle_gamma 90.000000
_cell_volume 464.999307
_symmetry_space_group_name_H-M "P 2/M"
_symmetry_group_IT_number 10
_symmetry_cell_setting 'monoclinic'
loop_
_space_group_symop_operation_xyz
x,y,z
-x,y,-z
-x,-y,-z
x,-y,z
loop_
_atom_site_type_symbol
_atom_site_label
_atom_site_fract_x
_atom_site_fract_y
_atom_site_fract_z
Si Si1 0.588299 0.284160 0.786500
Si Si2 0.000000 0.139786 0.500000
Si Si3 0.119839 0.000000 0.158438
Si Si4 0.164233 0.398128 0.721594
O O1 0.681994 0.204852 0.615875
O O2 0.258937 0.339287 0.859087
O O3 0.886379 0.353905 0.702821
O O4 0.500000 0.235064 0.000000
O O5 0.010317 0.084309 0.678597
O O6 0.500000 0.000000 0.000000
O O7 0.000000 0.000000 0.000000
O O8 0.500000 0.397091 0.500000
O O9 0.058370 0.500000 0.809571
#
# Coordination Sequence:
#
# PCOD8067805 Si02
#       4
#     4   2   2   4
#     4  12  25  42  70 103 140 190 240 291 355 417
#     4  11  26  50  75 108 152 180 233 304 358 427
#     4  11  28  51  80 110 140 187 233 286 366 449
#     4  11  23  43  67  97 143 194 242 295 351 405
#
# _framework density 25.806488000000002
#
# number of rings (size 3 to 8) (size 9 to 14) (size 15 to 20)
#    0.000    0.667    3.333    3.000    0.000   17.333 
#    0.000    0.000    0.000    0.000    0.000    0.000 
#    0.000    0.000    0.000    0.000    0.000    0.000 
#
# Total GULP energy -148682.179290 kJ/mol
# GULP energy per Si atom -12390.181607 kJ/mol
# Density = 2.574775 g / cm^3
# Si number density = 25.806488 Si / 1000 Ang^3
#
#
#
# Elastic Constant Matrix: (Units=GPa)
#
#
# Indices 1 2 3 4 5 6 
#
# 1 153.6253 64.2723 44.9210 0.0000 3.3798 0.0000
# 2 64.2723 184.3621 69.3748 0.0000 2.8187 0.0000
# 3 44.9210 69.3748 160.5761 0.0000 16.1128 0.0000
# 4 0.0000 0.0000 0.0000 -13.9986 0.0000 37.9395
# 5 3.3798 2.8187 16.1128 0.0000 47.4004 0.0000
# 6 0.0000 0.0000 0.0000 37.9395 0.0000 -8.9749
#
#
#
# Elastic Compliance Matrix: (Units=1/GPa)
#
#
# Indices 1 2 3 4 5 6 
#
# 1 0.007811 -0.002270 -0.001203 0.000000 -0.000013 0.000000
# 2 -0.002270 0.007153 -0.002514 0.000000 0.000591 0.000000
# 3 -0.001203 -0.002514 0.007896 0.000000 -0.002449 0.000000
# 4 0.000000 0.000000 0.000000 0.006831 0.000000 0.028878
# 5 -0.000013 0.000591 -0.002449 0.000000 0.021895 0.000000
# 6 0.000000 0.000000 0.000000 0.028878 0.000000 0.010655
#
#
# Mechanical properties :
#
#
# Convention : Reuss Voigt Hill
#
# Bulk Modulus (GPa) = 91.87287 95.07774 93.47530
# Shear Modulus (GPa) = 64.22971 26.21841 45.22406
#
# Velocity S-wave (km/s) = 4.99430 3.19087 4.19074
# Velocity P-wave (km/s) = 8.30273 7.10620 7.72766
#
# Compressibility (1/GPa) = 0.01088461
#
# Stress axis : x y z
#
# Youngs Moduli (GPa) = 128.02113 139.80726 126.64332
#
# Poissons Ratio (x) = 0.31740 0.15236
# Poissons Ratio (y) = 0.29064 0.31844
# Poissons Ratio (z) = 0.15401 0.35154
#
# Static dielectric constant tensor:
#      x y z
#    x 4.398280 0.000000 -0.218370 
#    y 0.000000 4.945150 0.000000 
#    z -0.218370 0.000000 5.021810 
# 
# 
# High freq. dielectric constant tensor:
#      x y z
#    x 2.016720 0.000000 -0.011960 
#    y 0.000000 2.028390 0.000000 
#    z -0.011960 0.000000 2.080260 
# 
# From -- ./inp_files/14229.got.cif
#   From: 2010.06.25/outbox.cif.g09.slc.cpg/sg10_8_cif.got.tgz:14229.got - 2010.06.27 22:07:45.
