data_PCOD8067660
_publ_section_title
;
Structure prediction by ZEFSAII (Michael W. Deem and Ramdas Pophale) SiO2 
 PCOD8067660
Probable space group: P 2/M
;
_chemical_formula_sum "Si O2"
_cell_formula_units_Z 28
_cell_length_a 17.882238
_cell_length_b 8.819074
_cell_length_c 20.269278
_cell_angle_alpha 90.000000
_cell_angle_beta 28.676389
_cell_angle_gamma 90.000000
_cell_volume 1533.908630
_symmetry_space_group_name_H-M "P 2/M"
_symmetry_group_IT_number 10
_symmetry_cell_setting 'monoclinic'
loop_
_space_group_symop_operation_xyz
x,y,z
-x,y,-z
-x,-y,-z
x,-y,z
loop_
_atom_site_type_symbol
_atom_site_label
_atom_site_fract_x
_atom_site_fract_y
_atom_site_fract_z
Si Si1 0.843507 0.819355 0.155344
Si Si2 0.644116 0.321837 0.648752
Si Si3 0.522978 0.819980 0.339144
Si Si4 0.775066 0.822719 0.352374
Si Si5 0.423307 0.178856 0.161270
Si Si6 0.268275 0.178146 0.148294
Si Si7 0.061380 0.178684 0.643024
O O1 0.693278 0.766125 0.230141
O O2 0.825919 0.750628 0.242976
O O3 0.852798 0.000000 0.150471
O O4 0.000000 0.753718 0.000000
O O5 0.638391 0.500000 0.644566
O O6 0.509769 0.249616 0.707155
O O7 0.615614 0.277140 0.745652
O O8 0.813189 0.261676 0.498730
O O9 0.392258 0.760479 0.492420
O O10 0.511978 0.000000 0.341153
O O11 0.908210 0.786530 0.303264
O O12 0.755454 0.000000 0.356180
O O13 0.294590 0.216639 0.204879
O O14 0.424262 0.000000 0.177105
O O15 0.590026 0.237974 0.005957
O O16 0.106097 0.247089 0.247572
O O17 0.264043 0.000000 0.142196
O O18 0.074963 0.000000 0.618392
#
# Coordination Sequence:
#
# PCOD8067660 Si02
#       7
#     4   4   4   4   4   4   4
#     4   9  16  25  43  75 103 119 148 198 247 288
#     4  11  22  34  48  71 101 132 169 209 247 289
#     4   9  17  31  50  68  92 128 163 197 242 291
#     4   8  14  25  43  67  94 122 152 188 233 285
#     4   9  17  33  54  76 101 129 163 202 247 297
#     4   8  16  31  54  79 100 126 163 204 244 295
#     4   9  17  32  53  75  98 128 165 204 247 292
#
# _framework density 18.254019
#
# number of rings (size 3 to 8) (size 9 to 14) (size 15 to 20)
#    0.000    3.000    0.000    3.429    0.000    3.429 
#    0.000   10.000    0.000    7.286    0.000    0.000 
#    0.000    0.000    0.000    0.000    0.000    0.000 
#
# Total GULP energy -347080.998342 kJ/mol
# GULP energy per Si atom -12395.749941 kJ/mol
# Density = 1.821247 g / cm^3
# Si number density = 18.254019 Si / 1000 Ang^3
#
#
#
# Elastic Constant Matrix: (Units=GPa)
#
#
# Indices 1 2 3 4 5 6 
#
# 1 138.3489 31.6537 81.5052 0.0000 -17.1167 0.0000
# 2 31.6537 33.1916 26.1258 0.0000 0.0886 0.0000
# 3 81.5052 26.1258 104.9828 0.0000 -15.5317 0.0000
# 4 0.0000 0.0000 0.0000 -0.8527 0.0000 -2.3722
# 5 -17.1167 0.0886 -15.5317 0.0000 34.4603 0.0000
# 6 0.0000 0.0000 0.0000 -2.3722 0.0000 4.1604
#
#
#
# Elastic Compliance Matrix: (Units=1/GPa)
#
#
# Indices 1 2 3 4 5 6 
#
# 1 0.014538 -0.006653 -0.009172 0.000000 0.003104 0.000000
# 2 -0.006653 0.041207 -0.005994 0.000000 -0.006112 0.000000
# 3 -0.009172 -0.005994 0.018714 0.000000 0.003894 0.000000
# 4 0.000000 0.000000 0.000000 -0.453466 0.000000 -0.258555
# 5 0.003104 -0.006112 0.003894 0.000000 0.032332 0.000000
# 6 0.000000 0.000000 0.000000 -0.258555 0.000000 0.092939
#
#
# Mechanical properties :
#
#
# Convention : Reuss Voigt Hill
#
# Bulk Modulus (GPa) = 32.44488 61.67696 47.06092
# Shear Modulus (GPa) = -25.02177 16.70283 -4.15947
#
# Velocity S-wave (km/s) = -3.70639 3.02822 -1.51116
# Velocity P-wave (km/s) = 0.70972 6.78884 4.77413
#
# Compressibility (1/GPa) = 0.03082150
#
# Stress axis : x y z
#
# Youngs Moduli (GPa) = 68.78702 24.26763 53.43708
#
# Poissons Ratio (x) = 0.16146 0.49010
# Poissons Ratio (y) = 0.45765 0.32028
# Poissons Ratio (z) = 0.63089 0.14545
#
# Static dielectric constant tensor:
#      x y z
#    x 3.643800 0.000000 -0.160680 
#    y 0.000000 2.807930 0.000000 
#    z -0.160680 0.000000 3.712070 
# 
# 
# High freq. dielectric constant tensor:
#      x y z
#    x 1.720760 0.000000 -0.001320 
#    y 0.000000 1.650560 0.000000 
#    z -0.001320 0.000000 1.707780 
# 
# From -- ./inp_files/85618.got.cif
#   From: 2010.06.25/outbox.cif.g09.slc.cpg/sg10_43_cif.got.tgz:85618.got - 2010.06.27 22:07:45.
