data_PCOD8067971
_publ_section_title
;
Structure prediction by ZEFSAII (Michael W. Deem and Ramdas Pophale) SiO2 
 PCOD8067971
Probable space group: P 2/M
;
_chemical_formula_sum "Si O2"
_cell_formula_units_Z 28
_cell_length_a 18.066357
_cell_length_b 9.565816
_cell_length_c 20.365819
_cell_angle_alpha 90.000000
_cell_angle_beta 152.599521
_cell_angle_gamma 90.000000
_cell_volume 1619.749692
_symmetry_space_group_name_H-M "P 2/M"
_symmetry_group_IT_number 10
_symmetry_cell_setting 'monoclinic'
loop_
_space_group_symop_operation_xyz
x,y,z
-x,y,-z
-x,-y,-z
x,-y,z
loop_
_atom_site_type_symbol
_atom_site_label
_atom_site_fract_x
_atom_site_fract_y
_atom_site_fract_z
Si Si1 0.975324 0.661289 0.336092
Si Si2 0.831347 0.841340 0.330444
Si Si3 0.090361 0.157194 0.170926
Si Si4 0.046383 0.661996 0.830899
Si Si5 0.692296 0.661296 0.329745
Si Si6 0.749463 0.157206 0.831831
Si Si7 0.379128 0.662019 0.161859
O O1 0.921071 0.500000 0.301285
O O2 0.155530 0.682759 0.503468
O O3 0.850437 0.758532 0.277161
O O4 0.968998 0.710595 0.256085
O O5 0.702951 0.758577 0.273851
O O6 0.000000 0.841982 0.500000
O O7 0.771687 0.000000 0.270453
O O8 0.225780 0.205394 0.224585
O O9 0.088238 0.257248 0.232517
O O10 0.127334 0.000000 0.223795
O O11 0.919499 0.163687 0.001387
O O12 0.006275 0.500000 0.807211
O O13 0.225804 0.697684 0.996171
O O14 0.678413 0.500000 0.296032
O O15 0.535969 0.710746 0.246110
O O16 0.625713 0.257345 0.772404
O O17 0.680687 0.000000 0.779534
O O18 0.387716 0.500000 0.186470
#
# Coordination Sequence:
#
# PCOD8067971 Si02
#       7
#     4   4   4   4   4   4   4
#     4   9  17  30  47  64  84 112 142 170 206 253
#     4   9  17  29  46  67  86 106 140 181 210 238
#     4   8  14  25  41  61  85 113 143 173 207 248
#     4   9  17  28  43  65  89 110 137 175 213 246
#     4   9  17  30  47  64  84 112 142 170 206 253
#     4   8  14  25  41  61  85 113 143 173 207 248
#     4   9  17  28  43  65  89 110 137 175 213 246
#
# _framework density 17.286622000000001
#
# number of rings (size 3 to 8) (size 9 to 14) (size 15 to 20)
#    0.000    3.286    0.000    1.286    0.000    3.429 
#    0.000    3.571    0.000    5.143    0.000    6.000 
#    0.000    0.000    0.000    0.000    0.000    0.000 
#
# Total GULP energy -347094.300233 kJ/mol
# GULP energy per Si atom -12396.225008 kJ/mol
# Density = 1.724728 g / cm^3
# Si number density = 17.286622 Si / 1000 Ang^3
#
#
#
# Elastic Constant Matrix: (Units=GPa)
#
#
# Indices 1 2 3 4 5 6 
#
# 1 193.2605 99.2785 37.8336 0.0000 -11.4708 0.0000
# 2 99.2785 97.1883 23.4847 0.0000 -5.1569 0.0000
# 3 37.8336 23.4847 22.4932 0.0000 -3.1145 0.0000
# 4 0.0000 0.0000 0.0000 12.3322 0.0000 0.1595
# 5 -11.4708 -5.1569 -3.1145 0.0000 3.7280 0.0000
# 6 0.0000 0.0000 0.0000 0.1595 0.0000 33.2476
#
#
#
# Elastic Compliance Matrix: (Units=1/GPa)
#
#
# Indices 1 2 3 4 5 6 
#
# 1 0.013560 -0.010643 -0.008997 0.000000 0.019482 0.000000
# 2 -0.010643 0.022327 -0.006409 0.000000 -0.007218 0.000000
# 3 -0.008997 -0.006409 0.069230 0.000000 0.021289 0.000000
# 4 0.000000 0.000000 0.000000 0.081094 0.000000 -0.000389
# 5 0.019482 -0.007218 0.021289 0.000000 0.335986 0.000000
# 6 0.000000 0.000000 0.000000 -0.000389 0.000000 0.030079
#
#
# Mechanical properties :
#
#
# Convention : Reuss Voigt Hill
#
# Bulk Modulus (GPa) = 18.86136 70.45951 44.66044
# Shear Modulus (GPa) = 8.03799 20.01791 14.02795
#
# Velocity S-wave (km/s) = 2.15869 3.40663 2.85176
# Velocity P-wave (km/s) = 4.14100 7.50477 6.06092
#
# Compressibility (1/GPa) = 0.05301845
#
# Stress axis : x y z
#
# Youngs Moduli (GPa) = 73.74858 44.78850 14.44467
#
# Poissons Ratio (x) = 0.47670 0.12996
# Poissons Ratio (y) = 0.78493 0.09257
# Poissons Ratio (z) = 0.66352 0.28703
#
# Static dielectric constant tensor:
#      x y z
#    x 3.575430 0.000000 0.004800 
#    y 0.000000 3.329550 0.000000 
#    z 0.004800 0.000000 2.770190 
# 
# 
# High freq. dielectric constant tensor:
#      x y z
#    x 1.681760 0.000000 0.000430 
#    y 0.000000 1.666040 0.000000 
#    z 0.000430 0.000000 1.614300 
# 
# From -- ./inp_files/34423.got.cif
#   From: 2010.06.25/outbox.cif.g09.slc.cpg/sg10_18_cif.got.tgz:34423.got - 2010.06.27 22:07:45.
