data_PCOD8067548
_publ_section_title
;
Structure prediction by ZEFSAII (Michael W. Deem and Ramdas Pophale) SiO2 
 PCOD8067548
Probable space group: P 2/M
;
_chemical_formula_sum "Si O2"
_cell_formula_units_Z 28
_cell_length_a 15.245687
_cell_length_b 8.552071
_cell_length_c 19.299068
_cell_angle_alpha 90.000000
_cell_angle_beta 143.389355
_cell_angle_gamma 90.000000
_cell_volume 1500.629050
_symmetry_space_group_name_H-M "P 2/M"
_symmetry_group_IT_number 10
_symmetry_cell_setting 'monoclinic'
loop_
_space_group_symop_operation_xyz
x,y,z
-x,y,-z
-x,-y,-z
x,-y,z
loop_
_atom_site_type_symbol
_atom_site_label
_atom_site_fract_x
_atom_site_fract_y
_atom_site_fract_z
Si Si1 0.847601 0.817794 0.869658
Si Si2 0.884370 0.682122 0.744696
Si Si3 0.204951 0.684418 0.897320
Si Si4 0.475718 0.180429 0.149772
Si Si5 0.450421 0.680697 0.278420
Si Si6 0.641732 0.672072 0.137728
Si Si7 0.609153 0.182206 0.508228
O O1 0.848315 0.784480 0.788811
O O2 0.722373 0.719238 0.828442
O O3 0.816859 0.000000 0.862662
O O4 0.000000 0.763313 0.000000
O O5 0.883056 0.500000 0.763270
O O6 0.760134 0.720215 0.609221
O O7 0.041092 0.733802 0.813655
O O8 0.234045 0.500000 0.924997
O O9 0.228057 0.732066 0.830793
O O10 0.317959 0.774590 0.018233
O O11 0.509250 0.280233 0.239435
O O12 0.609514 0.211789 0.180887
O O13 0.473566 0.000000 0.168511
O O14 0.476994 0.500000 0.312083
O O15 0.536724 0.784529 0.388536
O O16 0.679121 0.500000 0.191604
O O17 0.500000 0.660143 0.000000
O O18 0.500000 0.237543 0.500000
O O19 0.644993 0.000000 0.537601
#
# Coordination Sequence:
#
# PCOD8067548 Si02
#       7
#     4   4   4   4   4   4   4
#     4  11  23  37  53  78 112 145 176 218 273 323
#     4  11  22  36  57  82 108 142 185 225 266 320
#     4   9  19  35  55  82 115 148 183 223 268 322
#     4  11  21  33  53  83 116 146 181 224 274 327
#     4  12  24  38  58  79 105 142 186 228 269 322
#     4   8  15  31  53  77 110 148 182 219 266 321
#     4  11  23  40  60  79 106 141 182 229 277 322
#
# _framework density 18.658843000000001
#
# number of rings (size 3 to 8) (size 9 to 14) (size 15 to 20)
#    0.000    1.571    1.429    5.571    0.000    7.714 
#    0.000    0.000    0.000    0.857    0.000    6.000 
#    0.000    0.000    0.000    0.000    0.000    0.000 
#
# Total GULP energy -347283.219895 kJ/mol
# GULP energy per Si atom -12402.972139 kJ/mol
# Density = 1.861637 g / cm^3
# Si number density = 18.658843 Si / 1000 Ang^3
#
#
#
# Elastic Constant Matrix: (Units=GPa)
#
#
# Indices 1 2 3 4 5 6 
#
# 1 94.2310 19.2750 17.7494 0.0000 -17.8176 0.0000
# 2 19.2750 57.9741 10.4053 0.0000 0.4816 0.0000
# 3 17.7494 10.4053 69.8299 0.0000 -11.8809 0.0000
# 4 0.0000 0.0000 0.0000 27.8470 0.0000 -2.7748
# 5 -17.8176 0.4816 -11.8809 0.0000 18.7774 0.0000
# 6 0.0000 0.0000 0.0000 -2.7748 0.0000 21.6048
#
#
#
# Elastic Compliance Matrix: (Units=1/GPa)
#
#
# Indices 1 2 3 4 5 6 
#
# 1 0.014190 -0.004708 -0.000666 0.000000 0.013164 0.000000
# 2 -0.004708 0.019380 -0.002842 0.000000 -0.006762 0.000000
# 3 -0.000666 -0.002842 0.016606 0.000000 0.009948 0.000000
# 4 0.000000 0.000000 0.000000 0.036376 0.000000 0.004672
# 5 0.013164 -0.006762 0.009948 0.000000 0.072215 0.000000
# 6 0.000000 0.000000 0.000000 0.004672 0.000000 0.046886
#
#
# Mechanical properties :
#
#
# Convention : Reuss Voigt Hill
#
# Bulk Modulus (GPa) = 29.63320 35.21050 32.42185
# Shear Modulus (GPa) = 21.42878 25.28618 23.35748
#
# Velocity S-wave (km/s) = 3.39256 3.68528 3.54194
# Velocity P-wave (km/s) = 5.59124 6.08441 5.84303
#
# Compressibility (1/GPa) = 0.03374593
#
# Stress axis : x y z
#
# Youngs Moduli (GPa) = 70.47404 51.59831 60.22022
#
# Poissons Ratio (x) = 0.24291 0.04008
# Poissons Ratio (y) = 0.33176 0.17113
# Poissons Ratio (z) = 0.04690 0.14663
#
# Static dielectric constant tensor:
#      x y z
#    x 3.808670 0.000000 0.041570 
#    y 0.000000 3.351600 0.000000 
#    z 0.041570 0.000000 3.245790 
# 
# 
# High freq. dielectric constant tensor:
#      x y z
#    x 1.730100 0.000000 -0.006170 
#    y 0.000000 1.728230 0.000000 
#    z -0.006170 0.000000 1.698590 
# 
# From -- ./inp_files/77809.got.cif
#   From: 2010.06.25/outbox.cif.g09.slc.cpg/sg10_39_cif.got.tgz:77809.got - 2010.06.27 22:07:45.
