data_PCOD8067593
_publ_section_title
;
Structure prediction by ZEFSAII (Michael W. Deem and Ramdas Pophale) SiO2 
 PCOD8067593
Probable space group: P 2/M
;
_chemical_formula_sum "Si O2"
_cell_formula_units_Z 24
_cell_length_a 15.445246
_cell_length_b 12.536224
_cell_length_c 20.309256
_cell_angle_alpha 90.000000
_cell_angle_beta 19.029647
_cell_angle_gamma 90.000000
_cell_volume 1282.181754
_symmetry_space_group_name_H-M "P 2/M"
_symmetry_group_IT_number 10
_symmetry_cell_setting 'monoclinic'
loop_
_space_group_symop_operation_xyz
x,y,z
-x,y,-z
-x,-y,-z
x,-y,z
loop_
_atom_site_type_symbol
_atom_site_label
_atom_site_fract_x
_atom_site_fract_y
_atom_site_fract_z
Si Si1 0.233035 0.625511 0.383506
Si Si2 0.073180 0.500000 0.817354
Si Si3 0.808836 0.309432 0.945123
Si Si4 0.488708 0.500000 0.401828
Si Si5 0.017051 0.121420 0.094894
Si Si6 0.793460 0.309452 0.452695
Si Si7 0.568890 0.878609 0.318967
O O1 0.284052 0.500000 0.357923
O O2 0.143939 0.683359 0.515035
O O3 0.000000 0.646055 0.500000
O O4 0.491781 0.683672 0.167336
O O5 0.299294 0.500000 0.600403
O O6 0.205593 0.500000 0.794429
O O7 0.894391 0.395041 0.938775
O O8 0.913862 0.194396 0.892574
O O9 0.937791 0.335325 0.781187
O O10 0.437875 0.395077 0.395235
O O11 0.732267 0.152472 0.267628
O O12 0.007322 0.000000 0.127260
O O13 0.243788 0.136047 0.878118
O O14 0.688473 0.194405 0.505308
O O15 0.468604 0.000000 0.396636
#
# Coordination Sequence:
#
# PCOD8067593 Si02
#       7
#     4   2   4   2   4   4   4
#     4  11  24  42  61  82 109 143 188 240 296 348
#     4   9  18  31  49  80 117 147 176 216 268 328
#     4  11  21  36  58  84 114 147 187 233 279 334
#     4   9  18  31  49  80 117 147 176 216 268 328
#     4   9  18  33  55  85 121 159 194 225 264 325
#     4  11  21  36  58  84 114 147 187 233 279 334
#     4   9  18  33  55  85 121 159 194 225 264 325
#
# _framework density 18.718094000000001
#
# number of rings (size 3 to 8) (size 9 to 14) (size 15 to 20)
#    0.000    2.000    3.333    2.000    0.000    3.333 
#    0.000    4.167    0.000    2.000    0.000    2.333 
#    0.000    0.000    0.000    0.000    0.000    0.000 
#
# Total GULP energy -297620.920286 kJ/mol
# GULP energy per Si atom -12400.871679 kJ/mol
# Density = 1.867549 g / cm^3
# Si number density = 18.718094 Si / 1000 Ang^3
#
#
#
# Elastic Constant Matrix: (Units=GPa)
#
#
# Indices 1 2 3 4 5 6 
#
# 1 95.7407 44.1607 67.3280 0.0000 -11.6650 0.0000
# 2 44.1607 100.5366 34.3284 0.0000 -12.0314 0.0000
# 3 67.3280 34.3284 85.7938 0.0000 0.3105 0.0000
# 4 0.0000 0.0000 0.0000 21.8856 0.0000 -2.3134
# 5 -11.6650 -12.0314 0.3105 0.0000 24.3997 0.0000
# 6 0.0000 0.0000 0.0000 -2.3134 0.0000 23.7561
#
#
#
# Elastic Compliance Matrix: (Units=1/GPa)
#
#
# Indices 1 2 3 4 5 6 
#
# 1 0.028158 -0.003936 -0.020565 0.000000 0.011783 0.000000
# 2 -0.003936 0.012935 -0.002103 0.000000 0.004523 0.000000
# 3 -0.020565 -0.002103 0.028677 0.000000 -0.011234 0.000000
# 4 0.000000 0.000000 0.000000 0.046167 0.000000 0.004496
# 5 0.011783 0.004523 -0.011234 0.000000 0.048990 0.000000
# 6 0.000000 0.000000 0.000000 0.004496 0.000000 0.042532
#
#
# Mechanical properties :
#
#
# Convention : Reuss Voigt Hill
#
# Bulk Modulus (GPa) = 60.38249 63.74503 62.06376
# Shear Modulus (GPa) = 18.78362 23.09188 20.93775
#
# Velocity S-wave (km/s) = 3.17124 3.51617 3.34815
# Velocity P-wave (km/s) = 6.76299 7.11434 6.94089
#
# Compressibility (1/GPa) = 0.01656109
#
# Stress axis : x y z
#
# Youngs Moduli (GPa) = 35.51351 77.30959 34.87145
#
# Poissons Ratio (x) = 0.30433 0.71714
# Poissons Ratio (y) = 0.13980 0.07333
# Poissons Ratio (z) = 0.73034 0.16257
#
# Static dielectric constant tensor:
#      x y z
#    x 3.262890 0.000000 0.021080 
#    y 0.000000 3.482260 0.000000 
#    z 0.021080 0.000000 3.276200 
# 
# 
# High freq. dielectric constant tensor:
#      x y z
#    x 1.707250 0.000000 0.014930 
#    y 0.000000 1.725780 0.000000 
#    z 0.014930 0.000000 1.718920 
# 
# From -- ./inp_files/85177.got.cif
#   From: 2010.06.25/outbox.cif.g09.slc.cpg/sg10_43_cif.got.tgz:85177.got - 2010.06.27 22:07:45.
