data_PCOD8067118
_publ_section_title
;
Structure prediction by ZEFSAII (Michael W. Deem and Ramdas Pophale) SiO2 
 PCOD8067118
Probable space group: P 2/M
;
_chemical_formula_sum "Si O2"
_cell_formula_units_Z 32
_cell_length_a 22.531746
_cell_length_b 8.909971
_cell_length_c 15.015311
_cell_angle_alpha 90.000000
_cell_angle_beta 148.614498
_cell_angle_gamma 90.000000
_cell_volume 1569.896917
_symmetry_space_group_name_H-M "P 2/M"
_symmetry_group_IT_number 10
_symmetry_cell_setting 'monoclinic'
loop_
_space_group_symop_operation_xyz
x,y,z
-x,y,-z
-x,-y,-z
x,-y,z
loop_
_atom_site_type_symbol
_atom_site_label
_atom_site_fract_x
_atom_site_fract_y
_atom_site_fract_z
Si Si1 0.011121 0.324131 0.752059
Si Si2 0.297418 0.323404 0.429164
Si Si3 0.332411 0.172364 0.926643
Si Si4 0.765475 0.325286 0.362297
Si Si5 0.065194 0.827394 0.174788
Si Si6 0.236902 0.824800 0.995473
Si Si7 0.590857 0.825347 0.272508
Si Si8 0.367409 0.324648 0.323686
O O1 0.025309 0.500000 0.787263
O O2 0.895852 0.285737 0.551686
O O3 0.014665 0.239790 0.851087
O O4 0.117893 0.263011 0.833214
O O5 0.304732 0.500000 0.448799
O O6 0.180138 0.267099 0.320610
O O7 0.398167 0.252848 0.617100
O O8 0.309416 0.274788 0.342089
O O9 0.255146 0.277435 0.765798
O O10 0.308008 0.210035 0.997924
O O11 0.302689 0.000000 0.867008
O O12 0.464354 0.206101 0.074417
O O13 0.740583 0.500000 0.343117
O O14 0.681486 0.235749 0.318629
O O15 0.094352 0.000000 0.231969
O O16 0.000000 0.806882 0.000000
O O17 0.211602 0.000000 0.974889
O O18 0.310365 0.770022 0.173004
O O19 0.613096 0.000000 0.314500
O O20 0.500000 0.285410 0.500000
O O21 0.348076 0.500000 0.279431
#
# Coordination Sequence:
#
# PCOD8067118 Si02
#       8
#     4   4   4   4   4   4   4   4
#     4  11  24  42  63  89 125 163 205 257 313 368
#     4  11  22  36  58  89 123 160 202 249 306 365
#     4  10  24  43  63  91 124 163 207 257 316 372
#     4  11  24  41  64  94 124 160 206 259 316 374
#     4  11  23  38  59  88 119 157 204 249 303 366
#     4  11  24  42  64  91 125 165 213 260 308 369
#     4  11  22  39  64  92 126 163 204 256 313 373
#     4  10  22  40  62  90 126 168 210 254 309 369
#
# _framework density 20.383503000000001
#
# number of rings (size 3 to 8) (size 9 to 14) (size 15 to 20)
#    0.000    1.250    1.250    4.125    0.000    9.750 
#    0.000    2.500    0.000    0.000    0.000    0.000 
#    0.000    0.000    0.000    0.000    0.000    0.000 
#
# Total GULP energy -397010.467179 kJ/mol
# GULP energy per Si atom -12406.577099 kJ/mol
# Density = 2.033711 g / cm^3
# Si number density = 20.383503 Si / 1000 Ang^3
#
#
#
# Elastic Constant Matrix: (Units=GPa)
#
#
# Indices 1 2 3 4 5 6 
#
# 1 81.2714 36.6095 44.3225 0.0000 -2.6373 0.0000
# 2 36.6095 90.6949 57.1013 0.0000 -11.0815 0.0000
# 3 44.3225 57.1013 112.0718 0.0000 -5.9296 0.0000
# 4 0.0000 0.0000 0.0000 37.8334 0.0000 -2.8908
# 5 -2.6373 -11.0815 -5.9296 0.0000 36.2722 0.0000
# 6 0.0000 0.0000 0.0000 -2.8908 0.0000 31.5846
#
#
#
# Elastic Compliance Matrix: (Units=1/GPa)
#
#
# Indices 1 2 3 4 5 6 
#
# 1 0.016534 -0.003861 -0.004611 0.000000 -0.000731 0.000000
# 2 -0.003861 0.017625 -0.007246 0.000000 0.003919 0.000000
# 3 -0.004611 -0.007246 0.014428 0.000000 -0.000190 0.000000
# 4 0.000000 0.000000 0.000000 0.026618 0.000000 0.002436
# 5 -0.000731 0.003919 -0.000190 0.000000 0.028683 0.000000
# 6 0.000000 0.000000 0.000000 0.002436 0.000000 0.031884
#
#
# Mechanical properties :
#
#
# Convention : Reuss Voigt Hill
#
# Bulk Modulus (GPa) = 58.29859 62.23385 60.26622
# Shear Modulus (GPa) = 28.91437 30.87170 29.89304
#
# Velocity S-wave (km/s) = 3.77041 3.89594 3.83369
# Velocity P-wave (km/s) = 6.90055 7.12990 7.01616
#
# Compressibility (1/GPa) = 0.01715307
#
# Stress axis : x y z
#
# Youngs Moduli (GPa) = 60.48041 56.73654 69.30893
#
# Poissons Ratio (x) = 0.21904 0.31956
# Poissons Ratio (y) = 0.23349 0.50222
# Poissons Ratio (z) = 0.27886 0.41112
#
# Static dielectric constant tensor:
#      x y z
#    x 3.789840 0.000000 -0.024050 
#    y 0.000000 3.783050 0.000000 
#    z -0.024050 0.000000 3.909760 
# 
# 
# High freq. dielectric constant tensor:
#      x y z
#    x 1.802930 0.000000 -0.000850 
#    y 0.000000 1.804190 0.000000 
#    z -0.000850 0.000000 1.807560 
# 
# From -- ./inp_files/71612.got.cif
#   From: 2010.06.25/outbox.cif.g09.slc.cpg/sg10_36_cif.got.tgz:71612.got - 2010.06.27 22:07:45.
