data_PCOD8067675
_publ_section_title
;
Structure prediction by ZEFSAII (Michael W. Deem and Ramdas Pophale) SiO2 
 PCOD8067675
Probable space group: P 2/M
;
_chemical_formula_sum "Si O2"
_cell_formula_units_Z 18
_cell_length_a 9.261870
_cell_length_b 9.575777
_cell_length_c 19.933338
_cell_angle_alpha 90.000000
_cell_angle_beta 151.898446
_cell_angle_gamma 90.000000
_cell_volume 832.734691
_symmetry_space_group_name_H-M "P 2/M"
_symmetry_group_IT_number 10
_symmetry_cell_setting 'monoclinic'
loop_
_space_group_symop_operation_xyz
x,y,z
-x,y,-z
-x,-y,-z
x,-y,z
loop_
_atom_site_type_symbol
_atom_site_label
_atom_site_fract_x
_atom_site_fract_y
_atom_site_fract_z
Si Si1 0.350653 0.000000 0.259611
Si Si2 0.010626 0.500000 0.289228
Si Si3 0.648755 0.000000 0.989075
Si Si4 0.466535 0.500000 0.601877
Si Si5 0.338828 0.741199 0.654798
Si Si6 0.265983 0.237131 0.772204
Si Si7 0.768879 0.000000 0.557510
O O1 0.410436 0.863879 0.239565
O O2 0.010529 0.000000 0.148995
O O3 0.610151 0.000000 0.421537
O O4 0.210407 0.500000 0.439362
O O5 0.206697 0.500000 0.301234
O O6 0.800852 0.360858 0.202103
O O7 0.500000 0.000000 0.000000
O O8 0.552260 0.858433 0.911320
O O9 0.436319 0.631248 0.638466
O O10 0.336828 0.685422 0.730447
O O11 0.000000 0.798676 0.500000
O O12 0.966653 0.139576 0.645926
O O13 0.500000 0.000000 0.500000
#
# Coordination Sequence:
#
# PCOD8067675 Si02
#       7
#     2   2   2   2   4   4   2
#     4  12  23  40  70  95 131 178 225 275 332 402
#     4  11  23  40  67 102 138 182 223 272 343 402
#     4  11  28  48  68  97 138 181 230 283 335 397
#     4  11  24  37  67 108 141 170 222 283 339 402
#     4  12  22  40  67 106 140 171 214 283 342 395
#     4  11  24  43  69  98 138 177 222 276 345 401
#     4  11  22  35  66 102 131 168 222 279 336 398
#
# _framework density 21.615527
#
# number of rings (size 3 to 8) (size 9 to 14) (size 15 to 20)
#    0.000    0.667    4.444    4.000    9.333    1.778 
#    0.000    1.667    0.000    2.667    0.000    0.000 
#    0.000    0.000    0.000    0.000    0.000    0.000 
#
# Total GULP energy -223166.887320 kJ/mol
# GULP energy per Si atom -12398.160407 kJ/mol
# Density = 2.156633 g / cm^3
# Si number density = 21.615527 Si / 1000 Ang^3
#
#
#
# Elastic Constant Matrix: (Units=GPa)
#
#
# Indices 1 2 3 4 5 6 
#
# 1 147.6739 55.0878 14.7891 0.0000 13.2249 0.0000
# 2 55.0878 145.2906 36.7382 0.0000 21.4243 0.0000
# 3 14.7891 36.7382 67.2674 0.0000 15.9297 0.0000
# 4 0.0000 0.0000 0.0000 -40.9513 0.0000 6.8235
# 5 13.2249 21.4243 15.9297 0.0000 34.4193 0.0000
# 6 0.0000 0.0000 0.0000 6.8235 0.0000 31.8612
#
#
#
# Elastic Compliance Matrix: (Units=1/GPa)
#
#
# Indices 1 2 3 4 5 6 
#
# 1 0.007940 -0.002845 0.000125 0.000000 -0.001338 0.000000
# 2 -0.002845 0.009357 -0.003778 0.000000 -0.002982 0.000000
# 3 0.000125 -0.003778 0.018370 0.000000 -0.006198 0.000000
# 4 0.000000 0.000000 0.000000 -0.023578 0.000000 0.005050
# 5 -0.001338 -0.002982 -0.006198 0.000000 0.034292 0.000000
# 6 0.000000 0.000000 0.000000 0.005050 0.000000 0.030305
#
#
# Mechanical properties :
#
#
# Convention : Reuss Voigt Hill
#
# Bulk Modulus (GPa) = 44.11151 63.71801 53.91476
# Shear Modulus (GPa) = 51.41954 21.97364 36.69659
#
# Velocity S-wave (km/s) = 4.88261 3.19182 4.12478
# Velocity P-wave (km/s) = 7.22760 6.56700 6.90520
#
# Compressibility (1/GPa) = 0.02266982
#
# Stress axis : x y z
#
# Youngs Moduli (GPa) = 125.94103 106.87667 54.43680
#
# Poissons Ratio (x) = 0.30405 -0.00680
# Poissons Ratio (y) = 0.35829 0.20569
# Poissons Ratio (z) = -0.01572 0.40383
#
# Static dielectric constant tensor:
#      x y z
#    x 4.319320 0.000000 0.063480 
#    y 0.000000 4.086950 0.000000 
#    z 0.063480 0.000000 3.896240 
# 
# 
# High freq. dielectric constant tensor:
#      x y z
#    x 1.872380 0.000000 0.005470 
#    y 0.000000 1.852280 0.000000 
#    z 0.005470 0.000000 1.817670 
# 
# From -- ./inp_files/82161.got.cif
#   From: 2010.06.25/outbox.cif.g09.slc.cpg/sg10_42_cif.got.tgz:82161.got - 2010.06.27 22:07:45.
