data_PCOD8067254
_publ_section_title
;
Structure prediction by ZEFSAII (Michael W. Deem and Ramdas Pophale) SiO2 
 PCOD8067254
Probable space group: P 2/M
;
_chemical_formula_sum "Si O2"
_cell_formula_units_Z 24
_cell_length_a 8.803138
_cell_length_b 22.017757
_cell_length_c 7.321742
_cell_angle_alpha 90.000000
_cell_angle_beta 133.185163
_cell_angle_gamma 90.000000
_cell_volume 1034.759508
_symmetry_space_group_name_H-M "P 2/M"
_symmetry_group_IT_number 10
_symmetry_cell_setting 'monoclinic'
loop_
_space_group_symop_operation_xyz
x,y,z
-x,y,-z
-x,-y,-z
x,-y,z
loop_
_atom_site_type_symbol
_atom_site_label
_atom_site_fract_x
_atom_site_fract_y
_atom_site_fract_z
Si Si1 0.231846 0.432592 0.274350
Si Si2 0.504528 0.115819 0.722840
Si Si3 0.421956 0.364170 0.124286
Si Si4 0.036083 0.331179 0.320185
Si Si5 0.371714 0.752625 0.576761
Si Si6 0.205245 0.069043 0.760237
O O1 0.281728 0.500000 0.389877
O O2 0.422502 0.414271 0.288401
O O3 0.217229 0.381352 0.421364
O O4 0.000000 0.433478 0.000000
O O5 0.500000 0.102859 0.500000
O O6 0.406506 0.181435 0.692867
O O7 0.372849 0.067756 0.732380
O O8 0.732931 0.108207 0.005826
O O9 0.553838 0.302107 0.233873
O O10 0.500000 0.395934 0.000000
O O11 0.182125 0.342230 0.956442
O O12 0.126616 0.263810 0.342281
O O13 0.000000 0.338696 0.500000
O O14 0.500000 0.750772 0.500000
O O15 0.000000 0.098178 0.500000
O O16 0.164643 0.000000 0.790402
#
# Coordination Sequence:
#
# PCOD8067254 Si02
#       6
#     4   4   4   4   4   4
#     4   9  20  39  59  83 119 158 203 262 319 385
#     4  10  23  40  64  98 135 177 223 280 331 389
#     4  11  22  37  61  86 117 160 205 258 322 389
#     4  11  22  37  60  85 116 159 204 258 324 385
#     4  11  23  40  60  89 125 159 212 262 320 393
#     4  10  23  43  67  98 138 181 226 272 324 390
#
# _framework density 23.193794
#
# number of rings (size 3 to 8) (size 9 to 14) (size 15 to 20)
#    0.000    1.667    3.333    1.000    2.333    4.667 
#    0.000    6.667    0.000    0.000    0.000    0.000 
#    0.000    0.000    0.000    0.000    0.000    0.000 
#
# Total GULP energy -297331.201571 kJ/mol
# GULP energy per Si atom -12388.800065 kJ/mol
# Density = 2.314100 g / cm^3
# Si number density = 23.193794 Si / 1000 Ang^3
#
#
#
# Elastic Constant Matrix: (Units=GPa)
#
#
# Indices 1 2 3 4 5 6 
#
# 1 115.2720 31.0889 33.3211 0.0000 -11.6985 0.0000
# 2 31.0889 122.0286 41.1599 0.0000 -7.8230 0.0000
# 3 33.3211 41.1599 101.1360 0.0000 -12.9704 0.0000
# 4 0.0000 0.0000 0.0000 16.2842 0.0000 1.1056
# 5 -11.6985 -7.8230 -12.9704 0.0000 44.2863 0.0000
# 6 0.0000 0.0000 0.0000 1.1056 0.0000 14.6698
#
#
#
# Elastic Compliance Matrix: (Units=1/GPa)
#
#
# Indices 1 2 3 4 5 6 
#
# 1 0.009978 -0.001622 -0.002417 0.000000 0.001641 0.000000
# 2 -0.001622 0.009776 -0.003406 0.000000 0.000301 0.000000
# 3 -0.002417 -0.003406 0.012376 0.000000 0.002385 0.000000
# 4 0.000000 0.000000 0.000000 0.061725 0.000000 -0.004652
# 5 0.001641 0.000301 0.002385 0.000000 0.023765 0.000000
# 6 0.000000 0.000000 0.000000 -0.004652 0.000000 0.068518
#
#
# Mechanical properties :
#
#
# Convention : Reuss Voigt Hill
#
# Bulk Modulus (GPa) = 58.00081 61.06404 59.53242
# Shear Modulus (GPa) = 24.18109 30.57252 27.37681
#
# Velocity S-wave (km/s) = 3.23238 3.63455 3.43935
# Velocity P-wave (km/s) = 6.24439 6.63311 6.44168
#
# Compressibility (1/GPa) = 0.01724114
#
# Stress axis : x y z
#
# Youngs Moduli (GPa) = 100.22370 102.29179 80.80271
#
# Poissons Ratio (x) = 0.16587 0.19529
# Poissons Ratio (y) = 0.16252 0.27519
# Poissons Ratio (z) = 0.24223 0.34838
#
# Static dielectric constant tensor:
#      x y z
#    x 5.028160 0.000000 0.991370 
#    y 0.000000 4.666570 0.000000 
#    z 0.991370 0.000000 5.372930 
# 
# 
# High freq. dielectric constant tensor:
#      x y z
#    x 1.921760 0.000000 0.017370 
#    y 0.000000 1.900710 0.000000 
#    z 0.017370 0.000000 1.937640 
# 
# From -- ./inp_files/20278.got.cif
#   From: 2010.06.25/outbox.cif.g09.slc.cpg/sg10_11_cif.got.tgz:20278.got - 2010.06.27 22:07:45.
