data_PCOD8067296
_publ_section_title
;
Structure prediction by ZEFSAII (Michael W. Deem and Ramdas Pophale) SiO2 
 PCOD8067296
Probable space group: P 2/M
;
_chemical_formula_sum "Si O2"
_cell_formula_units_Z 24
_cell_length_a 14.171977
_cell_length_b 13.963640
_cell_length_c 11.870954
_cell_angle_alpha 90.000000
_cell_angle_beta 31.995501
_cell_angle_gamma 90.000000
_cell_volume 1244.714742
_symmetry_space_group_name_H-M "P 2/M"
_symmetry_group_IT_number 10
_symmetry_cell_setting 'monoclinic'
loop_
_space_group_symop_operation_xyz
x,y,z
-x,y,-z
-x,-y,-z
x,-y,z
loop_
_atom_site_type_symbol
_atom_site_label
_atom_site_fract_x
_atom_site_fract_y
_atom_site_fract_z
Si Si1 0.380040 0.891895 0.951176
Si Si2 0.709049 0.605249 0.294391
Si Si3 0.051215 0.294236 0.570855
Si Si4 0.725424 0.708609 0.056408
Si Si5 0.647810 0.387072 0.600727
Si Si6 0.761978 0.891769 0.659271
O O1 0.311107 0.821932 0.922245
O O2 0.592331 0.882023 0.749493
O O3 0.330206 0.000000 0.966854
O O4 0.290031 0.863281 0.160675
O O5 0.500000 0.592078 0.500000
O O6 0.796348 0.500000 0.182298
O O7 0.773341 0.683324 0.137775
O O8 0.748186 0.641517 0.381706
O O9 0.236332 0.344681 0.415626
O O10 0.082697 0.179065 0.539438
O O11 0.000000 0.332365 0.500000
O O12 0.894543 0.323985 0.813174
O O13 0.552359 0.652323 0.188619
O O14 0.634361 0.500000 0.625537
O O15 0.836620 0.000000 0.579062
#
# Coordination Sequence:
#
# PCOD8067296 Si02
#       6
#     4   4   4   4   4   4
#     4   9  17  32  59  85 113 154 192 228 278 337
#     4   8  17  37  63  84 102 143 200 242 281 331
#     4  12  24  35  57  89 120 151 190 228 284 353
#     4  11  20  35  62  87 116 146 190 238 284 335
#     4  10  23  43  61  79 113 152 193 247 287 324
#     4   9  18  35  56  82 117 155 193 230 271 333
#
# _framework density 19.281527000000001
#
# number of rings (size 3 to 8) (size 9 to 14) (size 15 to 20)
#    0.000    2.167    3.333    2.500    0.000    4.000 
#    0.000    2.500    0.000    5.500    0.000    2.333 
#    0.000    0.000    0.000    0.000    0.000    0.000 
#
# Total GULP energy -297528.913374 kJ/mol
# GULP energy per Si atom -12397.038057 kJ/mol
# Density = 1.923764 g / cm^3
# Si number density = 19.281527 Si / 1000 Ang^3
#
#
#
# Elastic Constant Matrix: (Units=GPa)
#
#
# Indices 1 2 3 4 5 6 
#
# 1 62.7629 29.3274 23.3228 0.0000 0.8183 0.0000
# 2 29.3274 94.4166 35.0715 0.0000 9.2205 0.0000
# 3 23.3228 35.0715 94.6946 0.0000 0.6355 0.0000
# 4 0.0000 0.0000 0.0000 25.7438 0.0000 16.5927
# 5 0.8183 9.2205 0.6355 0.0000 23.9727 0.0000
# 6 0.0000 0.0000 0.0000 16.5927 0.0000 5.0033
#
#
#
# Elastic Compliance Matrix: (Units=1/GPa)
#
#
# Indices 1 2 3 4 5 6 
#
# 1 0.019362 -0.005070 -0.002900 0.000000 0.001366 0.000000
# 2 -0.005070 0.014139 -0.003953 0.000000 -0.005160 0.000000
# 3 -0.002900 -0.003953 0.012730 0.000000 0.001282 0.000000
# 4 0.000000 0.000000 0.000000 -0.034150 0.000000 0.113251
# 5 0.001366 -0.005160 0.001282 0.000000 0.043618 0.000000
# 6 0.000000 0.000000 0.000000 0.113251 0.000000 -0.175710
#
#
# Mechanical properties :
#
#
# Convention : Reuss Voigt Hill
#
# Bulk Modulus (GPa) = 44.67516 47.47972 46.07744
# Shear Modulus (GPa) = -56.36791 21.88748 -17.24022
#
# Velocity S-wave (km/s) = -5.41273 3.37286 -2.99345
# Velocity P-wave (km/s) = 3.98036 6.31238 3.46431
#
# Compressibility (1/GPa) = 0.02238380
#
# Stress axis : x y z
#
# Youngs Moduli (GPa) = 51.64734 70.72841 78.55469
#
# Poissons Ratio (x) = 0.35862 0.22781
# Poissons Ratio (y) = 0.26187 0.31053
# Poissons Ratio (z) = 0.14978 0.27959
#
# Static dielectric constant tensor:
#      x y z
#    x 3.822470 0.000000 0.124700 
#    y 0.000000 3.529690 0.000000 
#    z 0.124700 0.000000 3.444450 
# 
# 
# High freq. dielectric constant tensor:
#      x y z
#    x 1.740930 0.000000 -0.015470 
#    y 0.000000 1.744750 0.000000 
#    z -0.015470 0.000000 1.740170 
# 
# From -- ./inp_files/51547.got.cif
#   From: 2010.06.25/outbox.cif.g09.slc.cpg/sg10_26_cif.got.tgz:51547.got - 2010.06.27 22:07:45.
