data_PCOD8067924
_publ_section_title
;
Structure prediction by ZEFSAII (Michael W. Deem and Ramdas Pophale) SiO2 
 PCOD8067924
Probable space group: P 2/M
;
_chemical_formula_sum "Si O2"
_cell_formula_units_Z 24
_cell_length_a 7.320284
_cell_length_b 9.203082
_cell_length_c 19.458195
_cell_angle_alpha 90.000000
_cell_angle_beta 89.703124
_cell_angle_gamma 90.000000
_cell_volume 1310.864926
_symmetry_space_group_name_H-M "P 2/M"
_symmetry_group_IT_number 10
_symmetry_cell_setting 'monoclinic'
loop_
_space_group_symop_operation_xyz
x,y,z
-x,y,-z
-x,-y,-z
x,-y,z
loop_
_atom_site_type_symbol
_atom_site_label
_atom_site_fract_x
_atom_site_fract_y
_atom_site_fract_z
Si Si1 0.758696 0.171094 0.871882
Si Si2 0.519460 0.170103 0.240660
Si Si3 0.794722 0.827260 0.500306
Si Si4 0.176467 0.168043 0.862453
Si Si5 0.783554 0.336056 0.005987
Si Si6 0.502312 0.173093 0.392990
O O1 0.636384 0.231905 0.809681
O O2 0.966275 0.210318 0.851843
O O3 0.730433 0.000000 0.883830
O O4 0.696581 0.251722 0.941646
O O5 0.718617 0.203384 0.208507
O O6 0.505598 0.241658 0.316352
O O7 0.486340 0.000000 0.248595
O O8 0.683871 0.776498 0.568533
O O9 0.681751 0.771824 0.433917
O O10 0.000000 0.760530 0.500000
O O11 0.806660 0.000000 0.498966
O O12 0.272596 0.258109 0.923177
O O13 0.196781 0.000000 0.882918
O O14 0.708436 0.500000 0.006560
O O15 0.000000 0.330767 0.000000
O O16 0.508866 0.000000 0.390434
#
# Coordination Sequence:
#
# PCOD8067924 Si02
#       6
#     4   4   4   4   4   4
#     4   9  17  29  44  61  82 110 143 178 216 255
#     4   9  17  27  39  57  81 109 142 178 212 249
#     4   8  13  21  34  51  73 104 137 167 201 240
#     4   9  17  29  44  61  82 110 143 178 216 255
#     4   9  17  30  47  64  83 109 142 181 219 254
#     4   8  14  23  33  50  76 103 136 173 202 237
#
# _framework density 18.308523000000001
#
# number of rings (size 3 to 8) (size 9 to 14) (size 15 to 20)
#    0.000    3.333    0.000    1.500    0.000    4.000 
#    0.000   10.833    0.000    0.000    0.000    0.000 
#    0.000    0.000    0.000   12.000    0.000   84.667 
#
# Total GULP energy -297457.087758 kJ/mol
# GULP energy per Si atom -12394.045323 kJ/mol
# Density = 1.826685 g / cm^3
# Si number density = 18.308523 Si / 1000 Ang^3
#
#
#
# Elastic Constant Matrix: (Units=GPa)
#
#
# Indices 1 2 3 4 5 6 
#
# 1 79.4165 7.3364 26.8195 0.0000 5.0037 0.0000
# 2 7.3364 32.0987 22.2803 0.0000 0.3573 0.0000
# 3 26.8195 22.2803 133.2588 0.0000 3.1476 0.0000
# 4 0.0000 0.0000 0.0000 1.8209 0.0000 -0.5802
# 5 5.0037 0.3573 3.1476 0.0000 23.7502 0.0000
# 6 0.0000 0.0000 0.0000 -0.5802 0.0000 3.8448
#
#
#
# Elastic Compliance Matrix: (Units=1/GPa)
#
#
# Indices 1 2 3 4 5 6 
#
# 1 0.013714 -0.001394 -0.002467 0.000000 -0.002541 0.000000
# 2 -0.001394 0.035387 -0.005648 0.000000 0.000510 0.000000
# 3 -0.002467 -0.005648 0.008959 0.000000 -0.000583 0.000000
# 4 0.000000 0.000000 0.000000 0.576926 0.000000 0.087054
# 5 -0.002541 0.000510 -0.000583 0.000000 0.042710 0.000000
# 6 0.000000 0.000000 0.000000 0.087054 0.000000 0.273226
#
#
# Mechanical properties :
#
#
# Convention : Reuss Voigt Hill
#
# Bulk Modulus (GPa) = 25.61333 39.73850 32.67591
# Shear Modulus (GPa) = 5.08671 18.43902 11.76286
#
# Velocity S-wave (km/s) = 1.66864 3.17697 2.53747
# Velocity P-wave (km/s) = 4.21102 5.93376 5.14501
#
# Compressibility (1/GPa) = 0.03904218
#
# Stress axis : x y z
#
# Youngs Moduli (GPa) = 72.91911 28.25874 111.62198
#
# Poissons Ratio (x) = 0.03939 0.27537
# Poissons Ratio (y) = 0.10163 0.63046
# Poissons Ratio (z) = 0.17989 0.15961
#
# Static dielectric constant tensor:
#      x y z
#    x 3.511210 0.000000 0.038220 
#    y 0.000000 2.842390 0.000000 
#    z 0.038220 0.000000 3.689250 
# 
# 
# High freq. dielectric constant tensor:
#      x y z
#    x 1.716010 0.000000 -0.000970 
#    y 0.000000 1.642250 0.000000 
#    z -0.000970 0.000000 1.711250 
# 
# From -- ./inp_files/74183.got.cif
#   From: 2010.06.25/outbox.cif.g09.slc.cpg/sg10_38_cif.got.tgz:74183.got - 2010.06.27 22:07:45.
