data_PCOD8067633
_publ_section_title
;
Structure prediction by ZEFSAII (Michael W. Deem and Ramdas Pophale) SiO2 
 PCOD8067633
Probable space group: P 2/M
;
_chemical_formula_sum "Si O2"
_cell_formula_units_Z 30
_cell_length_a 15.173542
_cell_length_b 19.044903
_cell_length_c 11.251132
_cell_angle_alpha 90.000000
_cell_angle_beta 150.551701
_cell_angle_gamma 90.000000
_cell_volume 1598.480683
_symmetry_space_group_name_H-M "P 2/M"
_symmetry_group_IT_number 10
_symmetry_cell_setting 'monoclinic'
loop_
_space_group_symop_operation_xyz
x,y,z
-x,y,-z
-x,-y,-z
x,-y,z
loop_
_atom_site_type_symbol
_atom_site_label
_atom_site_fract_x
_atom_site_fract_y
_atom_site_fract_z
Si Si1 0.681824 0.579127 0.275151
Si Si2 0.187294 0.580223 0.154125
Si Si3 0.374362 0.665919 0.568861
Si Si4 0.742923 0.825839 0.889678
Si Si5 0.788789 0.675613 0.035316
Si Si6 0.355907 0.823502 0.499830
Si Si7 0.000000 0.628161 0.500000
Si Si8 0.051771 0.920897 0.198545
O O1 0.655639 0.500000 0.291474
O O2 0.725352 0.627955 0.439196
O O3 0.845325 0.579870 0.374565
O O4 0.500000 0.606078 0.000000
O O5 0.254643 0.500000 0.222560
O O6 0.333363 0.626004 0.397267
O O7 0.159037 0.611636 0.989903
O O8 0.000000 0.584466 0.000000
O O9 0.304738 0.745688 0.483560
O O10 0.585636 0.664881 0.838003
O O11 0.567619 0.840667 0.765571
O O12 0.688897 0.828775 0.690165
O O13 0.820641 0.748982 0.006513
O O14 0.895762 0.883979 0.093275
O O15 0.914204 0.676982 0.298117
O O16 0.238595 0.879276 0.436314
O O17 0.076414 0.000000 0.274620
O O18 0.000000 0.920396 0.000000
#
# Coordination Sequence:
#
# PCOD8067633 Si02
#       8
#     4   4   4   4   4   4   2   4
#     4  11  24  42  59  79 112 152 195 244 296 344
#     4  11  24  37  55  85 113 147 193 244 296 345
#     4  11  21  39  60  84 112 149 195 244 290 345
#     4   9  18  33  51  80 112 147 181 227 276 329
#     4  11  23  38  58  83 113 151 197 239 289 343
#     4   9  18  31  54  80 112 143 184 226 279 329
#     4  12  25  42  60  80 111 150 196 244 289 348
#     4   9  18  30  49  80 114 151 182 211 269 340
#
# _framework density 18.767821999999999
#
# number of rings (size 3 to 8) (size 9 to 14) (size 15 to 20)
#    0.000    1.733    2.667    1.800    3.733    4.267 
#    0.000    2.667    0.000    0.000    0.000    0.467 
#    0.000    3.200    0.000    0.000    0.000    0.000 
#
# Total GULP energy -372042.646480 kJ/mol
# GULP energy per Si atom -12401.421549 kJ/mol
# Density = 1.872511 g / cm^3
# Si number density = 18.767822 Si / 1000 Ang^3
#
#
#
# Elastic Constant Matrix: (Units=GPa)
#
#
# Indices 1 2 3 4 5 6 
#
# 1 74.2684 44.2360 28.6388 0.0000 13.3776 0.0000
# 2 44.2360 148.7837 45.2510 0.0000 19.4877 0.0000
# 3 28.6388 45.2510 88.6585 0.0000 11.2774 0.0000
# 4 0.0000 0.0000 0.0000 20.8349 0.0000 5.4808
# 5 13.3776 19.4877 11.2774 0.0000 26.7578 0.0000
# 6 0.0000 0.0000 0.0000 5.4808 0.0000 18.3117
#
#
#
# Elastic Compliance Matrix: (Units=1/GPa)
#
#
# Indices 1 2 3 4 5 6 
#
# 1 0.017773 -0.003659 -0.003257 0.000000 -0.004848 0.000000
# 2 -0.003659 0.009210 -0.003063 0.000000 -0.003588 0.000000
# 3 -0.003257 -0.003063 0.014163 0.000000 -0.002110 0.000000
# 4 0.000000 0.000000 0.000000 0.052098 0.000000 -0.015594
# 5 -0.004848 -0.003588 -0.002110 0.000000 0.043299 0.000000
# 6 0.000000 0.000000 0.000000 -0.015594 0.000000 0.059277
#
#
# Mechanical properties :
#
#
# Convention : Reuss Voigt Hill
#
# Bulk Modulus (GPa) = 47.19291 60.88468 54.03879
# Shear Modulus (GPa) = 22.43753 26.08653 24.26203
#
# Velocity S-wave (km/s) = 3.46140 3.73226 3.59938
# Velocity P-wave (km/s) = 6.41680 7.14734 6.79190
#
# Compressibility (1/GPa) = 0.02118962
#
# Stress axis : x y z
#
# Youngs Moduli (GPa) = 56.26481 108.57306 70.60659
#
# Poissons Ratio (x) = 0.39723 0.22997
# Poissons Ratio (y) = 0.20585 0.21625
# Poissons Ratio (z) = 0.18326 0.33253
#
# Static dielectric constant tensor:
#      x y z
#    x 3.346660 0.000000 0.290880 
#    y 0.000000 3.461250 0.000000 
#    z 0.290880 0.000000 3.532420 
# 
# 
# High freq. dielectric constant tensor:
#      x y z
#    x 1.710600 0.000000 0.028820 
#    y 0.000000 1.718450 0.000000 
#    z 0.028820 0.000000 1.725290 
# 
# From -- ./inp_files/47927.got.cif
#   From: 2010.06.25/outbox.cif.g09.slc.cpg/sg10_24_cif.got.tgz:47927.got - 2010.06.27 22:07:45.
