data_PCOD8067860
_publ_section_title
;
Structure prediction by ZEFSAII (Michael W. Deem and Ramdas Pophale) SiO2 
 PCOD8067860
Probable space group: P 2/M
;
_chemical_formula_sum "Si O2"
_cell_formula_units_Z 32
_cell_length_a 21.391976
_cell_length_b 9.098976
_cell_length_c 23.587007
_cell_angle_alpha 90.000000
_cell_angle_beta 156.220112
_cell_angle_gamma 90.000000
_cell_volume 1851.240067
_symmetry_space_group_name_H-M "P 2/M"
_symmetry_group_IT_number 10
_symmetry_cell_setting 'monoclinic'
loop_
_space_group_symop_operation_xyz
x,y,z
-x,y,-z
-x,-y,-z
x,-y,z
loop_
_atom_site_type_symbol
_atom_site_label
_atom_site_fract_x
_atom_site_fract_y
_atom_site_fract_z
Si Si1 0.192255 0.323706 0.822196
Si Si2 0.353753 0.173286 0.257361
Si Si3 0.855787 0.323877 0.344139
Si Si4 0.887107 0.329977 0.018964
Si Si5 0.475463 0.339816 0.913207
Si Si6 0.996730 0.325292 0.764717
Si Si7 0.227516 0.666150 0.259614
Si Si8 0.665652 0.329551 0.525821
O O1 0.200405 0.500000 0.830386
O O2 0.127652 0.271297 0.707429
O O3 0.078458 0.261409 0.776238
O O4 0.367755 0.259914 0.979687
O O5 0.244101 0.230167 0.116728
O O6 0.293985 0.222847 0.269006
O O7 0.524305 0.233876 0.386006
O O8 0.357757 0.000000 0.259207
O O9 0.850950 0.500000 0.342488
O O10 0.692584 0.260937 0.235316
O O11 0.000000 0.261054 0.500000
O O12 0.836168 0.500000 0.974887
O O13 0.909688 0.273673 0.102055
O O14 0.044810 0.308119 0.114727
O O15 0.465280 0.500000 0.875549
O O16 0.500000 0.360790 0.000000
O O17 0.994595 0.500000 0.763050
O O18 0.818931 0.271298 0.620366
O O19 0.258906 0.500000 0.264474
O O20 0.315059 0.693967 0.391072
O O21 0.634748 0.500000 0.486666
#
# Coordination Sequence:
#
# PCOD8067860 Si02
#       8
#     4   4   4   4   4   4   4   4
#     4   8  12  20  35  52  71 100 145 190 214 242
#     4  12  23  31  44  69  95 116 143 182 227 272
#     4   8  12  17  26  45  77 111 139 170 210 255
#     4   9  18  33  50  66  87 115 148 187 229 270
#     4   7  10  16  26  42  68 103 137 168 204 244
#     4   8  15  29  47  62  76 107 157 199 223 253
#     4   9  18  33  52  69  86 115 150 181 222 275
#     4   9  18  33  50  66  88 117 148 183 225 272
#
# _framework density 17.285710000000002
#
# number of rings (size 3 to 8) (size 9 to 14) (size 15 to 20)
#    0.000    3.250    0.000    4.875    0.000    4.000 
#    0.000    3.125    0.000    6.000    0.000    0.000 
#    0.000    0.000    0.000    0.000    0.000   52.500 
#
# Total GULP energy -396489.437148 kJ/mol
# GULP energy per Si atom -12390.294911 kJ/mol
# Density = 1.724637 g / cm^3
# Si number density = 17.285710 Si / 1000 Ang^3
#
#
#
# Elastic Constant Matrix: (Units=GPa)
#
#
# Indices 1 2 3 4 5 6 
#
# 1 103.3589 23.1005 58.4122 0.0000 20.2146 0.0000
# 2 23.1005 52.7454 41.1830 0.0000 4.3794 0.0000
# 3 58.4122 41.1830 149.2973 0.0000 12.6939 0.0000
# 4 0.0000 0.0000 0.0000 -0.8531 0.0000 0.0232
# 5 20.2146 4.3794 12.6939 0.0000 16.3198 0.0000
# 6 0.0000 0.0000 0.0000 0.0232 0.0000 -0.1727
#
#
#
# Elastic Compliance Matrix: (Units=1/GPa)
#
#
# Indices 1 2 3 4 5 6 
#
# 1 0.015541 -0.002297 -0.004136 0.000000 -0.015416 0.000000
# 2 -0.002297 0.024532 -0.005944 0.000000 0.000885 0.000000
# 3 -0.004136 -0.005944 0.010049 0.000000 -0.001098 0.000000
# 4 0.000000 0.000000 0.000000 -1.176503 0.000000 -0.158194
# 5 -0.015416 0.000885 -0.001098 0.000000 0.080988 0.000000
# 6 0.000000 0.000000 0.000000 -0.158194 0.000000 -5.810314
#
#
# Mechanical properties :
#
#
# Convention : Reuss Voigt Hill
#
# Bulk Modulus (GPa) = 39.41814 61.19922 50.30868
# Shear Modulus (GPa) = -0.73287 15.23919 7.25316
#
# Velocity S-wave (km/s) = -0.65184 2.97241 2.05065
# Velocity P-wave (km/s) = 4.72090 6.87471 5.89697
#
# Compressibility (1/GPa) = 0.02536903
#
# Stress axis : x y z
#
# Youngs Moduli (GPa) = 64.34645 40.76269 99.51092
#
# Poissons Ratio (x) = 0.09363 0.41157
# Poissons Ratio (y) = 0.14780 0.59146
# Poissons Ratio (z) = 0.26613 0.24228
#
# Static dielectric constant tensor:
#      x y z
#    x 3.320790 0.000000 0.228820 
#    y 0.000000 2.608590 0.000000 
#    z 0.228820 0.000000 3.532420 
# 
# 
# High freq. dielectric constant tensor:
#      x y z
#    x 1.651920 0.000000 0.012970 
#    y 0.000000 1.601030 0.000000 
#    z 0.012970 0.000000 1.681050 
# 
# From -- ./inp_files/93876.got.cif
#   From: 2010.06.25/outbox.cif.g09.slc.cpg/sg10_47_cif.got.tgz:93876.got - 2010.06.27 22:07:45.
