data_PCOD8067700
_publ_section_title
;
Structure prediction by ZEFSAII (Michael W. Deem and Ramdas Pophale) SiO2 
 PCOD8067700
Probable space group: P 2/M
;
_chemical_formula_sum "Si O2"
_cell_formula_units_Z 32
_cell_length_a 11.916335
_cell_length_b 8.388846
_cell_length_c 15.487899
_cell_angle_alpha 90.000000
_cell_angle_beta 89.870080
_cell_angle_gamma 90.000000
_cell_volume 1548.232989
_symmetry_space_group_name_H-M "P 2/M"
_symmetry_group_IT_number 10
_symmetry_cell_setting 'monoclinic'
loop_
_space_group_symop_operation_xyz
x,y,z
-x,y,-z
-x,-y,-z
x,-y,z
loop_
_atom_site_type_symbol
_atom_site_label
_atom_site_fract_x
_atom_site_fract_y
_atom_site_fract_z
Si Si1 0.509873 0.684970 0.401172
Si Si2 0.278819 0.685960 0.845649
Si Si3 0.721172 0.814042 0.654350
Si Si4 0.125774 0.189544 0.502103
Si Si5 0.490124 0.184957 0.098841
Si Si6 0.125774 0.689544 0.002105
Si Si7 0.735920 0.314507 0.834590
Si Si8 0.735921 0.185498 0.334590
O O1 0.500000 0.740890 0.500000
O O2 0.542046 0.500000 0.393852
O O3 0.393896 0.716765 0.352778
O O4 0.605532 0.788079 0.355646
O O5 0.303550 0.500000 0.858586
O O6 0.393898 0.783210 0.852776
O O7 0.191891 0.749864 0.917473
O O8 0.227499 0.720050 0.751478
O O9 0.808113 0.750147 0.582533
O O10 0.772483 0.779971 0.748526
O O11 0.696428 0.000000 0.641408
O O12 0.188570 0.253436 0.587293
O O13 0.000000 0.259949 0.500000
O O14 0.122859 0.000000 0.503007
O O15 0.394466 0.288120 0.144331
O O16 0.457946 0.000000 0.106233
O O17 0.500000 0.240758 0.000000
O O18 0.122863 0.500000 0.003007
O O19 0.188563 0.753430 0.087299
O O20 0.000000 0.759951 0.000000
O O21 0.758443 0.500000 0.819572
O O22 0.758435 0.000000 0.319588
#
# Coordination Sequence:
#
# PCOD8067700 Si02
#       8
#     4   4   4   4   4   4   4   4
#     4  11  22  37  60  88 120 152 190 239 291 347
#     4  11  22  38  61  88 119 154 194 237 288 346
#     4  11  22  38  61  88 119 154 194 237 288 346
#     4   9  20  39  61  84 114 155 198 239 286 343
#     4  11  22  37  60  88 120 152 190 239 291 347
#     4   9  20  39  61  84 114 155 198 239 286 343
#     4  11  22  38  61  88 119 154 194 237 288 346
#     4  11  22  38  61  88 119 154 194 237 288 346
#
# _framework density 20.668724000000001
#
# number of rings (size 3 to 8) (size 9 to 14) (size 15 to 20)
#    0.000    1.500    2.500    3.000    0.000    2.000 
#    0.000    0.000    0.000   10.500    0.000    0.000 
#    0.000    0.000    0.000    0.000    0.000    0.000 
#
# Total GULP energy -396991.155703 kJ/mol
# GULP energy per Si atom -12405.973616 kJ/mol
# Density = 2.062168 g / cm^3
# Si number density = 20.668724 Si / 1000 Ang^3
#
#
#
# Elastic Constant Matrix: (Units=GPa)
#
#
# Indices 1 2 3 4 5 6 
#
# 1 145.7074 4.3569 66.8445 0.0000 4.9372 0.0000
# 2 4.3569 38.1777 13.8779 0.0000 -0.0602 0.0000
# 3 66.8445 13.8779 175.9787 0.0000 7.8876 0.0000
# 4 0.0000 0.0000 0.0000 28.6645 0.0000 7.4215
# 5 4.9372 -0.0602 7.8876 0.0000 15.1805 0.0000
# 6 0.0000 0.0000 0.0000 7.4215 0.0000 3.7705
#
#
#
# Elastic Compliance Matrix: (Units=1/GPa)
#
#
# Indices 1 2 3 4 5 6 
#
# 1 0.008330 0.000186 -0.003130 0.000000 -0.001082 0.000000
# 2 0.000186 0.026993 -0.002254 0.000000 0.001218 0.000000
# 3 -0.003130 -0.002254 0.007171 0.000000 -0.002717 0.000000
# 4 0.000000 0.000000 0.000000 0.071141 0.000000 -0.140029
# 5 -0.001082 0.001218 -0.002717 0.000000 0.067642 0.000000
# 6 0.000000 0.000000 0.000000 -0.140029 0.000000 0.540844
#
#
# Mechanical properties :
#
#
# Convention : Reuss Voigt Hill
#
# Bulk Modulus (GPa) = 31.15511 58.89138 45.02324
# Shear Modulus (GPa) = 6.72749 27.84207 17.28478
#
# Velocity S-wave (km/s) = 1.80610 3.67422 2.89498
# Velocity P-wave (km/s) = 4.41085 6.82310 5.74501
#
# Compressibility (1/GPa) = 0.03209747
#
# Stress axis : x y z
#
# Youngs Moduli (GPa) = 120.04441 37.04622 139.44959
#
# Poissons Ratio (x) = -0.00687 0.43652
# Poissons Ratio (y) = -0.02227 0.31429
# Poissons Ratio (z) = 0.37578 0.08349
#
# Static dielectric constant tensor:
#      x y z
#    x 3.742510 0.000000 0.019820 
#    y 0.000000 3.390860 0.000000 
#    z 0.019820 0.000000 4.009550 
# 
# 
# High freq. dielectric constant tensor:
#      x y z
#    x 1.799300 0.000000 0.000440 
#    y 0.000000 1.787170 0.000000 
#    z 0.000440 0.000000 1.828260 
# 
# From -- ./inp_files/63790.got.cif
#   From: 2010.06.25/outbox.cif.g09.slc.cpg/sg10_32_cif.got.tgz:63790.got - 2010.06.27 22:07:45.
