data_PCOD8067167
_publ_section_title
;
Structure prediction by ZEFSAII (Michael W. Deem and Ramdas Pophale) SiO2 
 PCOD8067167
Probable space group: P 2/M
;
_chemical_formula_sum "Si O2"
_cell_formula_units_Z 28
_cell_length_a 21.583343
_cell_length_b 8.918919
_cell_length_c 9.583146
_cell_angle_alpha 90.000000
_cell_angle_beta 132.323920
_cell_angle_gamma 90.000000
_cell_volume 1363.920789
_symmetry_space_group_name_H-M "P 2/M"
_symmetry_group_IT_number 10
_symmetry_cell_setting 'monoclinic'
loop_
_space_group_symop_operation_xyz
x,y,z
-x,y,-z
-x,-y,-z
x,-y,z
loop_
_atom_site_type_symbol
_atom_site_label
_atom_site_fract_x
_atom_site_fract_y
_atom_site_fract_z
Si Si1 0.319759 0.172225 0.200986
Si Si2 0.687144 0.669572 0.246581
Si Si3 0.614545 0.330410 0.432992
Si Si4 0.850871 0.674031 0.112623
Si Si5 0.012102 0.177005 0.859731
Si Si6 0.125487 0.326444 0.537248
Si Si7 0.557769 0.172254 0.860251
O O1 0.344872 0.222365 0.392532
O O2 0.400739 0.196100 0.227550
O O3 0.291381 0.000000 0.161422
O O4 0.244058 0.269171 0.025674
O O5 0.672988 0.500000 0.168745
O O6 0.676095 0.675784 0.395180
O O7 0.780275 0.724580 0.352856
O O8 0.622308 0.782136 0.077952
O O9 0.607780 0.500000 0.480344
O O10 0.523004 0.275871 0.249555
O O11 0.849767 0.500000 0.073565
O O12 0.901608 0.757212 0.068698
O O13 0.893448 0.701795 0.327899
O O14 0.935146 0.227431 0.647925
O O15 0.018686 0.000000 0.864901
O O16 0.000000 0.234116 0.000000
O O17 0.111051 0.500000 0.476903
O O18 0.531766 0.000000 0.843667
#
# Coordination Sequence:
#
# PCOD8067167 Si02
#       7
#     4   4   4   4   4   4   4
#     4  11  24  41  62  91 127 164 208 259 313 371
#     4  10  22  41  63  91 125 162 209 260 309 367
#     4  11  24  39  61  91 125 168 212 259 314 365
#     4  11  23  42  69  95 122 162 210 255 307 366
#     4  11  26  44  64  96 133 166 200 247 308 368
#     4  10  22  42  67  94 124 162 209 257 306 365
#     4  11  23  40  62  90 124 166 211 258 315 370
#
# _framework density 20.529050999999999
#
# number of rings (size 3 to 8) (size 9 to 14) (size 15 to 20)
#    0.000    1.286    1.429    3.429    2.000   10.857 
#    0.000    0.000    0.000    0.000    0.000    0.000 
#    0.000    0.000    0.000    0.000    0.000    0.000 
#
# Total GULP energy -347396.243285 kJ/mol
# GULP energy per Si atom -12407.008689 kJ/mol
# Density = 2.048233 g / cm^3
# Si number density = 20.529051 Si / 1000 Ang^3
#
#
#
# Elastic Constant Matrix: (Units=GPa)
#
#
# Indices 1 2 3 4 5 6 
#
# 1 92.6347 39.0156 12.4651 0.0000 -5.5343 0.0000
# 2 39.0156 63.4297 23.3779 0.0000 -6.8377 0.0000
# 3 12.4651 23.3779 50.6609 0.0000 -2.9012 0.0000
# 4 0.0000 0.0000 0.0000 26.6340 0.0000 -4.9049
# 5 -5.5343 -6.8377 -2.9012 0.0000 31.8219 0.0000
# 6 0.0000 0.0000 0.0000 -4.9049 0.0000 28.6995
#
#
#
# Elastic Compliance Matrix: (Units=1/GPa)
#
#
# Indices 1 2 3 4 5 6 
#
# 1 0.014601 -0.009160 0.000671 0.000000 0.000632 0.000000
# 2 -0.009160 0.025094 -0.009156 0.000000 0.002964 0.000000
# 3 0.000671 -0.009156 0.023818 0.000000 0.000321 0.000000
# 4 0.000000 0.000000 0.000000 0.038766 0.000000 0.006625
# 5 0.000632 0.002964 0.000321 0.000000 0.032201 0.000000
# 6 0.000000 0.000000 0.000000 0.006625 0.000000 0.035976
#
#
# Mechanical properties :
#
#
# Convention : Reuss Voigt Hill
#
# Bulk Modulus (GPa) = 35.43438 39.60473 37.51956
# Shear Modulus (GPa) = 23.23924 26.22219 24.73071
#
# Velocity S-wave (km/s) = 3.36820 3.57784 3.47460
# Velocity P-wave (km/s) = 5.69424 6.03339 5.86627
#
# Compressibility (1/GPa) = 0.02822118
#
# Stress axis : x y z
#
# Youngs Moduli (GPa) = 68.49074 39.85037 41.98560
#
# Poissons Ratio (x) = 0.36502 -0.02816
# Poissons Ratio (y) = 0.62736 0.38443
# Poissons Ratio (z) = -0.04593 0.36488
#
# Static dielectric constant tensor:
#      x y z
#    x 3.931530 0.000000 -0.042060 
#    y 0.000000 3.782520 0.000000 
#    z -0.042060 0.000000 3.651240 
# 
# 
# High freq. dielectric constant tensor:
#      x y z
#    x 1.817050 0.000000 -0.002340 
#    y 0.000000 1.808560 0.000000 
#    z -0.002340 0.000000 1.805010 
# 
# From -- ./inp_files/34201.got.cif
#   From: 2010.06.25/outbox.cif.g09.slc.cpg/sg10_18_cif.got.tgz:34201.got - 2010.06.27 22:07:45.
