data_PCOD8067961
_publ_section_title
;
Structure prediction by ZEFSAII (Michael W. Deem and Ramdas Pophale) SiO2 
 PCOD8067961
Probable space group: P 2/M
;
_chemical_formula_sum "Si O2"
_cell_formula_units_Z 28
_cell_length_a 7.777270
_cell_length_b 19.700815
_cell_length_c 15.476889
_cell_angle_alpha 90.000000
_cell_angle_beta 41.082629
_cell_angle_gamma 90.000000
_cell_volume 1558.322714
_symmetry_space_group_name_H-M "P 2/M"
_symmetry_group_IT_number 10
_symmetry_cell_setting 'monoclinic'
loop_
_space_group_symop_operation_xyz
x,y,z
-x,y,-z
-x,-y,-z
x,-y,z
loop_
_atom_site_type_symbol
_atom_site_label
_atom_site_fract_x
_atom_site_fract_y
_atom_site_fract_z
Si Si1 0.574604 0.832228 0.156236
Si Si2 0.014973 0.681034 0.853963
Si Si3 0.736656 0.424192 0.643968
Si Si4 0.331441 0.424192 0.643968
Si Si5 0.264438 0.076675 0.157041
Si Si6 0.576862 0.318966 0.146037
Si Si7 0.956689 0.167772 0.156236
O O1 0.353119 0.885994 0.211830
O O2 0.453156 0.756525 0.196189
O O3 0.679984 0.848611 0.213344
O O4 0.817856 0.835996 0.000000
O O5 0.041723 0.756525 0.803811
O O6 0.086896 0.626074 0.753072
O O7 0.209918 0.675069 0.860054
O O8 0.719677 0.667435 0.000000
O O9 0.784792 0.500000 0.663451
O O10 0.508929 0.426270 0.660714
O O11 0.653887 0.373926 0.753072
O O12 0.000000 0.396232 0.500000
O O13 0.500000 0.396231 0.500000
O O14 0.224856 0.500000 0.663450
O O15 0.011390 0.114006 0.211831
O O16 0.184122 0.000000 0.210586
O O17 0.500000 0.078314 0.000000
#
# Coordination Sequence:
#
# PCOD8067961 Si02
#       7
#     4   4   4   4   4   4   4
#     4   8  14  25  39  56  82 114 145 181 223 261
#     4   8  14  26  44  63  83 113 151 187 222 262
#     4   9  17  29  44  62  87 117 145 181 228 269
#     4   9  17  29  44  62  87 117 145 181 228 269
#     4   9  16  24  36  58  87 117 147 175 213 272
#     4   8  14  26  44  63  83 113 151 187 222 262
#     4   8  14  25  39  56  82 114 145 181 223 261
#
# _framework density 17.968036999999999
#
# number of rings (size 3 to 8) (size 9 to 14) (size 15 to 20)
#    0.000    3.571    0.000    1.714    0.000    1.143 
#    2.571    5.714    0.000    0.000    0.000    4.000 
#    0.000    1.143    0.571    0.000    0.000    0.000 
#
# Total GULP energy -346971.663017 kJ/mol
# GULP energy per Si atom -12391.845108 kJ/mol
# Density = 1.792714 g / cm^3
# Si number density = 17.968037 Si / 1000 Ang^3
#
#
#
# Elastic Constant Matrix: (Units=GPa)
#
#
# Indices 1 2 3 4 5 6 
#
# 1 63.6620 52.1544 20.1220 0.0000 -0.2496 0.0000
# 2 52.1544 155.3439 66.2380 0.0000 0.1743 0.0000
# 3 20.1220 66.2380 67.4654 0.0000 0.2966 0.0000
# 4 0.0000 0.0000 0.0000 5.6281 0.0000 -0.1781
# 5 -0.2496 0.1743 0.2966 0.0000 11.6940 0.0000
# 6 0.0000 0.0000 0.0000 -0.1781 0.0000 20.0284
#
#
#
# Elastic Compliance Matrix: (Units=1/GPa)
#
#
# Indices 1 2 3 4 5 6 
#
# 1 0.021725 -0.007793 0.001169 0.000000 0.000550 0.000000
# 2 -0.007793 0.013868 -0.011291 0.000000 -0.000087 0.000000
# 3 0.001169 -0.011291 0.025562 0.000000 -0.000455 0.000000
# 4 0.000000 0.000000 0.000000 0.177730 0.000000 0.001581
# 5 0.000550 -0.000087 -0.000455 0.000000 0.085538 0.000000
# 6 0.000000 0.000000 0.000000 0.001581 0.000000 0.049943
#
#
# Mechanical properties :
#
#
# Convention : Reuss Voigt Hill
#
# Bulk Modulus (GPa) = 39.48734 62.61112 51.04923
# Shear Modulus (GPa) = 11.94347 17.33388 14.63868
#
# Velocity S-wave (km/s) = 2.58099 3.10934 2.85740
# Velocity P-wave (km/s) = 5.55933 6.91463 6.27369
#
# Compressibility (1/GPa) = 0.02532457
#
# Stress axis : x y z
#
# Youngs Moduli (GPa) = 46.03020 72.10632 39.12103
#
# Poissons Ratio (x) = 0.56192 -0.04574
# Poissons Ratio (y) = 0.35871 0.44173
# Poissons Ratio (z) = -0.05382 0.81418
#
# Static dielectric constant tensor:
#      x y z
#    x 3.318100 0.000000 -0.003320 
#    y 0.000000 3.641540 0.000000 
#    z -0.003320 0.000000 3.049900 
# 
# 
# High freq. dielectric constant tensor:
#      x y z
#    x 1.684690 0.000000 -0.000610 
#    y 0.000000 1.695490 0.000000 
#    z -0.000610 0.000000 1.635760 
# 
# From -- ./inp_files/75279.got.cif
#   From: 2010.06.25/outbox.cif.g09.slc.cpg/sg10_38_cif.got.tgz:75279.got - 2010.06.27 22:07:45.
