data_PCOD8067566
_publ_section_title
;
Structure prediction by ZEFSAII (Michael W. Deem and Ramdas Pophale) SiO2 
 PCOD8067566
Probable space group: P 2/M
;
_chemical_formula_sum "Si O2"
_cell_formula_units_Z 32
_cell_length_a 20.467946
_cell_length_b 13.901143
_cell_length_c 19.015759
_cell_angle_alpha 90.000000
_cell_angle_beta 21.714053
_cell_angle_gamma 90.000000
_cell_volume 2001.752544
_symmetry_space_group_name_H-M "P 2/M"
_symmetry_group_IT_number 10
_symmetry_cell_setting 'monoclinic'
loop_
_space_group_symop_operation_xyz
x,y,z
-x,y,-z
-x,-y,-z
x,-y,z
loop_
_atom_site_type_symbol
_atom_site_label
_atom_site_fract_x
_atom_site_fract_y
_atom_site_fract_z
Si Si1 0.499997 0.114684 0.265098
Si Si2 0.500008 0.886046 0.105151
Si Si3 0.806768 0.201878 0.337196
Si Si4 0.300477 0.113642 0.699520
Si Si5 0.806765 0.798116 0.049282
Si Si6 0.291235 0.393136 0.629542
Si Si7 0.202543 0.114256 0.297457
Si Si8 0.291220 0.606862 0.787993
O O1 0.500013 0.150652 0.184916
O O2 0.328309 0.157273 0.473154
O O3 0.671650 0.157284 0.129835
O O4 0.500011 0.000000 0.272580
O O5 0.318440 0.850236 0.248960
O O6 0.500004 0.000000 0.101855
O O7 0.681564 0.850232 0.885834
O O8 0.795238 0.151077 0.273608
O O9 0.783746 0.316425 0.350631
O O10 0.000010 0.182334 0.175549
O O11 0.500000 0.153890 0.500000
O O12 0.204746 0.151088 0.864086
O O13 0.296849 0.000000 0.703158
O O14 0.783772 0.683569 0.081862
O O15 0.224807 0.500000 0.674746
O O16 0.500007 0.389069 0.418390
O O17 0.226511 0.368410 0.773482
O O18 0.000000 0.156887 0.500000
O O19 0.187128 0.000000 0.312871
O O20 0.224784 0.500000 0.875649
#
# Coordination Sequence:
#
# PCOD8067566 Si02
#       8
#     4   4   4   4   4   4   4   4
#     4  11  23  37  48  63  97 136 168 200 230 275
#     4   8  16  29  45  67  92 122 157 190 227 268
#     4  12  23  34  49  68  90 121 161 206 252 292
#     4  11  21  35  50  60  82 121 166 214 248 276
#     4  12  23  34  49  68  90 121 161 206 252 292
#     4   9  17  32  53  71  87 110 146 200 262 312
#     4   8  13  25  48  73  93 114 147 191 231 267
#     4   9  17  32  53  71  87 110 146 200 262 312
#
# _framework density 15.985991
#
# number of rings (size 3 to 8) (size 9 to 14) (size 15 to 20)
#    0.000    2.000    3.750    2.625    0.000    4.000 
#    0.000    3.750    0.000    0.000    0.000    0.000 
#    0.000    0.000    0.000    9.000    0.000   20.500 
#
# Total GULP energy -396633.402695 kJ/mol
# GULP energy per Si atom -12394.793834 kJ/mol
# Density = 1.594961 g / cm^3
# Si number density = 15.985991 Si / 1000 Ang^3
#
#
#
# Elastic Constant Matrix: (Units=GPa)
#
#
# Indices 1 2 3 4 5 6 
#
# 1 80.5346 34.4864 99.2524 0.0000 24.9117 0.0000
# 2 34.4864 69.9479 33.5957 0.0000 0.6910 0.0000
# 3 99.2524 33.5957 94.9210 0.0000 -34.4151 0.0000
# 4 0.0000 0.0000 0.0000 -5.2411 0.0000 2.3549
# 5 24.9117 0.6910 -34.4151 0.0000 12.9782 0.0000
# 6 0.0000 0.0000 0.0000 2.3549 0.0000 -1.7945
#
#
#
# Elastic Compliance Matrix: (Units=1/GPa)
#
#
# Indices 1 2 3 4 5 6 
#
# 1 0.000641 -0.003679 0.006660 0.000000 0.016627 0.000000
# 2 -0.003679 0.017454 -0.002773 0.000000 -0.001220 0.000000
# 3 0.006660 -0.002773 -0.000762 0.000000 -0.014657 0.000000
# 4 0.000000 0.000000 0.000000 -0.464948 0.000000 -0.610151
# 5 0.016627 -0.001220 -0.014657 0.000000 0.006334 0.000000
# 6 0.000000 0.000000 0.000000 -0.610151 0.000000 -1.357968
#
#
# Mechanical properties :
#
#
# Convention : Reuss Voigt Hill
#
# Bulk Modulus (GPa) = 56.33946 64.45250 60.39598
# Shear Modulus (GPa) = -2.78746 6.39313 1.80283
#
# Velocity S-wave (km/s) = -1.32192 2.00197 1.06311
# Velocity P-wave (km/s) = 5.74365 6.76384 6.27451
#
# Compressibility (1/GPa) = 0.01774955
#
# Stress axis : x y z
#
# Youngs Moduli (GPa) = 1560.02122 57.29265 -1312.54728
#
# Poissons Ratio (x) = 0.21079 8.74197
# Poissons Ratio (y) = 5.73966 -3.63970
# Poissons Ratio (z) = -10.39022 0.15887
#
# Static dielectric constant tensor:
#      x y z
#    x 3.073110 0.000000 -0.077550 
#    y 0.000000 3.084150 0.000000 
#    z -0.077550 0.000000 3.186900 
# 
# 
# High freq. dielectric constant tensor:
#      x y z
#    x 1.588040 0.000000 -0.021260 
#    y 0.000000 1.591310 0.000000 
#    z -0.021260 0.000000 1.619200 
# 
# From -- ./inp_files/79702.got.cif
#   From: 2010.06.25/outbox.cif.g09.slc.cpg/sg10_40_cif.got.tgz:79702.got - 2010.06.27 22:07:45.
