data_PCOD8067981
_publ_section_title
;
Structure prediction by ZEFSAII (Michael W. Deem and Ramdas Pophale) SiO2 
 PCOD8067981
Probable space group: P 2/M
;
_chemical_formula_sum "Si O2"
_cell_formula_units_Z 32
_cell_length_a 18.214946
_cell_length_b 9.610925
_cell_length_c 19.439622
_cell_angle_alpha 90.000000
_cell_angle_beta 32.396194
_cell_angle_gamma 90.000000
_cell_volume 1823.307245
_symmetry_space_group_name_H-M "P 2/M"
_symmetry_group_IT_number 10
_symmetry_cell_setting 'monoclinic'
loop_
_space_group_symop_operation_xyz
x,y,z
-x,y,-z
-x,-y,-z
x,-y,z
loop_
_atom_site_type_symbol
_atom_site_label
_atom_site_fract_x
_atom_site_fract_y
_atom_site_fract_z
Si Si1 0.211755 0.845205 0.332378
Si Si2 0.884599 0.335980 0.953917
Si Si3 0.979781 0.843678 0.400810
Si Si4 0.859523 0.337161 0.819964
Si Si5 0.803919 0.660860 0.280631
Si Si6 0.434054 0.839822 0.477454
Si Si7 0.657352 0.650644 0.864446
Si Si8 0.326981 0.661165 0.764486
O O1 0.161813 0.804172 0.448506
O O2 0.330224 0.743223 0.213641
O O3 0.092927 0.831671 0.370266
O O4 0.271796 0.000000 0.286135
O O5 0.887827 0.500000 0.960809
O O6 0.832936 0.289828 0.919128
O O7 0.040043 0.281536 0.841383
O O8 0.775519 0.278034 0.095731
O O9 0.006273 0.739629 0.316823
O O10 0.973794 0.000000 0.376118
O O11 0.890381 0.500000 0.793178
O O12 0.729291 0.290567 0.876811
O O13 0.794950 0.500000 0.313132
O O14 0.710726 0.757258 0.404318
O O15 0.753553 0.672885 0.242826
O O16 0.500000 0.840054 0.500000
O O17 0.536447 0.756966 0.344925
O O18 0.411852 0.000000 0.469766
O O19 0.724002 0.500000 0.796264
O O20 0.500000 0.634267 0.000000
O O21 0.369168 0.500000 0.745034
#
# Coordination Sequence:
#
# PCOD8067981 Si02
#       8
#     4   4   4   4   4   4   4   4
#     4   8  14  25  43  65  84 106 137 176 216 252
#     4   9  17  29  47  70  94 119 152 194 235 275
#     4   8  14  26  43  63  86 108 137 175 214 257
#     4   9  17  29  45  64  88 117 145 177 222 271
#     4   9  16  28  48  71  92 116 154 197 232 271
#     4   9  17  29  45  67  95 123 152 189 231 274
#     4   9  17  28  43  64  89 115 145 180 217 260
#     4   9  16  28  48  71  92 120 156 193 231 271
#
# _framework density 17.550525
#
# number of rings (size 3 to 8) (size 9 to 14) (size 15 to 20)
#    0.000    3.250    0.000    1.500    0.000    3.750 
#    0.000    4.375    2.750    3.000    0.000    0.000 
#    0.000    0.000    0.000    0.000    0.000    0.000 
#
# Total GULP energy -396493.884092 kJ/mol
# GULP energy per Si atom -12390.433878 kJ/mol
# Density = 1.751058 g / cm^3
# Si number density = 17.550525 Si / 1000 Ang^3
#
#
#
# Elastic Constant Matrix: (Units=GPa)
#
#
# Indices 1 2 3 4 5 6 
#
# 1 38.3403 23.1928 37.8193 0.0000 6.4594 0.0000
# 2 23.1928 76.8357 68.0913 0.0000 6.1743 0.0000
# 3 37.8193 68.0913 148.0275 0.0000 7.5319 0.0000
# 4 0.0000 0.0000 0.0000 97.4628 0.0000 28.1357
# 5 6.4594 6.1743 7.5319 0.0000 17.7473 0.0000
# 6 0.0000 0.0000 0.0000 28.1357 0.0000 18.7743
#
#
#
# Elastic Compliance Matrix: (Units=1/GPa)
#
#
# Indices 1 2 3 4 5 6 
#
# 1 0.037148 -0.004192 -0.007102 0.000000 -0.009048 0.000000
# 2 -0.004192 0.022650 -0.009224 0.000000 -0.002440 0.000000
# 3 -0.007102 -0.009224 0.012794 0.000000 0.000364 0.000000
# 4 0.000000 0.000000 0.000000 0.018084 0.000000 -0.027101
# 5 -0.009048 -0.002440 0.000364 0.000000 0.060334 0.000000
# 6 0.000000 0.000000 0.000000 -0.027101 0.000000 0.093879
#
#
# Mechanical properties :
#
#
# Convention : Reuss Voigt Hill
#
# Bulk Modulus (GPa) = 31.68908 57.93445 44.81177
# Shear Modulus (GPa) = 16.86659 35.73692 26.30175
#
# Velocity S-wave (km/s) = 3.10341 4.51736 3.87541
# Velocity P-wave (km/s) = 5.56207 7.76469 6.75378
#
# Compressibility (1/GPa) = 0.03155661
#
# Stress axis : x y z
#
# Youngs Moduli (GPa) = 26.91924 44.14972 78.15972
#
# Poissons Ratio (x) = 0.18508 0.55510
# Poissons Ratio (y) = 0.11285 0.72092
# Poissons Ratio (z) = 0.19119 0.40722
#
# Static dielectric constant tensor:
#      x y z
#    x 2.940780 0.000000 0.153990 
#    y 0.000000 3.394110 0.000000 
#    z 0.153990 0.000000 3.699900 
# 
# 
# High freq. dielectric constant tensor:
#      x y z
#    x 1.638390 0.000000 0.006940 
#    y 0.000000 1.664180 0.000000 
#    z 0.006940 0.000000 1.682490 
# 
# From -- ./inp_files/86097.got.cif
#   From: 2010.06.25/outbox.cif.g09.slc.cpg/sg10_44_cif.got.tgz:86097.got - 2010.06.27 22:07:45.
