data_PCOD8067728
_publ_section_title
;
Structure prediction by ZEFSAII (Michael W. Deem and Ramdas Pophale) SiO2 
 PCOD8067728
Probable space group: P 2/M
;
_chemical_formula_sum "Si O2"
_cell_formula_units_Z 32
_cell_length_a 27.401681
_cell_length_b 8.672375
_cell_length_c 21.268685
_cell_angle_alpha 90.000000
_cell_angle_beta 18.862177
_cell_angle_gamma 90.000000
_cell_volume 1633.999542
_symmetry_space_group_name_H-M "P 2/M"
_symmetry_group_IT_number 10
_symmetry_cell_setting 'monoclinic'
loop_
_space_group_symop_operation_xyz
x,y,z
-x,y,-z
-x,-y,-z
x,-y,z
loop_
_atom_site_type_symbol
_atom_site_label
_atom_site_fract_x
_atom_site_fract_y
_atom_site_fract_z
Si Si1 0.065800 0.817349 0.014501
Si Si2 0.417931 0.182667 0.164375
Si Si3 0.454434 0.321744 0.736277
Si Si4 0.069758 0.172845 0.347024
Si Si5 0.392899 0.319618 0.953870
Si Si6 0.233682 0.182471 0.685762
Si Si7 0.844835 0.817844 0.958531
Si Si8 0.088919 0.679436 0.569861
O O1 0.126047 0.749198 0.007012
O O2 0.893856 0.763108 0.209068
O O3 0.063324 0.000000 0.019364
O O4 0.178859 0.764336 0.821620
O O5 0.506192 0.240847 0.116939
O O6 0.256798 0.259527 0.366720
O O7 0.400858 0.000000 0.186789
O O8 0.500000 0.235622 0.000000
O O9 0.431309 0.500000 0.750087
O O10 0.464612 0.290133 0.798200
O O11 0.609292 0.265473 0.517636
O O12 0.312542 0.238010 0.877986
O O13 0.000000 0.169152 0.500000
O O14 0.973473 0.290816 0.423435
O O15 0.067488 0.000000 0.320491
O O16 0.236959 0.232773 0.147149
O O17 0.372368 0.500000 0.993079
O O18 0.259043 0.000000 0.651307
O O19 0.985532 0.767358 0.745382
O O20 0.838974 0.000000 0.968422
O O21 0.085074 0.500000 0.590382
#
# Coordination Sequence:
#
# PCOD8067728 Si02
#       8
#     4   4   4   4   4   4   4   4
#     4   8  18  37  63  94 121 151 202 253 298 354
#     4  11  25  44  65  90 120 156 204 257 306 364
#     4  11  24  40  57  88 127 162 202 248 301 362
#     4  11  23  40  64  91 119 156 204 253 300 356
#     4  11  24  41  61  88 124 162 202 250 304 363
#     4   9  18  38  65  91 121 158 199 249 301 356
#     4  11  22  39  63  90 120 161 208 253 301 356
#     4  12  25  41  61  90 126 162 200 248 308 368
#
# _framework density 19.583849000000001
#
# number of rings (size 3 to 8) (size 9 to 14) (size 15 to 20)
#    0.000    1.500    1.250    4.500    1.750    7.000 
#    0.000    5.625    0.000    0.000    0.000    0.000 
#    0.000    0.000    0.000    0.000    0.000    0.000 
#
# Total GULP energy -396825.570831 kJ/mol
# GULP energy per Si atom -12400.799088 kJ/mol
# Density = 1.953927 g / cm^3
# Si number density = 19.583849 Si / 1000 Ang^3
#
#
#
# Elastic Constant Matrix: (Units=GPa)
#
#
# Indices 1 2 3 4 5 6 
#
# 1 121.9472 20.3410 33.0057 0.0000 7.7412 0.0000
# 2 20.3410 58.6362 17.2013 0.0000 13.1571 0.0000
# 3 33.0057 17.2013 119.7720 0.0000 10.7415 0.0000
# 4 0.0000 0.0000 0.0000 -24.3284 0.0000 -14.0367
# 5 7.7412 13.1571 10.7415 0.0000 25.0641 0.0000
# 6 0.0000 0.0000 0.0000 -14.0367 0.0000 23.7322
#
#
#
# Elastic Compliance Matrix: (Units=1/GPa)
#
#
# Indices 1 2 3 4 5 6 
#
# 1 0.009225 -0.002426 -0.002134 0.000000 -0.000661 0.000000
# 2 -0.002426 0.020413 -0.001424 0.000000 -0.009356 0.000000
# 3 -0.002134 -0.001424 0.009376 0.000000 -0.002611 0.000000
# 4 0.000000 0.000000 0.000000 -0.030646 0.000000 -0.018126
# 5 -0.000661 -0.009356 -0.002611 0.000000 0.046132 0.000000
# 6 0.000000 0.000000 0.000000 -0.018126 0.000000 0.031416
#
#
# Mechanical properties :
#
#
# Convention : Reuss Voigt Hill
#
# Bulk Modulus (GPa) = 36.97492 49.05015 43.01253
# Shear Modulus (GPa) = 46.77314 20.21406 33.49360
#
# Velocity S-wave (km/s) = 4.89238 3.21624 4.14002
# Velocity P-wave (km/s) = 7.12988 6.23642 6.69806
#
# Compressibility (1/GPa) = 0.02704536
#
# Stress axis : x y z
#
# Youngs Moduli (GPa) = 108.40696 48.98870 106.65410
#
# Poissons Ratio (x) = 0.11882 0.22764
# Poissons Ratio (y) = 0.26294 0.15189
# Poissons Ratio (z) = 0.23138 0.06977
#
# Static dielectric constant tensor:
#      x y z
#    x 3.939870 0.000000 0.024830 
#    y 0.000000 3.638330 0.000000 
#    z 0.024830 0.000000 4.045160 
# 
# 
# High freq. dielectric constant tensor:
#      x y z
#    x 1.777180 0.000000 -0.001830 
#    y 0.000000 1.761040 0.000000 
#    z -0.001830 0.000000 1.776440 
# 
# From -- ./inp_files/86797.got.cif
#   From: 2010.06.25/outbox.cif.g09.slc.cpg/sg10_44_cif.got.tgz:86797.got - 2010.06.27 22:07:45.
