data_PCOD8067376
_publ_section_title
;
Structure prediction by ZEFSAII (Michael W. Deem and Ramdas Pophale) SiO2 
 PCOD8067376
Probable space group: P 2/M
;
_chemical_formula_sum "Si O2"
_cell_formula_units_Z 20
_cell_length_a 10.861801
_cell_length_b 11.399714
_cell_length_c 10.445200
_cell_angle_alpha 90.000000
_cell_angle_beta 49.309670
_cell_angle_gamma 90.000000
_cell_volume 980.667446
_symmetry_space_group_name_H-M "P 2/M"
_symmetry_group_IT_number 10
_symmetry_cell_setting 'monoclinic'
loop_
_space_group_symop_operation_xyz
x,y,z
-x,y,-z
-x,-y,-z
x,-y,z
loop_
_atom_site_type_symbol
_atom_site_label
_atom_site_fract_x
_atom_site_fract_y
_atom_site_fract_z
Si Si1 0.337829 0.224058 0.564905
Si Si2 0.984485 0.362341 0.157848
Si Si3 0.577998 0.140903 0.768564
Si Si4 0.916908 0.000000 0.858991
Si Si5 0.752583 0.000000 0.242930
Si Si6 0.747688 0.216091 0.899831
O O1 0.500000 0.296851 0.500000
O O2 0.345167 0.171499 0.418276
O O3 0.346606 0.118279 0.663277
O O4 0.176920 0.302015 0.678456
O O5 0.960613 0.500000 0.186407
O O6 0.149427 0.329742 0.124144
O O7 0.000000 0.321350 0.000000
O O8 0.673215 0.220892 0.808311
O O9 0.586351 0.000000 0.791049
O O10 0.391498 0.183710 0.902748
O O11 0.879983 0.113932 0.802418
O O12 0.106381 0.000000 0.749106
O O13 0.815986 0.000000 0.057488
#
# Coordination Sequence:
#
# PCOD8067376 Si02
#       6
#     4   4   4   2   2   4
#     4  12  24  38  60  95 128 158 202 257 312 365
#     4  11  25  46  67  86 117 167 218 258 299 354
#     4  11  22  38  61  97 134 163 192 247 316 381
#     4  11  18  32  59  87 121 162 200 247 301 371
#     4  11  21  31  55  92 126 153 199 250 312 368
#     4  11  21  40  62  91 125 166 206 245 304 371
#
# _framework density 20.394273999999999
#
# number of rings (size 3 to 8) (size 9 to 14) (size 15 to 20)
#    0.000    0.800    5.000    4.500    0.000    1.200 
#    0.000    7.000    0.000    0.000    0.000    0.000 
#    0.000    0.000    0.000    0.000    0.000    0.000 
#
# Total GULP energy -247875.063887 kJ/mol
# GULP energy per Si atom -12393.753194 kJ/mol
# Density = 2.034786 g / cm^3
# Si number density = 20.394274 Si / 1000 Ang^3
#
#
#
# Elastic Constant Matrix: (Units=GPa)
#
#
# Indices 1 2 3 4 5 6 
#
# 1 111.4227 35.0144 39.7914 0.0000 -24.4909 0.0000
# 2 35.0144 76.7292 35.8292 0.0000 -5.8039 0.0000
# 3 39.7914 35.8292 101.1358 0.0000 -7.5860 0.0000
# 4 0.0000 0.0000 0.0000 19.8973 0.0000 4.7196
# 5 -24.4909 -5.8039 -7.5860 0.0000 29.3537 0.0000
# 6 0.0000 0.0000 0.0000 4.7196 0.0000 25.5059
#
#
#
# Elastic Compliance Matrix: (Units=1/GPa)
#
#
# Indices 1 2 3 4 5 6 
#
# 1 0.013464 -0.003929 -0.003183 0.000000 0.009634 0.000000
# 2 -0.003929 0.016846 -0.004505 0.000000 -0.001112 0.000000
# 3 -0.003183 -0.004505 0.012717 0.000000 -0.000260 0.000000
# 4 0.000000 0.000000 0.000000 0.052565 0.000000 -0.009727
# 5 0.009634 -0.001112 -0.000260 0.000000 0.041818 0.000000
# 6 0.000000 0.000000 0.000000 -0.009727 0.000000 0.041006
#
#
# Mechanical properties :
#
#
# Convention : Reuss Voigt Hill
#
# Bulk Modulus (GPa) = 50.52665 56.72864 53.62765
# Shear Modulus (GPa) = 24.00993 26.86153 25.43573
#
# Velocity S-wave (km/s) = 3.43489 3.63314 3.53540
# Velocity P-wave (km/s) = 6.36867 6.74359 6.55881
#
# Compressibility (1/GPa) = 0.01979153
#
# Stress axis : x y z
#
# Youngs Moduli (GPa) = 74.27385 59.36285 78.63791
#
# Poissons Ratio (x) = 0.23324 0.25028
# Poissons Ratio (y) = 0.29183 0.35429
# Poissons Ratio (z) = 0.23639 0.26745
#
# Static dielectric constant tensor:
#      x y z
#    x 3.971920 0.000000 -0.227140 
#    y 0.000000 3.439050 0.000000 
#    z -0.227140 0.000000 3.738970 
# 
# 
# High freq. dielectric constant tensor:
#      x y z
#    x 1.819570 0.000000 -0.012010 
#    y 0.000000 1.759860 0.000000 
#    z -0.012010 0.000000 1.803830 
# 
# From -- ./inp_files/46446.got.cif
#   From: 2010.06.25/outbox.cif.g09.slc.cpg/sg10_24_cif.got.tgz:46446.got - 2010.06.27 22:07:45.
