data_PCOD8067147
_publ_section_title
;
Structure prediction by ZEFSAII (Michael W. Deem and Ramdas Pophale) SiO2 
 PCOD8067147
Probable space group: P 2/M
;
_chemical_formula_sum "Si O2"
_cell_formula_units_Z 26
_cell_length_a 13.949794
_cell_length_b 15.408975
_cell_length_c 9.308497
_cell_angle_alpha 90.000000
_cell_angle_beta 43.284556
_cell_angle_gamma 90.000000
_cell_volume 1371.847868
_symmetry_space_group_name_H-M "P 2/M"
_symmetry_group_IT_number 10
_symmetry_cell_setting 'monoclinic'
loop_
_space_group_symop_operation_xyz
x,y,z
-x,y,-z
-x,-y,-z
x,-y,z
loop_
_atom_site_type_symbol
_atom_site_label
_atom_site_fract_x
_atom_site_fract_y
_atom_site_fract_z
Si Si1 0.500000 0.808964 0.000000
Si Si2 0.269832 0.169924 0.475014
Si Si3 0.372777 0.000000 0.835215
Si Si4 0.005033 0.261289 0.335079
Si Si5 0.651545 0.285470 0.346848
Si Si6 0.696194 0.000000 0.405831
Si Si7 0.697723 0.814391 0.018486
Si Si8 0.100962 0.595350 0.020606
O O1 0.610718 0.857124 0.772061
O O2 0.605614 0.760120 0.998079
O O3 0.322688 0.245902 0.523949
O O4 0.229640 0.084834 0.609099
O O5 0.130737 0.204493 0.550789
O O6 0.533777 0.000000 0.619238
O O7 0.279846 0.000000 0.791406
O O8 0.335667 0.084087 0.971620
O O9 0.138324 0.199343 0.175324
O O10 0.000000 0.298416 0.500000
O O11 0.018812 0.346032 0.223135
O O12 0.500000 0.329988 0.500000
O O13 0.759062 0.359646 0.187079
O O14 0.651845 0.207985 0.229983
O O15 0.136850 0.500000 0.046717
O O16 0.000000 0.581739 0.000000
#
# Coordination Sequence:
#
# PCOD8067147 Si02
#       8
#     2   4   2   4   4   2   4   4
#     4  12  22  37  58  88 121 154 206 242 297 346
#     4  12  23  39  59  89 117 164 201 249 291 342
#     4  11  20  37  56  83 117 156 209 252 287 340
#     4  11  24  42  60  88 125 155 192 240 305 362
#     4  11  20  38  63  88 118 155 202 244 290 344
#     4  11  22  35  60  81 119 158 209 248 297 330
#     4  11  23  36  59  87 115 159 205 246 286 347
#     4  10  22  40  65  93 116 150 196 241 294 363
#
# _framework density 18.952539000000002
#
# number of rings (size 3 to 8) (size 9 to 14) (size 15 to 20)
#    0.000    0.923    7.692    0.000    0.000    2.462 
#    0.000    1.538    0.000    0.000    0.000    4.308 
#    0.000    0.000    0.000    0.000    0.000    0.000 
#
# Total GULP energy -322159.024567 kJ/mol
# GULP energy per Si atom -12390.731714 kJ/mol
# Density = 1.890940 g / cm^3
# Si number density = 18.952539 Si / 1000 Ang^3
#
#
#
# Elastic Constant Matrix: (Units=GPa)
#
#
# Indices 1 2 3 4 5 6 
#
# 1 123.6096 30.5427 39.5231 0.0000 -2.8150 0.0000
# 2 30.5427 105.4570 26.9531 0.0000 -4.9532 0.0000
# 3 39.5231 26.9531 92.1356 0.0000 0.1297 0.0000
# 4 0.0000 0.0000 0.0000 9.3981 0.0000 -2.4359
# 5 -2.8150 -4.9532 0.1297 0.0000 36.0037 0.0000
# 6 0.0000 0.0000 0.0000 -2.4359 0.0000 17.5140
#
#
#
# Elastic Compliance Matrix: (Units=1/GPa)
#
#
# Indices 1 2 3 4 5 6 
#
# 1 0.009722 -0.001865 -0.003626 0.000000 0.000517 0.000000
# 2 -0.001865 0.010680 -0.002326 0.000000 0.001332 0.000000
# 3 -0.003626 -0.002326 0.013090 0.000000 -0.000651 0.000000
# 4 0.000000 0.000000 0.000000 0.110384 0.000000 0.015352
# 5 0.000517 0.001332 -0.000651 0.000000 0.028001 0.000000
# 6 0.000000 0.000000 0.000000 0.015352 0.000000 0.059232
#
#
# Mechanical properties :
#
#
# Convention : Reuss Voigt Hill
#
# Bulk Modulus (GPa) = 55.99493 57.24890 56.62192
# Shear Modulus (GPa) = 19.78673 27.52871 23.65772
#
# Velocity S-wave (km/s) = 3.23463 3.81531 3.53691
# Velocity P-wave (km/s) = 6.59995 7.04846 6.82789
#
# Compressibility (1/GPa) = 0.01785876
#
# Stress axis : x y z
#
# Youngs Moduli (GPa) = 102.86226 93.63567 76.39306
#
# Poissons Ratio (x) = 0.17461 0.27696
# Poissons Ratio (y) = 0.19181 0.17770
# Poissons Ratio (z) = 0.37293 0.21781
#
# Static dielectric constant tensor:
#      x y z
#    x 3.744230 0.000000 0.140870 
#    y 0.000000 3.272550 0.000000 
#    z 0.140870 0.000000 3.533110 
# 
# 
# High freq. dielectric constant tensor:
#      x y z
#    x 1.757810 0.000000 0.003160 
#    y 0.000000 1.697640 0.000000 
#    z 0.003160 0.000000 1.744170 
# 
# From -- ./inp_files/19670.got.cif
#   From: 2010.06.25/outbox.cif.g09.slc.cpg/sg10_10_cif.got.tgz:19670.got - 2010.06.27 22:07:45.
