data_PCOD8067434
_publ_section_title
;
Structure prediction by ZEFSAII (Michael W. Deem and Ramdas Pophale) SiO2 
 PCOD8067434
Probable space group: P 2/M
;
_chemical_formula_sum "Si O2"
_cell_formula_units_Z 28
_cell_length_a 19.296890
_cell_length_b 8.879072
_cell_length_c 14.271119
_cell_angle_alpha 90.000000
_cell_angle_beta 137.693462
_cell_angle_gamma 90.000000
_cell_volume 1645.851024
_symmetry_space_group_name_H-M "P 2/M"
_symmetry_group_IT_number 10
_symmetry_cell_setting 'monoclinic'
loop_
_space_group_symop_operation_xyz
x,y,z
-x,y,-z
-x,-y,-z
x,-y,z
loop_
_atom_site_type_symbol
_atom_site_label
_atom_site_fract_x
_atom_site_fract_y
_atom_site_fract_z
Si Si1 0.000008 0.822991 0.890921
Si Si2 0.880060 0.825840 0.485831
Si Si3 0.613366 0.678810 0.718278
Si Si4 0.119937 0.174161 0.725708
Si Si5 0.386615 0.678812 0.491515
Si Si6 0.809973 0.677986 0.595272
Si Si7 0.190036 0.677986 0.975334
O O1 0.100765 0.754778 0.945154
O O2 0.899282 0.754722 0.743652
O O3 0.999984 0.000000 0.872663
O O4 0.000000 0.781589 0.000000
O O5 0.850793 0.778731 0.350793
O O6 0.814459 0.724263 0.490934
O O7 0.999998 0.796026 0.624448
O O8 0.853984 0.000000 0.476853
O O9 0.614346 0.500000 0.718194
O O10 0.499988 0.735943 0.637578
O O11 0.636672 0.738784 0.636681
O O12 0.700930 0.738381 0.876092
O O13 0.185532 0.275748 0.862005
O O14 0.146013 0.000000 0.768882
O O15 0.385616 0.500000 0.489468
O O16 0.299039 0.738410 0.474171
O O17 0.821398 0.500000 0.616533
O O18 0.178583 0.500000 0.973733
#
# Coordination Sequence:
#
# PCOD8067434 Si02
#       7
#     4   4   4   4   4   4   4
#     4  11  23  35  46  65 100 141 167 188 234 297
#     4   9  18  33  51  69  95 133 168 196 236 295
#     4   8  15  29  48  70  98 131 163 196 239 289
#     4   9  18  33  51  69  95 133 168 196 236 295
#     4   8  15  29  48  70  98 131 163 196 239 289
#     4  11  20  30  50  78 101 123 159 208 250 286
#     4  11  20  30  50  78 101 123 159 208 250 286
#
# _framework density 17.012474999999998
#
# number of rings (size 3 to 8) (size 9 to 14) (size 15 to 20)
#    0.000    2.429    1.429    3.857    0.000    2.857 
#    0.000    1.429    0.000    4.286    0.000   16.000 
#    0.000    0.000    0.000    0.000    0.000    0.000 
#
# Total GULP energy -347132.268621 kJ/mol
# GULP energy per Si atom -12397.581022 kJ/mol
# Density = 1.697375 g / cm^3
# Si number density = 17.012475 Si / 1000 Ang^3
#
#
#
# Elastic Constant Matrix: (Units=GPa)
#
#
# Indices 1 2 3 4 5 6 
#
# 1 133.9935 40.5596 82.8694 0.0000 -0.4471 0.0000
# 2 40.5596 44.8476 38.0822 0.0000 -4.4775 0.0000
# 3 82.8694 38.0822 133.8213 0.0000 0.0644 0.0000
# 4 0.0000 0.0000 0.0000 9.4184 0.0000 -15.0542
# 5 -0.4471 -4.4775 0.0644 0.0000 26.3622 0.0000
# 6 0.0000 0.0000 0.0000 -15.0542 0.0000 17.7771
#
#
#
# Elastic Compliance Matrix: (Units=1/GPa)
#
#
# Indices 1 2 3 4 5 6 
#
# 1 0.013499 -0.006860 -0.006406 0.000000 -0.000921 0.000000
# 2 -0.006860 0.033567 -0.005307 0.000000 0.005598 0.000000
# 3 -0.006406 -0.005307 0.012951 0.000000 -0.001042 0.000000
# 4 0.000000 0.000000 0.000000 -0.300307 0.000000 -0.254308
# 5 -0.000921 0.005598 -0.001042 0.000000 0.038871 0.000000
# 6 0.000000 0.000000 0.000000 -0.254308 0.000000 -0.159103
#
#
# Mechanical properties :
#
#
# Convention : Reuss Voigt Hill
#
# Bulk Modulus (GPa) = 43.72628 70.63162 57.17895
# Shear Modulus (GPa) = -15.83513 20.78829 2.47658
#
# Velocity S-wave (km/s) = -3.05420 3.49942 1.20785
# Velocity P-wave (km/s) = 3.64976 7.61155 5.96893
#
# Compressibility (1/GPa) = 0.02286954
#
# Stress axis : x y z
#
# Youngs Moduli (GPa) = 74.08199 29.79118 77.21626
#
# Poissons Ratio (x) = 0.20436 0.49468
# Poissons Ratio (y) = 0.50819 0.40979
# Poissons Ratio (z) = 0.47460 0.15810
#
# Static dielectric constant tensor:
#      x y z
#    x 3.377430 0.000000 0.023610 
#    y 0.000000 2.962460 0.000000 
#    z 0.023610 0.000000 3.390350 
# 
# 
# High freq. dielectric constant tensor:
#      x y z
#    x 1.655090 0.000000 -0.008210 
#    y 0.000000 1.636790 0.000000 
#    z -0.008210 0.000000 1.650540 
# 
# From -- ./inp_files/28948.got.cif
#   From: 2010.06.25/outbox.cif.g09.slc.cpg/sg10_15_cif.got.tgz:28948.got - 2010.06.27 22:07:45.
