data_PCOD8067137
_publ_section_title
;
Structure prediction by ZEFSAII (Michael W. Deem and Ramdas Pophale) SiO2 
 PCOD8067137
Probable space group: P 2/M
;
_chemical_formula_sum "Si O2"
_cell_formula_units_Z 20
_cell_length_a 9.433084
_cell_length_b 8.917637
_cell_length_c 24.555719
_cell_angle_alpha 90.000000
_cell_angle_beta 28.591449
_cell_angle_gamma 90.000000
_cell_volume 988.537813
_symmetry_space_group_name_H-M "P 2/M"
_symmetry_group_IT_number 10
_symmetry_cell_setting 'monoclinic'
loop_
_space_group_symop_operation_xyz
x,y,z
-x,y,-z
-x,-y,-z
x,-y,z
loop_
_atom_site_type_symbol
_atom_site_label
_atom_site_fract_x
_atom_site_fract_y
_atom_site_fract_z
Si Si1 0.841406 0.171540 0.398077
Si Si2 0.149988 0.325237 0.788755
Si Si3 0.764585 0.669447 0.531996
Si Si4 0.739381 0.674483 0.827933
Si Si5 0.113015 0.177258 0.020670
O O1 0.500000 0.193302 0.500000
O O2 0.894515 0.224004 0.441658
O O3 0.026900 0.276267 0.295970
O O4 0.945438 0.000000 0.356442
O O5 0.177955 0.500000 0.793311
O O6 0.450172 0.267187 0.659085
O O7 0.872820 0.293231 0.842627
O O8 0.110975 0.237630 0.858208
O O9 0.721619 0.500000 0.524145
O O10 0.000000 0.672596 0.500000
O O11 0.669930 0.500000 0.843775
O O12 0.440071 0.765097 0.922191
O O13 0.115800 0.000000 0.022228
O O14 0.000000 0.234193 0.000000
#
# Coordination Sequence:
#
# PCOD8067137 Si02
#       5
#     4   4   4   4   4
#     4  11  23  39  62  94 129 164 203 247 306 368
#     4  10  22  41  64  92 123 160 209 255 301 361
#     4  10  22  40  63  93 127 165 207 250 302 361
#     4  11  23  41  67  92 121 161 208 258 304 359
#     4  11  26  44  62  90 126 161 201 253 313 371
#
# _framework density 20.231902000000002
#
# number of rings (size 3 to 8) (size 9 to 14) (size 15 to 20)
#    0.000    1.400    2.000    2.400    2.800    7.600 
#    0.000    0.000    0.000    0.000    0.000    0.000 
#    0.000    0.000    0.000    0.000    0.000    0.000 
#
# Total GULP energy -248117.440621 kJ/mol
# GULP energy per Si atom -12405.872031 kJ/mol
# Density = 2.018585 g / cm^3
# Si number density = 20.231902 Si / 1000 Ang^3
#
#
#
# Elastic Constant Matrix: (Units=GPa)
#
#
# Indices 1 2 3 4 5 6 
#
# 1 98.0496 39.9826 26.2679 0.0000 16.0721 0.0000
# 2 39.9826 46.3297 20.7373 0.0000 10.5922 0.0000
# 3 26.2679 20.7373 66.7084 0.0000 14.3190 0.0000
# 4 0.0000 0.0000 0.0000 -16.4406 0.0000 0.3362
# 5 16.0721 10.5922 14.3190 0.0000 39.1721 0.0000
# 6 0.0000 0.0000 0.0000 0.3362 0.0000 27.0121
#
#
#
# Elastic Compliance Matrix: (Units=1/GPa)
#
#
# Indices 1 2 3 4 5 6 
#
# 1 0.016273 -0.012587 -0.001945 0.000000 -0.002562 0.000000
# 2 -0.012587 0.035484 -0.005559 0.000000 -0.002398 0.000000
# 3 -0.001945 -0.005559 0.018437 0.000000 -0.004438 0.000000
# 4 0.000000 0.000000 0.000000 -0.060810 0.000000 0.000757
# 5 -0.002562 -0.002398 -0.004438 0.000000 0.028850 0.000000
# 6 0.000000 0.000000 0.000000 0.000757 0.000000 0.037011
#
#
# Mechanical properties :
#
#
# Convention : Reuss Voigt Hill
#
# Bulk Modulus (GPa) = 33.32100 42.78482 38.05291
# Shear Modulus (GPa) = 39.86220 18.22206 29.04213
#
# Velocity S-wave (km/s) = 4.44358 3.00436 3.79286
# Velocity P-wave (km/s) = 6.54466 5.76437 6.16687
#
# Compressibility (1/GPa) = 0.03001110
#
# Stress axis : x y z
#
# Youngs Moduli (GPa) = 61.45264 28.18188 54.23761
#
# Poissons Ratio (x) = 0.35473 0.10549
# Poissons Ratio (y) = 0.77351 0.30153
# Poissons Ratio (z) = 0.11952 0.15667
#
# Static dielectric constant tensor:
#      x y z
#    x 3.767230 0.000000 0.059240 
#    y 0.000000 3.706150 0.000000 
#    z 0.059240 0.000000 3.842320 
# 
# 
# High freq. dielectric constant tensor:
#      x y z
#    x 1.798760 0.000000 0.002610 
#    y 0.000000 1.789800 0.000000 
#    z 0.002610 0.000000 1.801910 
# 
# From -- ./inp_files/22112.got.cif
#   From: 2010.06.25/outbox.cif.g09.slc.cpg/sg10_12_cif.got.tgz:22112.got - 2010.06.27 22:07:45.
