data_PCOD8067272
_publ_section_title
;
Structure prediction by ZEFSAII (Michael W. Deem and Ramdas Pophale) SiO2 
 PCOD8067272
Probable space group: P 2/M
;
_chemical_formula_sum "Si O2"
_cell_formula_units_Z 28
_cell_length_a 8.845643
_cell_length_b 8.402697
_cell_length_c 22.192953
_cell_angle_alpha 90.000000
_cell_angle_beta 53.402186
_cell_angle_gamma 90.000000
_cell_volume 1324.318137
_symmetry_space_group_name_H-M "P 2/M"
_symmetry_group_IT_number 10
_symmetry_cell_setting 'monoclinic'
loop_
_space_group_symop_operation_xyz
x,y,z
-x,y,-z
-x,-y,-z
x,-y,z
loop_
_atom_site_type_symbol
_atom_site_label
_atom_site_fract_x
_atom_site_fract_y
_atom_site_fract_z
Si Si1 0.492962 0.816680 0.570808
Si Si2 0.379085 0.813883 0.862599
Si Si3 0.683430 0.315878 0.992988
Si Si4 0.808396 0.683502 0.577227
Si Si5 0.780545 0.817121 0.713032
Si Si6 0.948352 0.816294 0.150322
Si Si7 0.884270 0.318792 0.293842
O O1 0.500000 0.762110 0.500000
O O2 0.637176 0.706418 0.572195
O O3 0.284508 0.795848 0.646566
O O4 0.553225 0.000000 0.563395
O O5 0.349836 0.710448 0.928786
O O6 0.579710 0.768135 0.787448
O O7 0.221737 0.762404 0.852069
O O8 0.363302 0.000000 0.882202
O O9 0.728932 0.500000 0.969856
O O10 0.500000 0.260184 0.000000
O O11 0.856422 0.209270 0.930361
O O12 0.819462 0.500000 0.594308
O O13 0.775258 0.792287 0.642984
O O14 0.000000 0.739314 0.500000
O O15 0.938083 0.708027 0.705405
O O16 0.826615 0.000000 0.716457
O O17 0.944570 0.712130 0.211163
O O18 0.928338 0.000000 0.173133
O O19 0.817760 0.500000 0.316677
#
# Coordination Sequence:
#
# PCOD8067272 Si02
#       7
#     4   4   4   4   4   4   4
#     4  11  24  42  65  92 123 163 210 255 304 366
#     4  10  23  41  62  89 119 156 201 250 302 360
#     4  11  24  40  60  89 123 159 201 249 303 363
#     4  11  24  41  63  93 128 164 204 254 311 366
#     4  11  23  41  65  91 123 163 207 253 305 368
#     4  11  23  41  64  90 122 159 204 252 302 365
#     4  12  25  41  63  92 126 161 203 255 311 367
#
# _framework density 21.142956999999999
#
# number of rings (size 3 to 8) (size 9 to 14) (size 15 to 20)
#    0.000    1.000    0.000    6.429    0.000   13.143 
#    0.000    0.000    0.000    0.000    0.000    0.000 
#    0.000    0.000    0.000    0.000    0.000    0.000 
#
# Total GULP energy -347483.883990 kJ/mol
# GULP energy per Si atom -12410.138714 kJ/mol
# Density = 2.109483 g / cm^3
# Si number density = 21.142957 Si / 1000 Ang^3
#
#
#
# Elastic Constant Matrix: (Units=GPa)
#
#
# Indices 1 2 3 4 5 6 
#
# 1 138.3555 19.4591 46.5124 0.0000 -3.0939 0.0000
# 2 19.4591 50.7315 16.0218 0.0000 2.9093 0.0000
# 3 46.5124 16.0218 135.5056 0.0000 -1.6209 0.0000
# 4 0.0000 0.0000 0.0000 44.9699 0.0000 12.1777
# 5 -3.0939 2.9093 -1.6209 0.0000 43.5994 0.0000
# 6 0.0000 0.0000 0.0000 12.1777 0.0000 40.5219
#
#
#
# Elastic Compliance Matrix: (Units=1/GPa)
#
#
# Indices 1 2 3 4 5 6 
#
# 1 0.008465 -0.002462 -0.002607 0.000000 0.000668 0.000000
# 2 -0.002462 0.021285 -0.001691 0.000000 -0.001658 0.000000
# 3 -0.002607 -0.001691 0.008477 0.000000 0.000243 0.000000
# 4 0.000000 0.000000 0.000000 0.024207 0.000000 -0.007275
# 5 0.000668 -0.001658 0.000243 0.000000 0.023103 0.000000
# 6 0.000000 0.000000 0.000000 -0.007275 0.000000 0.026864
#
#
# Mechanical properties :
#
#
# Convention : Reuss Voigt Hill
#
# Bulk Modulus (GPa) = 40.47332 54.28657 47.37995
# Shear Modulus (GPa) = 37.26931 41.99151 39.63041
#
# Velocity S-wave (km/s) = 4.20304 4.46138 4.33413
# Velocity P-wave (km/s) = 6.53746 7.22981 6.89233
#
# Compressibility (1/GPa) = 0.02470763
#
# Stress axis : x y z
#
# Youngs Moduli (GPa) = 118.12970 46.98081 117.96093
#
# Poissons Ratio (x) = 0.11567 0.30748
# Poissons Ratio (y) = 0.29085 0.19952
# Poissons Ratio (z) = 0.30792 0.07946
#
# Static dielectric constant tensor:
#      x y z
#    x 3.905480 0.000000 -0.028320 
#    y 0.000000 3.641100 0.000000 
#    z -0.028320 0.000000 3.841330 
# 
# 
# High freq. dielectric constant tensor:
#      x y z
#    x 1.844160 0.000000 -0.000480 
#    y 0.000000 1.829960 0.000000 
#    z -0.000480 0.000000 1.842830 
# 
# From -- ./inp_files/82178.got.cif
#   From: 2010.06.25/outbox.cif.g09.slc.cpg/sg10_42_cif.got.tgz:82178.got - 2010.06.27 22:07:45.
