data_PCOD8067898
_publ_section_title
;
Structure prediction by ZEFSAII (Michael W. Deem and Ramdas Pophale) SiO2 
 PCOD8067898
Probable space group: P 2/M
;
_chemical_formula_sum "Si O2"
_cell_formula_units_Z 24
_cell_length_a 16.204721
_cell_length_b 10.113251
_cell_length_c 30.822263
_cell_angle_alpha 90.000000
_cell_angle_beta 17.991919
_cell_angle_gamma 90.000000
_cell_volume 1560.237342
_symmetry_space_group_name_H-M "P 2/M"
_symmetry_group_IT_number 10
_symmetry_cell_setting 'monoclinic'
loop_
_space_group_symop_operation_xyz
x,y,z
-x,y,-z
-x,-y,-z
x,-y,z
loop_
_atom_site_type_symbol
_atom_site_label
_atom_site_fract_x
_atom_site_fract_y
_atom_site_fract_z
Si Si1 0.318216 0.647299 0.459032
Si Si2 0.702514 0.657255 0.434282
Si Si3 0.317835 0.852182 0.389562
Si Si4 0.317839 0.852196 0.292575
Si Si5 0.297367 0.657242 0.136842
Si Si6 0.317942 0.647307 0.222870
O O1 0.431759 0.500000 0.392920
O O2 0.400321 0.696223 0.466169
O O3 0.440866 0.748349 0.362390
O O4 0.000129 0.643111 0.615262
O O5 0.500000 0.717691 0.500000
O O6 0.713285 0.500000 0.425423
O O7 0.999947 0.714743 0.277007
O O8 0.412366 0.812789 0.293800
O O9 0.000007 0.848843 0.550742
O O10 0.418994 0.000000 0.350436
O O11 0.440738 0.748296 0.196782
O O12 0.419001 0.000000 0.230531
O O13 0.286553 0.500000 0.138768
O O14 0.400123 0.696218 0.133591
O O15 0.500000 0.717739 0.000000
O O16 0.431470 0.500000 0.175444
#
# Coordination Sequence:
#
# PCOD8067898 Si02
#       6
#     4   4   4   4   4   4
#     4   8  13  20  30  45  64  86 112 140 169 201
#     4   8  13  21  33  49  69  92 117 144 173 206
#     4   8  13  20  29  42  62  88 114 137 165 205
#     4   8  13  20  29  42  62  88 114 137 165 205
#     4   8  13  21  33  49  69  92 117 144 173 206
#     4   8  13  20  30  45  64  86 112 140 169 201
#
# _framework density 15.382274000000001
#
# number of rings (size 3 to 8) (size 9 to 14) (size 15 to 20)
#    0.000    4.000    0.000    3.000    0.000    0.667 
#    0.000    3.333    0.000    1.000    0.000    0.000 
#    0.000    1.333    0.000   16.667    0.000   19.333 
#
# Total GULP energy -297331.153943 kJ/mol
# GULP energy per Si atom -12388.798081 kJ/mol
# Density = 1.534726 g / cm^3
# Si number density = 15.382274 Si / 1000 Ang^3
#
#
#
# Elastic Constant Matrix: (Units=GPa)
#
#
# Indices 1 2 3 4 5 6 
#
# 1 129.9386 66.9698 41.0339 0.0000 31.2500 0.0000
# 2 66.9698 70.6213 26.5706 0.0000 21.7703 0.0000
# 3 41.0339 26.5706 38.3738 0.0000 18.0718 0.0000
# 4 0.0000 0.0000 0.0000 4.6494 0.0000 2.3690
# 5 31.2500 21.7703 18.0718 0.0000 22.5097 0.0000
# 6 0.0000 0.0000 0.0000 2.3690 0.0000 9.0164
#
#
#
# Elastic Compliance Matrix: (Units=1/GPa)
#
#
# Indices 1 2 3 4 5 6 
#
# 1 0.018019 -0.011988 -0.007472 0.000000 -0.007423 0.000000
# 2 -0.011988 0.029667 -0.003293 0.000000 -0.009405 0.000000
# 3 -0.007472 -0.003293 0.048149 0.000000 -0.025098 0.000000
# 4 0.000000 0.000000 0.000000 0.248325 0.000000 -0.065245
# 5 -0.007423 -0.009405 -0.025098 0.000000 0.083977 0.000000
# 6 0.000000 0.000000 0.000000 -0.065245 0.000000 0.128051
#
#
# Mechanical properties :
#
#
# Convention : Reuss Voigt Hill
#
# Bulk Modulus (GPa) = 19.86923 56.45357 38.16140
# Shear Modulus (GPa) = 8.08444 14.19240 11.13842
#
# Velocity S-wave (km/s) = 2.29502 3.04081 2.69384
# Velocity P-wave (km/s) = 4.46853 7.00776 5.87693
#
# Compressibility (1/GPa) = 0.05032907
#
# Stress axis : x y z
#
# Youngs Moduli (GPa) = 55.49568 33.70778 20.76868
#
# Poissons Ratio (x) = 0.40410 0.15518
# Poissons Ratio (y) = 0.66529 0.06839
# Poissons Ratio (z) = 0.41466 0.11100
#
# Static dielectric constant tensor:
#      x y z
#    x 3.221410 0.000000 0.310340 
#    y 0.000000 2.961820 0.000000 
#    z 0.310340 0.000000 2.645300 
# 
# 
# High freq. dielectric constant tensor:
#      x y z
#    x 1.589940 0.000000 0.032880 
#    y 0.000000 1.559500 0.000000 
#    z 0.032880 0.000000 1.528830 
# 
# From -- ./inp_files/45638.got.cif
#   From: 2010.06.25/outbox.cif.g09.slc.cpg/sg10_23_cif.got.tgz:45638.got - 2010.06.27 22:07:45.
