data_PCOD8067623
_publ_section_title
;
Structure prediction by ZEFSAII (Michael W. Deem and Ramdas Pophale) SiO2 
 PCOD8067623
Probable space group: P 2/M
;
_chemical_formula_sum "Si O2"
_cell_formula_units_Z 20
_cell_length_a 9.612153
_cell_length_b 22.776031
_cell_length_c 8.289225
_cell_angle_alpha 90.000000
_cell_angle_beta 31.131717
_cell_angle_gamma 90.000000
_cell_volume 938.229927
_symmetry_space_group_name_H-M "P 2/M"
_symmetry_group_IT_number 10
_symmetry_cell_setting 'monoclinic'
loop_
_space_group_symop_operation_xyz
x,y,z
-x,y,-z
-x,-y,-z
x,-y,z
loop_
_atom_site_type_symbol
_atom_site_label
_atom_site_fract_x
_atom_site_fract_y
_atom_site_fract_z
Si Si1 0.910957 0.432435 0.906031
Si Si2 0.750076 0.063483 0.861526
Si Si3 0.068829 0.817782 0.243569
Si Si4 0.595255 0.370807 0.722767
Si Si5 0.430416 0.245385 0.383452
O O1 0.847974 0.500000 0.930306
O O2 0.140768 0.410872 0.555357
O O3 0.000000 0.422607 0.000000
O O4 0.640225 0.395561 0.155532
O O5 0.821855 0.116733 0.913125
O O6 0.000000 0.053024 0.500000
O O7 0.688984 0.000000 0.008925
O O8 0.500000 0.083663 0.000000
O O9 0.000000 0.815595 0.500000
O O10 0.804499 0.803083 0.401874
O O11 0.302260 0.771318 0.978844
O O12 0.677087 0.305994 0.583503
O O13 0.500000 0.371074 0.000000
O O14 0.500000 0.252460 0.500000
#
# Coordination Sequence:
#
# PCOD8067623 Si02
#       5
#     4   4   4   4   4
#     4  11  24  43  66  92 124 160 196 239 298 363
#     4   9  17  31  55  88 120 151 193 246 298 347
#     4  11  21  38  62  89 118 153 202 252 295 347
#     4  12  25  42  64  91 121 156 203 252 297 348
#     4  12  25  41  60  85 122 162 199 243 303 365
#
# _framework density 21.316738000000001
#
# number of rings (size 3 to 8) (size 9 to 14) (size 15 to 20)
#    0.000    1.000    0.000    9.000    0.000    4.000 
#    0.000    0.000    0.000    3.600    0.000    0.000 
#    0.000    0.000    0.000    0.000    0.000    0.000 
#
# Total GULP energy -248033.107398 kJ/mol
# GULP energy per Si atom -12401.655370 kJ/mol
# Density = 2.126822 g / cm^3
# Si number density = 21.316738 Si / 1000 Ang^3
#
#
#
# Elastic Constant Matrix: (Units=GPa)
#
#
# Indices 1 2 3 4 5 6 
#
# 1 49.0815 33.3154 13.8185 0.0000 2.5824 0.0000
# 2 33.3154 109.4324 27.6331 0.0000 11.0258 0.0000
# 3 13.8185 27.6331 96.6369 0.0000 -17.6204 0.0000
# 4 0.0000 0.0000 0.0000 24.0360 0.0000 -10.8615
# 5 2.5824 11.0258 -17.6204 0.0000 30.8243 0.0000
# 6 0.0000 0.0000 0.0000 -10.8615 0.0000 37.9701
#
#
#
# Elastic Compliance Matrix: (Units=1/GPa)
#
#
# Indices 1 2 3 4 5 6 
#
# 1 0.025904 -0.007417 -0.001669 0.000000 -0.000471 0.000000
# 2 -0.007417 0.012972 -0.003775 0.000000 -0.006176 0.000000
# 3 -0.001669 -0.003775 0.013327 0.000000 0.009108 0.000000
# 4 0.000000 0.000000 0.000000 0.047781 0.000000 0.013668
# 5 -0.000471 -0.006176 0.009108 0.000000 0.039897 0.000000
# 6 0.000000 0.000000 0.000000 0.013668 0.000000 0.030246
#
#
# Mechanical properties :
#
#
# Convention : Reuss Voigt Hill
#
# Bulk Modulus (GPa) = 37.76420 44.96499 41.36459
# Shear Modulus (GPa) = 24.42900 30.59165 27.51033
#
# Velocity S-wave (km/s) = 3.38894 3.79238 3.59632
# Velocity P-wave (km/s) = 5.75043 6.34947 6.05736
#
# Compressibility (1/GPa) = 0.02648011
#
# Stress axis : x y z
#
# Youngs Moduli (GPa) = 38.60476 77.09156 75.03666
#
# Poissons Ratio (x) = 0.57180 0.12524
# Poissons Ratio (y) = 0.28634 0.28325
# Poissons Ratio (z) = 0.06443 0.29100
#
# Static dielectric constant tensor:
#      x y z
#    x 3.648050 0.000000 -0.179410 
#    y 0.000000 4.488740 0.000000 
#    z -0.179410 0.000000 3.771370 
# 
# 
# High freq. dielectric constant tensor:
#      x y z
#    x 1.812780 0.000000 -0.021220 
#    y 0.000000 1.856580 0.000000 
#    z -0.021220 0.000000 1.848550 
# 
# From -- ./inp_files/20599.got.cif
#   From: 2010.06.25/outbox.cif.g09.slc.cpg/sg10_11_cif.got.tgz:20599.got - 2010.06.27 22:07:45.
