data_PCOD8067940
_publ_section_title
;
Structure prediction by ZEFSAII (Michael W. Deem and Ramdas Pophale) SiO2 
 PCOD8067940
Probable space group: P 2/M
;
_chemical_formula_sum "Si O2"
_cell_formula_units_Z 32
_cell_length_a 26.447924
_cell_length_b 9.417757
_cell_length_c 21.045386
_cell_angle_alpha 90.000000
_cell_angle_beta 158.820354
_cell_angle_gamma 90.000000
_cell_volume 1893.895123
_symmetry_space_group_name_H-M "P 2/M"
_symmetry_group_IT_number 10
_symmetry_cell_setting 'monoclinic'
loop_
_space_group_symop_operation_xyz
x,y,z
-x,y,-z
-x,-y,-z
x,-y,z
loop_
_atom_site_type_symbol
_atom_site_label
_atom_site_fract_x
_atom_site_fract_y
_atom_site_fract_z
Si Si1 0.270133 0.333096 0.437975
Si Si2 0.702421 0.835715 0.784095
Si Si3 0.903510 0.331463 0.579703
Si Si4 0.102853 0.330369 0.567826
Si Si5 0.402987 0.164261 0.479648
Si Si6 0.029967 0.333184 0.856689
Si Si7 0.409948 0.669160 0.953187
Si Si8 0.617068 0.331419 0.298798
O O1 0.283610 0.500000 0.441797
O O2 0.319624 0.254606 0.433256
O O3 0.372534 0.282673 0.615598
O O4 0.109584 0.293706 0.266952
O O5 0.670892 0.806648 0.673752
O O6 0.566669 0.791194 0.666823
O O7 0.736839 0.000000 0.835975
O O8 0.836351 0.745189 0.959415
O O9 0.895584 0.500000 0.570380
O O10 0.946233 0.276415 0.559582
O O11 0.749758 0.270833 0.415463
O O12 0.011336 0.283950 0.761181
O O13 0.103380 0.500000 0.569926
O O14 0.254745 0.269474 0.764047
O O15 0.000000 0.266567 0.500000
O O16 0.391498 0.000000 0.484947
O O17 0.058115 0.500000 0.893992
O O18 0.407561 0.500000 0.948414
O O19 0.500000 0.727992 0.000000
O O20 0.476685 0.721994 0.098564
O O21 0.625034 0.500000 0.306627
#
# Coordination Sequence:
#
# PCOD8067940 Si02
#       8
#     4   4   4   4   4   4   4   4
#     4   9  18  31  47  71 102 128 152 191 238 280
#     4   9  19  36  54  70  91 122 159 194 230 278
#     4   8  13  24  38  53  83 122 150 179 224 271
#     4   9  15  21  30  49  79 113 149 188 224 257
#     4   9  19  36  54  70  92 122 155 195 237 275
#     4   9  18  31  48  71  99 129 157 188 232 284
#     4   9  13  19  34  51  71 111 157 184 211 261
#     4   8  13  23  38  56  82 117 153 184 219 268
#
# _framework density 16.896394000000001
#
# number of rings (size 3 to 8) (size 9 to 14) (size 15 to 20)
#    0.000    3.250    1.250    2.250    0.000    2.000 
#    2.250    3.750    0.000    0.000    0.000    0.000 
#    0.000    2.000    0.000    0.125    0.000    0.000 
#
# Total GULP energy -396496.337173 kJ/mol
# GULP energy per Si atom -12390.510537 kJ/mol
# Density = 1.685794 g / cm^3
# Si number density = 16.896394 Si / 1000 Ang^3
#
#
#
# Elastic Constant Matrix: (Units=GPa)
#
#
# Indices 1 2 3 4 5 6 
#
# 1 135.3798 39.3413 72.8771 0.0000 3.9009 0.0000
# 2 39.3413 30.1442 41.3158 0.0000 -0.4386 0.0000
# 3 72.8771 41.3158 140.1532 0.0000 0.0873 0.0000
# 4 0.0000 0.0000 0.0000 10.6930 0.0000 11.9243
# 5 3.9009 -0.4386 0.0873 0.0000 20.4767 0.0000
# 6 0.0000 0.0000 0.0000 11.9243 0.0000 6.5112
#
#
#
# Elastic Compliance Matrix: (Units=1/GPa)
#
#
# Indices 1 2 3 4 5 6 
#
# 1 0.012687 -0.012680 -0.002857 0.000000 -0.002676 0.000000
# 2 -0.012680 0.068371 -0.013564 0.000000 0.003938 0.000000
# 3 -0.002857 -0.013564 0.012619 0.000000 0.000200 0.000000
# 4 0.000000 0.000000 0.000000 -0.089730 0.000000 0.164327
# 5 -0.002676 0.003938 0.000200 0.000000 0.049429 0.000000
# 6 0.000000 0.000000 0.000000 0.164327 0.000000 -0.147359
#
#
# Mechanical properties :
#
#
# Convention : Reuss Voigt Hill
#
# Bulk Modulus (GPa) = 28.18970 68.08285 48.13628
# Shear Modulus (GPa) = -208.73228 17.67903 -95.52662
#
# Velocity S-wave (km/s) = -11.12676 3.23820 -7.52725
# Velocity P-wave (km/s) = 12.18002 7.37313 6.85529
#
# Compressibility (1/GPa) = 0.03547395
#
# Stress axis : x y z
#
# Youngs Moduli (GPa) = 78.82277 14.62601 79.24459
#
# Poissons Ratio (x) = 0.18546 0.22641
# Poissons Ratio (y) = 0.99950 1.07488
# Poissons Ratio (z) = 0.22521 0.19839
#
# Static dielectric constant tensor:
#      x y z
#    x 3.326210 0.000000 -0.124720 
#    y 0.000000 2.585730 0.000000 
#    z -0.124720 0.000000 3.332540 
# 
# 
# High freq. dielectric constant tensor:
#      x y z
#    x 1.654930 0.000000 -0.010390 
#    y 0.000000 1.589030 0.000000 
#    z -0.010390 0.000000 1.658000 
# 
# From -- ./inp_files/87036.got.cif
#   From: 2010.06.25/outbox.cif.g09.slc.cpg/sg10_44_cif.got.tgz:87036.got - 2010.06.27 22:07:45.
