data_PCOD8067865
_publ_section_title
;
Structure prediction by ZEFSAII (Michael W. Deem and Ramdas Pophale) SiO2 
 PCOD8067865
Probable space group: P 2/M
;
_chemical_formula_sum "Si O2"
_cell_formula_units_Z 28
_cell_length_a 15.151210
_cell_length_b 18.037578
_cell_length_c 8.744788
_cell_angle_alpha 90.000000
_cell_angle_beta 40.788192
_cell_angle_gamma 90.000000
_cell_volume 1561.219395
_symmetry_space_group_name_H-M "P 2/M"
_symmetry_group_IT_number 10
_symmetry_cell_setting 'monoclinic'
loop_
_space_group_symop_operation_xyz
x,y,z
-x,y,-z
-x,-y,-z
x,-y,z
loop_
_atom_site_type_symbol
_atom_site_label
_atom_site_fract_x
_atom_site_fract_y
_atom_site_fract_z
Si Si1 0.352557 0.284254 0.751275
Si Si2 0.852735 0.295946 0.255496
Si Si3 0.301095 0.584726 0.366874
Si Si4 0.201756 0.160492 0.121911
Si Si5 0.098602 0.000000 0.595094
Si Si6 0.900071 0.160136 0.403678
Si Si7 0.801082 0.000000 0.873477
Si Si8 0.595867 0.584720 0.099304
O O1 0.500000 0.262005 0.500000
O O2 0.251321 0.289404 0.744632
O O3 0.351315 0.364009 0.834330
O O4 0.307144 0.222076 0.931207
O O5 0.816151 0.362970 0.416502
O O6 0.845935 0.219335 0.355716
O O7 0.000000 0.313553 0.000000
O O8 0.261737 0.500000 0.453253
O O9 0.441456 0.605103 0.264747
O O10 0.313164 0.597307 0.169778
O O11 0.177632 0.169368 0.334307
O O12 0.269317 0.079104 0.994961
O O13 0.060211 0.170133 0.218748
O O14 0.133548 0.078875 0.629263
O O15 0.175910 0.000000 0.335613
O O16 0.940298 0.000000 0.779267
O O17 0.607470 0.500000 0.139869
#
# Coordination Sequence:
#
# PCOD8067865 Si02
#       8
#     4   4   4   4   2   4   2   4
#     4  12  23  36  53  81 114 148 179 214 265 330
#     4  12  23  36  52  81 120 146 171 217 276 325
#     4   9  19  38  61  82 105 137 182 228 266 312
#     4   9  17  33  56  80 106 143 184 225 268 314
#     4   7  12  26  52  80 100 134 184 229 260 302
#     4   9  17  33  56  80 108 140 184 228 266 314
#     4   7  12  26  52  79 102 133 182 229 264 306
#     4   9  19  38  62  82 101 138 189 227 257 311
#
# _framework density 17.934698999999998
#
# number of rings (size 3 to 8) (size 9 to 14) (size 15 to 20)
#    0.000    2.429    2.857    3.429    0.000    1.143 
#    0.000    1.429    0.000    1.714    0.000    3.000 
#    0.000    0.000    0.000    0.000    0.000    0.000 
#
# Total GULP energy -346999.368897 kJ/mol
# GULP energy per Si atom -12392.834603 kJ/mol
# Density = 1.789388 g / cm^3
# Si number density = 17.934699 Si / 1000 Ang^3
#
#
#
# Elastic Constant Matrix: (Units=GPa)
#
#
# Indices 1 2 3 4 5 6 
#
# 1 84.3961 50.6821 33.1721 0.0000 3.1654 0.0000
# 2 50.6821 159.6978 71.4833 0.0000 6.9806 0.0000
# 3 33.1721 71.4833 103.3708 0.0000 -4.6128 0.0000
# 4 0.0000 0.0000 0.0000 6.8895 0.0000 -7.7906
# 5 3.1654 6.9806 -4.6128 0.0000 17.0098 0.0000
# 6 0.0000 0.0000 0.0000 -7.7906 0.0000 24.3574
#
#
#
# Elastic Compliance Matrix: (Units=1/GPa)
#
#
# Indices 1 2 3 4 5 6 
#
# 1 0.015038 -0.003601 -0.002424 0.000000 -0.001978 0.000000
# 2 -0.003601 0.010468 -0.006321 0.000000 -0.005340 0.000000
# 3 -0.002424 -0.006321 0.015142 0.000000 0.007151 0.000000
# 4 0.000000 0.000000 0.000000 0.227392 0.000000 0.072730
# 5 -0.001978 -0.005340 0.007151 0.000000 0.063288 0.000000
# 6 0.000000 0.000000 0.000000 0.072730 0.000000 0.064318
#
#
# Mechanical properties :
#
#
# Convention : Reuss Voigt Hill
#
# Bulk Modulus (GPa) = 62.67394 73.12664 67.90029
# Shear Modulus (GPa) = 11.74653 22.45982 17.10317
#
# Velocity S-wave (km/s) = 2.56200 3.54264 3.09145
# Velocity P-wave (km/s) = 6.61614 7.58921 7.11932
#
# Compressibility (1/GPa) = 0.01595559
#
# Stress axis : x y z
#
# Youngs Moduli (GPa) = 66.49654 95.53272 66.04092
#
# Poissons Ratio (x) = 0.34404 0.16007
# Poissons Ratio (y) = 0.23947 0.41746
# Poissons Ratio (z) = 0.16117 0.60388
#
# Static dielectric constant tensor:
#      x y z
#    x 2.975970 0.000000 0.145690 
#    y 0.000000 3.711710 0.000000 
#    z 0.145690 0.000000 3.199300 
# 
# 
# High freq. dielectric constant tensor:
#      x y z
#    x 1.666330 0.000000 0.016930 
#    y 0.000000 1.715910 0.000000 
#    z 0.016930 0.000000 1.679470 
# 
# From -- ./inp_files/30123.got.cif
#   From: 2010.06.25/outbox.cif.g09.slc.cpg/sg10_16_cif.got.tgz:30123.got - 2010.06.27 22:07:45.
