data_PCOD8067877
_publ_section_title
;
Structure prediction by ZEFSAII (Michael W. Deem and Ramdas Pophale) SiO2 
 PCOD8067877
Probable space group: P 2/M
;
_chemical_formula_sum "Si O2"
_cell_formula_units_Z 32
_cell_length_a 22.803941
_cell_length_b 9.652490
_cell_length_c 9.539326
_cell_angle_alpha 90.000000
_cell_angle_beta 65.258874
_cell_angle_gamma 90.000000
_cell_volume 1907.006992
_symmetry_space_group_name_H-M "P 2/M"
_symmetry_group_IT_number 10
_symmetry_cell_setting 'monoclinic'
loop_
_space_group_symop_operation_xyz
x,y,z
-x,y,-z
-x,-y,-z
x,-y,z
loop_
_atom_site_type_symbol
_atom_site_label
_atom_site_fract_x
_atom_site_fract_y
_atom_site_fract_z
Si Si1 0.360671 0.659036 0.471602
Si Si2 0.115825 0.164515 0.228846
Si Si3 0.999821 0.165552 0.157650
Si Si4 0.639774 0.659044 0.194126
Si Si5 0.261152 0.838796 0.400552
Si Si6 0.883765 0.164535 0.460834
Si Si7 0.499780 0.663690 0.653114
Si Si8 0.260766 0.838825 0.075896
O O1 0.346172 0.500000 0.446932
O O2 0.357933 0.680043 0.641235
O O3 0.308532 0.753923 0.450577
O O4 0.432256 0.704188 0.340526
O O5 0.063452 0.223833 0.172177
O O6 0.100076 0.222459 0.400060
O O7 0.187861 0.208757 0.111292
O O8 0.112069 0.000000 0.237557
O O9 0.935950 0.223619 0.299002
O O10 0.999872 0.000000 0.157818
O O11 0.000000 0.224089 0.000000
O O12 0.654325 0.500000 0.140539
O O13 0.568366 0.704367 0.205220
O O14 0.692210 0.753827 0.069311
O O15 0.188351 0.791010 0.511750
O O16 0.275596 0.808002 0.223496
O O17 0.270764 0.000000 0.424159
O O18 0.887342 0.000000 0.462313
O O19 0.500000 0.734326 0.500000
O O20 0.499709 0.500000 0.632783
O O21 0.270394 0.000000 0.032936
#
# Coordination Sequence:
#
# PCOD8067877 Si02
#       8
#     4   4   4   4   4   4   4   4
#     4   9  17  30  49  70  89 113 148 187 225 266
#     4   8  14  25  39  54  78 114 148 175 209 256
#     4   9  15  21  33  57  84 107 138 181 220 252
#     4   9  17  30  49  70  89 113 148 187 225 266
#     4   9  18  31  45  64  92 123 152 182 219 264
#     4   8  14  25  39  54  78 114 148 175 209 256
#     4   7  12  26  46  65  86 112 144 183 222 261
#     4   9  18  31  45  64  92 123 152 182 219 264
#
# _framework density 16.780221000000001
#
# number of rings (size 3 to 8) (size 9 to 14) (size 15 to 20)
#    0.000    3.500    0.000    3.375    0.000    3.500 
#    0.000    3.750    0.000    6.000    0.000    0.875 
#    0.000    7.000    0.000    0.000    0.000    0.000 
#
# Total GULP energy -396424.931316 kJ/mol
# GULP energy per Si atom -12388.279104 kJ/mol
# Density = 1.674203 g / cm^3
# Si number density = 16.780221 Si / 1000 Ang^3
#
#
#
# Elastic Constant Matrix: (Units=GPa)
#
#
# Indices 1 2 3 4 5 6 
#
# 1 151.5585 40.4336 83.3885 0.0000 -17.5293 0.0000
# 2 40.4336 33.5836 32.6811 0.0000 -4.3641 0.0000
# 3 83.3885 32.6811 97.5461 0.0000 -14.0146 0.0000
# 4 0.0000 0.0000 0.0000 -73.3620 0.0000 181.6509
# 5 -17.5293 -4.3641 -14.0146 0.0000 20.9591 0.0000
# 6 0.0000 0.0000 0.0000 181.6509 0.0000 -340.2969
#
#
#
# Elastic Compliance Matrix: (Units=1/GPa)
#
#
# Indices 1 2 3 4 5 6 
#
# 1 0.013959 -0.007768 -0.008723 0.000000 0.004224 0.000000
# 2 -0.007768 0.048515 -0.010062 0.000000 -0.003123 0.000000
# 3 -0.008723 -0.010062 0.021828 0.000000 0.005204 0.000000
# 4 0.000000 0.000000 0.000000 0.042367 0.000000 0.022615
# 5 0.004224 -0.003123 0.005204 0.000000 0.054074 0.000000
# 6 0.000000 0.000000 0.000000 0.022615 0.000000 0.009133
#
#
# Mechanical properties :
#
#
# Convention : Reuss Voigt Hill
#
# Bulk Modulus (GPa) = 32.05735 66.18829 49.12282
# Shear Modulus (GPa) = 19.73314 -70.12762 -25.19724
#
# Velocity S-wave (km/s) = 3.43297 -6.47167 -3.87926
# Velocity P-wave (km/s) = 5.90419 4.03900 3.04515
#
# Compressibility (1/GPa) = 0.03119409
#
# Stress axis : x y z
#
# Youngs Moduli (GPa) = 71.63983 20.61230 45.81322
#
# Poissons Ratio (x) = 0.16012 0.39965
# Poissons Ratio (y) = 0.55650 0.46098
# Poissons Ratio (z) = 0.62494 0.20740
#
# Static dielectric constant tensor:
#      x y z
#    x 3.458990 0.000000 -0.196270 
#    y 0.000000 2.608810 0.000000 
#    z -0.196270 0.000000 3.187200 
# 
# 
# High freq. dielectric constant tensor:
#      x y z
#    x 1.660430 0.000000 -0.015050 
#    y 0.000000 1.587050 0.000000 
#    z -0.015050 0.000000 1.639620 
# 
# From -- ./inp_files/34605.got.cif
#   From: 2010.06.25/outbox.cif.g09.slc.cpg/sg10_18_cif.got.tgz:34605.got - 2010.06.27 22:07:45.
