data_PCOD8067807
_publ_section_title
;
Structure prediction by ZEFSAII (Michael W. Deem and Ramdas Pophale) SiO2 
 PCOD8067807
Probable space group: P 2/M
;
_chemical_formula_sum "Si O2"
_cell_formula_units_Z 18
_cell_length_a 8.108155
_cell_length_b 9.508377
_cell_length_c 19.060961
_cell_angle_alpha 90.000000
_cell_angle_beta 32.495054
_cell_angle_gamma 90.000000
_cell_volume 789.461397
_symmetry_space_group_name_H-M "P 2/M"
_symmetry_group_IT_number 10
_symmetry_cell_setting 'monoclinic'
loop_
_space_group_symop_operation_xyz
x,y,z
-x,y,-z
-x,-y,-z
x,-y,z
loop_
_atom_site_type_symbol
_atom_site_label
_atom_site_fract_x
_atom_site_fract_y
_atom_site_fract_z
Si Si1 0.541912 0.500000 0.900052
Si Si2 0.240542 0.500000 0.655062
Si Si3 0.706816 0.241780 0.258687
Si Si4 0.193426 0.000000 0.258787
Si Si5 0.733878 0.000000 0.541063
Si Si6 0.656394 0.750978 0.122087
Si Si7 0.136827 0.000000 0.125953
O O1 0.368225 0.632138 0.928544
O O2 0.896147 0.500000 0.747026
O O3 0.500000 0.500000 0.000000
O O4 0.500000 0.500000 0.500000
O O5 0.256607 0.364175 0.698278
O O6 0.596525 0.304854 0.223310
O O7 0.013694 0.145138 0.135147
O O8 0.455862 0.140301 0.380937
O O9 0.406442 0.133203 0.194422
O O10 0.023638 0.000000 0.245869
O O11 0.882418 0.000000 0.412538
O O12 0.000000 0.000000 0.500000
O O13 0.000000 0.813833 0.000000
O O14 0.500000 0.000000 0.000000
#
# Coordination Sequence:
#
# PCOD8067807 Si02
#       7
#     2   2   4   2   2   4   2
#     4  12  28  51  73 101 144 191 239 298 369 430
#     4  12  29  45  69 107 144 193 248 300 359 426
#     4  11  25  45  70 103 146 189 240 294 356 432
#     4  12  24  40  72 107 141 183 236 291 365 408
#     4  11  23  45  70 102 145 186 234 294 354 431
#     4  12  24  44  74 103 138 184 237 291 357 432
#     4  11  24  44  72 107 147 186 242 299 367 428
#
# _framework density 22.800355
#
# number of rings (size 3 to 8) (size 9 to 14) (size 15 to 20)
#    0.000    0.444    2.222    6.000    6.222    2.667 
#    0.000    1.667    0.000    0.000    0.000    0.000 
#    0.000    0.000    0.000    0.000    0.000    0.000 
#
# Total GULP energy -223102.743795 kJ/mol
# GULP energy per Si atom -12394.596877 kJ/mol
# Density = 2.274846 g / cm^3
# Si number density = 22.800355 Si / 1000 Ang^3
#
#
#
# Elastic Constant Matrix: (Units=GPa)
#
#
# Indices 1 2 3 4 5 6 
#
# 1 131.9424 49.1441 25.4754 0.0000 19.3262 0.0000
# 2 49.1441 134.0904 29.8483 0.0000 1.7750 0.0000
# 3 25.4754 29.8483 110.0225 0.0000 0.5118 0.0000
# 4 0.0000 0.0000 0.0000 -9.6661 0.0000 5.8211
# 5 19.3262 1.7750 0.5118 0.0000 51.7775 0.0000
# 6 0.0000 0.0000 0.0000 5.8211 0.0000 42.2120
#
#
#
# Elastic Compliance Matrix: (Units=1/GPa)
#
#
# Indices 1 2 3 4 5 6 
#
# 1 0.009509 -0.003143 -0.001333 0.000000 -0.003428 0.000000
# 2 -0.003143 0.008979 -0.001712 0.000000 0.000882 0.000000
# 3 -0.001333 -0.001712 0.009860 0.000000 0.000459 0.000000
# 4 0.000000 0.000000 0.000000 -0.095522 0.000000 0.013173
# 5 -0.003428 0.000882 0.000459 0.000000 0.020558 0.000000
# 6 0.000000 0.000000 0.000000 0.013173 0.000000 0.021873
#
#
# Mechanical properties :
#
#
# Convention : Reuss Voigt Hill
#
# Bulk Modulus (GPa) = 62.61173 64.99900 63.80537
# Shear Modulus (GPa) = -710.18477 34.97052 -337.60712
#
# Velocity S-wave (km/s) = -17.66793 3.92059 -12.18164
# Velocity P-wave (km/s) = 19.71516 7.00460 13.03117
#
# Compressibility (1/GPa) = 0.01597145
#
# Stress axis : x y z
#
# Youngs Moduli (GPa) = 105.15987 111.37047 101.41821
#
# Poissons Ratio (x) = 0.35004 0.13521
# Poissons Ratio (y) = 0.33052 0.17366
# Poissons Ratio (z) = 0.14020 0.19070
#
# Static dielectric constant tensor:
#      x y z
#    x 4.770520 0.000000 0.210770 
#    y 0.000000 4.311360 0.000000 
#    z 0.210770 0.000000 4.255410 
# 
# 
# High freq. dielectric constant tensor:
#      x y z
#    x 1.928700 0.000000 0.004720 
#    y 0.000000 1.898790 0.000000 
#    z 0.004720 0.000000 1.911700 
# 
# From -- ./inp_files/81882.got.cif
#   From: 2010.06.25/outbox.cif.g09.slc.cpg/sg10_41_cif.got.tgz:81882.got - 2010.06.27 22:07:45.
