data_PCOD8067113
_publ_section_title
;
Structure prediction by ZEFSAII (Michael W. Deem and Ramdas Pophale) SiO2 
 PCOD8067113
Probable space group: P 2/M
;
_chemical_formula_sum "Si O2"
_cell_formula_units_Z 18
_cell_length_a 8.886254
_cell_length_b 20.966457
_cell_length_c 8.192757
_cell_angle_alpha 90.000000
_cell_angle_beta 34.244438
_cell_angle_gamma 90.000000
_cell_volume 858.953809
_symmetry_space_group_name_H-M "P 2/M"
_symmetry_group_IT_number 10
_symmetry_cell_setting 'monoclinic'
loop_
_space_group_symop_operation_xyz
x,y,z
-x,y,-z
-x,-y,-z
x,-y,z
loop_
_atom_site_type_symbol
_atom_site_label
_atom_site_fract_x
_atom_site_fract_y
_atom_site_fract_z
Si Si1 0.446450 0.294455 0.858111
Si Si2 0.057479 0.372164 0.637327
Si Si3 0.212889 0.073011 0.178810
Si Si4 0.785305 0.500000 0.329563
Si Si5 0.276653 0.832100 0.832169
O O1 0.713942 0.320059 0.533546
O O2 0.386329 0.226683 0.836219
O O3 0.500000 0.283797 0.000000
O O4 0.210841 0.346021 0.035880
O O5 0.167453 0.438450 0.603416
O O6 0.000000 0.382519 0.500000
O O7 0.000000 0.101521 0.500000
O O8 0.138265 0.000000 0.206282
O O9 0.500000 0.079988 0.000000
O O10 0.206996 0.109569 0.013438
O O11 0.500000 0.500000 0.500000
O O12 0.000000 0.500000 0.000000
O O13 0.500000 0.853446 0.500000
O O14 0.000000 0.810542 0.000000
#
# Coordination Sequence:
#
# PCOD8067113 Si02
#       5
#     4   4   4   2   4
#     4  10  22  40  62  85 115 158 203 244 290 353
#     4  10  22  41  62  84 113 154 201 245 289 349
#     4  10  22  42  66  89 119 164 211 250 292 354
#     4  12  25  38  59  88 118 152 188 240 305 360
#     4  12  25  38  60  94 128 160 195 250 313 361
#
# _framework density 20.955725000000001
#
# number of rings (size 3 to 8) (size 9 to 14) (size 15 to 20)
#    0.000    1.333    0.000    5.000    0.000    8.889 
#    0.000    4.444    0.000    0.000    0.000    0.000 
#    0.000    0.000    0.000    0.000    0.000    0.000 
#
# Total GULP energy -223257.736498 kJ/mol
# GULP energy per Si atom -12403.207583 kJ/mol
# Density = 2.090803 g / cm^3
# Si number density = 20.955725 Si / 1000 Ang^3
#
#
#
# Elastic Constant Matrix: (Units=GPa)
#
#
# Indices 1 2 3 4 5 6 
#
# 1 71.5439 63.0042 56.3944 0.0000 -19.2296 0.0000
# 2 63.0042 118.9348 42.9941 0.0000 2.7495 0.0000
# 3 56.3944 42.9941 158.8185 0.0000 -7.8025 0.0000
# 4 0.0000 0.0000 0.0000 34.3396 0.0000 -17.5131
# 5 -19.2296 2.7495 -7.8025 0.0000 35.1157 0.0000
# 6 0.0000 0.0000 0.0000 -17.5131 0.0000 -77.9879
#
#
#
# Elastic Compliance Matrix: (Units=1/GPa)
#
#
# Indices 1 2 3 4 5 6 
#
# 1 0.049427 -0.023199 -0.009960 0.000000 0.026670 0.000000
# 2 -0.023199 0.020268 0.002071 0.000000 -0.013831 0.000000
# 3 -0.009960 0.002071 0.009096 0.000000 -0.003595 0.000000
# 4 0.000000 0.000000 0.000000 0.026129 0.000000 -0.005867
# 5 0.026670 -0.013831 -0.003595 0.000000 0.043366 0.000000
# 6 0.000000 0.000000 0.000000 -0.005867 0.000000 -0.011505
#
#
# Mechanical properties :
#
#
# Convention : Reuss Voigt Hill
#
# Bulk Modulus (GPa) = 60.18690 74.89808 67.54249
# Shear Modulus (GPa) = 24.45030 10.75379 17.60205
#
# Velocity S-wave (km/s) = 3.41949 2.26778 2.90136
# Velocity P-wave (km/s) = 6.66137 6.53267 6.59734
#
# Compressibility (1/GPa) = 0.01661491
#
# Stress axis : x y z
#
# Youngs Moduli (GPa) = 20.23174 49.33765 109.93960
#
# Poissons Ratio (x) = 1.14460 1.09504
# Poissons Ratio (y) = 0.46936 -0.22773
# Poissons Ratio (z) = 0.20152 -0.10220
#
# Static dielectric constant tensor:
#      x y z
#    x 3.848600 0.000000 -0.136940 
#    y 0.000000 3.680540 0.000000 
#    z -0.136940 0.000000 4.154780 
# 
# 
# High freq. dielectric constant tensor:
#      x y z
#    x 1.829740 0.000000 -0.009930 
#    y 0.000000 1.824430 0.000000 
#    z -0.009930 0.000000 1.839750 
# 
# From -- ./inp_files/4886.got.cif
#   From: 2010.06.25/outbox.cif.g09.slc.cpg/sg10_3_cif.got.tgz:4886.got - 2010.06.27 22:07:45.
