data_PCOD8067918
_publ_section_title
;
Structure prediction by ZEFSAII (Michael W. Deem and Ramdas Pophale) SiO2 
 PCOD8067918
Probable space group: P 2/M
;
_chemical_formula_sum "Si O2"
_cell_formula_units_Z 24
_cell_length_a 16.213961
_cell_length_b 9.456968
_cell_length_c 9.401313
_cell_angle_alpha 90.000000
_cell_angle_beta 73.147198
_cell_angle_gamma 90.000000
_cell_volume 1379.638869
_symmetry_space_group_name_H-M "P 2/M"
_symmetry_group_IT_number 10
_symmetry_cell_setting 'monoclinic'
loop_
_space_group_symop_operation_xyz
x,y,z
-x,y,-z
-x,-y,-z
x,-y,z
loop_
_atom_site_type_symbol
_atom_site_label
_atom_site_fract_x
_atom_site_fract_y
_atom_site_fract_z
Si Si1 0.252611 0.340697 0.043210
Si Si2 0.584334 0.163314 0.373314
Si Si3 0.095530 0.158683 0.783040
Si Si4 0.415666 0.836686 0.957648
Si Si5 0.747389 0.659303 0.295821
Si Si6 0.904470 0.841317 0.878569
O O1 0.256087 0.500000 0.101071
O O2 0.336364 0.256244 0.054674
O O3 0.249754 0.339895 0.875123
O O4 0.167047 0.265103 0.148354
O O5 0.500000 0.211919 0.500000
O O6 0.566810 0.190674 0.216595
O O7 0.663636 0.256244 0.391038
O O8 0.606799 0.000000 0.391713
O O9 0.167047 0.265103 0.684599
O O10 1.000000 0.207345 0.780758
O O11 0.114663 0.000000 0.718126
O O12 0.099883 0.159093 0.950058
O O13 0.393201 0.000000 0.998512
O O14 0.500000 0.788081 0.000000
O O15 0.743913 0.500000 0.357158
O O16 0.885337 0.000000 0.832790
#
# Coordination Sequence:
#
# PCOD8067918 Si02
#       6
#     4   4   4   4   4   4
#     4   9  16  24  35  53  77 104 132 163 200 239
#     4   9  17  29  44  60  79 105 136 168 201 237
#     4   8  13  21  33  49  71 101 134 164 195 234
#     4   9  17  29  44  60  79 105 136 168 201 237
#     4   9  16  24  35  53  77 104 132 163 200 239
#     4   8  13  21  33  49  71 101 134 164 195 234
#
# _framework density 17.395855999999998
#
# number of rings (size 3 to 8) (size 9 to 14) (size 15 to 20)
#    0.000    3.333    0.000    2.000    0.000    5.333 
#    0.000    3.333    0.000    0.000    0.000    0.000 
#    0.000    1.333    0.000   15.333    0.000   19.667 
#
# Total GULP energy -297490.898396 kJ/mol
# GULP energy per Si atom -12395.454100 kJ/mol
# Density = 1.735626 g / cm^3
# Si number density = 17.395856 Si / 1000 Ang^3
#
#
#
# Elastic Constant Matrix: (Units=GPa)
#
#
# Indices 1 2 3 4 5 6 
#
# 1 159.1336 99.1323 34.3029 0.0000 -42.3839 0.0000
# 2 99.1323 133.2746 28.6788 0.0000 -32.7794 0.0000
# 3 34.3029 28.6788 25.2474 0.0000 -19.9084 0.0000
# 4 0.0000 0.0000 0.0000 9.3699 0.0000 -4.4773
# 5 -42.3839 -32.7794 -19.9084 0.0000 27.3241 0.0000
# 6 0.0000 0.0000 0.0000 -4.4773 0.0000 18.9930
#
#
#
# Elastic Compliance Matrix: (Units=1/GPa)
#
#
# Indices 1 2 3 4 5 6 
#
# 1 0.014602 -0.007437 -0.001331 0.000000 0.012758 0.000000
# 2 -0.007437 0.014680 -0.004185 0.000000 0.003026 0.000000
# 3 -0.001331 -0.004185 0.095384 0.000000 0.062412 0.000000
# 4 0.000000 0.000000 0.000000 0.120272 0.000000 0.028352
# 5 0.012758 0.003026 0.062412 0.000000 0.105492 0.000000
# 6 0.000000 0.000000 0.000000 0.028352 0.000000 0.059335
#
#
# Mechanical properties :
#
#
# Convention : Reuss Voigt Hill
#
# Bulk Modulus (GPa) = 10.12552 71.32043 40.72297
# Shear Modulus (GPa) = 10.67033 21.50683 16.08858
#
# Velocity S-wave (km/s) = 2.47934 3.51995 3.04444
# Velocity P-wave (km/s) = 3.74559 7.58996 5.98486
#
# Compressibility (1/GPa) = 0.09876039
#
# Stress axis : x y z
#
# Youngs Moduli (GPa) = 68.48534 68.12192 10.48391
#
# Poissons Ratio (x) = 0.50660 0.01396
# Poissons Ratio (y) = 0.50930 0.04387
# Poissons Ratio (z) = 0.09118 0.28506
#
# Static dielectric constant tensor:
#      x y z
#    x 3.413720 0.000000 -0.354530 
#    y 0.000000 3.419390 0.000000 
#    z -0.354530 0.000000 2.651730 
# 
# 
# High freq. dielectric constant tensor:
#      x y z
#    x 1.676070 0.000000 -0.035220 
#    y 0.000000 1.673980 0.000000 
#    z -0.035220 0.000000 1.600390 
# 
# From -- ./inp_files/33743.got.cif
#   From: 2010.06.25/outbox.cif.g09.slc.cpg/sg10_17_cif.got.tgz:33743.got - 2010.06.27 22:07:45.
