data_PCOD8067116
_publ_section_title
;
Structure prediction by ZEFSAII (Michael W. Deem and Ramdas Pophale) SiO2 
 PCOD8067116
Probable space group: P 2/M
;
_chemical_formula_sum "Si O2"
_cell_formula_units_Z 24
_cell_length_a 17.245351
_cell_length_b 7.730742
_cell_length_c 8.892957
_cell_angle_alpha 90.000000
_cell_angle_beta 88.454973
_cell_angle_gamma 90.000000
_cell_volume 1185.172297
_symmetry_space_group_name_H-M "P 2/M"
_symmetry_group_IT_number 10
_symmetry_cell_setting 'monoclinic'
loop_
_space_group_symop_operation_xyz
x,y,z
-x,y,-z
-x,-y,-z
x,-y,z
loop_
_atom_site_type_symbol
_atom_site_label
_atom_site_fract_x
_atom_site_fract_y
_atom_site_fract_z
Si Si1 0.012046 0.198692 0.332536
Si Si2 0.172877 0.696788 0.346498
Si Si3 0.150866 0.702245 0.679478
Si Si4 0.675997 0.702043 0.826846
Si Si5 0.599463 0.000000 0.339141
Si Si6 0.581959 0.000000 0.686419
Si Si7 0.307896 0.300015 0.821876
O O1 0.931657 0.231890 0.246937
O O2 0.000000 0.277489 0.500000
O O3 0.090295 0.286401 0.261904
O O4 0.032524 0.000000 0.337237
O O5 0.195687 0.500000 0.366885
O O6 0.166983 0.785627 0.512699
O O7 0.243141 0.775380 0.245753
O O8 0.143752 0.500000 0.661579
O O9 0.219425 0.754412 0.788574
O O10 0.659189 0.500000 0.788521
O O11 0.608490 0.823749 0.766783
O O12 0.679268 0.728073 0.004021
O O13 0.614066 0.000000 0.515874
O O14 0.510001 0.000000 0.301932
O O15 0.635226 0.175910 0.271932
O O16 0.323460 0.500000 0.773671
#
# Coordination Sequence:
#
# PCOD8067116 Si02
#       7
#     4   4   4   4   2   2   4
#     4   9  17  27  44  75 110 146 192 243 289 333
#     4   9  17  31  52  77 108 150 197 242 287 336
#     4   9  17  31  52  77 108 150 197 242 287 336
#     4  10  22  40  62  89 122 159 196 237 291 353
#     4  11  25  43  65  92 119 150 191 241 294 349
#     4  11  25  43  65  92 119 150 191 241 294 349
#     4  10  22  40  62  89 122 159 196 237 291 353
#
# _framework density 20.250221
#
# number of rings (size 3 to 8) (size 9 to 14) (size 15 to 20)
#    0.000    2.333    0.000    2.000    2.333    6.000 
#    0.000    4.167    0.000    5.000    0.000    0.000 
#    0.000    0.000    0.000    0.000    0.000    0.000 
#
# Total GULP energy -297449.679345 kJ/mol
# GULP energy per Si atom -12393.736639 kJ/mol
# Density = 2.020413 g / cm^3
# Si number density = 20.250221 Si / 1000 Ang^3
#
#
#
# Elastic Constant Matrix: (Units=GPa)
#
#
# Indices 1 2 3 4 5 6 
#
# 1 115.3145 49.6814 43.7250 0.0000 22.0027 0.0000
# 2 49.6814 83.2094 42.3528 0.0000 10.3202 0.0000
# 3 43.7250 42.3528 76.6716 0.0000 21.8874 0.0000
# 4 0.0000 0.0000 0.0000 24.6483 0.0000 1.0333
# 5 22.0027 10.3202 21.8874 0.0000 15.8980 0.0000
# 6 0.0000 0.0000 0.0000 1.0333 0.0000 35.1537
#
#
#
# Elastic Compliance Matrix: (Units=1/GPa)
#
#
# Indices 1 2 3 4 5 6 
#
# 1 0.014603 -0.006695 -0.000166 0.000000 -0.015635 0.000000
# 2 -0.006695 0.019879 -0.010090 0.000000 0.010252 0.000000
# 3 -0.000166 -0.010090 0.027637 0.000000 -0.031270 0.000000
# 4 0.000000 0.000000 0.000000 0.040621 0.000000 -0.001194
# 5 -0.015635 0.010252 -0.031270 0.000000 0.120935 0.000000
# 6 0.000000 0.000000 0.000000 -0.001194 0.000000 0.028482
#
#
# Mechanical properties :
#
#
# Convention : Reuss Voigt Hill
#
# Bulk Modulus (GPa) = 35.43874 60.74597 48.09236
# Shear Modulus (GPa) = 16.92252 24.43577 20.67914
#
# Velocity S-wave (km/s) = 2.89393 3.47751 3.19906
# Velocity P-wave (km/s) = 5.35769 6.79610 6.11931
#
# Compressibility (1/GPa) = 0.02821771
#
# Stress axis : x y z
#
# Youngs Moduli (GPa) = 68.48077 50.30374 36.18281
#
# Poissons Ratio (x) = 0.33678 0.00601
# Poissons Ratio (y) = 0.45848 0.36507
# Poissons Ratio (z) = 0.01138 0.50755
#
# Static dielectric constant tensor:
#      x y z
#    x 3.847240 0.000000 0.006660 
#    y 0.000000 3.600480 0.000000 
#    z 0.006660 0.000000 3.528570 
# 
# 
# High freq. dielectric constant tensor:
#      x y z
#    x 1.801360 0.000000 0.003340 
#    y 0.000000 1.791900 0.000000 
#    z 0.003340 0.000000 1.759150 
# 
# From -- ./inp_files/27267.got.cif
#   From: 2010.06.25/outbox.cif.g09.slc.cpg/sg10_14_cif.got.tgz:27267.got - 2010.06.27 22:07:45.
