data_PCOD8067941
_publ_section_title
;
Structure prediction by ZEFSAII (Michael W. Deem and Ramdas Pophale) SiO2 
 PCOD8067941
Probable space group: P 2/M
;
_chemical_formula_sum "Si O2"
_cell_formula_units_Z 28
_cell_length_a 29.884318
_cell_length_b 9.304488
_cell_length_c 9.428847
_cell_angle_alpha 90.000000
_cell_angle_beta 142.118950
_cell_angle_gamma 90.000000
_cell_volume 1609.829550
_symmetry_space_group_name_H-M "P 2/M"
_symmetry_group_IT_number 10
_symmetry_cell_setting 'monoclinic'
loop_
_space_group_symop_operation_xyz
x,y,z
-x,y,-z
-x,-y,-z
x,-y,z
loop_
_atom_site_type_symbol
_atom_site_label
_atom_site_fract_x
_atom_site_fract_y
_atom_site_fract_z
Si Si1 0.638155 0.832179 0.986630
Si Si2 0.493248 0.340114 0.314082
Si Si3 0.071357 0.667373 0.592992
Si Si4 0.788552 0.163221 0.048917
Si Si5 0.068380 0.332718 0.257198
Si Si6 0.795339 0.841626 0.403958
Si Si7 0.348248 0.331079 0.272125
O O1 0.714134 0.810793 0.264155
O O2 0.627546 0.000000 0.920815
O O3 0.567297 0.773389 0.895452
O O4 0.643684 0.734639 0.862692
O O5 0.500000 0.329949 0.500000
O O6 0.468503 0.500000 0.206822
O O7 0.574191 0.307249 0.452829
O O8 0.089715 0.500000 0.658923
O O9 0.138464 0.758555 0.823665
O O10 0.057050 0.704816 0.393198
O O11 0.000000 0.713342 0.500000
O O12 0.787530 0.168795 0.215538
O O13 0.786857 0.000000 0.987734
O O14 0.717657 0.248830 0.812211
O O15 0.074773 0.500000 0.244170
O O16 0.143797 0.266945 0.386219
O O17 0.000000 0.267868 0.000000
O O18 0.821442 0.000000 0.513824
O O19 0.329635 0.500000 0.212736
#
# Coordination Sequence:
#
# PCOD8067941 Si02
#       7
#     4   4   4   4   4   4   4
#     4   9  15  21  30  45  65  90 123 160 193 228
#     4   8  14  21  28  41  62  90 123 156 190 228
#     4   9  17  29  44  60  79 105 133 160 196 240
#     4   9  16  25  37  53  72  95 126 162 196 230
#     4   9  17  28  42  60  79 100 130 166 198 229
#     4   8  15  25  35  50  71  96 126 157 192 234
#     4   9  15  22  31  44  65  93 125 158 191 231
#
# _framework density 17.393146999999999
#
# number of rings (size 3 to 8) (size 9 to 14) (size 15 to 20)
#    0.000    3.286    0.000    3.000    0.000    7.714 
#    0.000    0.000    0.000    0.000    0.000    0.000 
#    0.000    0.000    0.000    1.286    0.000   28.286 
#
# Total GULP energy -346883.216831 kJ/mol
# GULP energy per Si atom -12388.686315 kJ/mol
# Density = 1.735356 g / cm^3
# Si number density = 17.393147 Si / 1000 Ang^3
#
#
#
# Elastic Constant Matrix: (Units=GPa)
#
#
# Indices 1 2 3 4 5 6 
#
# 1 64.3492 48.8099 47.2955 0.0000 42.0295 0.0000
# 2 48.8099 107.3208 57.5078 0.0000 38.4179 0.0000
# 3 47.2955 57.5078 84.3906 0.0000 46.9738 0.0000
# 4 0.0000 0.0000 0.0000 22.7217 0.0000 14.1873
# 5 42.0295 38.4179 46.9738 0.0000 38.9195 0.0000
# 6 0.0000 0.0000 0.0000 14.1873 0.0000 18.1897
#
#
#
# Elastic Compliance Matrix: (Units=1/GPa)
#
#
# Indices 1 2 3 4 5 6 
#
# 1 0.057573 -0.007718 0.010238 0.000000 -0.066912 0.000000
# 2 -0.007718 0.016439 -0.007568 0.000000 0.001242 0.000000
# 3 0.010238 -0.007568 0.040419 0.000000 -0.052370 0.000000
# 4 0.000000 0.000000 0.000000 0.085792 0.000000 -0.066914
# 5 -0.066912 0.001242 -0.052370 0.000000 0.159934 0.000000
# 6 0.000000 0.000000 0.000000 -0.066914 0.000000 0.107167
#
#
# Mechanical properties :
#
#
# Convention : Reuss Voigt Hill
#
# Bulk Modulus (GPa) = 9.58447 62.58743 36.08595
# Shear Modulus (GPa) = 9.76187 22.79600 16.27894
#
# Velocity S-wave (km/s) = 2.37164 3.62419 3.06263
# Velocity P-wave (km/s) = 3.60860 7.31950 5.77049
#
# Compressibility (1/GPa) = 0.10433547
#
# Stress axis : x y z
#
# Youngs Moduli (GPa) = 17.36929 60.83199 24.74077
#
# Poissons Ratio (x) = 0.46949 -0.25330
# Poissons Ratio (y) = 0.13405 0.18724
# Poissons Ratio (z) = -0.17783 0.46038
#
# Static dielectric constant tensor:
#      x y z
#    x 3.192360 0.000000 0.863380 
#    y 0.000000 3.352750 0.000000 
#    z 0.863380 0.000000 3.397120 
# 
# 
# High freq. dielectric constant tensor:
#      x y z
#    x 1.627020 0.000000 0.067110 
#    y 0.000000 1.679580 0.000000 
#    z 0.067110 0.000000 1.642270 
# 
# From -- ./inp_files/38017.got.cif
#   From: 2010.06.25/outbox.cif.g09.slc.cpg/sg10_20_cif.got.tgz:38017.got - 2010.06.27 22:07:45.
