data_PCOD8067377
_publ_section_title
;
Structure prediction by ZEFSAII (Michael W. Deem and Ramdas Pophale) SiO2 
 PCOD8067377
Probable space group: P 2/M
;
_chemical_formula_sum "Si O2"
_cell_formula_units_Z 24
_cell_length_a 20.007235
_cell_length_b 9.935993
_cell_length_c 10.619276
_cell_angle_alpha 90.000000
_cell_angle_beta 141.142424
_cell_angle_gamma 90.000000
_cell_volume 1324.428531
_symmetry_space_group_name_H-M "P 2/M"
_symmetry_group_IT_number 10
_symmetry_cell_setting 'monoclinic'
loop_
_space_group_symop_operation_xyz
x,y,z
-x,y,-z
-x,-y,-z
x,-y,z
loop_
_atom_site_type_symbol
_atom_site_label
_atom_site_fract_x
_atom_site_fract_y
_atom_site_fract_z
Si Si1 0.471662 0.653349 0.812435
Si Si2 0.055830 0.763455 0.214340
Si Si3 0.303630 0.252923 0.904648
Si Si4 0.008989 0.000000 0.315054
Si Si5 0.018881 0.500000 0.317077
Si Si6 0.818000 0.000000 0.227547
Si Si7 0.163763 0.500000 0.770838
Si Si8 0.287554 0.840574 0.597712
O O1 0.445317 0.500000 0.728026
O O2 0.374911 0.756905 0.645301
O O3 0.500000 0.648445 0.000000
O O4 0.572760 0.715082 0.886394
O O5 0.175044 0.817644 0.364598
O O6 0.992277 0.870094 0.204976
O O7 0.053235 0.625443 0.284911
O O8 0.000000 0.743603 0.000000
O O9 0.236696 0.371623 0.865286
O O10 0.282651 0.228613 0.726720
O O11 0.260400 0.123311 0.913980
O O12 0.917402 0.000000 0.282280
O O13 0.128423 0.000000 0.552936
O O14 0.894645 0.500000 0.177812
O O15 0.080681 0.500000 0.537157
O O16 0.317511 0.000000 0.648079
#
# Coordination Sequence:
#
# PCOD8067377 Si02
#       8
#     4   4   4   2   2   2   2   4
#     4   9  20  31  50  75 111 144 178 219 273 332
#     4  12  23  38  56  78 113 149 184 224 266 320
#     4  11  18  33  52  82 111 144 172 220 285 326
#     4  11  21  38  53  81 111 150 186 219 277 321
#     4  11  23  36  53  85 109 146 186 223 269 321
#     4  11  20  32  58  82 115 142 179 230 269 332
#     4  11  20  34  58  78 115 146 175 224 275 332
#     4  11  21  34  51  79 110 144 184 224 265 324
#
# _framework density 18.121023999999998
#
# number of rings (size 3 to 8) (size 9 to 14) (size 15 to 20)
#    0.000    1.167    5.833    1.500    3.500    3.667 
#    0.000    0.000    0.000    0.000    0.000    7.000 
#    0.000    0.000    0.000    0.000    0.000    0.000 
#
# Total GULP energy -297519.493483 kJ/mol
# GULP energy per Si atom -12396.645562 kJ/mol
# Density = 1.807978 g / cm^3
# Si number density = 18.121024 Si / 1000 Ang^3
#
#
#
# Elastic Constant Matrix: (Units=GPa)
#
#
# Indices 1 2 3 4 5 6 
#
# 1 74.2574 45.9308 28.7748 0.0000 26.1075 0.0000
# 2 45.9308 152.2384 19.6566 0.0000 18.2115 0.0000
# 3 28.7748 19.6566 50.0183 0.0000 13.3460 0.0000
# 4 0.0000 0.0000 0.0000 36.5302 0.0000 -7.4264
# 5 26.1075 18.2115 13.3460 0.0000 32.2551 0.0000
# 6 0.0000 0.0000 0.0000 -7.4264 0.0000 73.9864
#
#
#
# Elastic Compliance Matrix: (Units=1/GPa)
#
#
# Indices 1 2 3 4 5 6 
#
# 1 0.024462 -0.004639 -0.008617 0.000000 -0.013615 0.000000
# 2 -0.004639 0.008092 -0.000331 0.000000 -0.000677 0.000000
# 3 -0.008617 -0.000331 0.026044 0.000000 -0.003615 0.000000
# 4 0.000000 0.000000 0.000000 0.027945 0.000000 0.002805
# 5 -0.013615 -0.000677 -0.003615 0.000000 0.043901 0.000000
# 6 0.000000 0.000000 0.000000 0.002805 0.000000 0.013798
#
#
# Mechanical properties :
#
#
# Convention : Reuss Voigt Hill
#
# Bulk Modulus (GPa) = 31.82131 51.69319 41.75725
# Shear Modulus (GPa) = 27.48928 40.69781 34.09355
#
# Velocity S-wave (km/s) = 3.89907 4.74422 4.34226
# Velocity P-wave (km/s) = 6.15377 7.65498 6.94506
#
# Compressibility (1/GPa) = 0.03142549
#
# Stress axis : x y z
#
# Youngs Moduli (GPa) = 40.88008 123.58004 38.39623
#
# Poissons Ratio (x) = 0.57328 0.33085
# Poissons Ratio (y) = 0.18964 0.01270
# Poissons Ratio (z) = 0.35225 0.04086
#
# Static dielectric constant tensor:
#      x y z
#    x 3.470590 0.000000 0.426420 
#    y 0.000000 3.669310 0.000000 
#    z 0.426420 0.000000 3.139660 
# 
# 
# High freq. dielectric constant tensor:
#      x y z
#    x 1.694820 0.000000 0.038530 
#    y 0.000000 1.727260 0.000000 
#    z 0.038530 0.000000 1.658080 
# 
# From -- ./inp_files/56754.got.cif
#   From: 2010.06.25/outbox.cif.g09.slc.cpg/sg10_29_cif.got.tgz:56754.got - 2010.06.27 22:07:45.
