data_PCOD8067699
_publ_section_title
;
Structure prediction by ZEFSAII (Michael W. Deem and Ramdas Pophale) SiO2 
 PCOD8067699
Probable space group: P 2/M
;
_chemical_formula_sum "Si O2"
_cell_formula_units_Z 20
_cell_length_a 9.013643
_cell_length_b 14.318669
_cell_length_c 15.557309
_cell_angle_alpha 90.000000
_cell_angle_beta 29.999234
_cell_angle_gamma 90.000000
_cell_volume 1003.916121
_symmetry_space_group_name_H-M "P 2/M"
_symmetry_group_IT_number 10
_symmetry_cell_setting 'monoclinic'
loop_
_space_group_symop_operation_xyz
x,y,z
-x,y,-z
-x,-y,-z
x,-y,z
loop_
_atom_site_type_symbol
_atom_site_label
_atom_site_fract_x
_atom_site_fract_y
_atom_site_fract_z
Si Si1 0.316508 0.781839 0.011856
Si Si2 0.177405 0.894761 0.822595
Si Si3 0.331418 0.218162 0.340217
Si Si4 0.029578 0.605619 0.771335
Si Si5 0.373178 0.605619 0.427742
O O1 0.016051 0.842102 0.152565
O O2 0.235972 0.674061 0.069873
O O3 0.500000 0.822978 0.000000
O O4 0.518479 0.788750 0.827175
O O5 0.489795 0.842101 0.678822
O O6 0.240266 0.000000 0.759736
O O7 0.000000 0.894341 0.000000
O O8 0.318454 0.325941 0.375707
O O9 0.000000 0.177025 0.500000
O O10 0.906816 0.500000 0.835128
O O11 0.147169 0.631066 0.617608
O O12 0.291136 0.616865 0.708859
O O13 0.319027 0.500000 0.422920
#
# Coordination Sequence:
#
# PCOD8067699 Si02
#       5
#     4   4   4   4   4
#     4  11  22  37  59  87 116 151 191 234 283 336
#     4   9  20  40  62  83 112 148 187 235 290 343
#     4  11  22  37  59  87 116 151 191 234 283 336
#     4   9  18  34  57  84 116 153 190 232 281 332
#     4   9  18  34  57  84 116 153 190 232 281 332
#
# _framework density 19.921983999999998
#
# number of rings (size 3 to 8) (size 9 to 14) (size 15 to 20)
#    0.000    2.200    2.000    2.400    0.000    2.400 
#    0.000    2.000    0.000    8.400    0.000    0.000 
#    0.000    0.000    0.000    0.000    0.000    0.000 
#
# Total GULP energy -248043.890328 kJ/mol
# GULP energy per Si atom -12402.194516 kJ/mol
# Density = 1.987664 g / cm^3
# Si number density = 19.921984 Si / 1000 Ang^3
#
#
#
# Elastic Constant Matrix: (Units=GPa)
#
#
# Indices 1 2 3 4 5 6 
#
# 1 121.4106 55.2551 46.4364 0.0000 -22.2201 0.0000
# 2 55.2551 121.3688 45.3218 0.0000 -17.5212 0.0000
# 3 46.4364 45.3218 96.2203 0.0000 -22.1984 0.0000
# 4 0.0000 0.0000 0.0000 17.0862 0.0000 2.0976
# 5 -22.2201 -17.5212 -22.1984 0.0000 31.2199 0.0000
# 6 0.0000 0.0000 0.0000 2.0976 0.0000 15.8938
#
#
#
# Elastic Compliance Matrix: (Units=1/GPa)
#
#
# Indices 1 2 3 4 5 6 
#
# 1 0.011822 -0.003647 -0.003013 0.000000 0.004225 0.000000
# 2 -0.003647 0.011318 -0.003235 0.000000 0.001456 0.000000
# 3 -0.003013 -0.003235 0.014901 0.000000 0.006636 0.000000
# 4 0.000000 0.000000 0.000000 0.059491 0.000000 -0.007851
# 5 0.004225 0.001456 0.006636 0.000000 0.040573 0.000000
# 6 0.000000 0.000000 0.000000 -0.007851 0.000000 0.063954
#
#
# Mechanical properties :
#
#
# Convention : Reuss Voigt Hill
#
# Bulk Modulus (GPa) = 54.78991 70.33627 62.56309
# Shear Modulus (GPa) = 21.93635 25.63908 23.78772
#
# Velocity S-wave (km/s) = 3.32190 3.59133 3.45924
# Velocity P-wave (km/s) = 6.50195 7.25117 6.88675
#
# Compressibility (1/GPa) = 0.01825154
#
# Stress axis : x y z
#
# Youngs Moduli (GPa) = 84.58882 88.35504 67.10799
#
# Poissons Ratio (x) = 0.32225 0.20218
# Poissons Ratio (y) = 0.30851 0.21709
# Poissons Ratio (z) = 0.25484 0.28583
#
# Static dielectric constant tensor:
#      x y z
#    x 3.581250 0.000000 -0.213860 
#    y 0.000000 3.651800 0.000000 
#    z -0.213860 0.000000 3.459910 
# 
# 
# High freq. dielectric constant tensor:
#      x y z
#    x 1.773590 0.000000 -0.014920 
#    y 0.000000 1.771750 0.000000 
#    z -0.014920 0.000000 1.765130 
# 
# From -- ./inp_files/75157.got.cif
#   From: 2010.06.25/outbox.cif.g09.slc.cpg/sg10_38_cif.got.tgz:75157.got - 2010.06.27 22:07:45.
