data_PCOD8067868
_publ_section_title
;
Structure prediction by ZEFSAII (Michael W. Deem and Ramdas Pophale) SiO2 
 PCOD8067868
Probable space group: P 2/M
;
_chemical_formula_sum "Si O2"
_cell_formula_units_Z 28
_cell_length_a 9.371695
_cell_length_b 9.425985
_cell_length_c 23.135221
_cell_angle_alpha 90.000000
_cell_angle_beta 127.416826
_cell_angle_gamma 90.000000
_cell_volume 1623.185785
_symmetry_space_group_name_H-M "P 2/M"
_symmetry_group_IT_number 10
_symmetry_cell_setting 'monoclinic'
loop_
_space_group_symop_operation_xyz
x,y,z
-x,y,-z
-x,-y,-z
x,-y,z
loop_
_atom_site_type_symbol
_atom_site_label
_atom_site_fract_x
_atom_site_fract_y
_atom_site_fract_z
Si Si1 0.656136 0.331720 0.500002
Si Si2 0.905290 0.659804 0.656165
Si Si3 0.690969 0.663947 0.071391
Si Si4 0.436753 0.659799 0.343829
Si Si5 0.765913 0.839916 0.790570
Si Si6 0.976799 0.336053 0.928609
Si Si7 0.894183 0.839914 0.209431
O O1 0.500000 0.259902 0.500000
O O2 0.638582 0.500000 0.500033
O O3 0.847693 0.289256 0.576599
O O4 0.617875 0.289306 0.423396
O O5 0.983707 0.500000 0.674263
O O6 0.729591 0.663171 0.653050
O O7 0.058546 0.763853 0.718303
O O8 0.688568 0.500000 0.089802
O O9 0.835789 0.691670 0.057193
O O10 0.733225 0.756342 0.138527
O O11 0.500000 0.713456 0.000000
O O12 0.460844 0.500000 0.325718
O O13 0.403613 0.763864 0.281698
O O14 0.817654 0.756338 0.861471
O O15 0.932942 0.836890 0.788621
O O16 0.710934 0.000000 0.793113
O O17 0.919167 0.500000 0.910202
O O18 0.000000 0.286535 0.000000
O O19 0.831582 0.000000 0.206891
#
# Coordination Sequence:
#
# PCOD8067868 Si02
#       7
#     4   4   4   4   4   4   4
#     4   7  10  16  27  43  61  85 120 157 188 219
#     4   8  12  19  31  45  63  90 124 158 189 223
#     4   9  17  29  44  60  77  99 128 160 193 229
#     4   8  12  19  31  45  63  90 124 158 189 223
#     4   9  16  24  34  50  72  97 125 156 190 228
#     4   9  17  29  44  60  77  99 128 160 193 229
#     4   9  16  24  34  50  72  97 125 156 190 228
#
# _framework density 17.250029999999999
#
# number of rings (size 3 to 8) (size 9 to 14) (size 15 to 20)
#    0.000    3.571    0.000    2.571    0.000    4.000 
#    0.000    0.714    0.000    4.286    0.000    0.000 
#    0.000    0.000    0.000    1.286    0.000   30.857 
#
# Total GULP energy -346889.929503 kJ/mol
# GULP energy per Si atom -12388.926054 kJ/mol
# Density = 1.721077 g / cm^3
# Si number density = 17.250030 Si / 1000 Ang^3
#
#
#
# Elastic Constant Matrix: (Units=GPa)
#
#
# Indices 1 2 3 4 5 6 
#
# 1 9.7469 12.7678 22.8128 0.0000 4.5728 0.0000
# 2 12.7678 106.5177 96.9097 0.0000 9.6886 0.0000
# 3 22.8128 96.9097 207.7966 0.0000 18.2376 0.0000
# 4 0.0000 0.0000 0.0000 11.5801 0.0000 0.5922
# 5 4.5728 9.6886 18.2376 0.0000 14.8975 0.0000
# 6 0.0000 0.0000 0.0000 0.5922 0.0000 6.4402
#
#
#
# Elastic Compliance Matrix: (Units=1/GPa)
#
#
# Indices 1 2 3 4 5 6 
#
# 1 0.149555 -0.004642 -0.011753 0.000000 -0.028499 0.000000
# 2 -0.004642 0.016479 -0.007126 0.000000 -0.000569 0.000000
# 3 -0.011753 -0.007126 0.009750 0.000000 -0.003694 0.000000
# 4 0.000000 0.000000 0.000000 0.086763 0.000000 -0.007978
# 5 -0.028499 -0.000569 -0.003694 0.000000 0.080766 0.000000
# 6 0.000000 0.000000 0.000000 -0.007978 0.000000 0.156007
#
#
# Mechanical properties :
#
#
# Convention : Reuss Voigt Hill
#
# Bulk Modulus (GPa) = 7.76735 65.44909 36.60822
# Shear Modulus (GPa) = 8.48498 19.35496 13.91997
#
# Velocity S-wave (km/s) = 2.22025 3.35330 2.84377
# Velocity P-wave (km/s) = 3.32945 7.28125 5.66135
#
# Compressibility (1/GPa) = 0.12874410
#
# Stress axis : x y z
#
# Youngs Moduli (GPa) = 6.68650 60.68165 102.56144
#
# Poissons Ratio (x) = 0.28166 1.20539
# Poissons Ratio (y) = 0.03104 0.73085
# Poissons Ratio (z) = 0.07859 0.43242
#
# Static dielectric constant tensor:
#      x y z
#    x 2.452110 0.000000 0.146250 
#    y 0.000000 3.183600 0.000000 
#    z 0.146250 0.000000 3.721940 
# 
# 
# High freq. dielectric constant tensor:
#      x y z
#    x 1.573920 0.000000 0.013580 
#    y 0.000000 1.649900 0.000000 
#    z 0.013580 0.000000 1.691860 
# 
# From -- ./inp_files/54462.got.cif
#   From: 2010.06.25/outbox.cif.g09.slc.cpg/sg10_28_cif.got.tgz:54462.got - 2010.06.27 22:07:45.
