data_PCOD8067427
_publ_section_title
;
Structure prediction by ZEFSAII (Michael W. Deem and Ramdas Pophale) SiO2 
 PCOD8067427
Probable space group: P 2/M
;
_chemical_formula_sum "Si O2"
_cell_formula_units_Z 32
_cell_length_a 8.708182
_cell_length_b 14.492705
_cell_length_c 30.752367
_cell_angle_alpha 90.000000
_cell_angle_beta 149.331531
_cell_angle_gamma 90.000000
_cell_volume 1979.634340
_symmetry_space_group_name_H-M "P 2/M"
_symmetry_group_IT_number 10
_symmetry_cell_setting 'monoclinic'
loop_
_space_group_symop_operation_xyz
x,y,z
-x,y,-z
-x,-y,-z
x,-y,z
loop_
_atom_site_type_symbol
_atom_site_label
_atom_site_fract_x
_atom_site_fract_y
_atom_site_fract_z
Si Si1 0.291718 0.391485 0.989992
Si Si2 0.263623 0.604882 0.308320
Si Si3 0.539300 0.100124 0.909966
Si Si4 0.336813 0.291843 0.169257
Si Si5 0.354257 0.292490 0.848452
Si Si6 0.319548 0.605147 0.674723
Si Si7 0.808022 0.390948 0.491729
Si Si8 0.130655 0.100253 0.101126
O O1 0.267722 0.500000 0.991435
O O2 0.960162 0.353508 0.900204
O O3 0.500000 0.366638 0.000000
O O4 0.432646 0.347641 0.067141
O O5 0.149968 0.500000 0.286172
O O6 0.468071 0.613664 0.315446
O O7 0.457406 0.637055 0.398486
O O8 0.979207 0.669345 0.234437
O O9 0.312154 0.186462 0.854291
O O10 0.716343 0.100941 0.908236
O O11 0.374289 0.000000 0.875246
O O12 0.773697 0.114094 0.006687
O O13 0.485254 0.301039 0.158536
O O14 0.576824 0.325512 0.262891
O O15 0.256705 0.184830 0.160530
O O16 0.327217 0.500000 0.694194
O O17 0.972980 0.634196 0.577514
O O18 0.825079 0.500000 0.489921
O O19 0.000000 0.343762 0.500000
O O20 0.189864 0.000000 0.138240
#
# Coordination Sequence:
#
# PCOD8067427 Si02
#       8
#     4   4   4   4   4   4   4   4
#     4  11  23  35  44  57  86 128 161 179 204 253
#     4   9  17  30  47  66  90 121 153 182 215 260
#     4   8  14  27  46  64  83 111 147 183 220 264
#     4  11  20  30  46  69  91 114 146 186 227 263
#     4  11  20  30  46  69  91 114 146 186 227 263
#     4   9  17  30  47  66  90 121 153 182 215 260
#     4   7  12  26  47  65  82 113 156 188 209 249
#     4   8  14  27  46  64  83 111 147 183 220 264
#
# _framework density 16.164601000000001
#
# number of rings (size 3 to 8) (size 9 to 14) (size 15 to 20)
#    0.000    2.750    1.250    4.125    0.000    4.500 
#    0.000    0.625    0.000    6.000    0.000    0.875 
#    0.000    7.000    0.000    0.000    0.000    0.000 
#
# Total GULP energy -396417.532358 kJ/mol
# GULP energy per Si atom -12388.047886 kJ/mol
# Density = 1.612781 g / cm^3
# Si number density = 16.164601 Si / 1000 Ang^3
#
#
#
# Elastic Constant Matrix: (Units=GPa)
#
#
# Indices 1 2 3 4 5 6 
#
# 1 19.5475 15.2798 4.0651 0.0000 -11.0051 0.0000
# 2 15.2798 105.8550 48.2697 0.0000 -11.9352 0.0000
# 3 4.0651 48.2697 95.7374 0.0000 -17.8876 0.0000
# 4 0.0000 0.0000 0.0000 -6.7565 0.0000 18.9242
# 5 -11.0051 -11.9352 -17.8876 0.0000 15.3600 0.0000
# 6 0.0000 0.0000 0.0000 18.9242 0.0000 -23.4328
#
#
#
# Elastic Compliance Matrix: (Units=1/GPa)
#
#
# Indices 1 2 3 4 5 6 
#
# 1 0.108555 -0.014433 0.019304 0.000000 0.089044 0.000000
# 2 -0.014433 0.014294 -0.008245 0.000000 -0.008835 0.000000
# 3 0.019304 -0.008245 0.019388 0.000000 0.030003 0.000000
# 4 0.000000 0.000000 0.000000 0.117281 0.000000 0.094715
# 5 0.089044 -0.008835 0.030003 0.000000 0.156977 0.000000
# 6 0.000000 0.000000 0.000000 0.094715 0.000000 0.033816
#
#
# Mechanical properties :
#
#
# Convention : Reuss Voigt Hill
#
# Bulk Modulus (GPa) = 7.38055 39.59656 23.48855
# Shear Modulus (GPa) = 9.95578 7.26917 8.61248
#
# Velocity S-wave (km/s) = 2.48443 2.12291 2.31075
# Velocity P-wave (km/s) = 3.57849 5.52793 4.65637
#
# Compressibility (1/GPa) = 0.13549125
#
# Stress axis : x y z
#
# Youngs Moduli (GPa) = 9.21190 69.96185 51.57760
#
# Poissons Ratio (x) = 1.00973 -0.99567
# Poissons Ratio (y) = 0.13295 0.42524
# Poissons Ratio (z) = -0.17783 0.57681
#
# Static dielectric constant tensor:
#      x y z
#    x 2.793750 0.000000 0.006720 
#    y 0.000000 3.319840 0.000000 
#    z 0.006720 0.000000 3.466520 
# 
# 
# High freq. dielectric constant tensor:
#      x y z
#    x 1.594990 0.000000 -0.002050 
#    y 0.000000 1.608680 0.000000 
#    z -0.002050 0.000000 1.616550 
# 
# From -- ./inp_files/29100.got.cif
#   From: 2010.06.25/outbox.cif.g09.slc.cpg/sg10_15_cif.got.tgz:29100.got - 2010.06.27 22:07:45.
