data_PCOD8067745
_publ_section_title
;
Structure prediction by ZEFSAII (Michael W. Deem and Ramdas Pophale) SiO2 
 PCOD8067745
Probable space group: P 2/M
;
_chemical_formula_sum "Si O2"
_cell_formula_units_Z 32
_cell_length_a 7.699101
_cell_length_b 27.147499
_cell_length_c 13.795233
_cell_angle_alpha 90.000000
_cell_angle_beta 34.324208
_cell_angle_gamma 90.000000
_cell_volume 1625.854765
_symmetry_space_group_name_H-M "P 2/M"
_symmetry_group_IT_number 10
_symmetry_cell_setting 'monoclinic'
loop_
_space_group_symop_operation_xyz
x,y,z
-x,y,-z
-x,-y,-z
x,-y,z
loop_
_atom_site_type_symbol
_atom_site_label
_atom_site_fract_x
_atom_site_fract_y
_atom_site_fract_z
Si Si1 0.677665 0.126833 0.008722
Si Si2 0.293051 0.554575 0.501544
Si Si3 0.635310 0.133201 0.331621
Si Si4 0.825000 0.375523 0.811755
Si Si5 0.334505 0.787152 0.833674
Si Si6 0.369080 0.944482 0.819844
Si Si7 0.691910 0.306865 0.700507
Si Si8 0.765044 0.622012 0.188503
O O1 0.679438 0.167093 0.089960
O O2 0.518412 0.077850 0.128440
O O3 0.500000 0.147928 0.000000
O O4 0.016746 0.116517 0.815039
O O5 0.500000 0.550000 0.500000
O O6 0.200490 0.500000 0.507169
O O7 0.499289 0.581327 0.325550
O O8 0.980676 0.584503 0.668697
O O9 0.500000 0.134580 0.500000
O O10 0.600953 0.188531 0.301708
O O11 0.491173 0.089694 0.330729
O O12 0.743380 0.326819 0.786356
O O13 0.056825 0.363346 0.793964
O O14 0.500000 0.397299 0.000000
O O15 0.609912 0.750839 0.738855
O O16 0.000000 0.760328 0.000000
O O17 0.488718 0.000000 0.750081
O O18 0.000000 0.941103 0.000000
O O19 0.401630 0.330453 0.778423
O O20 0.000000 0.317307 0.500000
O O21 0.000000 0.600613 0.000000
#
# Coordination Sequence:
#
# PCOD8067745 Si02
#       8
#     4   4   4   4   4   4   4   4
#     4   9  18  34  55  77 109 146 187 238 280 342
#     4   9  20  40  64  91 125 161 199 245 293 351
#     4   9  18  35  55  79 111 147 186 235 292 337
#     4  11  23  40  64  90 122 160 197 243 300 350
#     4   9  21  40  55  77 111 149 191 236 290 352
#     4   8  15  30  53  78 109 150 189 226 279 345
#     4  12  24  41  62  89 117 154 200 246 303 358
#     4  11  22  41  64  88 127 157 194 248 292 353
#
# _framework density 19.681954999999999
#
# number of rings (size 3 to 8) (size 9 to 14) (size 15 to 20)
#    0.000    2.250    2.500    1.875    0.000    2.500 
#    4.500    3.125    0.000    0.750    0.000    0.000 
#    0.000    0.000    0.000    0.000    0.000    0.000 
#
# Total GULP energy -396532.488273 kJ/mol
# GULP energy per Si atom -12391.640259 kJ/mol
# Density = 1.963716 g / cm^3
# Si number density = 19.681955 Si / 1000 Ang^3
#
#
#
# Elastic Constant Matrix: (Units=GPa)
#
#
# Indices 1 2 3 4 5 6 
#
# 1 96.3585 27.0478 37.5050 0.0000 9.0070 0.0000
# 2 27.0478 95.8236 55.1576 0.0000 4.7348 0.0000
# 3 37.5050 55.1576 146.4107 0.0000 17.7502 0.0000
# 4 0.0000 0.0000 0.0000 0.4050 0.0000 -18.6171
# 5 9.0070 4.7348 17.7502 0.0000 27.0834 0.0000
# 6 0.0000 0.0000 0.0000 -18.6171 0.0000 2.0562
#
#
#
# Elastic Compliance Matrix: (Units=1/GPa)
#
#
# Indices 1 2 3 4 5 6 
#
# 1 0.011961 -0.002119 -0.001986 0.000000 -0.002306 0.000000
# 2 -0.002119 0.013728 -0.004805 0.000000 0.001454 0.000000
# 3 -0.001986 -0.004805 0.009741 0.000000 -0.004884 0.000000
# 4 0.000000 0.000000 0.000000 -0.005947 0.000000 -0.053844
# 5 -0.002306 0.001454 -0.004884 0.000000 0.040636 0.000000
# 6 0.000000 0.000000 0.000000 -0.053844 0.000000 -0.001171
#
#
# Mechanical properties :
#
#
# Convention : Reuss Voigt Hill
#
# Bulk Modulus (GPa) = 56.78704 64.22374 60.50539
# Shear Modulus (GPa) = 53.97248 20.50108 37.23678
#
# Velocity S-wave (km/s) = 5.24231 3.23091 4.35435
# Velocity P-wave (km/s) = 8.09675 6.82788 7.48924
#
# Compressibility (1/GPa) = 0.01760965
#
# Stress axis : x y z
#
# Youngs Moduli (GPa) = 83.60276 72.84303 102.65583
#
# Poissons Ratio (x) = 0.15436 0.20389
# Poissons Ratio (y) = 0.17716 0.49329
# Poissons Ratio (z) = 0.16605 0.35003
#
# Static dielectric constant tensor:
#      x y z
#    x 3.261960 0.000000 0.342760 
#    y 0.000000 3.635380 0.000000 
#    z 0.342760 0.000000 3.442190 
# 
# 
# High freq. dielectric constant tensor:
#      x y z
#    x 1.761090 0.000000 0.007850 
#    y 0.000000 1.755260 0.000000 
#    z 0.007850 0.000000 1.767910 
# 
# From -- ./inp_files/62737.got.cif
#   From: 2010.06.25/outbox.cif.g09.slc.cpg/sg10_32_cif.got.tgz:62737.got - 2010.06.27 22:07:45.
