data_PCOD8067506
_publ_section_title
;
Structure prediction by ZEFSAII (Michael W. Deem and Ramdas Pophale) SiO2 
 PCOD8067506
Probable space group: P 2/M
;
_chemical_formula_sum "Si O2"
_cell_formula_units_Z 32
_cell_length_a 23.193191
_cell_length_b 9.184579
_cell_length_c 16.708671
_cell_angle_alpha 90.000000
_cell_angle_beta 31.464394
_cell_angle_gamma 90.000000
_cell_volume 1857.830302
_symmetry_space_group_name_H-M "P 2/M"
_symmetry_group_IT_number 10
_symmetry_cell_setting 'monoclinic'
loop_
_space_group_symop_operation_xyz
x,y,z
-x,y,-z
-x,-y,-z
x,-y,z
loop_
_atom_site_type_symbol
_atom_site_label
_atom_site_fract_x
_atom_site_fract_y
_atom_site_fract_z
Si Si1 0.881716 0.174275 0.463264
Si Si2 0.453292 0.333124 0.372357
Si Si3 0.129925 0.157836 0.349623
Si Si4 0.117238 0.326955 0.836826
Si Si5 0.325232 0.668063 0.686264
Si Si6 0.340722 0.172264 0.830417
Si Si7 0.765608 0.671540 0.459219
Si Si8 0.130859 0.173770 0.176811
O O1 0.843806 0.235164 0.596208
O O2 0.796073 0.243027 0.502940
O O3 0.008246 0.225350 0.294745
O O4 0.873949 0.000000 0.469420
O O5 0.487857 0.500000 0.319358
O O6 0.410635 0.309271 0.513158
O O7 0.560323 0.232812 0.231070
O O8 0.359337 0.290425 0.419302
O O9 0.163238 0.239586 0.227071
O O10 0.000000 0.133505 0.500000
O O11 0.188927 0.000000 0.281214
O O12 0.113461 0.500000 0.838744
O O13 0.205018 0.278636 0.799543
O O14 0.152171 0.271882 0.707768
O O15 0.000000 0.257883 0.000000
O O16 0.324235 0.500000 0.714828
O O17 0.359113 0.767016 0.720092
O O18 0.347407 0.000000 0.820935
O O19 0.222662 0.226728 0.004827
O O20 0.778873 0.500000 0.457704
O O21 0.130371 0.000000 0.185420
#
# Coordination Sequence:
#
# PCOD8067506 Si02
#       8
#     4   4   4   4   4   4   4   4
#     4   9  16  28  50  74  94 119 151 183 221 279
#     4   9  19  36  50  62  87 125 165 194 222 265
#     4   7  11  24  46  67  89 122 154 176 211 271
#     4   8  15  28  45  64  88 120 155 184 214 265
#     4   9  18  32  49  66  86 120 161 195 225 264
#     4  11  21  30  46  71  96 119 149 195 239 270
#     4   9  18  31  48  69  91 118 152 193 232 264
#     4   8  16  29  44  69 101 123 144 182 230 274
#
# _framework density 17.224392999999999
#
# number of rings (size 3 to 8) (size 9 to 14) (size 15 to 20)
#    0.000    3.250    0.000    3.750    1.750    2.500 
#    0.000    2.500    0.000    6.375    0.000    5.250 
#    0.000    0.000    0.000    0.000    0.000    0.000 
#
# Total GULP energy -396461.287860 kJ/mol
# GULP energy per Si atom -12389.415246 kJ/mol
# Density = 1.718519 g / cm^3
# Si number density = 17.224393 Si / 1000 Ang^3
#
#
#
# Elastic Constant Matrix: (Units=GPa)
#
#
# Indices 1 2 3 4 5 6 
#
# 1 125.0014 34.4857 34.4752 0.0000 1.6028 0.0000
# 2 34.4857 37.1261 21.9347 0.0000 -1.4844 0.0000
# 3 34.4752 21.9347 48.0115 0.0000 -7.1144 0.0000
# 4 0.0000 0.0000 0.0000 -18.6091 0.0000 -13.7688
# 5 1.6028 -1.4844 -7.1144 0.0000 19.1199 0.0000
# 6 0.0000 0.0000 0.0000 -13.7688 0.0000 20.6820
#
#
#
# Elastic Compliance Matrix: (Units=1/GPa)
#
#
# Indices 1 2 3 4 5 6 
#
# 1 0.011680 -0.007841 -0.005334 0.000000 -0.003573 0.000000
# 2 -0.007841 0.042393 -0.013920 0.000000 -0.001231 0.000000
# 3 -0.005334 -0.013920 0.032729 0.000000 0.011545 0.000000
# 4 0.000000 0.000000 0.000000 -0.036003 0.000000 -0.023969
# 5 -0.003573 -0.001231 0.011545 0.000000 0.056801 0.000000
# 6 0.000000 0.000000 0.000000 -0.023969 0.000000 0.032394
#
#
# Mechanical properties :
#
#
# Convention : Reuss Voigt Hill
#
# Bulk Modulus (GPa) = 30.66360 43.54779 37.10569
# Shear Modulus (GPa) = 24.38353 12.18812 18.28582
#
# Velocity S-wave (km/s) = 3.76658 2.66298 3.26179
# Velocity P-wave (km/s) = 6.06277 5.89854 5.98122
#
# Compressibility (1/GPa) = 0.03261196
#
# Stress axis : x y z
#
# Youngs Moduli (GPa) = 85.61662 23.58859 30.55379
#
# Poissons Ratio (x) = 0.18495 0.16298
# Poissons Ratio (y) = 0.67128 0.42532
# Poissons Ratio (z) = 0.45670 0.32836
#
# Static dielectric constant tensor:
#      x y z
#    x 3.360600 0.000000 0.050080 
#    y 0.000000 2.772700 0.000000 
#    z 0.050080 0.000000 3.417630 
# 
# 
# High freq. dielectric constant tensor:
#      x y z
#    x 1.669210 0.000000 -0.000080 
#    y 0.000000 1.622030 0.000000 
#    z -0.000080 0.000000 1.650380 
# 
# From -- ./inp_files/79924.got.cif
#   From: 2010.06.25/outbox.cif.g09.slc.cpg/sg10_40_cif.got.tgz:79924.got - 2010.06.27 22:07:45.
