data_PCOD8067697
_publ_section_title
;
Structure prediction by ZEFSAII (Michael W. Deem and Ramdas Pophale) SiO2 
 PCOD8067697
Probable space group: P 2/M
;
_chemical_formula_sum "Si O2"
_cell_formula_units_Z 20
_cell_length_a 23.871783
_cell_length_b 8.256593
_cell_length_c 5.168475
_cell_angle_alpha 90.000000
_cell_angle_beta 109.049551
_cell_angle_gamma 90.000000
_cell_volume 962.916686
_symmetry_space_group_name_H-M "P 2/M"
_symmetry_group_IT_number 10
_symmetry_cell_setting 'monoclinic'
loop_
_space_group_symop_operation_xyz
x,y,z
-x,y,-z
-x,-y,-z
x,-y,z
loop_
_atom_site_type_symbol
_atom_site_label
_atom_site_fract_x
_atom_site_fract_y
_atom_site_fract_z
Si Si1 0.034283 0.693169 0.801701
Si Si2 0.370414 0.688334 0.811598
Si Si3 0.168047 0.693305 0.001697
Si Si4 0.236233 0.307183 0.605342
Si Si5 0.567527 0.812182 0.595533
O O1 0.035049 0.500000 0.802944
O O2 0.000000 0.759918 0.500000
O O3 0.101153 0.760813 0.902508
O O4 0.000000 0.760002 0.000000
O O5 0.372122 0.500000 0.742162
O O6 0.303494 0.756204 0.706740
O O7 0.407688 0.784276 0.654252
O O8 0.396121 0.712502 0.136891
O O9 0.167418 0.500000 0.000375
O O10 0.202567 0.760043 0.303309
O O11 0.202022 0.761799 0.802957
O O12 0.235600 0.500000 0.610267
O O13 0.500000 0.751236 0.500000
O O14 0.571603 0.000000 0.674542
#
# Coordination Sequence:
#
# PCOD8067697 Si02
#       5
#     4   4   4   4   4
#     4   9  15  21  30  47  73 111 162 208 240 285
#     4  11  22  37  59  85 110 139 184 233 268 313
#     4   9  15  24  37  54  83 121 160 206 256 301
#     4   9  17  28  43  65  91 121 161 210 260 305
#     4  11  24  41  59  81 112 147 179 215 270 335
#
# _framework density 20.770227999999999
#
# number of rings (size 3 to 8) (size 9 to 14) (size 15 to 20)
#    0.000    2.200    0.000    4.200    0.000   12.000 
#    0.000    0.000    0.000    0.000    0.000    0.000 
#    0.000    0.000    0.000    0.000    0.000  252.000 
#
# Total GULP energy -248056.112365 kJ/mol
# GULP energy per Si atom -12402.805618 kJ/mol
# Density = 2.072295 g / cm^3
# Si number density = 20.770228 Si / 1000 Ang^3
#
#
#
# Elastic Constant Matrix: (Units=GPa)
#
#
# Indices 1 2 3 4 5 6 
#
# 1 196.3404 15.8941 83.1086 0.0000 4.3536 0.0000
# 2 15.8941 17.3648 8.6212 0.0000 4.1817 0.0000
# 3 83.1086 8.6212 174.1005 0.0000 3.6689 0.0000
# 4 0.0000 0.0000 0.0000 11.5121 0.0000 -7.5996
# 5 4.3536 4.1817 3.6689 0.0000 51.6950 0.0000
# 6 0.0000 0.0000 0.0000 -7.5996 0.0000 -2.9576
#
#
#
# Elastic Compliance Matrix: (Units=1/GPa)
#
#
# Indices 1 2 3 4 5 6 
#
# 1 0.006735 -0.004689 -0.002983 0.000000 0.000024 0.000000
# 2 -0.004689 0.063405 -0.000803 0.000000 -0.004677 0.000000
# 3 -0.002983 -0.000803 0.007212 0.000000 -0.000196 0.000000
# 4 0.000000 0.000000 0.000000 0.032217 0.000000 -0.082783
# 5 0.000024 -0.004677 -0.000196 0.000000 0.019734 0.000000
# 6 0.000000 0.000000 0.000000 -0.082783 0.000000 -0.125401
#
#
# Mechanical properties :
#
#
# Convention : Reuss Voigt Hill
#
# Bulk Modulus (GPa) = 16.55598 67.00594 41.78096
# Shear Modulus (GPa) = 121.99281 30.72869 76.36075
#
# Velocity S-wave (km/s) = 7.67216 3.85055 6.06995
# Velocity P-wave (km/s) = 9.29898 7.21800 8.32378
#
# Compressibility (1/GPa) = 0.06040114
#
# Stress axis : x y z
#
# Youngs Moduli (GPa) = 148.47611 15.77167 138.66141
#
# Poissons Ratio (x) = 0.07396 0.41368
# Poissons Ratio (y) = 0.69625 0.11130
# Poissons Ratio (z) = 0.44296 0.01266
#
# Static dielectric constant tensor:
#      x y z
#    x 4.009670 0.000000 0.050350 
#    y 0.000000 3.010630 0.000000 
#    z 0.050350 0.000000 3.873530 
# 
# 
# High freq. dielectric constant tensor:
#      x y z
#    x 1.832910 0.000000 0.000720 
#    y 0.000000 1.749680 0.000000 
#    z 0.000720 0.000000 1.829870 
# 
# From -- ./inp_files/11987.got.cif
#   From: 2010.06.25/outbox.cif.g09.slc.cpg/sg10_6_cif.got.tgz:11987.got - 2010.06.27 22:07:45.
