data_PCOD8067936
_publ_section_title
;
Structure prediction by ZEFSAII (Michael W. Deem and Ramdas Pophale) SiO2 
 PCOD8067936
Probable space group: P 2/M
;
_chemical_formula_sum "Si O2"
_cell_formula_units_Z 24
_cell_length_a 18.252594
_cell_length_b 9.834747
_cell_length_c 24.835372
_cell_angle_alpha 90.000000
_cell_angle_beta 19.348835
_cell_angle_gamma 90.000000
_cell_volume 1477.081331
_symmetry_space_group_name_H-M "P 2/M"
_symmetry_group_IT_number 10
_symmetry_cell_setting 'monoclinic'
loop_
_space_group_symop_operation_xyz
x,y,z
-x,y,-z
-x,-y,-z
x,-y,z
loop_
_atom_site_type_symbol
_atom_site_label
_atom_site_fract_x
_atom_site_fract_y
_atom_site_fract_z
Si Si1 0.745745 0.157262 0.672310
Si Si2 0.573571 0.842751 0.008377
Si Si3 0.746163 0.338279 0.328397
Si Si4 0.556667 0.651203 0.178447
Si Si5 0.116208 0.651212 0.148666
Si Si6 0.947917 0.338261 0.977517
O O1 0.626486 0.188665 0.811763
O O2 0.640270 0.243890 0.696855
O O3 0.000000 0.200808 0.500000
O O4 0.721186 0.000000 0.673544
O O5 0.642334 0.000000 0.962950
O O6 0.500000 0.799159 0.000000
O O7 0.791774 0.756068 0.871098
O O8 0.500000 0.275689 0.500000
O O9 0.738145 0.500000 0.329174
O O10 0.876005 0.299632 0.293570
O O11 0.873257 0.277508 0.188373
O O12 0.456863 0.500000 0.257023
O O13 0.724183 0.646541 0.012913
O O14 0.697669 0.700340 0.132747
O O15 0.101315 0.500000 0.184785
O O16 0.968852 0.500000 0.963830
O O17 0.000000 0.275735 0.000000
#
# Coordination Sequence:
#
# PCOD8067936 Si02
#       6
#     4   4   4   4   4   4
#     4   9  17  29  44  60  78 103 134 164 195 234
#     4   9  17  29  44  60  78 103 134 164 195 234
#     4   8  13  22  37  56  77 101 128 157 189 226
#     4   8  14  25  41  60  81 105 132 161 194 232
#     4   8  14  25  41  60  81 105 132 161 194 232
#     4   8  13  22  37  56  77 101 128 157 189 226
#
# _framework density 16.248258
#
# number of rings (size 3 to 8) (size 9 to 14) (size 15 to 20)
#    0.000    3.667    0.000    2.000    0.000    0.667 
#    0.000    1.667    0.000    3.000    0.000    0.000 
#    0.000    0.000    0.000    0.000    0.000    0.000 
#
# Total GULP energy -297423.837004 kJ/mol
# GULP energy per Si atom -12392.659875 kJ/mol
# Density = 1.621128 g / cm^3
# Si number density = 16.248258 Si / 1000 Ang^3
#
#
#
# Elastic Constant Matrix: (Units=GPa)
#
#
# Indices 1 2 3 4 5 6 
#
# 1 127.5770 49.7200 56.2900 0.0000 -32.1241 0.0000
# 2 49.7200 50.2358 41.7007 0.0000 -21.1248 0.0000
# 3 56.2900 41.7007 102.9557 0.0000 -32.6236 0.0000
# 4 0.0000 0.0000 0.0000 9.3508 0.0000 1.5892
# 5 -32.1241 -21.1248 -32.6236 0.0000 28.1697 0.0000
# 6 0.0000 0.0000 0.0000 1.5892 0.0000 8.6787
#
#
#
# Elastic Compliance Matrix: (Units=1/GPa)
#
#
# Indices 1 2 3 4 5 6 
#
# 1 0.014054 -0.009695 -0.001552 0.000000 0.006959 0.000000
# 2 -0.009695 0.040205 -0.007793 0.000000 0.010069 0.000000
# 3 -0.001552 -0.007793 0.017859 0.000000 0.013069 0.000000
# 4 0.000000 0.000000 0.000000 0.110378 0.000000 -0.020212
# 5 0.006959 0.010069 0.013069 0.000000 0.066121 0.000000
# 6 0.000000 0.000000 0.000000 -0.020212 0.000000 0.118926
#
#
# Mechanical properties :
#
#
# Convention : Reuss Voigt Hill
#
# Bulk Modulus (GPa) = 29.37949 64.02110 46.70030
# Shear Modulus (GPa) = 11.99134 18.11036 15.05085
#
# Velocity S-wave (km/s) = 2.71958 3.34219 3.04683
# Velocity P-wave (km/s) = 5.28983 7.37435 6.41729
#
# Compressibility (1/GPa) = 0.03403735
#
# Stress axis : x y z
#
# Youngs Moduli (GPa) = 71.15519 24.87275 55.99415
#
# Poissons Ratio (x) = 0.24114 0.08690
# Poissons Ratio (y) = 0.68984 0.43638
# Poissons Ratio (z) = 0.11042 0.19384
#
# Static dielectric constant tensor:
#      x y z
#    x 3.241570 0.000000 -0.252220 
#    y 0.000000 2.881220 0.000000 
#    z -0.252220 0.000000 3.145850 
# 
# 
# High freq. dielectric constant tensor:
#      x y z
#    x 1.618680 0.000000 -0.023200 
#    y 0.000000 1.587650 0.000000 
#    z -0.023200 0.000000 1.609810 
# 
# From -- ./inp_files/35945.got.cif
#   From: 2010.06.25/outbox.cif.g09.slc.cpg/sg10_18_cif.got.tgz:35945.got - 2010.06.27 22:07:45.
