data_PCOD8067800
_publ_section_title
;
Structure prediction by ZEFSAII (Michael W. Deem and Ramdas Pophale) SiO2 
 PCOD8067800
Probable space group: P 2/M
;
_chemical_formula_sum "Si O2"
_cell_formula_units_Z 20
_cell_length_a 13.854280
_cell_length_b 13.453911
_cell_length_c 16.082751
_cell_angle_alpha 90.000000
_cell_angle_beta 163.327659
_cell_angle_gamma 90.000000
_cell_volume 860.043724
_symmetry_space_group_name_H-M "P 2/M"
_symmetry_group_IT_number 10
_symmetry_cell_setting 'monoclinic'
loop_
_space_group_symop_operation_xyz
x,y,z
-x,y,-z
-x,-y,-z
x,-y,z
loop_
_atom_site_type_symbol
_atom_site_label
_atom_site_fract_x
_atom_site_fract_y
_atom_site_fract_z
Si Si1 0.314880 0.267282 0.930869
Si Si2 0.297805 0.389720 0.618621
Si Si3 0.803033 0.887605 0.579350
Si Si4 0.061682 0.822335 0.954612
Si Si5 0.067563 0.395188 0.959318
O O1 0.589074 0.306155 0.222444
O O2 0.500000 0.234024 0.000000
O O3 0.070241 0.360810 0.716456
O O4 0.119659 0.170797 0.803003
O O5 0.280095 0.500000 0.644518
O O6 0.536633 0.392236 0.734630
O O7 0.460343 0.833782 0.268339
O O8 0.798651 0.000000 0.541654
O O9 0.847532 0.892456 0.716861
O O10 0.925698 0.711868 0.813564
O O11 0.000000 0.848593 0.000000
O O12 0.916498 0.500000 0.795507
O O13 0.000000 0.400596 0.000000
#
# Coordination Sequence:
#
# PCOD8067800 Si02
#       5
#     4   4   4   4   4
#     4  12  25  44  65  91 125 163 214 264 314 366
#     4  11  23  42  67  96 130 165 204 251 310 376
#     4  12  25  44  65  91 125 163 214 264 314 366
#     4  11  23  42  67  96 130 165 204 251 310 376
#     4   9  18  36  64  96 131 166 198 240 301 378
#
# _framework density 23.254631
#
# number of rings (size 3 to 8) (size 9 to 14) (size 15 to 20)
#    0.000    1.000    4.000    2.400    0.000    5.200 
#    0.000    2.000    0.000   14.400    0.000    0.000 
#    0.000    0.000    0.000    0.000    0.000    0.000 
#
# Total GULP energy -247799.391644 kJ/mol
# GULP energy per Si atom -12389.969582 kJ/mol
# Density = 2.320170 g / cm^3
# Si number density = 23.254631 Si / 1000 Ang^3
#
#
#
# Elastic Constant Matrix: (Units=GPa)
#
#
# Indices 1 2 3 4 5 6 
#
# 1 101.3557 33.8385 12.8531 0.0000 12.5425 0.0000
# 2 33.8385 157.8968 11.9079 0.0000 2.9622 0.0000
# 3 12.8531 11.9079 54.8335 0.0000 -8.0429 0.0000
# 4 0.0000 0.0000 0.0000 15.7684 0.0000 -18.8933
# 5 12.5425 2.9622 -8.0429 0.0000 28.0327 0.0000
# 6 0.0000 0.0000 0.0000 -18.8933 0.0000 -24.9127
#
#
#
# Elastic Compliance Matrix: (Units=1/GPa)
#
#
# Indices 1 2 3 4 5 6 
#
# 1 0.011720 -0.002163 -0.003145 0.000000 -0.005917 0.000000
# 2 -0.002163 0.006872 -0.000992 0.000000 -0.000043 0.000000
# 3 -0.003145 -0.000992 0.020264 0.000000 0.007326 0.000000
# 4 0.000000 0.000000 0.000000 0.033226 0.000000 -0.025198
# 5 -0.005917 -0.000043 0.007326 0.000000 0.040427 0.000000
# 6 0.000000 0.000000 0.000000 -0.025198 0.000000 -0.021030
#
#
# Mechanical properties :
#
#
# Convention : Reuss Voigt Hill
#
# Bulk Modulus (GPa) = 38.08690 47.92056 43.00373
# Shear Modulus (GPa) = 44.31398 20.81012 32.56205
#
# Velocity S-wave (km/s) = 4.37005 2.99470 3.74604
# Velocity P-wave (km/s) = 6.47124 5.71045 6.10271
#
# Compressibility (1/GPa) = 0.02625575
#
# Stress axis : x y z
#
# Youngs Moduli (GPa) = 85.32688 145.50809 49.34813
#
# Poissons Ratio (x) = 0.31479 0.15521
# Poissons Ratio (y) = 0.18460 0.04893
# Poissons Ratio (z) = 0.26837 0.14429
#
# Static dielectric constant tensor:
#      x y z
#    x 4.198610 0.000000 0.136350 
#    y 0.000000 4.631090 0.000000 
#    z 0.136350 0.000000 3.953550 
# 
# 
# High freq. dielectric constant tensor:
#      x y z
#    x 1.912430 0.000000 0.010580 
#    y 0.000000 1.930500 0.000000 
#    z 0.010580 0.000000 1.901430 
# 
# From -- ./inp_files/78141.got.cif
#   From: 2010.06.25/outbox.cif.g09.slc.cpg/sg10_40_cif.got.tgz:78141.got - 2010.06.27 22:07:45.
