data_PCOD8067264
_publ_section_title
;
Structure prediction by ZEFSAII (Michael W. Deem and Ramdas Pophale) SiO2 
 PCOD8067264
Probable space group: P 2/M
;
_chemical_formula_sum "Si O2"
_cell_formula_units_Z 28
_cell_length_a 24.938127
_cell_length_b 8.789342
_cell_length_c 8.963747
_cell_angle_alpha 90.000000
_cell_angle_beta 45.030982
_cell_angle_gamma 90.000000
_cell_volume 1390.047051
_symmetry_space_group_name_H-M "P 2/M"
_symmetry_group_IT_number 10
_symmetry_cell_setting 'monoclinic'
loop_
_space_group_symop_operation_xyz
x,y,z
-x,y,-z
-x,-y,-z
x,-y,z
loop_
_atom_site_type_symbol
_atom_site_label
_atom_site_fract_x
_atom_site_fract_y
_atom_site_fract_z
Si Si1 0.988744 0.177950 0.193717
Si Si2 0.294305 0.325184 0.268221
Si Si3 0.146306 0.324748 0.383700
Si Si4 0.264808 0.180012 0.636197
Si Si5 0.406680 0.819910 0.539569
Si Si6 0.425380 0.179951 0.836775
Si Si7 0.127296 0.678773 0.080519
O O1 0.044487 0.274055 0.188513
O O2 0.903885 0.220551 0.408986
O O3 0.003893 0.000000 0.187567
O O4 0.000000 0.224815 0.000000
O O5 0.302125 0.500000 0.298771
O O6 0.233974 0.301407 0.254278
O O7 0.265021 0.232478 0.466553
O O8 0.375699 0.264175 0.057548
O O9 0.121382 0.500000 0.452332
O O10 0.136178 0.270281 0.234095
O O11 0.337886 0.249414 0.578712
O O12 0.266549 0.000000 0.638174
O O13 0.188415 0.235413 0.861743
O O14 0.487044 0.772552 0.308642
O O15 0.400620 0.761821 0.721498
O O16 0.402425 0.000000 0.551635
O O17 0.413945 0.000000 0.876253
O O18 0.139073 0.500000 0.038533
#
# Coordination Sequence:
#
# PCOD8067264 Si02
#       7
#     4   4   4   4   4   4   4
#     4  11  24  40  60  88 118 147 184 228 272 323
#     4  11  23  38  55  81 116 151 186 228 280 332
#     4  10  23  41  60  82 112 150 188 227 276 332
#     4  11  22  37  57  83 113 147 188 232 279 330
#     4   8  17  34  58  84 110 143 186 235 283 331
#     4   9  17  35  60  83 108 144 189 233 280 334
#     4  11  23  40  61  85 113 146 185 229 279 332
#
# _framework density 20.143203
#
# number of rings (size 3 to 8) (size 9 to 14) (size 15 to 20)
#    0.000    1.857    0.000    4.714    0.000    8.000 
#    0.000    6.429    0.000    0.000    0.000    0.000 
#    0.000    0.000    0.000    0.000    0.000    0.000 
#
# Total GULP energy -347318.443709 kJ/mol
# GULP energy per Si atom -12404.230132 kJ/mol
# Density = 2.009736 g / cm^3
# Si number density = 20.143203 Si / 1000 Ang^3
#
#
#
# Elastic Constant Matrix: (Units=GPa)
#
#
# Indices 1 2 3 4 5 6 
#
# 1 44.0655 0.6857 -1.0352 0.0000 -5.7758 0.0000
# 2 0.6857 45.0634 23.3095 0.0000 -1.5240 0.0000
# 3 -1.0352 23.3095 117.4150 0.0000 -0.8409 0.0000
# 4 0.0000 0.0000 0.0000 60.6373 0.0000 -21.2656
# 5 -5.7758 -1.5240 -0.8409 0.0000 33.1813 0.0000
# 6 0.0000 0.0000 0.0000 -21.2656 0.0000 40.6691
#
#
#
# Elastic Compliance Matrix: (Units=1/GPa)
#
#
# Indices 1 2 3 4 5 6 
#
# 1 0.023235 -0.000377 0.000309 0.000000 0.004035 0.000000
# 2 -0.000377 0.024771 -0.004914 0.000000 0.000948 0.000000
# 3 0.000309 -0.004914 0.009496 0.000000 0.000069 0.000000
# 4 0.000000 0.000000 0.000000 0.020195 0.000000 0.010560
# 5 0.004035 0.000948 0.000069 0.000000 0.030885 0.000000
# 6 0.000000 0.000000 0.000000 0.010560 0.000000 0.030110
#
#
# Mechanical properties :
#
#
# Convention : Reuss Voigt Hill
#
# Bulk Modulus (GPa) = 21.03618 28.05158 24.54388
# Shear Modulus (GPa) = 30.39477 39.13646 34.76562
#
# Velocity S-wave (km/s) = 3.88871 4.41263 4.15893
# Velocity P-wave (km/s) = 5.53433 6.31807 5.93914
#
# Compressibility (1/GPa) = 0.04753715
#
# Stress axis : x y z
#
# Youngs Moduli (GPa) = 43.03764 40.37050 105.31240
#
# Poissons Ratio (x) = 0.01521 -0.03249
# Poissons Ratio (y) = 0.01621 0.51751
# Poissons Ratio (z) = -0.01328 0.19838
#
# Static dielectric constant tensor:
#      x y z
#    x 3.928830 0.000000 -0.027890 
#    y 0.000000 3.464310 0.000000 
#    z -0.027890 0.000000 3.659120 
# 
# 
# High freq. dielectric constant tensor:
#      x y z
#    x 1.795830 0.000000 -0.004190 
#    y 0.000000 1.772470 0.000000 
#    z -0.004190 0.000000 1.796550 
# 
# From -- ./inp_files/37053.got.cif
#   From: 2010.06.25/outbox.cif.g09.slc.cpg/sg10_19_cif.got.tgz:37053.got - 2010.06.27 22:07:45.
