data_PCOD8067980
_publ_section_title
;
Structure prediction by ZEFSAII (Michael W. Deem and Ramdas Pophale) SiO2 
 PCOD8067980
Probable space group: P 2/M
;
_chemical_formula_sum "Si O2"
_cell_formula_units_Z 32
_cell_length_a 22.997508
_cell_length_b 9.204507
_cell_length_c 31.692180
_cell_angle_alpha 90.000000
_cell_angle_beta 163.935413
_cell_angle_gamma 90.000000
_cell_volume 1856.415473
_symmetry_space_group_name_H-M "P 2/M"
_symmetry_group_IT_number 10
_symmetry_cell_setting 'monoclinic'
loop_
_space_group_symop_operation_xyz
x,y,z
-x,y,-z
-x,-y,-z
x,-y,z
loop_
_atom_site_type_symbol
_atom_site_label
_atom_site_fract_x
_atom_site_fract_y
_atom_site_fract_z
Si Si1 0.037884 0.839410 0.405015
Si Si2 0.909612 0.671541 0.146560
Si Si3 0.563763 0.669369 0.413662
Si Si4 0.896322 0.329800 0.470051
Si Si5 0.529926 0.835644 0.729098
Si Si6 0.002240 0.828983 0.713974
Si Si7 0.421363 0.669423 0.155642
Si Si8 0.625149 0.331359 0.548381
O O1 0.982286 0.730934 0.404146
O O2 0.281291 0.828097 0.562147
O O3 0.907696 0.806115 0.271008
O O4 0.984907 0.000000 0.384674
O O5 0.910331 0.500000 0.157261
O O6 0.843493 0.761846 0.142762
O O7 0.137329 0.729841 0.289691
O O8 0.741018 0.712421 0.993719
O O9 0.568684 0.500000 0.404734
O O10 0.414527 0.753291 0.276193
O O11 0.490586 0.691969 0.411311
O O12 0.795464 0.732837 0.573712
O O13 0.928799 0.500000 0.494035
O O14 0.652378 0.284571 0.300690
O O15 0.000000 0.264256 0.500000
O O16 0.642639 0.756155 0.846804
O O17 0.612872 0.000000 0.784037
O O18 0.957118 0.000000 0.690313
O O19 0.413775 0.500000 0.161428
O O20 0.500000 0.255721 0.500000
O O21 0.651152 0.500000 0.576622
#
# Coordination Sequence:
#
# PCOD8067980 Si02
#       8
#     4   4   4   4   4   4   4   4
#     4   8  15  26  40  60  83 107 136 171 207 242
#     4   9  17  28  44  65  86 111 141 173 211 250
#     4   9  15  24  41  63  85 110 141 176 213 248
#     4   9  17  28  43  63  85 109 136 169 210 251
#     4   9  16  26  41  62  86 110 140 177 214 249
#     4   9  16  26  41  62  87 111 139 176 212 247
#     4   9  17  29  44  63  87 111 139 175 210 250
#     4   8  14  25  42  64  87 109 136 172 210 248
#
# _framework density 17.23752
#
# number of rings (size 3 to 8) (size 9 to 14) (size 15 to 20)
#    0.000    3.250    0.000    2.625    0.000    4.250 
#    0.000    0.000    0.000   10.875    0.000   10.500 
#    0.000    0.000    0.000    0.000    0.000    0.000 
#
# Total GULP energy -396489.453767 kJ/mol
# GULP energy per Si atom -12390.295430 kJ/mol
# Density = 1.719829 g / cm^3
# Si number density = 17.237520 Si / 1000 Ang^3
#
#
#
# Elastic Constant Matrix: (Units=GPa)
#
#
# Indices 1 2 3 4 5 6 
#
# 1 148.3508 59.9947 49.4924 0.0000 -32.9428 0.0000
# 2 59.9947 70.6895 28.1819 0.0000 -18.8035 0.0000
# 3 49.4924 28.1819 53.4573 0.0000 -24.6177 0.0000
# 4 0.0000 0.0000 0.0000 13.8945 0.0000 -9.7811
# 5 -32.9428 -18.8035 -24.6177 0.0000 28.7361 0.0000
# 6 0.0000 0.0000 0.0000 -9.7811 0.0000 20.4451
#
#
#
# Elastic Compliance Matrix: (Units=1/GPa)
#
#
# Indices 1 2 3 4 5 6 
#
# 1 0.012604 -0.007136 -0.005621 0.000000 0.004964 0.000000
# 2 -0.007136 0.022599 -0.003740 0.000000 0.003403 0.000000
# 3 -0.005621 -0.003740 0.035984 0.000000 0.021935 0.000000
# 4 0.000000 0.000000 0.000000 0.108517 0.000000 0.051915
# 5 0.004964 0.003403 0.021935 0.000000 0.061509 0.000000
# 6 0.000000 0.000000 0.000000 0.051915 0.000000 0.073748
#
#
# Mechanical properties :
#
#
# Convention : Reuss Voigt Hill
#
# Bulk Modulus (GPa) = 26.18292 60.87061 43.52676
# Shear Modulus (GPa) = 13.86243 21.60373 17.73308
#
# Velocity S-wave (km/s) = 2.83892 3.54403 3.21089
# Velocity P-wave (km/s) = 5.09592 7.22056 6.24919
#
# Compressibility (1/GPa) = 0.03819284
#
# Stress axis : x y z
#
# Youngs Moduli (GPa) = 79.33747 44.25008 27.79000
#
# Poissons Ratio (x) = 0.31576 0.15622
# Poissons Ratio (y) = 0.56613 0.10394
# Poissons Ratio (z) = 0.44599 0.16550
#
# Static dielectric constant tensor:
#      x y z
#    x 3.723380 0.000000 -0.374020 
#    y 0.000000 3.187110 0.000000 
#    z -0.374020 0.000000 2.901670 
# 
# 
# High freq. dielectric constant tensor:
#      x y z
#    x 1.674130 0.000000 -0.036620 
#    y 0.000000 1.658610 0.000000 
#    z -0.036620 0.000000 1.610500 
# 
# From -- ./inp_files/56399.got.cif
#   From: 2010.06.25/outbox.cif.g09.slc.cpg/sg10_29_cif.got.tgz:56399.got - 2010.06.27 22:07:45.
