data_PCOD8067011
_publ_section_title
;
Structure prediction by ZEFSAII (Michael W. Deem and Ramdas Pophale) SiO2 
 PCOD8067011
Probable space group: P 2/M
;
_chemical_formula_sum "Si O2"
_cell_formula_units_Z 24
_cell_length_a 11.058182
_cell_length_b 17.467216
_cell_length_c 10.920008
_cell_angle_alpha 90.000000
_cell_angle_beta 34.562735
_cell_angle_gamma 90.000000
_cell_volume 1196.601347
_symmetry_space_group_name_H-M "P 2/M"
_symmetry_group_IT_number 10
_symmetry_cell_setting 'monoclinic'
loop_
_space_group_symop_operation_xyz
x,y,z
-x,y,-z
-x,-y,-z
x,-y,z
loop_
_atom_site_type_symbol
_atom_site_label
_atom_site_fract_x
_atom_site_fract_y
_atom_site_fract_z
Si Si1 0.279639 0.695815 0.410073
Si Si2 0.720374 0.588438 0.385539
Si Si3 0.405654 0.799798 0.709325
Si Si4 0.106409 0.911146 0.044368
Si Si5 0.933883 0.814857 0.688580
Si Si6 0.000000 0.696952 0.000000
Si Si7 0.500000 0.746732 0.000000
O O1 0.298576 0.612132 0.456237
O O2 0.406948 0.758662 0.378818
O O3 0.386240 0.689200 0.188967
O O4 0.042049 0.730536 0.605311
O O5 0.500000 0.607629 0.500000
O O6 0.781453 0.500000 0.322002
O O7 0.911150 0.640965 0.178540
O O8 0.500000 0.820445 0.500000
O O9 0.346535 0.879030 0.827267
O O10 0.190537 0.748461 0.892624
O O11 0.109314 0.000000 0.073982
O O12 0.996725 0.868289 0.253310
O O13 0.000000 0.894359 0.000000
O O14 0.000000 0.851445 0.500000
O O15 0.679299 0.801915 0.909634
#
# Coordination Sequence:
#
# PCOD8067011 Si02
#       7
#     4   4   4   4   4   2   2
#     4  11  20  38  62  89 115 157 205 256 290 356
#     4  11  23  37  57  94 130 157 193 247 312 366
#     4  12  21  35  63  88 118 162 206 244 302 362
#     4  11  23  39  61  93 130 162 200 257 315 365
#     4  10  22  41  67  89 118 162 214 256 302 366
#     4  12  19  36  59  90 116 166 198 240 295 364
#     4  10  22  38  66  90 112 156 220 250 296 358
#
# _framework density 20.056805000000001
#
# number of rings (size 3 to 8) (size 9 to 14) (size 15 to 20)
#    0.000    1.000    5.833    2.250    0.000    0.667 
#    0.000    1.667    0.000    4.500    0.000    0.000 
#    0.000    0.000    0.000    0.000    0.000    0.000 
#
# Total GULP energy -297410.749913 kJ/mol
# GULP energy per Si atom -12392.114580 kJ/mol
# Density = 2.001115 g / cm^3
# Si number density = 20.056805 Si / 1000 Ang^3
#
#
#
# Elastic Constant Matrix: (Units=GPa)
#
#
# Indices 1 2 3 4 5 6 
#
# 1 90.1018 30.4283 32.8855 0.0000 14.3705 0.0000
# 2 30.4283 83.4373 42.9188 0.0000 12.0540 0.0000
# 3 32.8855 42.9188 109.4937 0.0000 8.5941 0.0000
# 4 0.0000 0.0000 0.0000 -275.5272 0.0000 98.4644
# 5 14.3705 12.0540 8.5941 0.0000 40.1742 0.0000
# 6 0.0000 0.0000 0.0000 98.4644 0.0000 -16.5601
#
#
#
# Elastic Compliance Matrix: (Units=1/GPa)
#
#
# Indices 1 2 3 4 5 6 
#
# 1 0.013651 -0.003153 -0.002599 0.000000 -0.003381 0.000000
# 2 -0.003153 0.016183 -0.005191 0.000000 -0.002617 0.000000
# 3 -0.002599 -0.005191 0.011954 0.000000 -0.000070 0.000000
# 4 0.000000 0.000000 0.000000 0.003227 0.000000 0.019185
# 5 -0.003381 -0.002617 -0.000070 0.000000 0.026901 0.000000
# 6 0.000000 0.000000 0.000000 0.019185 0.000000 0.053683
#
#
# Mechanical properties :
#
#
# Convention : Reuss Voigt Hill
#
# Bulk Modulus (GPa) = 50.24518 55.05534 52.65026
# Shear Modulus (GPa) = 32.44252 -38.59594 -3.07671
#
# Velocity S-wave (km/s) = 4.02622 -4.39148 -1.23989
# Velocity P-wave (km/s) = 6.83518 1.34009 4.92522
#
# Compressibility (1/GPa) = 0.01990241
#
# Stress axis : x y z
#
# Youngs Moduli (GPa) = 73.25396 61.79243 83.65648
#
# Poissons Ratio (x) = 0.19484 0.21739
# Poissons Ratio (y) = 0.23098 0.43426
# Poissons Ratio (z) = 0.19036 0.32076
#
# Static dielectric constant tensor:
#      x y z
#    x 3.429690 0.000000 -0.257200 
#    y 0.000000 3.458680 0.000000 
#    z -0.257200 0.000000 3.598330 
# 
# 
# High freq. dielectric constant tensor:
#      x y z
#    x 1.787620 0.000000 0.009240 
#    y 0.000000 1.748890 0.000000 
#    z 0.009240 0.000000 1.799970 
# 
# From -- ./inp_files/47864.got.cif
#   From: 2010.06.25/outbox.cif.g09.slc.cpg/sg10_24_cif.got.tgz:47864.got - 2010.06.27 22:07:45.
