data_PCOD8067927
_publ_section_title
;
Structure prediction by ZEFSAII (Michael W. Deem and Ramdas Pophale) SiO2 
 PCOD8067927
Probable space group: P 2/M
;
_chemical_formula_sum "Si O2"
_cell_formula_units_Z 32
_cell_length_a 30.288897
_cell_length_b 9.286407
_cell_length_c 16.098052
_cell_angle_alpha 90.000000
_cell_angle_beta 150.341950
_cell_angle_gamma 90.000000
_cell_volume 2240.546617
_symmetry_space_group_name_H-M "P 2/M"
_symmetry_group_IT_number 10
_symmetry_cell_setting 'monoclinic'
loop_
_space_group_symop_operation_xyz
x,y,z
-x,y,-z
-x,-y,-z
x,-y,z
loop_
_atom_site_type_symbol
_atom_site_label
_atom_site_fract_x
_atom_site_fract_y
_atom_site_fract_z
Si Si1 0.996234 0.662731 0.395101
Si Si2 0.527192 0.168218 0.230264
Si Si3 0.832454 0.833293 0.327922
Si Si4 0.336985 0.833293 0.841517
Si Si5 0.597367 0.662731 0.198500
Si Si6 0.824119 0.831781 0.121046
Si Si7 0.473538 0.829138 0.585207
Si Si8 0.638132 0.829138 0.749802
O O1 0.993587 0.500000 0.356952
O O2 0.907974 0.745992 0.220542
O O3 0.000000 0.667386 0.500000
O O4 0.083633 0.741518 0.502163
O O5 0.595406 0.254007 0.282838
O O6 0.541608 0.229820 0.346792
O O7 0.550220 0.000000 0.260510
O O8 0.425079 0.198456 0.038995
O O9 0.746753 0.785640 0.240258
O O10 0.811163 0.801545 0.197246
O O11 0.855918 0.000000 0.379520
O O12 0.334896 0.741517 0.753425
O O13 0.332316 0.000000 0.808712
O O14 0.630223 0.500000 0.266859
O O15 0.500000 0.667385 0.000000
O O16 0.839929 0.000000 0.129639
O O17 0.736425 0.770178 0.931241
O O18 0.565883 0.767926 0.697649
O O19 0.391000 0.782657 0.391000
O O20 0.481234 0.000000 0.601738
O O21 0.639273 0.000000 0.759781
#
# Coordination Sequence:
#
# PCOD8067927 Si02
#       8
#     4   4   4   4   4   4   4   4
#     4   9  17  27  37  51  73 100 128 157 188 222
#     4   9  15  24  39  56  75 101 130 157 186 219
#     4   9  16  25  38  56  76  98 126 158 189 222
#     4   9  16  25  38  56  76  98 126 158 189 222
#     4   9  17  27  37  51  73 100 128 157 188 222
#     4   9  15  24  39  56  75 101 130 157 186 219
#     4   8  13  21  35  57  81 101 125 159 192 218
#     4   8  13  21  35  57  81 101 125 159 192 218
#
# _framework density 14.28223
#
# number of rings (size 3 to 8) (size 9 to 14) (size 15 to 20)
#    0.000    3.250    0.000    2.250    0.000    6.500 
#    0.000    0.000    0.000    3.000    0.000    1.750 
#    0.000    1.000    0.000   11.500    0.000    3.250 
#
# Total GULP energy -396671.659879 kJ/mol
# GULP energy per Si atom -12395.989371 kJ/mol
# Density = 1.424972 g / cm^3
# Si number density = 14.282230 Si / 1000 Ang^3
#
#
#
# Elastic Constant Matrix: (Units=GPa)
#
#
# Indices 1 2 3 4 5 6 
#
# 1 98.3330 44.2404 47.6553 0.0000 -2.7637 0.0000
# 2 44.2404 57.7946 36.2859 0.0000 4.0691 0.0000
# 3 47.6553 36.2859 91.5956 0.0000 6.2105 0.0000
# 4 0.0000 0.0000 0.0000 8.1431 0.0000 1.0847
# 5 -2.7637 4.0691 6.2105 0.0000 23.4496 0.0000
# 6 0.0000 0.0000 0.0000 1.0847 0.0000 10.2631
#
#
#
# Elastic Compliance Matrix: (Units=1/GPa)
#
#
# Indices 1 2 3 4 5 6 
#
# 1 0.017658 -0.010512 -0.005384 0.000000 0.005331 0.000000
# 2 -0.010512 0.029348 -0.005833 0.000000 -0.004787 0.000000
# 3 -0.005384 -0.005833 0.016297 0.000000 -0.003939 0.000000
# 4 0.000000 0.000000 0.000000 0.124557 0.000000 -0.013164
# 5 0.005331 -0.004787 -0.003939 0.000000 0.045147 0.000000
# 6 0.000000 0.000000 0.000000 -0.013164 0.000000 0.098827
#
#
# Mechanical properties :
#
#
# Convention : Reuss Voigt Hill
#
# Bulk Modulus (GPa) = 50.38995 56.00958 53.19976
# Shear Modulus (GPa) = 13.09221 16.34062 14.71641
#
# Velocity S-wave (km/s) = 3.03095 3.38616 3.21347
# Velocity P-wave (km/s) = 6.89979 7.38847 7.14831
#
# Compressibility (1/GPa) = 0.01984523
#
# Stress axis : x y z
#
# Youngs Moduli (GPa) = 56.63155 34.07371 61.36225
#
# Poissons Ratio (x) = 0.35817 0.33040
# Poissons Ratio (y) = 0.59529 0.35792
# Poissons Ratio (z) = 0.30492 0.19875
#
# Static dielectric constant tensor:
#      x y z
#    x 2.797940 0.000000 0.021660 
#    y 0.000000 2.661250 0.000000 
#    z 0.021660 0.000000 2.755570 
# 
# 
# High freq. dielectric constant tensor:
#      x y z
#    x 1.531440 0.000000 0.006480 
#    y 0.000000 1.526790 0.000000 
#    z 0.006480 0.000000 1.518780 
# 
# From -- ./inp_files/72570.got.cif
#   From: 2010.06.25/outbox.cif.g09.slc.cpg/sg10_37_cif.got.tgz:72570.got - 2010.06.27 22:07:45.
