data_PCOD8067037
_publ_section_title
;
Structure prediction by ZEFSAII (Michael W. Deem and Ramdas Pophale) SiO2 
 PCOD8067037
Probable space group: P 2/M
;
_chemical_formula_sum "Si O2"
_cell_formula_units_Z 26
_cell_length_a 16.607332
_cell_length_b 7.557116
_cell_length_c 16.189020
_cell_angle_alpha 90.000000
_cell_angle_beta 37.910750
_cell_angle_gamma 90.000000
_cell_volume 1248.392693
_symmetry_space_group_name_H-M "P 2/M"
_symmetry_group_IT_number 10
_symmetry_cell_setting 'monoclinic'
loop_
_space_group_symop_operation_xyz
x,y,z
-x,y,-z
-x,-y,-z
x,-y,z
loop_
_atom_site_type_symbol
_atom_site_label
_atom_site_fract_x
_atom_site_fract_y
_atom_site_fract_z
Si Si1 0.270926 0.705429 0.476887
Si Si2 0.358538 0.290274 0.586783
Si Si3 0.760103 0.702150 0.009062
Si Si4 0.968861 0.699059 0.702183
Si Si5 0.853221 0.709710 0.112732
Si Si6 0.383074 0.000000 0.964501
Si Si7 0.171496 0.000000 0.273776
Si Si8 0.668298 0.000000 0.698412
O O1 0.301460 0.500000 0.433572
O O2 0.332545 0.766459 0.513783
O O3 0.116973 0.743843 0.604788
O O4 0.333307 0.823400 0.354978
O O5 0.500000 0.213738 0.500000
O O6 0.358504 0.500000 0.595564
O O7 0.242188 0.213012 0.738782
O O8 0.709656 0.500000 0.047695
O O9 0.891978 0.726448 0.849618
O O10 0.791176 0.765480 0.075968
O O11 0.647080 0.824905 0.064142
O O12 0.952814 0.500000 0.681178
O O13 0.914679 0.826755 0.674890
O O14 0.862797 0.500000 0.112877
O O15 0.000000 0.790618 0.000000
O O16 0.536837 0.000000 0.859689
O O17 0.304286 0.000000 0.113411
O O18 0.207259 0.000000 0.341234
#
# Coordination Sequence:
#
# PCOD8067037 Si02
#       8
#     4   4   4   4   4   2   2   2
#     4  10  22  39  59  86 120 154 189 235 286 344
#     4   9  18  32  52  79 116 158 192 230 282 333
#     4   9  18  34  59  86 113 149 192 238 284 335
#     4   9  18  36  62  89 117 147 184 235 297 349
#     4   9  16  28  52  83 112 148 195 239 280 333
#     4  10  23  40  58  82 112 147 190 237 288 343
#     4  10  22  42  63  84 113 143 186 247 299 344
#     4  12  26  40  59  85 112 153 197 234 287 356
#
# _framework density 20.826781
#
# number of rings (size 3 to 8) (size 9 to 14) (size 15 to 20)
#    0.000    2.462    0.000    1.615    2.154    6.154 
#    0.000    3.077    0.000    4.615    0.000    0.000 
#    0.000    0.000    0.000    0.000    0.000    0.000 
#
# Total GULP energy -322422.477932 kJ/mol
# GULP energy per Si atom -12400.864536 kJ/mol
# Density = 2.077938 g / cm^3
# Si number density = 20.826781 Si / 1000 Ang^3
#
#
#
# Elastic Constant Matrix: (Units=GPa)
#
#
# Indices 1 2 3 4 5 6 
#
# 1 142.9582 43.2819 51.9858 0.0000 -1.2884 0.0000
# 2 43.2819 80.9384 26.3678 0.0000 0.2051 0.0000
# 3 51.9858 26.3678 91.1732 0.0000 -11.2316 0.0000
# 4 0.0000 0.0000 0.0000 9.8068 0.0000 11.6947
# 5 -1.2884 0.2051 -11.2316 0.0000 33.9953 0.0000
# 6 0.0000 0.0000 0.0000 11.6947 0.0000 40.8671
#
#
#
# Elastic Compliance Matrix: (Units=1/GPa)
#
#
# Indices 1 2 3 4 5 6 
#
# 1 0.009805 -0.003724 -0.004654 0.000000 -0.001144 0.000000
# 2 -0.003724 0.015123 -0.002376 0.000000 -0.001017 0.000000
# 3 -0.004654 -0.002376 0.014895 0.000000 0.004759 0.000000
# 4 0.000000 0.000000 0.000000 0.154794 0.000000 -0.044297
# 5 -0.001144 -0.001017 0.004759 0.000000 0.030951 0.000000
# 6 0.000000 0.000000 0.000000 -0.044297 0.000000 0.037146
#
#
# Mechanical properties :
#
#
# Convention : Reuss Voigt Hill
#
# Bulk Modulus (GPa) = 54.59984 62.03788 58.31886
# Shear Modulus (GPa) = 17.22198 29.82946 23.52572
#
# Velocity S-wave (km/s) = 2.87873 3.78863 3.36458
# Velocity P-wave (km/s) = 6.10922 6.99932 6.56936
#
# Compressibility (1/GPa) = 0.01831507
#
# Stress axis : x y z
#
# Youngs Moduli (GPa) = 101.99130 66.12471 67.13486
#
# Poissons Ratio (x) = 0.24624 0.31248
# Poissons Ratio (y) = 0.37980 0.15949
# Poissons Ratio (z) = 0.47472 0.15709
#
# Static dielectric constant tensor:
#      x y z
#    x 3.673440 0.000000 -0.087270 
#    y 0.000000 3.691210 0.000000 
#    z -0.087270 0.000000 3.791640 
# 
# 
# High freq. dielectric constant tensor:
#      x y z
#    x 1.811120 0.000000 -0.004340 
#    y 0.000000 1.804240 0.000000 
#    z -0.004340 0.000000 1.817130 
# 
# From -- ./inp_files/66834.got.cif
#   From: 2010.06.25/outbox.cif.g09.slc.cpg/sg10_34_cif.got.tgz:66834.got - 2010.06.27 22:07:45.
