data_PCOD8067591
_publ_section_title
;
Structure prediction by ZEFSAII (Michael W. Deem and Ramdas Pophale) SiO2 
 PCOD8067591
Probable space group: P 2/M
;
_chemical_formula_sum "Si O2"
_cell_formula_units_Z 20
_cell_length_a 8.643496
_cell_length_b 23.050063
_cell_length_c 9.742173
_cell_angle_alpha 90.000000
_cell_angle_beta 31.476765
_cell_angle_gamma 90.000000
_cell_volume 1013.479484
_symmetry_space_group_name_H-M "P 2/M"
_symmetry_group_IT_number 10
_symmetry_cell_setting 'monoclinic'
loop_
_space_group_symop_operation_xyz
x,y,z
-x,y,-z
-x,-y,-z
x,-y,z
loop_
_atom_site_type_symbol
_atom_site_label
_atom_site_fract_x
_atom_site_fract_y
_atom_site_fract_z
Si Si1 0.725100 0.680039 0.955855
Si Si2 0.151762 0.065348 0.033233
Si Si3 0.156395 0.437229 0.239424
Si Si4 0.350762 0.132339 0.464934
Si Si5 0.652811 0.736852 0.530688
O O1 0.531133 0.692269 0.236841
O O2 0.500000 0.686736 0.000000
O O3 0.873887 0.615318 0.846963
O O4 0.998726 0.723646 0.739666
O O5 0.977278 0.105961 0.272644
O O6 0.170241 0.000000 0.077035
O O7 0.478315 0.091988 0.772550
O O8 0.000000 0.065360 0.000000
O O9 0.023554 0.500000 0.289241
O O10 0.000000 0.418319 0.500000
O O11 0.500000 0.446833 0.000000
O O12 0.500000 0.130758 0.500000
O O13 0.357410 0.197864 0.402621
O O14 0.500000 0.732879 0.500000
#
# Coordination Sequence:
#
# PCOD8067591 Si02
#       5
#     4   4   4   4   4
#     4  11  21  36  57  82 108 137 182 230 264 306
#     4   9  15  24  40  63  93 127 164 210 260 305
#     4   9  17  31  53  80 106 134 173 222 271 313
#     4   9  17  28  42  64  96 134 169 202 254 319
#     4  11  22  36  54  77 112 151 179 211 266 331
#
# _framework density 19.733996000000001
#
# number of rings (size 3 to 8) (size 9 to 14) (size 15 to 20)
#    0.000    2.200    0.000    5.400    0.000    5.600 
#    0.000    0.000    0.000    3.600    0.000    0.000 
#    0.000   56.000    0.000    0.000    0.000    0.000 
#
# Total GULP energy -247843.484867 kJ/mol
# GULP energy per Si atom -12392.174243 kJ/mol
# Density = 1.968908 g / cm^3
# Si number density = 19.733996 Si / 1000 Ang^3
#
#
#
# Elastic Constant Matrix: (Units=GPa)
#
#
# Indices 1 2 3 4 5 6 
#
# 1 41.5775 33.2203 24.6906 0.0000 -4.9817 0.0000
# 2 33.2203 129.9996 38.6156 0.0000 6.9865 0.0000
# 3 24.6906 38.6156 137.8463 0.0000 -6.6452 0.0000
# 4 0.0000 0.0000 0.0000 32.8015 0.0000 -5.1687
# 5 -4.9817 6.9865 -6.6452 0.0000 23.0885 0.0000
# 6 0.0000 0.0000 0.0000 -5.1687 0.0000 19.1631
#
#
#
# Elastic Compliance Matrix: (Units=1/GPa)
#
#
# Indices 1 2 3 4 5 6 
#
# 1 0.033492 -0.008038 -0.003328 0.000000 0.008701 0.000000
# 2 -0.008038 0.010569 -0.001784 0.000000 -0.005446 0.000000
# 3 -0.003328 -0.001784 0.008459 0.000000 0.002256 0.000000
# 4 0.000000 0.000000 0.000000 0.031840 0.000000 0.008588
# 5 0.008701 -0.005446 0.002256 0.000000 0.047486 0.000000
# 6 0.000000 0.000000 0.000000 0.008588 0.000000 0.054500
#
#
# Mechanical properties :
#
#
# Convention : Reuss Voigt Hill
#
# Bulk Modulus (GPa) = 38.13640 55.83072 46.98356
# Shear Modulus (GPa) = 22.58513 29.20375 25.89444
#
# Velocity S-wave (km/s) = 3.38668 3.85108 3.62632
# Velocity P-wave (km/s) = 5.88728 6.93740 6.43380
#
# Compressibility (1/GPa) = 0.02622166
#
# Stress axis : x y z
#
# Youngs Moduli (GPa) = 29.85753 94.61859 118.21812
#
# Poissons Ratio (x) = 0.76052 0.39343
# Poissons Ratio (y) = 0.23999 0.21084
# Poissons Ratio (z) = 0.09936 0.16875
#
# Static dielectric constant tensor:
#      x y z
#    x 2.996670 0.000000 -0.141940 
#    y 0.000000 4.221690 0.000000 
#    z -0.141940 0.000000 3.759230 
# 
# 
# High freq. dielectric constant tensor:
#      x y z
#    x 1.695070 0.000000 -0.015880 
#    y 0.000000 1.791840 0.000000 
#    z -0.015880 0.000000 1.792360 
# 
# From -- ./inp_files/15271.got.cif
#   From: 2010.06.25/outbox.cif.g09.slc.cpg/sg10_8_cif.got.tgz:15271.got - 2010.06.27 22:07:45.
