data_PCOD8067403
_publ_section_title
;
Structure prediction by ZEFSAII (Michael W. Deem and Ramdas Pophale) SiO2 
 PCOD8067403
Probable space group: P 2/M
;
_chemical_formula_sum "Si O2"
_cell_formula_units_Z 24
_cell_length_a 11.018188
_cell_length_b 14.843082
_cell_length_c 13.666986
_cell_angle_alpha 90.000000
_cell_angle_beta 31.854346
_cell_angle_gamma 90.000000
_cell_volume 1179.627480
_symmetry_space_group_name_H-M "P 2/M"
_symmetry_group_IT_number 10
_symmetry_cell_setting 'monoclinic'
loop_
_space_group_symop_operation_xyz
x,y,z
-x,y,-z
-x,-y,-z
x,-y,z
loop_
_atom_site_type_symbol
_atom_site_label
_atom_site_fract_x
_atom_site_fract_y
_atom_site_fract_z
Si Si1 0.299230 0.358300 0.206065
Si Si2 0.786072 0.399916 0.517768
Si Si3 0.763787 0.840995 0.716071
Si Si4 0.979386 0.899180 0.759804
Si Si5 0.592821 0.768866 0.543898
Si Si6 0.612587 0.100397 0.169680
O O1 0.295898 0.405246 0.313771
O O2 0.358641 0.253432 0.178809
O O3 0.052676 0.372209 0.323630
O O4 0.500000 0.400347 0.000000
O O5 0.750384 0.500000 0.497576
O O6 0.631801 0.328478 0.565037
O O7 0.803143 0.894617 0.789524
O O8 0.606940 0.899375 0.751695
O O9 0.000000 0.818256 0.500000
O O10 0.174612 0.825649 0.614162
O O11 0.085299 0.000000 0.690343
O O12 0.843576 0.878119 0.952027
O O13 0.500000 0.752641 0.500000
O O14 0.404093 0.825147 0.734060
O O15 0.625857 0.000000 0.206559
#
# Coordination Sequence:
#
# PCOD8067403 Si02
#       6
#     4   4   4   4   4   4
#     4  11  19  36  66  94 124 156 183 233 309 371
#     4  11  24  42  61  92 123 149 197 247 300 368
#     4  12  19  34  62  96 130 161 191 234 300 367
#     4  11  23  39  62  92 125 161 199 243 297 358
#     4  12  26  44  62  83 115 163 213 257 298 341
#     4  11  23  39  62  92 125 161 199 243 297 358
#
# _framework density 20.345407000000002
#
# number of rings (size 3 to 8) (size 9 to 14) (size 15 to 20)
#    0.000    0.667    6.667    3.500    0.000    5.667 
#    0.000    1.667    0.000    0.000    0.000    4.667 
#    0.000    0.000    0.000    0.000    0.000    0.000 
#
# Total GULP energy -297663.482786 kJ/mol
# GULP energy per Si atom -12402.645116 kJ/mol
# Density = 2.029910 g / cm^3
# Si number density = 20.345407 Si / 1000 Ang^3
#
#
#
# Elastic Constant Matrix: (Units=GPa)
#
#
# Indices 1 2 3 4 5 6 
#
# 1 81.4525 26.7362 7.5289 0.0000 20.0123 0.0000
# 2 26.7362 133.5845 24.8950 0.0000 14.1939 0.0000
# 3 7.5289 24.8950 92.2807 0.0000 23.6872 0.0000
# 4 0.0000 0.0000 0.0000 7.9269 0.0000 2.7608
# 5 20.0123 14.1939 23.6872 0.0000 19.9631 0.0000
# 6 0.0000 0.0000 0.0000 2.7608 0.0000 2.8662
#
#
#
# Elastic Compliance Matrix: (Units=1/GPa)
#
#
# Indices 1 2 3 4 5 6 
#
# 1 0.017996 -0.002137 0.004816 0.000000 -0.022236 0.000000
# 2 -0.002137 0.008418 -0.001596 0.000000 -0.001949 0.000000
# 3 0.004816 -0.001596 0.017000 0.000000 -0.023864 0.000000
# 4 0.000000 0.000000 0.000000 0.189834 0.000000 -0.182847
# 5 -0.022236 -0.001949 -0.023864 0.000000 0.102084 0.000000
# 6 0.000000 0.000000 0.000000 -0.182847 0.000000 0.525006
#
#
# Mechanical properties :
#
#
# Convention : Reuss Voigt Hill
#
# Bulk Modulus (GPa) = 21.93956 47.29309 34.61633
# Shear Modulus (GPa) = 5.72497 22.69510 14.21004
#
# Velocity S-wave (km/s) = 1.67929 3.34352 2.64567
# Velocity P-wave (km/s) = 3.81667 6.18070 5.13654
#
# Compressibility (1/GPa) = 0.04557977
#
# Stress axis : x y z
#
# Youngs Moduli (GPa) = 55.56644 118.79080 58.82457
#
# Poissons Ratio (x) = 0.25382 -0.28328
# Poissons Ratio (y) = 0.11873 0.09390
# Poissons Ratio (z) = -0.26759 0.18963
#
# Static dielectric constant tensor:
#      x y z
#    x 3.461250 0.000000 0.185090 
#    y 0.000000 3.781880 0.000000 
#    z 0.185090 0.000000 3.836620 
# 
# 
# High freq. dielectric constant tensor:
#      x y z
#    x 1.761300 0.000000 0.014670 
#    y 0.000000 1.800830 0.000000 
#    z 0.014670 0.000000 1.803770 
# 
# From -- ./inp_files/51454.got.cif
#   From: 2010.06.25/outbox.cif.g09.slc.cpg/sg10_26_cif.got.tgz:51454.got - 2010.06.27 22:07:45.
