data_PCOD8067791
_publ_section_title
;
Structure prediction by ZEFSAII (Michael W. Deem and Ramdas Pophale) SiO2 
 PCOD8067791
Probable space group: P 2/M
;
_chemical_formula_sum "Si O2"
_cell_formula_units_Z 14
_cell_length_a 4.964434
_cell_length_b 16.164920
_cell_length_c 9.377189
_cell_angle_alpha 90.000000
_cell_angle_beta 119.919444
_cell_angle_gamma 90.000000
_cell_volume 652.226683
_symmetry_space_group_name_H-M "P 2/M"
_symmetry_group_IT_number 10
_symmetry_cell_setting 'monoclinic'
loop_
_space_group_symop_operation_xyz
x,y,z
-x,y,-z
-x,-y,-z
x,-y,z
loop_
_atom_site_type_symbol
_atom_site_label
_atom_site_fract_x
_atom_site_fract_y
_atom_site_fract_z
Si Si1 0.155243 0.861169 0.887482
Si Si2 0.138604 0.000000 0.380560
Si Si3 0.566236 0.595463 0.682153
Si Si4 0.789059 0.325348 0.172123
O O1 0.173220 0.773106 0.814669
O O2 0.500000 0.898419 0.000000
O O3 0.957074 0.919484 0.733280
O O4 0.000000 0.852080 0.000000
O O5 0.500000 0.000000 0.500000
O O6 0.000000 0.000000 0.500000
O O7 0.500000 0.608468 0.500000
O O8 0.560917 0.500000 0.725750
O O9 0.289015 0.642887 0.689987
O O10 0.900713 0.633706 0.808777
O O11 0.500000 0.353969 0.000000
#
# Coordination Sequence:
#
# PCOD8067791 Si02
#       4
#     4   2   4   4
#     4  11  23  44  67  90 127 170 206 248 313 376
#     4  12  26  42  66 102 130 158 208 258 304 364
#     4  11  24  41  61  89 127 168 206 253 318 375
#     4  11  23  40  64  93 121 161 214 260 303 364
#
# _framework density 21.464928
#
# number of rings (size 3 to 8) (size 9 to 14) (size 15 to 20)
#    0.000    0.857    0.000    8.571    0.000    9.143 
#    0.000    0.000    0.000    0.000    0.000    0.000 
#    0.000    0.000    0.000    0.000    0.000    0.000 
#
# Total GULP energy -173689.823015 kJ/mol
# GULP energy per Si atom -12406.415930 kJ/mol
# Density = 2.141607 g / cm^3
# Si number density = 21.464928 Si / 1000 Ang^3
#
#
#
# Elastic Constant Matrix: (Units=GPa)
#
#
# Indices 1 2 3 4 5 6 
#
# 1 139.3609 50.4226 37.7776 0.0000 2.0066 0.0000
# 2 50.4226 138.7494 76.3420 0.0000 -5.2269 0.0000
# 3 37.7776 76.3420 93.1597 0.0000 7.9111 0.0000
# 4 0.0000 0.0000 0.0000 -130.5266 0.0000 46.2985
# 5 2.0066 -5.2269 7.9111 0.0000 46.7368 0.0000
# 6 0.0000 0.0000 0.0000 46.2985 0.0000 -1.3236
#
#
#
# Elastic Compliance Matrix: (Units=1/GPa)
#
#
# Indices 1 2 3 4 5 6 
#
# 1 0.008404 -0.002199 -0.001577 0.000000 -0.000340 0.000000
# 2 -0.002199 0.014234 -0.011075 0.000000 0.003561 0.000000
# 3 -0.001577 -0.011075 0.020849 0.000000 -0.004700 0.000000
# 4 0.000000 0.000000 0.000000 0.000672 0.000000 0.023492
# 5 -0.000340 0.003561 -0.004700 0.000000 0.022605 0.000000
# 6 0.000000 0.000000 0.000000 0.023492 0.000000 0.066230
#
#
# Mechanical properties :
#
#
# Convention : Reuss Voigt Hill
#
# Bulk Modulus (GPa) = 72.54679 77.81715 75.18197
# Shear Modulus (GPa) = 29.88806 -3.24080 13.32363
#
# Velocity S-wave (km/s) = 3.73555 -1.23008 2.49412
# Velocity P-wave (km/s) = 7.24410 5.85785 6.58754
#
# Compressibility (1/GPa) = 0.01378421
#
# Stress axis : x y z
#
# Youngs Moduli (GPa) = 118.99628 70.25229 47.96453
#
# Poissons Ratio (x) = 0.15450 0.07563
# Poissons Ratio (y) = 0.26170 0.53122
# Poissons Ratio (z) = 0.18763 0.77807
#
# Static dielectric constant tensor:
#      x y z
#    x 4.208110 0.000000 0.042090 
#    y 0.000000 3.926680 0.000000 
#    z 0.042090 0.000000 3.951780 
# 
# 
# High freq. dielectric constant tensor:
#      x y z
#    x 1.866900 0.000000 -0.000900 
#    y 0.000000 1.848510 0.000000 
#    z -0.000900 0.000000 1.849230 
# 
# From -- ./inp_files/14231.got.cif
#   From: 2010.06.25/outbox.cif.g09.slc.cpg/sg10_8_cif.got.tgz:14231.got - 2010.06.27 22:07:45.
