data_PCOD8067570
_publ_section_title
;
Structure prediction by ZEFSAII (Michael W. Deem and Ramdas Pophale) SiO2 
 PCOD8067570
Probable space group: P 2/M
;
_chemical_formula_sum "Si O2"
_cell_formula_units_Z 32
_cell_length_a 17.958453
_cell_length_b 22.806963
_cell_length_c 12.425326
_cell_angle_alpha 90.000000
_cell_angle_beta 20.044203
_cell_angle_gamma 90.000000
_cell_volume 1744.276397
_symmetry_space_group_name_H-M "P 2/M"
_symmetry_group_IT_number 10
_symmetry_cell_setting 'monoclinic'
loop_
_space_group_symop_operation_xyz
x,y,z
-x,y,-z
-x,-y,-z
x,-y,z
loop_
_atom_site_type_symbol
_atom_site_label
_atom_site_fract_x
_atom_site_fract_y
_atom_site_fract_z
Si Si1 0.786321 0.432125 0.725827
Si Si2 0.538261 0.366177 0.698259
Si Si3 0.152647 0.065392 0.505259
Si Si4 0.144315 0.280574 0.196970
Si Si5 0.456601 0.065356 0.885426
Si Si6 0.904112 0.361758 0.366900
Si Si7 0.187987 0.434195 0.832069
Si Si8 0.152439 0.852635 0.189359
O O1 0.798514 0.500000 0.681540
O O2 0.766739 0.397357 0.641345
O O3 0.000000 0.410481 0.500000
O O4 0.575730 0.419104 0.082937
O O5 0.742242 0.341941 0.491034
O O6 0.616834 0.394180 0.478969
O O7 0.372244 0.313533 0.903363
O O8 0.298015 0.080874 0.412122
O O9 0.963736 0.113704 0.751722
O O10 0.052152 0.000000 0.653315
O O11 0.301635 0.066839 0.198319
O O12 0.203094 0.213853 0.088221
O O13 0.000000 0.286011 0.500000
O O14 0.010140 0.304798 0.277450
O O15 0.447755 0.000000 0.846477
O O16 0.378072 0.113597 0.906289
O O17 0.097113 0.403711 0.062783
O O18 0.270784 0.500000 0.747814
O O19 0.000000 0.438513 0.000000
O O20 0.000000 0.854132 0.500000
#
# Coordination Sequence:
#
# PCOD8067570 Si02
#       8
#     4   4   4   4   4   4   4   4
#     4  11  21  35  55  78 103 127 160 201 246 310
#     4  11  21  37  56  73 100 132 162 206 257 301
#     4   8  13  22  37  59  85 116 160 206 245 285
#     4  11  22  36  46  71 102 133 180 211 235 297
#     4   8  13  22  37  59  85 116 160 206 245 285
#     4  11  21  37  56  73 100 132 162 206 257 301
#     4   9  20  37  57  81 100 119 161 212 260 318
#     4   9  17  26  40  56  88 127 164 205 241 277
#
# _framework density 18.345714999999998
#
# number of rings (size 3 to 8) (size 9 to 14) (size 15 to 20)
#    0.000    2.250    2.500    2.250    0.000    5.000 
#    0.000    3.125    0.000    0.000    0.000    0.000 
#    0.000    0.000    0.000    9.000    0.000   56.000 
#
# Total GULP energy -396742.933847 kJ/mol
# GULP energy per Si atom -12398.216683 kJ/mol
# Density = 1.830396 g / cm^3
# Si number density = 18.345715 Si / 1000 Ang^3
#
#
#
# Elastic Constant Matrix: (Units=GPa)
#
#
# Indices 1 2 3 4 5 6 
#
# 1 61.8186 52.7265 26.6467 0.0000 -24.0438 0.0000
# 2 52.7265 150.8986 42.9831 0.0000 -23.0350 0.0000
# 3 26.6467 42.9831 70.2385 0.0000 -6.1240 0.0000
# 4 0.0000 0.0000 0.0000 14.5833 0.0000 -2.6848
# 5 -24.0438 -23.0350 -6.1240 0.0000 30.5101 0.0000
# 6 0.0000 0.0000 0.0000 -2.6848 0.0000 15.3345
#
#
#
# Elastic Compliance Matrix: (Units=1/GPa)
#
#
# Indices 1 2 3 4 5 6 
#
# 1 0.031765 -0.006355 -0.006512 0.000000 0.018928 0.000000
# 2 -0.006355 0.010185 -0.003652 0.000000 0.001949 0.000000
# 3 -0.006512 -0.003652 0.018580 0.000000 -0.004160 0.000000
# 4 0.000000 0.000000 0.000000 0.070856 0.000000 0.012406
# 5 0.018928 0.001949 -0.004160 0.000000 0.048329 0.000000
# 6 0.000000 0.000000 0.000000 0.012406 0.000000 0.067384
#
#
# Mechanical properties :
#
#
# Convention : Reuss Voigt Hill
#
# Bulk Modulus (GPa) = 36.37316 58.62981 47.50149
# Shear Modulus (GPa) = 17.28301 22.79221 20.03761
#
# Velocity S-wave (km/s) = 3.07265 3.52855 3.30846
# Velocity P-wave (km/s) = 5.69718 6.97342 6.36736
#
# Compressibility (1/GPa) = 0.02749280
#
# Stress axis : x y z
#
# Youngs Moduli (GPa) = 31.48072 98.18050 53.82177
#
# Poissons Ratio (x) = 0.62395 0.35047
# Poissons Ratio (y) = 0.20007 0.19656
# Poissons Ratio (z) = 0.20499 0.35857
#
# Static dielectric constant tensor:
#      x y z
#    x 3.409590 0.000000 -0.257520 
#    y 0.000000 3.467770 0.000000 
#    z -0.257520 0.000000 3.177810 
# 
# 
# High freq. dielectric constant tensor:
#      x y z
#    x 1.703730 0.000000 -0.028480 
#    y 0.000000 1.705370 0.000000 
#    z -0.028480 0.000000 1.677450 
# 
# From -- ./inp_files/54267.got.cif
#   From: 2010.06.25/outbox.cif.g09.slc.cpg/sg10_28_cif.got.tgz:54267.got - 2010.06.27 22:07:45.
