data_PCOD8067450
_publ_section_title
;
Structure prediction by ZEFSAII (Michael W. Deem and Ramdas Pophale) SiO2 
 PCOD8067450
Probable space group: P 2/M
;
_chemical_formula_sum "Si O2"
_cell_formula_units_Z 28
_cell_length_a 19.359449
_cell_length_b 8.670917
_cell_length_c 16.609618
_cell_angle_alpha 90.000000
_cell_angle_beta 30.823683
_cell_angle_gamma 90.000000
_cell_volume 1428.647155
_symmetry_space_group_name_H-M "P 2/M"
_symmetry_group_IT_number 10
_symmetry_cell_setting 'monoclinic'
loop_
_space_group_symop_operation_xyz
x,y,z
-x,y,-z
-x,-y,-z
x,-y,z
loop_
_atom_site_type_symbol
_atom_site_label
_atom_site_fract_x
_atom_site_fract_y
_atom_site_fract_z
Si Si1 0.975559 0.321498 0.616800
Si Si2 0.725152 0.178958 0.944157
Si Si3 0.149880 0.678576 0.680971
Si Si4 0.140178 0.179761 0.026074
Si Si5 0.839903 0.170443 0.167566
Si Si6 0.525601 0.680666 0.882836
Si Si7 0.224125 0.179280 0.448773
O O1 0.003746 0.500000 0.607823
O O2 0.071636 0.215843 0.574928
O O3 0.000000 0.282453 0.500000
O O4 0.822026 0.279443 0.790504
O O5 0.754276 0.214187 0.008778
O O6 0.746763 0.000000 0.902642
O O7 0.572897 0.227838 0.078386
O O8 0.170224 0.500000 0.643459
O O9 0.204776 0.716738 0.715750
O O10 0.239468 0.771867 0.526648
O O11 0.993236 0.720132 0.827007
O O12 0.096244 0.000000 0.067808
O O13 0.212433 0.224495 0.868534
O O14 0.784977 0.000000 0.243370
O O15 0.000000 0.168045 0.000000
O O16 0.501231 0.500000 0.896924
O O17 0.677282 0.723596 0.707055
O O18 0.500000 0.733076 0.000000
O O19 0.256089 0.000000 0.407050
#
# Coordination Sequence:
#
# PCOD8067450 Si02
#       7
#     4   4   4   4   4   4   4
#     4  11  23  38  57  84 116 148 184 234 294 343
#     4  11  22  37  60  87 115 150 193 236 282 341
#     4  11  20  31  52  83 117 150 189 234 286 337
#     4   9  18  33  53  81 116 152 188 231 282 337
#     4   8  15  29  49  75 113 153 186 225 278 336
#     4  11  25  44  62  82 113 152 192 238 294 349
#     4  12  24  39  60  84 113 150 195 240 285 342
#
# _framework density 19.598962
#
# number of rings (size 3 to 8) (size 9 to 14) (size 15 to 20)
#    0.000    1.571    1.429    5.571    0.000    8.857 
#    0.000    0.000    0.000    0.857    0.000    6.000 
#    0.000    0.000    0.000    0.000    0.000    0.000 
#
# Total GULP energy -347274.336129 kJ/mol
# GULP energy per Si atom -12402.654862 kJ/mol
# Density = 1.955435 g / cm^3
# Si number density = 19.598962 Si / 1000 Ang^3
#
#
#
# Elastic Constant Matrix: (Units=GPa)
#
#
# Indices 1 2 3 4 5 6 
#
# 1 99.5589 43.1499 21.1167 0.0000 19.8381 0.0000
# 2 43.1499 74.2448 18.7456 0.0000 15.7989 0.0000
# 3 21.1167 18.7456 56.8832 0.0000 13.3905 0.0000
# 4 0.0000 0.0000 0.0000 29.7609 0.0000 -0.1415
# 5 19.8381 15.7989 13.3905 0.0000 32.6626 0.0000
# 6 0.0000 0.0000 0.0000 -0.1415 0.0000 27.5313
#
#
#
# Elastic Compliance Matrix: (Units=1/GPa)
#
#
# Indices 1 2 3 4 5 6 
#
# 1 0.014355 -0.006866 -0.001988 0.000000 -0.004583 0.000000
# 2 -0.006866 0.018989 -0.002798 0.000000 -0.003868 0.000000
# 3 -0.001988 -0.002798 0.020628 0.000000 -0.005896 0.000000
# 4 0.000000 0.000000 0.000000 0.033602 0.000000 0.000173
# 5 -0.004583 -0.003868 -0.005896 0.000000 0.037687 0.000000
# 6 0.000000 0.000000 0.000000 0.000173 0.000000 0.036323
#
#
# Mechanical properties :
#
#
# Convention : Reuss Voigt Hill
#
# Bulk Modulus (GPa) = 32.60735 44.07902 38.34318
# Shear Modulus (GPa) = 25.62658 27.83593 26.73126
#
# Velocity S-wave (km/s) = 3.61993 3.77274 3.69712
# Velocity P-wave (km/s) = 5.84339 6.44340 6.15072
#
# Compressibility (1/GPa) = 0.03066793
#
# Stress axis : x y z
#
# Youngs Moduli (GPa) = 69.66351 52.66272 48.47817
#
# Poissons Ratio (x) = 0.36157 0.09635
# Poissons Ratio (y) = 0.47829 0.13566
# Poissons Ratio (z) = 0.13846 0.14737
#
# Static dielectric constant tensor:
#      x y z
#    x 3.858280 0.000000 0.389660 
#    y 0.000000 3.487920 0.000000 
#    z 0.389660 0.000000 3.339130 
# 
# 
# High freq. dielectric constant tensor:
#      x y z
#    x 1.768990 0.000000 0.029800 
#    y 0.000000 1.766000 0.000000 
#    z 0.029800 0.000000 1.735720 
# 
# From -- ./inp_files/79212.got.cif
#   From: 2010.06.25/outbox.cif.g09.slc.cpg/sg10_40_cif.got.tgz:79212.got - 2010.06.27 22:07:45.
