data_PCOD8067817
_publ_section_title
;
Structure prediction by ZEFSAII (Michael W. Deem and Ramdas Pophale) SiO2 
 PCOD8067817
Probable space group: P 2/M
;
_chemical_formula_sum "Si O2"
_cell_formula_units_Z 28
_cell_length_a 28.956258
_cell_length_b 9.570444
_cell_length_c 9.081620
_cell_angle_alpha 90.000000
_cell_angle_beta 141.635764
_cell_angle_gamma 90.000000
_cell_volume 1562.034213
_symmetry_space_group_name_H-M "P 2/M"
_symmetry_group_IT_number 10
_symmetry_cell_setting 'monoclinic'
loop_
_space_group_symop_operation_xyz
x,y,z
-x,y,-z
-x,-y,-z
x,-y,z
loop_
_atom_site_type_symbol
_atom_site_label
_atom_site_fract_x
_atom_site_fract_y
_atom_site_fract_z
Si Si1 0.125010 0.337542 0.484649
Si Si2 0.000000 0.838370 0.674069
Si Si3 0.708047 0.345685 0.095305
Si Si4 0.125010 0.337542 0.140400
Si Si5 0.425961 0.839363 0.891769
Si Si6 0.425961 0.160637 0.238035
Si Si7 0.291953 0.654315 0.555069
O O1 0.107655 0.500000 0.475440
O O2 0.209077 0.299378 0.744409
O O3 0.112437 0.307984 0.281093
O O4 0.072801 0.236997 0.446609
O O5 0.000000 0.824437 0.500000
O O6 1.000000 0.000000 0.723940
O O7 0.072801 0.763003 0.917397
O O8 0.690780 0.500000 0.989668
O O9 0.704964 0.348784 0.262410
O O10 0.645913 0.240803 0.877271
O O11 0.107655 0.500000 0.062835
O O12 0.209077 0.299378 0.300977
O O13 0.354087 0.759197 0.647704
O O14 0.414190 0.000000 0.820227
O O15 0.500000 0.779570 0.000000
O O16 0.434797 0.816679 0.086993
O O17 0.500000 0.220430 0.500000
O O18 0.414190 0.000000 0.250724
O O19 0.309220 0.500000 0.535769
#
# Coordination Sequence:
#
# PCOD8067817 Si02
#       7
#     4   4   4   4   4   4   4
#     4   9  18  34  56  78  97 122 161 205 246 290
#     4  11  24  37  48  70 104 135 162 195 238 288
#     4   8  15  29  49  72  95 118 150 195 239 277
#     4   9  18  34  56  78  97 122 161 205 246 290
#     4   9  17  29  45  66  93 125 158 190 228 275
#     4   9  17  29  45  66  93 125 158 190 228 275
#     4   8  15  29  49  72  95 118 150 195 239 277
#
# _framework density 17.925345
#
# number of rings (size 3 to 8) (size 9 to 14) (size 15 to 20)
#    0.000    3.000    0.000    2.571    0.000    5.143 
#    0.000    4.286    0.000    5.143    0.000    0.000 
#    0.000    0.000    0.000    0.000    0.000    0.000 
#
# Total GULP energy -347109.504200 kJ/mol
# GULP energy per Si atom -12396.768007 kJ/mol
# Density = 1.788455 g / cm^3
# Si number density = 17.925345 Si / 1000 Ang^3
#
#
#
# Elastic Constant Matrix: (Units=GPa)
#
#
# Indices 1 2 3 4 5 6 
#
# 1 83.5894 62.9623 49.7638 0.0000 32.8784 0.0000
# 2 62.9623 111.1321 79.2929 0.0000 28.6357 0.0000
# 3 49.7638 79.2929 123.2685 0.0000 36.6991 0.0000
# 4 0.0000 0.0000 0.0000 27.6561 0.0000 4.9122
# 5 32.8784 28.6357 36.6991 0.0000 32.9876 0.0000
# 6 0.0000 0.0000 0.0000 4.9122 0.0000 24.8551
#
#
#
# Elastic Compliance Matrix: (Units=1/GPa)
#
#
# Indices 1 2 3 4 5 6 
#
# 1 0.027396 -0.012464 0.002790 0.000000 -0.019589 0.000000
# 2 -0.012464 0.022626 -0.011025 0.000000 0.005048 0.000000
# 3 0.002790 -0.011025 0.018027 0.000000 -0.013266 0.000000
# 4 0.000000 0.000000 0.000000 0.037474 0.000000 -0.007406
# 5 -0.019589 0.005048 -0.013266 0.000000 0.060215 0.000000
# 6 0.000000 0.000000 0.000000 -0.007406 0.000000 0.041697
#
#
# Mechanical properties :
#
#
# Convention : Reuss Voigt Hill
#
# Bulk Modulus (GPa) = 37.52306 78.00312 57.76309
# Shear Modulus (GPa) = 19.40114 25.49782 22.44948
#
# Velocity S-wave (km/s) = 3.29345 3.77562 3.54275
# Velocity P-wave (km/s) = 5.95322 7.91310 7.00207
#
# Compressibility (1/GPa) = 0.02665028
#
# Stress axis : x y z
#
# Youngs Moduli (GPa) = 36.50199 44.19769 55.47109
#
# Poissons Ratio (x) = 0.55089 -0.15476
# Poissons Ratio (y) = 0.45497 0.61157
# Poissons Ratio (z) = -0.10184 0.48728
#
# Static dielectric constant tensor:
#      x y z
#    x 3.206470 0.000000 0.349250 
#    y 0.000000 3.471620 0.000000 
#    z 0.349250 0.000000 3.405640 
# 
# 
# High freq. dielectric constant tensor:
#      x y z
#    x 1.676160 0.000000 0.025830 
#    y 0.000000 1.691080 0.000000 
#    z 0.025830 0.000000 1.690890 
# 
# From -- ./inp_files/37306.got.cif
#   From: 2010.06.25/outbox.cif.g09.slc.cpg/sg10_19_cif.got.tgz:37306.got - 2010.06.27 22:07:45.
