data_PCOD8067638
_publ_section_title
;
Structure prediction by ZEFSAII (Michael W. Deem and Ramdas Pophale) SiO2 
 PCOD8067638
Probable space group: P 2/M
;
_chemical_formula_sum "Si O2"
_cell_formula_units_Z 18
_cell_length_a 9.173836
_cell_length_b 9.771227
_cell_length_c 21.622199
_cell_angle_alpha 90.000000
_cell_angle_beta 153.091108
_cell_angle_gamma 90.000000
_cell_volume 877.179912
_symmetry_space_group_name_H-M "P 2/M"
_symmetry_group_IT_number 10
_symmetry_cell_setting 'monoclinic'
loop_
_space_group_symop_operation_xyz
x,y,z
-x,y,-z
-x,-y,-z
x,-y,z
loop_
_atom_site_type_symbol
_atom_site_label
_atom_site_fract_x
_atom_site_fract_y
_atom_site_fract_z
Si Si1 0.654273 0.500000 0.988105
Si Si2 0.808322 0.000000 0.863722
Si Si3 0.749944 0.278012 0.218127
Si Si4 0.777183 0.500000 0.651208
Si Si5 0.486948 0.000000 0.066580
Si Si6 0.404507 0.500000 0.283233
Si Si7 0.717272 0.766218 0.346986
O O1 0.030904 0.500000 0.128847
O O2 0.500000 0.500000 0.000000
O O3 0.568880 0.366642 0.915190
O O4 0.579788 0.869788 0.769736
O O5 0.000000 0.000000 0.000000
O O6 0.100640 0.000000 0.926762
O O7 0.681709 0.127414 0.167587
O O8 0.848676 0.265518 0.327588
O O9 0.018473 0.360282 0.280156
O O10 0.500000 0.500000 0.500000
O O11 0.569557 0.500000 0.634083
O O12 0.500000 0.000000 0.000000
O O13 0.585552 0.628537 0.325078
O O14 0.000000 0.821811 0.500000
#
# Coordination Sequence:
#
# PCOD8067638 Si02
#       7
#     2   2   4   2   2   2   4
#     4  11  21  39  64  96 134 174 224 278 335 385
#     4  12  25  48  71  99 133 181 223 274 341 407
#     4  11  23  43  66  95 140 174 219 285 331 392
#     4  11  24  43  64  94 136 183 224 272 334 401
#     4  12  26  42  71 101 136 166 222 282 336 394
#     4  12  24  39  72 100 131 179 231 271 342 399
#     4  12  26  45  69 101 138 178 225 279 337 404
#
# _framework density 20.520305
#
# number of rings (size 3 to 8) (size 9 to 14) (size 15 to 20)
#    0.000    0.444    4.444    5.333    3.111    0.889 
#    0.000    0.556    0.000    0.000    0.000    0.000 
#    0.000    0.000    0.000    0.000    0.000    0.000 
#
# Total GULP energy -223041.966140 kJ/mol
# GULP energy per Si atom -12391.220341 kJ/mol
# Density = 2.047360 g / cm^3
# Si number density = 20.520305 Si / 1000 Ang^3
#
#
#
# Elastic Constant Matrix: (Units=GPa)
#
#
# Indices 1 2 3 4 5 6 
#
# 1 131.9120 51.0271 34.2098 0.0000 -26.9943 0.0000
# 2 51.0271 173.6513 56.4265 0.0000 -6.0328 0.0000
# 3 34.2098 56.4265 145.3443 0.0000 -20.8704 0.0000
# 4 0.0000 0.0000 0.0000 121.3790 0.0000 21.2121
# 5 -26.9943 -6.0328 -20.8704 0.0000 45.5536 0.0000
# 6 0.0000 0.0000 0.0000 21.2121 0.0000 25.4161
#
#
#
# Elastic Compliance Matrix: (Units=1/GPa)
#
#
# Indices 1 2 3 4 5 6 
#
# 1 0.009759 -0.002498 -0.000583 0.000000 0.005186 0.000000
# 2 -0.002498 0.007234 -0.002457 0.000000 -0.001648 0.000000
# 3 -0.000583 -0.002457 0.008429 0.000000 0.003191 0.000000
# 4 0.000000 0.000000 0.000000 0.009645 0.000000 -0.008050
# 5 0.005186 -0.001648 0.003191 0.000000 0.026269 0.000000
# 6 0.000000 0.000000 0.000000 -0.008050 0.000000 0.046064
#
#
# Mechanical properties :
#
#
# Convention : Reuss Voigt Hill
#
# Bulk Modulus (GPa) = 69.70100 81.58159 75.64129
# Shear Modulus (GPa) = 40.56495 59.08603 49.82549
#
# Velocity S-wave (km/s) = 4.45097 5.37182 4.93293
# Velocity P-wave (km/s) = 7.77531 8.84975 8.32987
#
# Compressibility (1/GPa) = 0.01434700
#
# Stress axis : x y z
#
# Youngs Moduli (GPa) = 102.46448 138.23732 118.63138
#
# Poissons Ratio (x) = 0.34537 0.06911
# Poissons Ratio (y) = 0.25599 0.29148
# Poissons Ratio (z) = 0.05969 0.33965
#
# Static dielectric constant tensor:
#      x y z
#    x 3.630790 0.000000 -0.365330 
#    y 0.000000 3.846810 0.000000 
#    z -0.365330 0.000000 3.900070 
# 
# 
# High freq. dielectric constant tensor:
#      x y z
#    x 1.808900 0.000000 -0.010980 
#    y 0.000000 1.813970 0.000000 
#    z -0.010980 0.000000 1.821550 
# 
# From -- ./inp_files/82160.got.cif
#   From: 2010.06.25/outbox.cif.g09.slc.cpg/sg10_42_cif.got.tgz:82160.got - 2010.06.27 22:07:45.
