data_PCOD8067958
_publ_section_title
;
Structure prediction by ZEFSAII (Michael W. Deem and Ramdas Pophale) SiO2 
 PCOD8067958
Probable space group: P 2/M
;
_chemical_formula_sum "Si O2"
_cell_formula_units_Z 32
_cell_length_a 24.810718
_cell_length_b 9.826049
_cell_length_c 9.443219
_cell_angle_alpha 90.000000
_cell_angle_beta 124.814116
_cell_angle_gamma 90.000000
_cell_volume 1890.105361
_symmetry_space_group_name_H-M "P 2/M"
_symmetry_group_IT_number 10
_symmetry_cell_setting 'monoclinic'
loop_
_space_group_symop_operation_xyz
x,y,z
-x,y,-z
-x,-y,-z
x,-y,z
loop_
_atom_site_type_symbol
_atom_site_label
_atom_site_fract_x
_atom_site_fract_y
_atom_site_fract_z
Si Si1 0.924471 0.656245 0.223749
Si Si2 0.171910 0.845548 0.090834
Si Si3 0.171910 0.845548 0.424896
Si Si4 0.318180 0.161789 0.634747
Si Si5 0.075528 0.656245 0.450334
Si Si6 0.561663 0.837677 0.682576
Si Si7 0.438337 0.162323 0.997587
Si Si8 0.681820 0.161789 0.680207
O O1 0.910704 0.500000 0.163551
O O2 0.880348 0.750271 0.060996
O O3 0.906958 0.683465 0.360437
O O4 1.000000 0.692749 0.307402
O O5 0.161137 0.000000 0.021983
O O6 0.161830 0.836741 0.242745
O O7 0.245312 0.794706 0.160641
O O8 0.245312 0.794705 0.575296
O O9 0.119652 0.750271 0.419951
O O10 0.161137 0.000000 0.461429
O O11 0.333332 0.219419 0.499998
O O12 0.321506 0.000000 0.632831
O O13 0.371847 0.218935 0.825296
O O14 0.089296 0.500000 0.431437
O O15 0.500000 0.783124 0.500000
O O16 0.557400 0.780765 0.836100
O O17 0.628153 0.781065 0.709755
O O18 0.561756 0.000000 0.684392
O O19 0.438244 0.000000 0.999124
O O20 0.500000 0.216877 0.000000
O O21 0.678494 0.000000 0.668312
#
# Coordination Sequence:
#
# PCOD8067958 Si02
#       8
#     4   4   4   4   4   4   4   4
#     4   9  19  35  51  67  90 120 153 189 228 270
#     4   9  18  31  47  69  95 121 150 187 231 276
#     4   9  18  31  47  69  95 121 150 187 231 276
#     4   8  14  25  38  53  79 112 142 176 219 263
#     4   9  19  35  51  67  90 120 153 189 228 270
#     4   9  15  21  31  49  74 107 146 182 216 257
#     4   9  15  21  31  49  74 107 146 182 216 257
#     4   8  14  25  38  53  79 112 142 176 219 263
#
# _framework density 16.930273
#
# number of rings (size 3 to 8) (size 9 to 14) (size 15 to 20)
#    0.000    3.250    0.000    3.000    0.000    6.000 
#    0.000    6.250    0.000    0.000    0.000    0.000 
#    0.000    1.000    0.000    3.250    0.000    7.250 
#
# Total GULP energy -396655.469841 kJ/mol
# GULP energy per Si atom -12395.483433 kJ/mol
# Density = 1.689174 g / cm^3
# Si number density = 16.930273 Si / 1000 Ang^3
#
#
#
# Elastic Constant Matrix: (Units=GPa)
#
#
# Indices 1 2 3 4 5 6 
#
# 1 136.3579 39.7548 56.0701 0.0000 3.5475 0.0000
# 2 39.7548 36.1474 36.1141 0.0000 6.4171 0.0000
# 3 56.0701 36.1141 126.6997 0.0000 13.4771 0.0000
# 4 0.0000 0.0000 0.0000 11.1462 0.0000 -12.2977
# 5 3.5475 6.4171 13.4771 0.0000 21.6352 0.0000
# 6 0.0000 0.0000 0.0000 -12.2977 0.0000 4.1692
#
#
#
# Elastic Compliance Matrix: (Units=1/GPa)
#
#
# Indices 1 2 3 4 5 6 
#
# 1 0.011295 -0.010656 -0.002249 0.000000 0.002710 0.000000
# 2 -0.010656 0.049230 -0.008514 0.000000 -0.007551 0.000000
# 3 -0.002249 -0.008514 0.011788 0.000000 -0.004449 0.000000
# 4 0.000000 0.000000 0.000000 -0.039797 0.000000 -0.117386
# 5 0.002710 -0.007551 -0.004449 0.000000 0.050788 0.000000
# 6 0.000000 0.000000 0.000000 -0.117386 0.000000 -0.106395
#
#
# Mechanical properties :
#
#
# Convention : Reuss Voigt Hill
#
# Bulk Modulus (GPa) = 33.92644 62.56478 48.24561
# Shear Modulus (GPa) = 169.08473 18.54120 93.81296
#
# Velocity S-wave (km/s) = 10.00440 3.31290 7.45196
# Velocity P-wave (km/s) = 12.39085 7.18807 10.12920
#
# Compressibility (1/GPa) = 0.02947554
#
# Stress axis : x y z
#
# Youngs Moduli (GPa) = 88.53710 20.31288 84.83175
#
# Poissons Ratio (x) = 0.21645 0.19082
# Poissons Ratio (y) = 0.94342 0.72222
# Poissons Ratio (z) = 0.19915 0.17293
#
# Static dielectric constant tensor:
#      x y z
#    x 3.351330 0.000000 0.067740 
#    y 0.000000 2.637770 0.000000 
#    z 0.067740 0.000000 3.312900 
# 
# 
# High freq. dielectric constant tensor:
#      x y z
#    x 1.663310 0.000000 0.005030 
#    y 0.000000 1.588410 0.000000 
#    z 0.005030 0.000000 1.660460 
# 
# From -- ./inp_files/36045.got.cif
#   From: 2010.06.25/outbox.cif.g09.slc.cpg/sg10_19_cif.got.tgz:36045.got - 2010.06.27 22:07:45.
