data_PCOD8067519
_publ_section_title
;
Structure prediction by ZEFSAII (Michael W. Deem and Ramdas Pophale) SiO2 
 PCOD8067519
Probable space group: P 2/M
;
_chemical_formula_sum "Si O2"
_cell_formula_units_Z 32
_cell_length_a 18.933964
_cell_length_b 14.230241
_cell_length_c 17.157060
_cell_angle_alpha 90.000000
_cell_angle_beta 25.005982
_cell_angle_gamma 90.000000
_cell_volume 1954.079175
_symmetry_space_group_name_H-M "P 2/M"
_symmetry_group_IT_number 10
_symmetry_cell_setting 'monoclinic'
loop_
_space_group_symop_operation_xyz
x,y,z
-x,y,-z
-x,-y,-z
x,-y,z
loop_
_atom_site_type_symbol
_atom_site_label
_atom_site_fract_x
_atom_site_fract_y
_atom_site_fract_z
Si Si1 0.695774 0.110523 0.998406
Si Si2 0.188913 0.100993 0.809985
Si Si3 0.196399 0.395124 0.714458
Si Si4 0.197796 0.604909 0.890513
Si Si5 0.690981 0.791934 0.458113
Si Si6 0.689280 0.207742 0.163263
Si Si7 0.998495 0.111084 0.414744
Si Si8 0.309208 0.110380 0.383773
O O1 0.753762 0.165893 0.017506
O O2 0.502773 0.134829 0.166650
O O3 0.711795 0.000000 0.999221
O O4 0.830206 0.143953 0.799280
O O5 0.214235 0.161397 0.707735
O O6 0.219876 0.161983 0.855075
O O7 0.287939 0.000000 0.710516
O O8 0.000000 0.073003 0.000000
O O9 0.248687 0.500000 0.635338
O O10 0.257380 0.377878 0.742088
O O11 0.282373 0.320548 0.570785
O O12 0.999262 0.382773 0.906900
O O13 0.250584 0.500000 0.864359
O O14 0.284309 0.679722 0.861298
O O15 0.501101 0.819403 0.637034
O O16 0.752060 0.833082 0.479056
O O17 0.000000 0.155104 0.500000
O O18 0.823703 0.142278 0.549139
O O19 0.001413 0.000000 0.416676
O O20 0.293688 0.000000 0.417096
#
# Coordination Sequence:
#
# PCOD8067519 Si02
#       8
#     4   4   4   4   4   4   4   4
#     4   9  19  33  48  70 101 132 160 197 242 284
#     4  11  23  33  44  63  88 127 171 204 234 275
#     4   9  18  32  48  65  88 121 162 205 245 284
#     4   9  18  32  48  65  88 121 162 205 245 284
#     4  11  21  32  47  68  94 126 162 201 243 283
#     4  11  21  32  47  68  94 126 162 201 243 283
#     4   9  18  32  52  75  96 125 162 195 234 289
#     4   9  19  33  48  70 101 132 160 197 242 284
#
# _framework density 16.376000000000001
#
# number of rings (size 3 to 8) (size 9 to 14) (size 15 to 20)
#    0.000    2.250    1.250    2.625    3.500    3.000 
#    0.000    3.750    0.000    0.000    0.000    0.000 
#    0.000    2.000    0.000    5.500    0.000    0.250 
#
# Total GULP energy -396612.758584 kJ/mol
# GULP energy per Si atom -12394.148706 kJ/mol
# Density = 1.633873 g / cm^3
# Si number density = 16.376000 Si / 1000 Ang^3
#
#
#
# Elastic Constant Matrix: (Units=GPa)
#
#
# Indices 1 2 3 4 5 6 
#
# 1 95.2506 33.2984 28.0852 0.0000 5.7757 0.0000
# 2 33.2984 80.4948 17.6440 0.0000 10.7785 0.0000
# 3 28.0852 17.6440 42.0624 0.0000 4.7447 0.0000
# 4 0.0000 0.0000 0.0000 15.4030 0.0000 -5.6833
# 5 5.7757 10.7785 4.7447 0.0000 19.1409 0.0000
# 6 0.0000 0.0000 0.0000 -5.6833 0.0000 9.6107
#
#
#
# Elastic Compliance Matrix: (Units=1/GPa)
#
#
# Indices 1 2 3 4 5 6 
#
# 1 0.014252 -0.004194 -0.007755 0.000000 -0.000017 0.000000
# 2 -0.004194 0.015739 -0.003030 0.000000 -0.006846 0.000000
# 3 -0.007755 -0.003030 0.030623 0.000000 -0.003545 0.000000
# 4 0.000000 0.000000 0.000000 0.083042 0.000000 0.049107
# 5 -0.000017 -0.006846 -0.003545 0.000000 0.056983 0.000000
# 6 0.000000 0.000000 0.000000 0.049107 0.000000 0.133090
#
#
# Mechanical properties :
#
#
# Convention : Reuss Voigt Hill
#
# Bulk Modulus (GPa) = 32.61884 41.76257 37.19070
# Shear Modulus (GPa) = 13.37236 18.08293 15.72765
#
# Velocity S-wave (km/s) = 2.86069 3.32661 3.10241
# Velocity P-wave (km/s) = 5.55638 6.34923 5.96599
#
# Compressibility (1/GPa) = 0.03065713
#
# Stress axis : x y z
#
# Youngs Moduli (GPa) = 70.16359 63.53734 32.65495
#
# Poissons Ratio (x) = 0.26645 0.25325
# Poissons Ratio (y) = 0.29424 0.09893
# Poissons Ratio (z) = 0.54415 0.19249
#
# Static dielectric constant tensor:
#      x y z
#    x 2.806810 0.000000 -0.165760 
#    y 0.000000 3.128920 0.000000 
#    z -0.165760 0.000000 3.092020 
# 
# 
# High freq. dielectric constant tensor:
#      x y z
#    x 1.609970 0.000000 -0.019390 
#    y 0.000000 1.615420 0.000000 
#    z -0.019390 0.000000 1.628700 
# 
# From -- ./inp_files/38293.got.cif
#   From: 2010.06.25/outbox.cif.g09.slc.cpg/sg10_20_cif.got.tgz:38293.got - 2010.06.27 22:07:45.
