data_PCOD8067947
_publ_section_title
;
Structure prediction by ZEFSAII (Michael W. Deem and Ramdas Pophale) SiO2 
 PCOD8067947
Probable space group: P 2/M
;
_chemical_formula_sum "Si O2"
_cell_formula_units_Z 24
_cell_length_a 10.391973
_cell_length_b 9.951779
_cell_length_c 15.125262
_cell_angle_alpha 90.000000
_cell_angle_beta 103.208819
_cell_angle_gamma 90.000000
_cell_volume 1522.849935
_symmetry_space_group_name_H-M "P 2/M"
_symmetry_group_IT_number 10
_symmetry_cell_setting 'monoclinic'
loop_
_space_group_symop_operation_xyz
x,y,z
-x,y,-z
-x,-y,-z
x,-y,z
loop_
_atom_site_type_symbol
_atom_site_label
_atom_site_fract_x
_atom_site_fract_y
_atom_site_fract_z
Si Si1 0.323083 0.849383 0.390484
Si Si2 0.400518 0.653937 0.746267
Si Si3 0.366224 0.150504 0.591536
Si Si4 0.853298 0.659839 0.963054
Si Si5 0.634980 0.340245 0.061881
Si Si6 0.709414 0.345854 0.764482
O O1 0.478387 0.843118 0.399193
O O2 0.293400 0.810806 0.488079
O O3 0.252096 0.743764 0.314509
O O4 0.271013 0.000000 0.362469
O O5 0.361377 0.500000 0.721424
O O6 0.326419 0.744453 0.661485
O O7 0.349483 0.703198 0.833743
O O8 0.557962 0.671771 0.769203
O O9 0.324831 0.000000 0.614100
O O10 0.854195 0.500000 0.967955
O O11 0.758902 0.716833 0.025798
O O12 0.799088 0.705678 0.859371
O O13 0.000000 0.718993 0.000000
O O14 0.628490 0.500000 0.054190
O O15 0.500000 0.279738 0.000000
O O16 0.740090 0.500000 0.744906
#
# Coordination Sequence:
#
# PCOD8067947 Si02
#       6
#     4   4   4   4   4   4
#     4   8  14  24  37  53  77 109 135 157 198 249
#     4   9  15  22  37  59  80 104 133 164 199 236
#     4   8  14  24  36  53  80 108 131 160 200 244
#     4   9  16  25  38  58  83 109 137 167 199 238
#     4   9  14  23  38  56  80 109 136 163 199 242
#     4   9  15  23  37  58  80 103 133 168 200 231
#
# _framework density 15.759924
#
# number of rings (size 3 to 8) (size 9 to 14) (size 15 to 20)
#    0.000    3.333    1.667    1.000    0.000    0.667 
#    0.000    3.333    0.000    2.000    0.000    1.167 
#    0.000    9.333    0.000    0.000    0.000    0.000 
#
# Total GULP energy -297444.974196 kJ/mol
# GULP energy per Si atom -12393.540591 kJ/mol
# Density = 1.572405 g / cm^3
# Si number density = 15.759924 Si / 1000 Ang^3
#
#
#
# Elastic Constant Matrix: (Units=GPa)
#
#
# Indices 1 2 3 4 5 6 
#
# 1 55.8200 19.6990 46.3538 0.0000 -7.3798 0.0000
# 2 19.6990 64.6014 74.4073 0.0000 -7.9707 0.0000
# 3 46.3538 74.4073 162.9666 0.0000 -15.5066 0.0000
# 4 0.0000 0.0000 0.0000 10.0421 0.0000 -0.0571
# 5 -7.3798 -7.9707 -15.5066 0.0000 13.2785 0.0000
# 6 0.0000 0.0000 0.0000 -0.0571 0.0000 4.4844
#
#
#
# Elastic Compliance Matrix: (Units=1/GPa)
#
#
# Indices 1 2 3 4 5 6 
#
# 1 0.023926 0.001323 -0.006827 0.000000 0.006119 0.000000
# 2 0.001323 0.032794 -0.015082 0.000000 0.002807 0.000000
# 3 -0.006827 -0.015082 0.015460 0.000000 0.005206 0.000000
# 4 0.000000 0.000000 0.000000 0.099588 0.000000 0.001268
# 5 0.006119 0.002807 0.005206 0.000000 0.086475 0.000000
# 6 0.000000 0.000000 0.000000 0.001268 0.000000 0.223010
#
#
# Mechanical properties :
#
#
# Convention : Reuss Voigt Hill
#
# Bulk Modulus (GPa) = 32.25122 62.70091 47.47606
# Shear Modulus (GPa) = 9.38506 15.08956 12.23731
#
# Velocity S-wave (km/s) = 2.44294 3.09765 2.78957
# Velocity P-wave (km/s) = 5.33533 7.25709 6.36911
#
# Compressibility (1/GPa) = 0.03100658
#
# Stress axis : x y z
#
# Youngs Moduli (GPa) = 41.79494 30.49316 64.68410
#
# Poissons Ratio (x) = -0.04033 0.44161
# Poissons Ratio (y) = -0.05528 0.97558
# Poissons Ratio (z) = 0.28534 0.45991
#
# Static dielectric constant tensor:
#      x y z
#    x 2.717580 0.000000 -0.117870 
#    y 0.000000 2.833650 0.000000 
#    z -0.117870 0.000000 3.303530 
# 
# 
# High freq. dielectric constant tensor:
#      x y z
#    x 1.551900 0.000000 -0.011180 
#    y 0.000000 1.570640 0.000000 
#    z -0.011180 0.000000 1.618860 
# 
# From -- ./inp_files/28006.got.cif
#   From: 2010.06.25/outbox.cif.g09.slc.cpg/sg10_15_cif.got.tgz:28006.got - 2010.06.27 22:07:45.
