data_PCOD8067288
_publ_section_title
;
Structure prediction by ZEFSAII (Michael W. Deem and Ramdas Pophale) SiO2 
 PCOD8067288
Probable space group: P 2/M
;
_chemical_formula_sum "Si O2"
_cell_formula_units_Z 26
_cell_length_a 20.380115
_cell_length_b 8.938060
_cell_length_c 8.107722
_cell_angle_alpha 90.000000
_cell_angle_beta 128.172688
_cell_angle_gamma 90.000000
_cell_volume 1161.061012
_symmetry_space_group_name_H-M "P 2/M"
_symmetry_group_IT_number 10
_symmetry_cell_setting 'monoclinic'
loop_
_space_group_symop_operation_xyz
x,y,z
-x,y,-z
-x,-y,-z
x,-y,z
loop_
_atom_site_type_symbol
_atom_site_label
_atom_site_fract_x
_atom_site_fract_y
_atom_site_fract_z
Si Si1 0.316722 0.170271 0.526821
Si Si2 0.193704 0.175200 0.836319
Si Si3 0.000000 0.704920 0.000000
Si Si4 0.943536 0.320733 0.570763
Si Si5 0.475391 0.668336 0.649900
Si Si6 0.369215 0.168295 0.980881
Si Si7 0.826768 0.339141 0.865238
O O1 0.395757 0.227681 0.548058
O O2 0.333069 0.186243 0.743744
O O3 0.234645 0.264653 0.360897
O O4 0.300399 0.000000 0.447864
O O5 0.149317 0.266395 0.619679
O O6 0.293152 0.206727 0.986097
O O7 0.174494 0.000000 0.784632
O O8 0.159930 0.231457 0.958886
O O9 0.974495 0.776909 0.780781
O O10 0.914560 0.621284 0.914148
O O11 0.946326 0.500000 0.615003
O O12 0.000000 0.282474 0.500000
O O13 0.500000 0.678731 0.500000
O O14 0.453502 0.500000 0.670182
O O15 0.553498 0.721215 0.880158
O O16 0.401847 0.000000 0.062477
O O17 0.790278 0.500000 0.866916
#
# Coordination Sequence:
#
# PCOD8067288 Si02
#       7
#     4   4   2   4   4   4   4
#     4  11  24  43  65  94 130 168 213 264 326 390
#     4  11  24  43  65  95 134 173 217 269 329 390
#     4  12  25  44  69  98 131 174 223 278 337 394
#     4  11  22  41  67  93 127 171 221 271 328 393
#     4  11  24  41  64  96 129 165 214 265 317 383
#     4  10  23  42  64  91 129 172 212 262 325 390
#     4  12  24  42  67  95 129 170 220 271 328 392
#
# _framework density 22.39331
#
# number of rings (size 3 to 8) (size 9 to 14) (size 15 to 20)
#    0.000    0.923    1.538    5.538    0.000    8.308 
#    0.000    2.692    0.000    0.000    0.000    0.000 
#    0.000    0.000    0.000    0.000    0.000    0.000 
#
# Total GULP energy -322155.201003 kJ/mol
# GULP energy per Si atom -12390.584654 kJ/mol
# Density = 2.234234 g / cm^3
# Si number density = 22.393310 Si / 1000 Ang^3
#
#
#
# Elastic Constant Matrix: (Units=GPa)
#
#
# Indices 1 2 3 4 5 6 
#
# 1 102.9975 39.6309 36.0976 0.0000 5.3091 0.0000
# 2 39.6309 93.0132 42.1364 0.0000 13.1067 0.0000
# 3 36.0976 42.1364 125.3266 0.0000 13.1344 0.0000
# 4 0.0000 0.0000 0.0000 -65.8206 0.0000 -64.5702
# 5 5.3091 13.1067 13.1344 0.0000 40.7173 0.0000
# 6 0.0000 0.0000 0.0000 -64.5702 0.0000 -31.7190
#
#
#
# Elastic Compliance Matrix: (Units=1/GPa)
#
#
# Indices 1 2 3 4 5 6 
#
# 1 0.012055 -0.004256 -0.002091 0.000000 0.000473 0.000000
# 2 -0.004256 0.014502 -0.003331 0.000000 -0.003039 0.000000
# 3 -0.002091 -0.003331 0.009895 0.000000 -0.001847 0.000000
# 4 0.000000 0.000000 0.000000 0.015238 0.000000 -0.031020
# 5 0.000473 -0.003039 -0.001847 0.000000 0.026072 0.000000
# 6 0.000000 0.000000 0.000000 -0.031020 0.000000 0.031621
#
#
# Mechanical properties :
#
#
# Convention : Reuss Voigt Hill
#
# Bulk Modulus (GPa) = 58.49451 61.89632 60.19542
# Shear Modulus (GPa) = 37.19204 2.20037 19.69620
#
# Velocity S-wave (km/s) = 4.07978 0.99234 2.96895
# Velocity P-wave (km/s) = 6.95492 5.38642 6.22031
#
# Compressibility (1/GPa) = 0.01709562
#
# Stress axis : x y z
#
# Youngs Moduli (GPa) = 82.95383 68.95692 101.06100
#
# Poissons Ratio (x) = 0.29346 0.21130
# Poissons Ratio (y) = 0.35303 0.33668
# Poissons Ratio (z) = 0.17344 0.22973
#
# Static dielectric constant tensor:
#      x y z
#    x 4.209110 0.000000 0.099090 
#    y 0.000000 3.962310 0.000000 
#    z 0.099090 0.000000 4.311110 
# 
# 
# High freq. dielectric constant tensor:
#      x y z
#    x 1.894040 0.000000 0.000040 
#    y 0.000000 1.863680 0.000000 
#    z 0.000040 0.000000 1.901430 
# 
# From -- ./inp_files/34275.got.cif
#   From: 2010.06.25/outbox.cif.g09.slc.cpg/sg10_18_cif.got.tgz:34275.got - 2010.06.27 22:07:45.
