data_PCOD8067832
_publ_section_title
;
Structure prediction by ZEFSAII (Michael W. Deem and Ramdas Pophale) SiO2 
 PCOD8067832
Probable space group: P 2/M
;
_chemical_formula_sum "Si O2"
_cell_formula_units_Z 26
_cell_length_a 8.641095
_cell_length_b 20.369049
_cell_length_c 9.603947
_cell_angle_alpha 90.000000
_cell_angle_beta 130.007050
_cell_angle_gamma 90.000000
_cell_volume 1294.787233
_symmetry_space_group_name_H-M "P 2/M"
_symmetry_group_IT_number 10
_symmetry_cell_setting 'monoclinic'
loop_
_space_group_symop_operation_xyz
x,y,z
-x,y,-z
-x,-y,-z
x,-y,z
loop_
_atom_site_type_symbol
_atom_site_label
_atom_site_fract_x
_atom_site_fract_y
_atom_site_fract_z
Si Si1 0.947325 0.194635 0.239279
Si Si2 0.682057 0.812494 0.346122
Si Si3 0.365031 0.573925 0.059978
Si Si4 0.568935 0.072210 0.694789
Si Si5 0.327117 0.335492 0.637749
Si Si6 0.000000 0.111958 0.000000
Si Si7 0.047304 0.658267 0.745191
O O1 0.757093 0.183930 0.230654
O O2 0.954239 0.269496 0.190206
O O3 0.143936 0.173639 0.440579
O O4 0.923930 0.153689 0.086751
O O5 0.513314 0.868861 0.257403
O O6 0.593799 0.739725 0.329159
O O7 0.334792 0.500000 0.097151
O O8 0.480430 0.616579 0.243658
O O9 0.500000 0.574563 0.000000
O O10 0.143044 0.605112 0.905913
O O11 0.500000 0.088490 0.500000
O O12 0.486120 0.000000 0.692623
O O13 0.811356 0.068249 0.843370
O O14 0.185866 0.339782 0.689728
O O15 0.185826 0.358996 0.427109
#
# Coordination Sequence:
#
# PCOD8067832 Si02
#       7
#     4   4   4   4   4   2   4
#     4   9  19  35  60  87 114 143 194 239 284 334
#     4   9  18  39  60  82 112 155 190 234 284 342
#     4   9  16  24  38  68 106 142 178 218 273 329
#     4  11  24  42  60  84 120 154 184 232 291 339
#     4   8  15  27  47  68  98 136 186 223 267 319
#     4  12  23  38  60  90 113 144 188 240 283 338
#     4   8  15  28  43  68 102 139 172 228 274 318
#
# _framework density 20.08052
#
# number of rings (size 3 to 8) (size 9 to 14) (size 15 to 20)
#    0.000    2.769    1.538    2.077    2.154    1.231 
#    0.000    6.923    0.000    0.000    0.000    0.538 
#    0.000    3.692    0.000    0.308    0.000    0.000 
#
# Total GULP energy -322219.334506 kJ/mol
# GULP energy per Si atom -12393.051327 kJ/mol
# Density = 2.003482 g / cm^3
# Si number density = 20.080520 Si / 1000 Ang^3
#
#
#
# Elastic Constant Matrix: (Units=GPa)
#
#
# Indices 1 2 3 4 5 6 
#
# 1 42.3477 42.4562 35.6615 0.0000 9.1303 0.0000
# 2 42.4562 149.0411 62.4577 0.0000 18.1577 0.0000
# 3 35.6615 62.4577 108.3274 0.0000 16.2103 0.0000
# 4 0.0000 0.0000 0.0000 68.5455 0.0000 17.0310
# 5 9.1303 18.1577 16.2103 0.0000 27.6583 0.0000
# 6 0.0000 0.0000 0.0000 17.0310 0.0000 3.2457
#
#
#
# Elastic Compliance Matrix: (Units=1/GPa)
#
#
# Indices 1 2 3 4 5 6 
#
# 1 0.038184 -0.007144 -0.007966 0.000000 -0.003246 0.000000
# 2 -0.007144 0.010431 -0.003278 0.000000 -0.002569 0.000000
# 3 -0.007966 -0.003278 0.014281 0.000000 -0.003588 0.000000
# 4 0.000000 0.000000 0.000000 -0.048028 0.000000 0.252017
# 5 -0.003246 -0.002569 -0.003588 0.000000 0.041016 0.000000
# 6 0.000000 0.000000 0.000000 0.252017 0.000000 -1.014308
#
#
# Mechanical properties :
#
#
# Convention : Reuss Voigt Hill
#
# Bulk Modulus (GPa) = 38.28362 64.54079 51.41221
# Shear Modulus (GPa) = -5.47680 30.49928 12.51124
#
# Velocity S-wave (km/s) = -1.65328 3.90147 2.49881
# Velocity P-wave (km/s) = 3.93217 7.24611 5.82958
#
# Compressibility (1/GPa) = 0.02612083
#
# Stress axis : x y z
#
# Youngs Moduli (GPa) = 26.18908 95.86627 70.02496
#
# Poissons Ratio (x) = 0.68482 0.55780
# Poissons Ratio (y) = 0.18708 0.22956
# Poissons Ratio (z) = 0.20861 0.31427
#
# Static dielectric constant tensor:
#      x y z
#    x 3.215090 0.000000 0.261010 
#    y 0.000000 3.680790 0.000000 
#    z 0.261010 0.000000 3.846700 
# 
# 
# High freq. dielectric constant tensor:
#      x y z
#    x 1.738050 0.000000 0.019410 
#    y 0.000000 1.780100 0.000000 
#    z 0.019410 0.000000 1.788730 
# 
# From -- ./inp_files/20476.got.cif
#   From: 2010.06.25/outbox.cif.g09.slc.cpg/sg10_11_cif.got.tgz:20476.got - 2010.06.27 22:07:45.
