data_PCOD8067396
_publ_section_title
;
Structure prediction by ZEFSAII (Michael W. Deem and Ramdas Pophale) SiO2 
 PCOD8067396
Probable space group: P 2/M
;
_chemical_formula_sum "Si O2"
_cell_formula_units_Z 24
_cell_length_a 19.158146
_cell_length_b 10.356623
_cell_length_c 10.088522
_cell_angle_alpha 90.000000
_cell_angle_beta 136.006377
_cell_angle_gamma 90.000000
_cell_volume 1390.338038
_symmetry_space_group_name_H-M "P 2/M"
_symmetry_group_IT_number 10
_symmetry_cell_setting 'monoclinic'
loop_
_space_group_symop_operation_xyz
x,y,z
-x,y,-z
-x,-y,-z
x,-y,z
loop_
_atom_site_type_symbol
_atom_site_label
_atom_site_fract_x
_atom_site_fract_y
_atom_site_fract_z
Si Si1 0.405106 0.855126 0.043846
Si Si2 0.828537 0.250337 0.555336
Si Si3 0.201189 0.253376 0.797198
Si Si4 0.086446 0.500000 0.727615
Si Si5 0.042813 0.000000 0.205206
Si Si6 0.376842 0.855777 0.693206
Si Si7 0.911130 0.000000 0.274264
Si Si8 0.051975 0.500000 0.210823
O O1 0.518563 0.803327 0.228423
O O2 0.392174 0.000000 0.085418
O O3 0.321588 0.756861 0.987620
O O4 0.388567 0.864579 0.865616
O O5 0.825680 0.265220 0.393587
O O6 0.716993 0.237387 0.467023
O O7 0.877979 0.375680 0.684466
O O8 0.891114 0.125357 0.679024
O O9 0.157569 0.375954 0.813639
O O10 0.154597 0.125813 0.794614
O O11 0.000000 0.500000 0.500000
O O12 0.035434 0.500000 0.800294
O O13 0.949127 0.000000 0.176238
O O14 0.000000 0.000000 0.000000
O O15 0.354900 0.000000 0.608715
O O16 0.000000 0.000000 0.500000
O O17 0.000000 0.500000 0.000000
#
# Coordination Sequence:
#
# PCOD8067396 Si02
#       8
#     4   4   4   2   2   4   2   2
#     4   8  14  26  46  81 112 133 162 212 264 315
#     4  11  19  35  54  77 105 142 178 216 265 315
#     4  11  19  32  55  81 105 138 176 215 269 312
#     4  12  22  38  53  75 105 145 176 218 268 312
#     4  12  24  34  49  77 107 137 182 226 256 303
#     4   8  14  26  49  77 110 137 164 208 269 312
#     4  12  20  32  53  77 101 139 180 220 258 316
#     4  12  26  40  53  73 107 147 182 216 262 319
#
# _framework density 17.261989
#
# number of rings (size 3 to 8) (size 9 to 14) (size 15 to 20)
#    0.000    1.667    5.000    3.000    0.000    0.000 
#    0.000    0.833    0.000    4.000    0.000    7.000 
#    0.000    0.000    0.000    0.000    0.000    0.000 
#
# Total GULP energy -297481.097893 kJ/mol
# GULP energy per Si atom -12395.045746 kJ/mol
# Density = 1.722270 g / cm^3
# Si number density = 17.261989 Si / 1000 Ang^3
#
#
#
# Elastic Constant Matrix: (Units=GPa)
#
#
# Indices 1 2 3 4 5 6 
#
# 1 109.5892 56.8962 70.2779 0.0000 28.2245 0.0000
# 2 56.8962 138.9851 55.4609 0.0000 29.2467 0.0000
# 3 70.2779 55.4609 85.3254 0.0000 21.4161 0.0000
# 4 0.0000 0.0000 0.0000 -9.0304 0.0000 24.9154
# 5 28.2245 29.2467 21.4161 0.0000 38.1130 0.0000
# 6 0.0000 0.0000 0.0000 24.9154 0.0000 21.2596
#
#
#
# Elastic Compliance Matrix: (Units=1/GPa)
#
#
# Indices 1 2 3 4 5 6 
#
# 1 0.020888 -0.001366 -0.014782 0.000000 -0.006115 0.000000
# 2 -0.001366 0.010532 -0.004594 0.000000 -0.004489 0.000000
# 3 -0.014782 -0.004594 0.027066 0.000000 -0.000736 0.000000
# 4 0.000000 0.000000 0.000000 -0.026157 0.000000 0.030655
# 5 -0.006115 -0.004489 -0.000736 0.000000 0.034625 0.000000
# 6 0.000000 0.000000 0.000000 0.030655 0.000000 0.011111
#
#
# Mechanical properties :
#
#
# Convention : Reuss Voigt Hill
#
# Bulk Modulus (GPa) = 58.81513 77.68552 68.25032
# Shear Modulus (GPa) = 39.93081 20.15273 30.04177
#
# Velocity S-wave (km/s) = 4.81481 3.42052 4.17627
# Velocity P-wave (km/s) = 8.06573 7.79111 7.92961
#
# Compressibility (1/GPa) = 0.01700243
#
# Stress axis : x y z
#
# Youngs Moduli (GPa) = 47.87325 94.94905 36.94635
#
# Poissons Ratio (x) = 0.12966 0.54615
# Poissons Ratio (y) = 0.06538 0.16974
# Poissons Ratio (z) = 0.70768 0.43621
#
# Static dielectric constant tensor:
#      x y z
#    x 3.459940 0.000000 0.551610 
#    y 0.000000 3.186830 0.000000 
#    z 0.551610 0.000000 3.283360 
# 
# 
# High freq. dielectric constant tensor:
#      x y z
#    x 1.660280 0.000000 0.036560 
#    y 0.000000 1.660920 0.000000 
#    z 0.036560 0.000000 1.643010 
# 
# From -- ./inp_files/55090.got.cif
#   From: 2010.06.25/outbox.cif.g09.slc.cpg/sg10_28_cif.got.tgz:55090.got - 2010.06.27 22:07:45.
