data_PCOD8067979
_publ_section_title
;
Structure prediction by ZEFSAII (Michael W. Deem and Ramdas Pophale) SiO2 
 PCOD8067979
Probable space group: P 2/M
;
_chemical_formula_sum "Si O2"
_cell_formula_units_Z 32
_cell_length_a 26.127638
_cell_length_b 9.192761
_cell_length_c 14.670398
_cell_angle_alpha 90.000000
_cell_angle_beta 147.376938
_cell_angle_gamma 90.000000
_cell_volume 1899.613601
_symmetry_space_group_name_H-M "P 2/M"
_symmetry_group_IT_number 10
_symmetry_cell_setting 'monoclinic'
loop_
_space_group_symop_operation_xyz
x,y,z
-x,y,-z
-x,-y,-z
x,-y,z
loop_
_atom_site_type_symbol
_atom_site_label
_atom_site_fract_x
_atom_site_fract_y
_atom_site_fract_z
Si Si1 0.284216 0.327971 0.715567
Si Si2 0.104856 0.672725 0.759526
Si Si3 0.715784 0.672029 0.862919
Si Si4 0.363209 0.666521 0.643630
Si Si5 0.363210 0.666521 0.445998
Si Si6 0.460794 0.838167 0.041909
Si Si7 0.895143 0.672725 0.444956
Si Si8 0.460793 0.161834 0.340472
O O1 0.294352 0.500000 0.744062
O O2 0.295457 0.282582 0.625504
O O3 0.182342 0.270295 0.598443
O O4 0.363406 0.252232 0.897054
O O5 0.104038 0.500000 0.758850
O O6 0.130087 0.727427 0.695131
O O7 1.000000 0.730657 0.630500
O O8 0.182342 0.729704 0.948584
O O9 0.705647 0.500000 0.861005
O O10 0.704542 0.717418 0.739133
O O11 0.636595 0.747768 0.806837
O O12 0.392581 0.500000 0.705506
O O13 0.310831 0.683607 0.466247
O O14 0.459898 0.757515 0.779977
O O15 0.392582 0.500000 0.472241
O O16 0.459898 0.757516 0.599719
O O17 0.442605 0.000000 0.054100
O O18 0.500000 0.847866 0.000000
O O19 0.895961 0.500000 0.446736
O O20 0.500000 0.152141 0.500000
O O21 0.442605 0.000000 0.273716
#
# Coordination Sequence:
#
# PCOD8067979 Si02
#       8
#     4   4   4   4   4   4   4   4
#     4   9  16  27  44  63  83 109 140 172 206 245
#     4   8  14  25  42  64  85 103 129 168 211 252
#     4   9  16  27  44  63  83 109 140 172 206 245
#     4   9  17  28  41  58  83 115 146 171 197 237
#     4   9  17  28  41  58  83 115 146 171 197 237
#     4   9  17  28  41  59  84 111 139 172 208 244
#     4   8  14  25  42  64  85 103 129 168 211 252
#     4   9  17  28  41  59  84 111 139 172 208 244
#
# _framework density 16.845531000000001
#
# number of rings (size 3 to 8) (size 9 to 14) (size 15 to 20)
#    0.000    3.250    0.000    1.500    0.000    4.500 
#    0.000    2.500    0.000    1.500    0.000    7.000 
#    0.000    0.000    0.000   12.500    0.000   13.000 
#
# Total GULP energy -396464.680733 kJ/mol
# GULP energy per Si atom -12389.521273 kJ/mol
# Density = 1.680719 g / cm^3
# Si number density = 16.845531 Si / 1000 Ang^3
#
#
#
# Elastic Constant Matrix: (Units=GPa)
#
#
# Indices 1 2 3 4 5 6 
#
# 1 112.3077 22.2677 70.6613 0.0000 6.5551 0.0000
# 2 22.2677 41.9397 25.7673 0.0000 3.5282 0.0000
# 3 70.6613 25.7673 125.9590 0.0000 7.2108 0.0000
# 4 0.0000 0.0000 0.0000 4.9672 0.0000 -1.1596
# 5 6.5551 3.5282 7.2108 0.0000 24.7345 0.0000
# 6 0.0000 0.0000 0.0000 -1.1596 0.0000 6.1166
#
#
#
# Elastic Compliance Matrix: (Units=1/GPa)
#
#
# Indices 1 2 3 4 5 6 
#
# 1 0.014119 -0.002941 -0.007250 0.000000 -0.001209 0.000000
# 2 -0.002941 0.028013 -0.003963 0.000000 -0.002061 0.000000
# 3 -0.007250 -0.003963 0.012890 0.000000 -0.001271 0.000000
# 4 0.000000 0.000000 0.000000 0.210644 0.000000 0.039935
# 5 -0.001209 -0.002061 -0.001271 0.000000 0.041414 0.000000
# 6 0.000000 0.000000 0.000000 0.039935 0.000000 0.171060
#
#
# Mechanical properties :
#
#
# Convention : Reuss Voigt Hill
#
# Bulk Modulus (GPa) = 37.43197 57.51098 47.47147
# Shear Modulus (GPa) = 9.70210 17.93101 13.81656
#
# Velocity S-wave (km/s) = 2.40249 3.26611 2.86700
# Velocity P-wave (km/s) = 5.47402 6.95971 6.26109
#
# Compressibility (1/GPa) = 0.02671513
#
# Stress axis : x y z
#
# Youngs Moduli (GPa) = 70.82565 35.69738 77.58146
#
# Poissons Ratio (x) = 0.10497 0.56246
# Poissons Ratio (y) = 0.20827 0.30746
# Poissons Ratio (z) = 0.51348 0.14147
#
# Static dielectric constant tensor:
#      x y z
#    x 3.251450 0.000000 0.019240 
#    y 0.000000 3.089970 0.000000 
#    z 0.019240 0.000000 3.270520 
# 
# 
# High freq. dielectric constant tensor:
#      x y z
#    x 1.641670 0.000000 -0.010620 
#    y 0.000000 1.623440 0.000000 
#    z -0.010620 0.000000 1.631140 
# 
# From -- ./inp_files/66632.got.cif
#   From: 2010.06.25/outbox.cif.g09.slc.cpg/sg10_34_cif.got.tgz:66632.got - 2010.06.27 22:07:45.
