data_PCOD8067448
_publ_section_title
;
Structure prediction by ZEFSAII (Michael W. Deem and Ramdas Pophale) SiO2 
 PCOD8067448
Probable space group: P 2/M
;
_chemical_formula_sum "Si O2"
_cell_formula_units_Z 28
_cell_length_a 29.362584
_cell_length_b 8.625526
_cell_length_c 10.046784
_cell_angle_alpha 90.000000
_cell_angle_beta 34.268732
_cell_angle_gamma 90.000000
_cell_volume 1432.759440
_symmetry_space_group_name_H-M "P 2/M"
_symmetry_group_IT_number 10
_symmetry_cell_setting 'monoclinic'
loop_
_space_group_symop_operation_xyz
x,y,z
-x,y,-z
-x,-y,-z
x,-y,z
loop_
_atom_site_type_symbol
_atom_site_label
_atom_site_fract_x
_atom_site_fract_y
_atom_site_fract_z
Si Si1 0.817130 0.678573 0.920528
Si Si2 0.085915 0.821330 0.077953
Si Si3 0.483750 0.328804 0.883024
Si Si4 0.159269 0.679519 0.641184
Si Si5 0.901565 0.821975 0.474764
Si Si6 0.341373 0.680988 0.546697
Si Si7 0.321855 0.179012 0.308907
O O1 0.829360 0.500000 0.851696
O O2 0.838648 0.784691 0.743575
O O3 0.872746 0.713689 0.912801
O O4 0.723788 0.714356 0.181604
O O5 0.119352 0.782494 0.852004
O O6 0.105203 0.000000 0.063698
O O7 0.990714 0.788503 0.314503
O O8 0.460524 0.500000 0.887036
O O9 0.569328 0.273054 0.612006
O O10 0.500000 0.332825 0.000000
O O11 0.409074 0.215765 0.031558
O O12 0.149833 0.500000 0.700623
O O13 0.113590 0.712923 0.614418
O O14 0.253557 0.723022 0.397616
O O15 0.891159 0.000000 0.456148
O O16 0.340980 0.500000 0.504578
O O17 0.319166 0.781221 0.471390
O O18 0.302736 0.000000 0.335007
#
# Coordination Sequence:
#
# PCOD8067448 Si02
#       7
#     4   4   4   4   4   4   4
#     4  11  22  37  60  87 116 152 194 233 275 333
#     4  11  23  40  61  85 113 148 188 236 290 337
#     4   8  15  29  49  75 111 147 181 225 277 327
#     4  12  24  39  60  84 112 148 192 237 284 340
#     4  11  25  42  58  81 116 152 188 234 290 341
#     4   9  18  33  53  80 113 149 186 229 277 327
#     4  11  20  31  52  82 114 146 184 229 282 334
#
# _framework density 19.542708999999999
#
# number of rings (size 3 to 8) (size 9 to 14) (size 15 to 20)
#    0.000    1.571    1.429    5.571    0.000    8.857 
#    0.000    0.000    0.000    0.857    0.000    6.000 
#    0.000    0.000    0.000    0.000    0.000    0.000 
#
# Total GULP energy -347266.709386 kJ/mol
# GULP energy per Si atom -12402.382478 kJ/mol
# Density = 1.949823 g / cm^3
# Si number density = 19.542709 Si / 1000 Ang^3
#
#
#
# Elastic Constant Matrix: (Units=GPa)
#
#
# Indices 1 2 3 4 5 6 
#
# 1 20.1675 11.2009 18.0519 0.0000 3.0234 0.0000
# 2 11.2009 64.8508 22.1709 0.0000 -15.6279 0.0000
# 3 18.0519 22.1709 86.4242 0.0000 -13.8947 0.0000
# 4 0.0000 0.0000 0.0000 30.4986 0.0000 -0.1245
# 5 3.0234 -15.6279 -13.8947 0.0000 28.3772 0.0000
# 6 0.0000 0.0000 0.0000 -0.1245 0.0000 26.1388
#
#
#
# Elastic Compliance Matrix: (Units=1/GPa)
#
#
# Indices 1 2 3 4 5 6 
#
# 1 0.074412 -0.012918 -0.015899 0.000000 -0.022827 0.000000
# 2 -0.012918 0.020900 -0.000642 0.000000 0.012572 0.000000
# 3 -0.015899 -0.000642 0.016577 0.000000 0.009457 0.000000
# 4 0.000000 0.000000 0.000000 0.032789 0.000000 0.000156
# 5 -0.022827 0.012572 0.009457 0.000000 0.049226 0.000000
# 6 0.000000 0.000000 0.000000 0.000156 0.000000 0.038258
#
#
# Mechanical properties :
#
#
# Convention : Reuss Voigt Hill
#
# Bulk Modulus (GPa) = 18.87804 30.47666 24.67735
# Shear Modulus (GPa) = 16.19494 25.00415 20.59955
#
# Velocity S-wave (km/s) = 2.88183 3.58084 3.25018
# Velocity P-wave (km/s) = 4.55567 5.72060 5.17104
#
# Compressibility (1/GPa) = 0.05297160
#
# Stress axis : x y z
#
# Youngs Moduli (GPa) = 13.43860 47.84601 60.32472
#
# Poissons Ratio (x) = 0.61807 0.95911
# Poissons Ratio (y) = 0.17360 0.03874
# Poissons Ratio (z) = 0.21366 0.03073
#
# Static dielectric constant tensor:
#      x y z
#    x 3.399880 0.000000 -0.390210 
#    y 0.000000 3.535620 0.000000 
#    z -0.390210 0.000000 3.947290 
# 
# 
# High freq. dielectric constant tensor:
#      x y z
#    x 1.732740 0.000000 -0.028580 
#    y 0.000000 1.764440 0.000000 
#    z -0.028580 0.000000 1.767780 
# 
# From -- ./inp_files/37071.got.cif
#   From: 2010.06.25/outbox.cif.g09.slc.cpg/sg10_19_cif.got.tgz:37071.got - 2010.06.27 22:07:45.
