data_PCOD8067703
_publ_section_title
;
Structure prediction by ZEFSAII (Michael W. Deem and Ramdas Pophale) SiO2 
 PCOD8067703
Probable space group: P 2/M
;
_chemical_formula_sum "Si O2"
_cell_formula_units_Z 24
_cell_length_a 9.902108
_cell_length_b 10.941809
_cell_length_c 11.110832
_cell_angle_alpha 90.000000
_cell_angle_beta 90.876670
_cell_angle_gamma 90.000000
_cell_volume 1203.684117
_symmetry_space_group_name_H-M "P 2/M"
_symmetry_group_IT_number 10
_symmetry_cell_setting 'monoclinic'
loop_
_space_group_symop_operation_xyz
x,y,z
-x,y,-z
-x,-y,-z
x,-y,z
loop_
_atom_site_type_symbol
_atom_site_label
_atom_site_fract_x
_atom_site_fract_y
_atom_site_fract_z
Si Si1 0.755604 0.757923 0.261646
Si Si2 0.995815 0.358519 0.138467
Si Si3 0.128343 0.000000 0.661529
Si Si4 0.753905 0.243211 0.727830
Si Si5 0.817834 0.000000 0.599155
Si Si6 0.652038 0.640802 0.497078
Si Si7 0.490097 0.141248 0.141708
O O1 0.845089 0.661095 0.188237
O O2 0.839679 0.882695 0.258263
O O3 0.738077 0.712703 0.398321
O O4 0.612572 0.781078 0.198018
O O5 0.035805 0.500000 0.152887
O O6 0.103832 0.276577 0.211114
O O7 0.000000 0.317810 0.000000
O O8 0.219359 0.000000 0.542361
O O9 0.975313 0.000000 0.622375
O O10 0.716923 0.347367 0.630404
O O11 0.641971 0.221094 0.828467
O O12 0.753441 0.118373 0.655104
O O13 0.500000 0.693410 0.500000
O O14 0.651239 0.500000 0.458376
O O15 0.487311 0.000000 0.189801
O O16 0.500000 0.138938 0.000000
#
# Coordination Sequence:
#
# PCOD8067703 Si02
#       7
#     4   4   2   4   2   4   4
#     4  12  22  42  66  93 128 163 209 256 317 375
#     4  11  26  46  65  88 124 172 220 261 302 361
#     4  11  22  37  60  95 131 161 191 250 324 383
#     4  12  22  42  66  93 128 163 209 256 317 375
#     4  11  22  37  60  95 131 161 191 250 324 383
#     4  11  24  40  63  94 128 163 205 260 312 369
#     4  11  24  39  61  94 130 167 206 254 312 377
#
# _framework density 19.938786
#
# number of rings (size 3 to 8) (size 9 to 14) (size 15 to 20)
#    0.000    0.667    6.667    2.000    0.000    0.667 
#    0.000    5.000    0.000    4.000    0.000    0.000 
#    0.000    0.000    0.000    0.000    0.000    0.000 
#
# Total GULP energy -297675.165262 kJ/mol
# GULP energy per Si atom -12403.131886 kJ/mol
# Density = 1.989340 g / cm^3
# Si number density = 19.938786 Si / 1000 Ang^3
#
#
#
# Elastic Constant Matrix: (Units=GPa)
#
#
# Indices 1 2 3 4 5 6 
#
# 1 91.9391 15.7226 25.3051 0.0000 -8.7682 0.0000
# 2 15.7226 59.2555 15.5073 0.0000 -3.6454 0.0000
# 3 25.3051 15.5073 93.7848 0.0000 -10.2255 0.0000
# 4 0.0000 0.0000 0.0000 26.9693 0.0000 -1.5311
# 5 -8.7682 -3.6454 -10.2255 0.0000 35.8716 0.0000
# 6 0.0000 0.0000 0.0000 -1.5311 0.0000 29.8395
#
#
#
# Elastic Compliance Matrix: (Units=1/GPa)
#
#
# Indices 1 2 3 4 5 6 
#
# 1 0.012217 -0.002418 -0.002681 0.000000 0.001976 0.000000
# 2 -0.002418 0.018152 -0.002283 0.000000 0.000603 0.000000
# 3 -0.002681 -0.002283 0.012041 0.000000 0.002545 0.000000
# 4 0.000000 0.000000 0.000000 0.037188 0.000000 0.001908
# 5 0.001976 0.000603 0.002545 0.000000 0.029147 0.000000
# 6 0.000000 0.000000 0.000000 0.001908 0.000000 0.033611
#
#
# Mechanical properties :
#
#
# Convention : Reuss Voigt Hill
#
# Bulk Modulus (GPa) = 36.17286 39.78326 37.97806
# Shear Modulus (GPa) = 30.05974 31.09903 30.57939
#
# Velocity S-wave (km/s) = 3.88700 3.95362 3.92045
# Velocity P-wave (km/s) = 6.19083 6.39042 6.29142
#
# Compressibility (1/GPa) = 0.02764504
#
# Stress axis : x y z
#
# Youngs Moduli (GPa) = 81.85508 55.08925 83.04872
#
# Poissons Ratio (x) = 0.13322 0.22265
# Poissons Ratio (y) = 0.19795 0.18962
# Poissons Ratio (z) = 0.21945 0.12578
#
# Static dielectric constant tensor:
#      x y z
#    x 3.590580 0.000000 -0.111280 
#    y 0.000000 3.567100 0.000000 
#    z -0.111280 0.000000 3.653450 
# 
# 
# High freq. dielectric constant tensor:
#      x y z
#    x 1.783470 0.000000 -0.004570 
#    y 0.000000 1.781230 0.000000 
#    z -0.004570 0.000000 1.782190 
# 
# From -- ./inp_files/42020.got.cif
#   From: 2010.06.25/outbox.cif.g09.slc.cpg/sg10_22_cif.got.tgz:42020.got - 2010.06.27 22:07:45.
