data_PCOD8067301
_publ_section_title
;
Structure prediction by ZEFSAII (Michael W. Deem and Ramdas Pophale) SiO2 
 PCOD8067301
Probable space group: P 2/M
;
_chemical_formula_sum "Si O2"
_cell_formula_units_Z 32
_cell_length_a 24.875039
_cell_length_b 8.717571
_cell_length_c 14.494187
_cell_angle_alpha 90.000000
_cell_angle_beta 150.604646
_cell_angle_gamma 90.000000
_cell_volume 1542.719511
_symmetry_space_group_name_H-M "P 2/M"
_symmetry_group_IT_number 10
_symmetry_cell_setting 'monoclinic'
loop_
_space_group_symop_operation_xyz
x,y,z
-x,y,-z
-x,-y,-z
x,-y,z
loop_
_atom_site_type_symbol
_atom_site_label
_atom_site_fract_x
_atom_site_fract_y
_atom_site_fract_z
Si Si1 0.474480 0.328235 0.057977
Si Si2 0.507656 0.821036 0.404110
Si Si3 0.886499 0.180978 0.374629
Si Si4 0.333645 0.317543 0.010022
Si Si5 0.964849 0.679673 0.051555
Si Si6 0.255695 0.179286 0.308616
Si Si7 0.715563 0.671422 0.463780
Si Si8 0.136000 0.818809 0.448286
O O1 0.433310 0.500000 0.970896
O O2 0.586003 0.333763 0.282233
O O3 0.500000 0.238305 0.000000
O O4 0.385438 0.249475 0.991596
O O5 0.500000 0.784909 0.500000
O O6 0.625597 0.758880 0.546097
O O7 0.497543 0.000000 0.366618
O O8 0.405461 0.738221 0.203274
O O9 0.790080 0.257667 0.170073
O O10 0.885147 0.235891 0.478764
O O11 0.000000 0.236797 0.500000
O O12 0.872440 0.000000 0.345168
O O13 0.337074 0.500000 0.014130
O O14 0.975733 0.500000 0.084732
O O15 0.039197 0.766746 0.236535
O O16 0.840904 0.732619 0.889228
O O17 0.000000 0.725088 0.000000
O O18 0.236828 0.215569 0.388037
O O19 0.244032 0.000000 0.271740
O O20 0.764884 0.500000 0.551625
O O21 0.751815 0.737241 0.418306
O O22 0.149812 0.000000 0.464530
#
# Coordination Sequence:
#
# PCOD8067301 Si02
#       8
#     4   4   4   4   4   4   4   4
#     4   9  18  32  53  84 121 159 193 232 295 365
#     4  10  23  43  65  90 125 168 208 249 304 365
#     4  10  24  46  67  88 121 165 208 253 307 364
#     4  11  22  39  65  95 125 159 203 255 306 357
#     4  11  23  38  59  87 123 166 203 248 313 372
#     4  11  22  37  60  87 118 158 205 252 297 356
#     4  11  20  34  57  85 124 161 193 242 307 368
#     4  11  23  39  62  91 121 159 209 258 302 360
#
# _framework density 20.742591000000001
#
# number of rings (size 3 to 8) (size 9 to 14) (size 15 to 20)
#    0.000    1.500    2.500    2.625    0.000    4.500 
#    0.000    5.000    0.000    3.000    0.000    0.000 
#    0.000    0.000    0.000    0.000    0.000    0.000 
#
# Total GULP energy -396773.080800 kJ/mol
# GULP energy per Si atom -12399.158775 kJ/mol
# Density = 2.069538 g / cm^3
# Si number density = 20.742591 Si / 1000 Ang^3
#
#
#
# Elastic Constant Matrix: (Units=GPa)
#
#
# Indices 1 2 3 4 5 6 
#
# 1 110.7914 28.9145 46.0940 0.0000 15.0705 0.0000
# 2 28.9145 50.8716 29.9716 0.0000 7.6554 0.0000
# 3 46.0940 29.9716 118.7014 0.0000 19.3059 0.0000
# 4 0.0000 0.0000 0.0000 29.6842 0.0000 1.5585
# 5 15.0705 7.6554 19.3059 0.0000 32.2124 0.0000
# 6 0.0000 0.0000 0.0000 1.5585 0.0000 20.4147
#
#
#
# Elastic Compliance Matrix: (Units=1/GPa)
#
#
# Indices 1 2 3 4 5 6 
#
# 1 0.011827 -0.004548 -0.003014 0.000000 -0.002646 0.000000
# 2 -0.004548 0.024984 -0.004346 0.000000 -0.001205 0.000000
# 3 -0.003014 -0.004346 0.011407 0.000000 -0.004394 0.000000
# 4 0.000000 0.000000 0.000000 0.033824 0.000000 -0.002582
# 5 -0.002646 -0.001205 -0.004394 0.000000 0.035201 0.000000
# 6 0.000000 0.000000 0.000000 -0.002582 0.000000 0.049181
#
#
# Mechanical properties :
#
#
# Convention : Reuss Voigt Hill
#
# Bulk Modulus (GPa) = 40.98152 54.48050 47.73101
# Shear Modulus (GPa) = 25.20478 28.15455 26.67967
#
# Velocity S-wave (km/s) = 3.48964 3.68819 3.59029
# Velocity P-wave (km/s) = 6.00307 6.66777 6.34413
#
# Compressibility (1/GPa) = 0.02440124
#
# Stress axis : x y z
#
# Youngs Moduli (GPa) = 84.55382 40.02483 87.66686
#
# Poissons Ratio (x) = 0.18205 0.26421
# Poissons Ratio (y) = 0.38458 0.38103
# Poissons Ratio (z) = 0.25483 0.17396
#
# Static dielectric constant tensor:
#      x y z
#    x 3.885560 0.000000 0.121250 
#    y 0.000000 3.558580 0.000000 
#    z 0.121250 0.000000 3.818470 
# 
# 
# High freq. dielectric constant tensor:
#      x y z
#    x 1.807920 0.000000 0.005680 
#    y 0.000000 1.795960 0.000000 
#    z 0.005680 0.000000 1.825980 
# 
# From -- ./inp_files/71599.got.cif
#   From: 2010.06.25/outbox.cif.g09.slc.cpg/sg10_36_cif.got.tgz:71599.got - 2010.06.27 22:07:45.
