data_PCOD8067715
_publ_section_title
;
Structure prediction by ZEFSAII (Michael W. Deem and Ramdas Pophale) SiO2 
 PCOD8067715
Probable space group: P 2/M
;
_chemical_formula_sum "Si O2"
_cell_formula_units_Z 24
_cell_length_a 23.991122
_cell_length_b 11.374298
_cell_length_c 14.852765
_cell_angle_alpha 90.000000
_cell_angle_beta 162.020624
_cell_angle_gamma 90.000000
_cell_volume 1251.075199
_symmetry_space_group_name_H-M "P 2/M"
_symmetry_group_IT_number 10
_symmetry_cell_setting 'monoclinic'
loop_
_space_group_symop_operation_xyz
x,y,z
-x,y,-z
-x,-y,-z
x,-y,z
loop_
_atom_site_type_symbol
_atom_site_label
_atom_site_fract_x
_atom_site_fract_y
_atom_site_fract_z
Si Si1 0.857262 0.139301 0.857386
Si Si2 0.505198 0.733719 0.255263
Si Si3 0.994667 0.266386 0.744508
Si Si4 0.842160 0.639234 0.184404
Si Si5 0.355056 0.132007 0.855172
Si Si6 0.995409 0.500000 0.848844
Si Si7 0.711535 0.500000 0.565369
O O1 0.655866 0.184419 0.531451
O O2 0.857782 0.000000 0.858098
O O3 0.000000 0.185230 0.000000
O O4 0.904873 0.184767 0.029378
O O5 0.590331 0.611205 0.357264
O O6 0.339152 0.705633 0.065419
O O7 0.436830 0.800026 0.063651
O O8 0.816925 0.199892 0.443390
O O9 0.113428 0.294961 0.839848
O O10 0.942594 0.388810 0.708999
O O11 0.808440 0.500000 0.117221
O O12 0.000000 0.658378 0.500000
O O13 0.300698 0.000000 0.801011
O O14 0.500000 0.127083 0.000000
O O15 0.879329 0.500000 0.758770
O O16 0.206685 0.500000 0.206404
#
# Coordination Sequence:
#
# PCOD8067715 Si02
#       7
#     4   4   4   4   4   2   2
#     4  11  24  44  69  98 136 176 214 269 336 397
#     4  12  23  42  67  97 129 175 223 264 331 393
#     4  12  23  42  67  97 129 175 223 264 331 393
#     4  11  24  45  64  91 135 179 215 268 330 395
#     4  11  24  42  65  96 132 170 218 275 330 389
#     4  11  22  38  63 100 138 163 206 277 338 395
#     4  11  22  38  63 100 138 163 206 277 338 395
#
# _framework density 19.183499000000001
#
# number of rings (size 3 to 8) (size 9 to 14) (size 15 to 20)
#    0.000    0.667    5.000    4.000    0.000    4.000 
#    0.000    8.333    0.000    0.000    0.000    0.000 
#    0.000    0.000    0.000    0.000    0.000    0.000 
#
# Total GULP energy -297605.841701 kJ/mol
# GULP energy per Si atom -12400.243404 kJ/mol
# Density = 1.913984 g / cm^3
# Si number density = 19.183499 Si / 1000 Ang^3
#
#
#
# Elastic Constant Matrix: (Units=GPa)
#
#
# Indices 1 2 3 4 5 6 
#
# 1 133.0979 62.7078 70.3747 0.0000 -4.8750 0.0000
# 2 62.7078 155.2230 79.6071 0.0000 -9.7748 0.0000
# 3 70.3747 79.6071 163.0320 0.0000 -12.4781 0.0000
# 4 0.0000 0.0000 0.0000 353.4914 0.0000 -149.5729
# 5 -4.8750 -9.7748 -12.4781 0.0000 40.0170 0.0000
# 6 0.0000 0.0000 0.0000 -149.5729 0.0000 117.9633
#
#
#
# Elastic Compliance Matrix: (Units=1/GPa)
#
#
# Indices 1 2 3 4 5 6 
#
# 1 0.010442 -0.002556 -0.003288 0.000000 -0.000378 0.000000
# 2 -0.002556 0.009246 -0.003342 0.000000 0.000905 0.000000
# 3 -0.003288 -0.003342 0.009314 0.000000 0.001687 0.000000
# 4 0.000000 0.000000 0.000000 0.006104 0.000000 0.007739
# 5 -0.000378 0.000905 0.001687 0.000000 0.025691 0.000000
# 6 0.000000 0.000000 0.000000 0.007739 0.000000 0.018290
#
#
# Mechanical properties :
#
#
# Convention : Reuss Voigt Hill
#
# Bulk Modulus (GPa) = 94.07623 97.41467 95.74545
# Shear Modulus (GPa) = 49.50344 118.20522 83.85433
#
# Velocity S-wave (km/s) = 5.08539 7.85824 6.61865
# Velocity P-wave (km/s) = 9.14485 11.54238 10.41285
#
# Compressibility (1/GPa) = 0.01062968
#
# Stress axis : x y z
#
# Youngs Moduli (GPa) = 95.76388 108.15599 107.36078
#
# Poissons Ratio (x) = 0.27643 0.35305
# Poissons Ratio (y) = 0.24475 0.35882
# Poissons Ratio (z) = 0.31492 0.36148
#
# Static dielectric constant tensor:
#      x y z
#    x 3.615730 0.000000 -0.005900 
#    y 0.000000 3.808610 0.000000 
#    z -0.005900 0.000000 3.625550 
# 
# 
# High freq. dielectric constant tensor:
#      x y z
#    x 1.748220 0.000000 -0.006730 
#    y 0.000000 1.765340 0.000000 
#    z -0.006730 0.000000 1.759430 
# 
# From -- ./inp_files/71853.got.cif
#   From: 2010.06.25/outbox.cif.g09.slc.cpg/sg10_36_cif.got.tgz:71853.got - 2010.06.27 22:07:45.
