data_PCOD8067857
_publ_section_title
;
Structure prediction by ZEFSAII (Michael W. Deem and Ramdas Pophale) SiO2 
 PCOD8067857
Probable space group: P 2/M
;
_chemical_formula_sum "Si O2"
_cell_formula_units_Z 24
_cell_length_a 23.603042
_cell_length_b 7.559791
_cell_length_c 17.909424
_cell_angle_alpha 90.000000
_cell_angle_beta 22.396685
_cell_angle_gamma 90.000000
_cell_volume 1217.597106
_symmetry_space_group_name_H-M "P 2/M"
_symmetry_group_IT_number 10
_symmetry_cell_setting 'monoclinic'
loop_
_space_group_symop_operation_xyz
x,y,z
-x,y,-z
-x,-y,-z
x,-y,z
loop_
_atom_site_type_symbol
_atom_site_label
_atom_site_fract_x
_atom_site_fract_y
_atom_site_fract_z
Si Si1 0.156222 0.711053 0.841403
Si Si2 0.408730 0.000000 0.037306
Si Si3 0.098583 0.298054 0.223204
Si Si4 0.249031 0.709436 0.889368
Si Si5 0.585742 0.297466 0.086789
Si Si6 0.073555 0.000000 0.489912
Si Si7 0.452579 0.709738 0.403141
O O1 0.152099 0.500000 0.846504
O O2 0.184714 0.785535 0.890177
O O3 0.292187 0.782086 0.624625
O O4 0.000000 0.786217 0.000000
O O5 0.245066 0.000000 0.267485
O O6 0.500000 0.000000 0.000000
O O7 0.447438 0.825457 0.942960
O O8 0.041795 0.500000 0.294220
O O9 0.136711 0.237650 0.092476
O O10 0.243286 0.275549 0.098170
O O11 0.969006 0.174861 0.412017
O O12 0.261313 0.500000 0.869545
O O13 0.414566 0.784945 0.705780
O O14 0.551161 0.500000 0.106905
O O15 0.481207 0.234315 0.282689
O O16 0.000000 0.000000 0.500000
O O17 0.457275 0.500000 0.403260
#
# Coordination Sequence:
#
# PCOD8067857 Si02
#       7
#     4   2   4   4   4   2   4
#     4   9  15  23  39  70 109 141 176 217 254 306
#     4  12  26  42  56  81 114 143 181 226 277 338
#     4   9  18  34  59  88 111 137 182 234 276 319
#     4   8  14  26  45  71 104 139 175 216 260 310
#     4   9  18  36  60  83 110 144 183 227 274 326
#     4  12  22  38  62  85 106 141 181 226 283 334
#     4   8  14  26  47  72  99 138 180 216 260 310
#
# _framework density 19.710954000000001
#
# number of rings (size 3 to 8) (size 9 to 14) (size 15 to 20)
#    0.000    2.833    1.667    2.500    0.000    3.333 
#    3.000    0.000    0.000    1.000    0.000    5.833 
#    0.000    0.000    0.000    0.000    0.000    0.000 
#
# Total GULP energy -297486.636730 kJ/mol
# GULP energy per Si atom -12395.276530 kJ/mol
# Density = 1.966609 g / cm^3
# Si number density = 19.710954 Si / 1000 Ang^3
#
#
#
# Elastic Constant Matrix: (Units=GPa)
#
#
# Indices 1 2 3 4 5 6 
#
# 1 167.1229 46.3076 95.9752 0.0000 7.3322 0.0000
# 2 46.3076 69.2440 39.1330 0.0000 10.1939 0.0000
# 3 95.9752 39.1330 150.5088 0.0000 8.7931 0.0000
# 4 0.0000 0.0000 0.0000 -11.6434 0.0000 -26.8348
# 5 7.3322 10.1939 8.7931 0.0000 27.7593 0.0000
# 6 0.0000 0.0000 0.0000 -26.8348 0.0000 -28.3341
#
#
#
# Elastic Compliance Matrix: (Units=1/GPa)
#
#
# Indices 1 2 3 4 5 6 
#
# 1 0.010188 -0.003742 -0.005549 0.000000 0.000441 0.000000
# 2 -0.003742 0.018988 -0.002243 0.000000 -0.005274 0.000000
# 3 -0.005549 -0.002243 0.010833 0.000000 -0.001142 0.000000
# 4 0.000000 0.000000 0.000000 0.072614 0.000000 -0.068772
# 5 0.000441 -0.005274 -0.001142 0.000000 0.038206 0.000000
# 6 0.000000 0.000000 0.000000 -0.068772 0.000000 0.029839
#
#
# Mechanical properties :
#
#
# Convention : Reuss Voigt Hill
#
# Bulk Modulus (GPa) = 59.03014 83.30081 71.16547
# Shear Modulus (GPa) = 23.87961 11.25371 17.56666
#
# Velocity S-wave (km/s) = 3.48442 2.39202 2.98856
# Velocity P-wave (km/s) = 6.79714 7.06979 6.93481
#
# Compressibility (1/GPa) = 0.01694050
#
# Stress axis : x y z
#
# Youngs Moduli (GPa) = 98.15382 52.66461 92.31312
#
# Poissons Ratio (x) = 0.19707 0.51229
# Poissons Ratio (y) = 0.36730 0.20703
# Poissons Ratio (z) = 0.54470 0.11811
#
# Static dielectric constant tensor:
#      x y z
#    x 3.686290 0.000000 0.172280 
#    y 0.000000 3.301130 0.000000 
#    z 0.172280 0.000000 3.738310 
# 
# 
# High freq. dielectric constant tensor:
#      x y z
#    x 1.755360 0.000000 0.019930 
#    y 0.000000 1.747990 0.000000 
#    z 0.019930 0.000000 1.763310 
# 
# From -- ./inp_files/80088.got.cif
#   From: 2010.06.25/outbox.cif.g09.slc.cpg/sg10_41_cif.got.tgz:80088.got - 2010.06.27 22:07:45.
