data_PCOD8067352
_publ_section_title
;
Structure prediction by ZEFSAII (Michael W. Deem and Ramdas Pophale) SiO2 
 PCOD8067352
Probable space group: P 2/M
;
_chemical_formula_sum "Si O2"
_cell_formula_units_Z 20
_cell_length_a 10.685008
_cell_length_b 11.855118
_cell_length_c 13.088898
_cell_angle_alpha 90.000000
_cell_angle_beta 145.048190
_cell_angle_gamma 90.000000
_cell_volume 949.845534
_symmetry_space_group_name_H-M "P 2/M"
_symmetry_group_IT_number 10
_symmetry_cell_setting 'monoclinic'
loop_
_space_group_symop_operation_xyz
x,y,z
-x,y,-z
-x,-y,-z
x,-y,z
loop_
_atom_site_type_symbol
_atom_site_label
_atom_site_fract_x
_atom_site_fract_y
_atom_site_fract_z
Si Si1 0.134236 0.871788 0.992277
Si Si2 0.457296 0.275629 0.700691
Si Si3 0.913774 0.129196 0.631404
Si Si4 0.967707 0.500000 0.356488
Si Si5 0.724515 0.718674 0.206103
Si Si6 0.558371 0.500000 0.419644
O O1 0.340692 0.791744 0.117587
O O2 0.217341 0.000000 0.060107
O O3 0.000000 0.831436 0.000000
O O4 0.976209 0.858638 0.790939
O O5 0.312345 0.196966 0.530360
O O6 0.306973 0.310181 0.695752
O O7 0.541777 0.386862 0.698086
O O8 0.110572 0.176258 0.693258
O O9 0.875107 0.000000 0.573459
O O10 0.832461 0.608488 0.228025
O O11 0.000000 0.500000 0.500000
O O12 0.184866 0.500000 0.433423
O O13 0.500000 0.749825 0.000000
O O14 0.500000 0.500000 0.500000
#
# Coordination Sequence:
#
# PCOD8067352 Si02
#       6
#     4   4   4   2   4   2
#     4  10  24  44  67  98 138 184 233 280 336 415
#     4  12  24  45  69  98 138 180 226 287 346 406
#     4  11  24  41  68 104 138 179 226 280 344 405
#     4  12  21  44  67  93 134 179 230 284 337 413
#     4  12  23  41  69  99 133 181 229 284 347 408
#     4  12  28  44  71 105 137 176 233 286 340 414
#
# _framework density 21.056056000000002
#
# number of rings (size 3 to 8) (size 9 to 14) (size 15 to 20)
#    0.000    0.600    6.000    1.500    2.800    2.800 
#    0.000    4.500    0.000    0.000    0.000    0.000 
#    0.000    0.000    0.000    0.000    0.000    0.000 
#
# Total GULP energy -248102.561918 kJ/mol
# GULP energy per Si atom -12405.128096 kJ/mol
# Density = 2.100813 g / cm^3
# Si number density = 21.056056 Si / 1000 Ang^3
#
#
#
# Elastic Constant Matrix: (Units=GPa)
#
#
# Indices 1 2 3 4 5 6 
#
# 1 116.4725 25.3455 2.7588 0.0000 -14.2386 0.0000
# 2 25.3455 135.0692 40.9537 0.0000 0.6439 0.0000
# 3 2.7588 40.9537 78.0353 0.0000 0.0790 0.0000
# 4 0.0000 0.0000 0.0000 29.4115 0.0000 -1.9414
# 5 -14.2386 0.6439 0.0790 0.0000 27.8776 0.0000
# 6 0.0000 0.0000 0.0000 -1.9414 0.0000 28.7368
#
#
#
# Elastic Compliance Matrix: (Units=1/GPa)
#
#
# Indices 1 2 3 4 5 6 
#
# 1 0.009621 -0.002051 0.000731 0.000000 0.004959 0.000000
# 2 -0.002051 0.009243 -0.004777 0.000000 -0.001247 0.000000
# 3 0.000731 -0.004777 0.015295 0.000000 0.000440 0.000000
# 4 0.000000 0.000000 0.000000 0.034153 0.000000 0.002307
# 5 0.004959 -0.001247 0.000440 0.000000 0.038432 0.000000
# 6 0.000000 0.000000 0.000000 0.002307 0.000000 0.034954
#
#
# Mechanical properties :
#
#
# Convention : Reuss Voigt Hill
#
# Bulk Modulus (GPa) = 45.52492 51.96590 48.74541
# Shear Modulus (GPa) = 31.01491 34.57311 32.79401
#
# Velocity S-wave (km/s) = 3.84209 4.05650 3.95075
# Velocity P-wave (km/s) = 6.43039 6.83181 6.63414
#
# Compressibility (1/GPa) = 0.02196599
#
# Stress axis : x y z
#
# Youngs Moduli (GPa) = 103.94040 108.19287 65.37914
#
# Poissons Ratio (x) = 0.22186 -0.04780
# Poissons Ratio (y) = 0.21314 0.31231
# Poissons Ratio (z) = -0.07599 0.51683
#
# Static dielectric constant tensor:
#      x y z
#    x 3.746960 0.000000 -0.015740 
#    y 0.000000 4.065430 0.000000 
#    z -0.015740 0.000000 3.684110 
# 
# 
# High freq. dielectric constant tensor:
#      x y z
#    x 1.821730 0.000000 -0.002750 
#    y 0.000000 1.838200 0.000000 
#    z -0.002750 0.000000 1.825540 
# 
# From -- ./inp_files/50991.got.cif
#   From: 2010.06.25/outbox.cif.g09.slc.cpg/sg10_26_cif.got.tgz:50991.got - 2010.06.27 22:07:45.
