data_PCOD8067408
_publ_section_title
;
Structure prediction by ZEFSAII (Michael W. Deem and Ramdas Pophale) SiO2 
 PCOD8067408
Probable space group: P 2/M
;
_chemical_formula_sum "Si O2"
_cell_formula_units_Z 16
_cell_length_a 11.893306
_cell_length_b 7.522188
_cell_length_c 9.809080
_cell_angle_alpha 90.000000
_cell_angle_beta 119.587986
_cell_angle_gamma 90.000000
_cell_volume 763.121740
_symmetry_space_group_name_H-M "P 2/M"
_symmetry_group_IT_number 10
_symmetry_cell_setting 'monoclinic'
loop_
_space_group_symop_operation_xyz
x,y,z
-x,y,-z
-x,-y,-z
x,-y,z
loop_
_atom_site_type_symbol
_atom_site_label
_atom_site_fract_x
_atom_site_fract_y
_atom_site_fract_z
Si Si1 0.026256 0.302334 0.803300
Si Si2 0.476843 0.700783 0.334078
Si Si3 0.880325 0.000000 0.325355
Si Si4 0.575675 0.000000 0.192865
Si Si5 0.190977 0.793847 0.150602
O O1 0.016939 0.500000 0.735739
O O2 0.105228 0.180158 0.749010
O O3 0.881492 0.226761 0.746406
O O4 0.104030 0.305851 0.989698
O O5 0.500000 0.778027 0.500000
O O6 0.532764 0.500000 0.352038
O O7 0.324090 0.691414 0.227217
O O8 0.537137 0.824395 0.253652
O O9 0.731678 0.000000 0.285054
O O10 0.000000 0.000000 0.500000
O O11 0.500000 0.000000 0.000000
O O12 0.210269 0.000000 0.125066
#
# Coordination Sequence:
#
# PCOD8067408 Si02
#       5
#     4   4   2   2   4
#     4  11  22  40  65  94 129 169 216 267 325 395
#     4  11  25  43  69 100 131 170 223 283 338 393
#     4  12  28  43  62  95 134 180 218 267 327 390
#     4  12  27  46  70  95 137 187 228 267 330 409
#     4  11  19  38  70  98 126 163 210 278 335 385
#
# _framework density 20.96651
#
# number of rings (size 3 to 8) (size 9 to 14) (size 15 to 20)
#    0.000    0.750    3.750    5.625    3.500    2.000 
#    0.000    0.000    0.000    0.000    0.000    0.000 
#    0.000    0.000    0.000    0.000    0.000    0.000 
#
# Total GULP energy -198312.641053 kJ/mol
# GULP energy per Si atom -12394.540066 kJ/mol
# Density = 2.091879 g / cm^3
# Si number density = 20.966510 Si / 1000 Ang^3
#
#
#
# Elastic Constant Matrix: (Units=GPa)
#
#
# Indices 1 2 3 4 5 6 
#
# 1 162.9300 43.0822 56.9472 0.0000 7.7837 0.0000
# 2 43.0822 142.9879 36.7854 0.0000 -15.4767 0.0000
# 3 56.9472 36.7854 100.6999 0.0000 -2.2901 0.0000
# 4 0.0000 0.0000 0.0000 11.3190 0.0000 11.6669
# 5 7.7837 -15.4767 -2.2901 0.0000 32.3588 0.0000
# 6 0.0000 0.0000 0.0000 11.6669 0.0000 10.7073
#
#
#
# Elastic Compliance Matrix: (Units=1/GPa)
#
#
# Indices 1 2 3 4 5 6 
#
# 1 0.008163 -0.001753 -0.004046 0.000000 -0.003088 0.000000
# 2 -0.001753 0.008512 -0.002019 0.000000 0.004350 0.000000
# 3 -0.004046 -0.002019 0.012977 0.000000 0.000926 0.000000
# 4 0.000000 0.000000 0.000000 -0.717606 0.000000 0.781917
# 5 -0.003088 0.004350 0.000926 0.000000 0.033792 0.000000
# 6 0.000000 0.000000 0.000000 0.781917 0.000000 -0.758599
#
#
# Mechanical properties :
#
#
# Convention : Reuss Voigt Hill
#
# Bulk Modulus (GPa) = 71.34811 75.58305 73.46558
# Shear Modulus (GPa) = -3.59079 28.86389 12.63655
#
# Velocity S-wave (km/s) = -1.31009 3.71437 2.45766
# Velocity P-wave (km/s) = 5.64048 7.38397 6.57031
#
# Compressibility (1/GPa) = 0.01401579
#
# Stress axis : x y z
#
# Youngs Moduli (GPa) = 122.50679 117.48097 77.05749
#
# Poissons Ratio (x) = 0.20592 0.31178
# Poissons Ratio (y) = 0.21473 0.15560
# Poissons Ratio (z) = 0.49568 0.23722
#
# Static dielectric constant tensor:
#      x y z
#    x 4.127600 0.000000 -0.054240 
#    y 0.000000 3.772680 0.000000 
#    z -0.054240 0.000000 3.960140 
# 
# 
# High freq. dielectric constant tensor:
#      x y z
#    x 1.828090 0.000000 0.010680 
#    y 0.000000 1.837120 0.000000 
#    z 0.010680 0.000000 1.807690 
# 
# From -- ./inp_files/22488.got.cif
#   From: 2010.06.25/outbox.cif.g09.slc.cpg/sg10_12_cif.got.tgz:22488.got - 2010.06.27 22:07:45.
