data_PCOD8067188
_publ_section_title
;
Structure prediction by ZEFSAII (Michael W. Deem and Ramdas Pophale) SiO2 
 PCOD8067188
Probable space group: P 2/M
;
_chemical_formula_sum "Si O2"
_cell_formula_units_Z 28
_cell_length_a 20.920497
_cell_length_b 8.594452
_cell_length_c 14.409470
_cell_angle_alpha 90.000000
_cell_angle_beta 29.165536
_cell_angle_gamma 90.000000
_cell_volume 1262.598742
_symmetry_space_group_name_H-M "P 2/M"
_symmetry_group_IT_number 10
_symmetry_cell_setting 'monoclinic'
loop_
_space_group_symop_operation_xyz
x,y,z
-x,y,-z
-x,-y,-z
x,-y,z
loop_
_atom_site_type_symbol
_atom_site_label
_atom_site_fract_x
_atom_site_fract_y
_atom_site_fract_z
Si Si1 0.435166 0.177502 0.815665
Si Si2 0.136810 0.825856 0.775850
Si Si3 0.629607 0.676343 0.431209
Si Si4 0.258044 0.679649 0.904725
Si Si5 0.963378 0.681135 0.273309
Si Si6 0.396146 0.681802 0.053189
Si Si7 0.892189 0.817307 0.558612
O O1 0.539462 0.206258 0.602167
O O2 0.294686 0.219571 0.948679
O O3 0.437051 0.000000 0.845436
O O4 0.465254 0.283771 0.866874
O O5 0.224475 0.698387 0.715673
O O6 0.127589 0.781066 0.679328
O O7 0.196613 0.000000 0.706254
O O8 0.000000 0.817693 0.000000
O O9 0.582171 0.500000 0.508389
O O10 0.636264 0.711273 0.312036
O O11 0.261435 0.500000 0.929739
O O12 0.112659 0.727857 0.059309
O O13 0.937056 0.500000 0.289382
O O14 0.930905 0.721023 0.419482
O O15 0.367220 0.500000 0.102586
O O16 0.257913 0.773243 0.226518
O O17 0.500000 0.738688 0.000000
O O18 0.000000 0.771409 0.500000
O O19 0.898412 0.000000 0.530630
#
# Coordination Sequence:
#
# PCOD8067188 Si02
#       7
#     4   4   4   4   4   4   4
#     4  12  26  42  65  95 130 170 211 266 329 387
#     4  11  23  39  61  92 130 169 211 266 324 381
#     4  11  23  41  65  92 128 172 219 264 312 382
#     4  10  22  41  65  95 130 172 217 264 314 377
#     4  11  23  40  66  96 129 172 217 264 319 385
#     4  11  26  48  72  97 128 173 226 280 333 397
#     4  11  25  45  70 102 136 172 217 278 341 397
#
# _framework density 22.176483000000001
#
# number of rings (size 3 to 8) (size 9 to 14) (size 15 to 20)
#    0.000    1.000    1.429    4.714    2.000    9.143 
#    0.000    0.000    0.000    0.000    0.000    0.000 
#    0.000    0.000    0.000    0.000    0.000    0.000 
#
# Total GULP energy -347248.519307 kJ/mol
# GULP energy per Si atom -12401.732832 kJ/mol
# Density = 2.212601 g / cm^3
# Si number density = 22.176483 Si / 1000 Ang^3
#
#
#
# Elastic Constant Matrix: (Units=GPa)
#
#
# Indices 1 2 3 4 5 6 
#
# 1 124.0463 27.0944 13.6346 0.0000 5.2181 0.0000
# 2 27.0944 55.5269 14.8707 0.0000 -4.8203 0.0000
# 3 13.6346 14.8707 67.2468 0.0000 3.1927 0.0000
# 4 0.0000 0.0000 0.0000 34.3083 0.0000 0.9819
# 5 5.2181 -4.8203 3.1927 0.0000 35.2700 0.0000
# 6 0.0000 0.0000 0.0000 0.9819 0.0000 28.7343
#
#
#
# Elastic Compliance Matrix: (Units=1/GPa)
#
#
# Indices 1 2 3 4 5 6 
#
# 1 0.009198 -0.004441 -0.000793 0.000000 -0.001896 0.000000
# 2 -0.004441 0.021611 -0.004067 0.000000 0.003979 0.000000
# 3 -0.000793 -0.004067 0.016021 0.000000 -0.001889 0.000000
# 4 0.000000 0.000000 0.000000 0.029176 0.000000 -0.000997
# 5 -0.001896 0.003979 -0.001889 0.000000 0.029348 0.000000
# 6 0.000000 0.000000 0.000000 -0.000997 0.000000 0.034836
#
#
# Mechanical properties :
#
#
# Convention : Reuss Voigt Hill
#
# Bulk Modulus (GPa) = 35.42642 39.77993 37.60318
# Shear Modulus (GPa) = 29.72643 32.41054 31.06848
#
# Velocity S-wave (km/s) = 3.66519 3.82708 3.74701
# Velocity P-wave (km/s) = 5.82416 6.12418 5.97605
#
# Compressibility (1/GPa) = 0.02822752
#
# Stress axis : x y z
#
# Youngs Moduli (GPa) = 108.71527 46.27328 62.41994
#
# Poissons Ratio (x) = 0.20548 0.04950
# Poissons Ratio (y) = 0.48275 0.25389
# Poissons Ratio (z) = 0.08621 0.18822
#
# Static dielectric constant tensor:
#      x y z
#    x 4.212010 0.000000 -0.114070 
#    y 0.000000 3.939920 0.000000 
#    z -0.114070 0.000000 4.050470 
# 
# 
# High freq. dielectric constant tensor:
#      x y z
#    x 1.889200 0.000000 -0.002140 
#    y 0.000000 1.869510 0.000000 
#    z -0.002140 0.000000 1.876210 
# 
# From -- ./inp_files/70164.got.cif
#   From: 2010.06.25/outbox.cif.g09.slc.cpg/sg10_36_cif.got.tgz:70164.got - 2010.06.27 22:07:45.
