data_PCOD8067029
_publ_section_title
;
Structure prediction by ZEFSAII (Michael W. Deem and Ramdas Pophale) SiO2 
 PCOD8067029
Probable space group: P 2/M
;
_chemical_formula_sum "Si O2"
_cell_formula_units_Z 32
_cell_length_a 9.465387
_cell_length_b 13.525758
_cell_length_c 13.681475
_cell_angle_alpha 90.000000
_cell_angle_beta 89.645146
_cell_angle_gamma 90.000000
_cell_volume 1751.558230
_symmetry_space_group_name_H-M "P 2/M"
_symmetry_group_IT_number 10
_symmetry_cell_setting 'monoclinic'
loop_
_space_group_symop_operation_xyz
x,y,z
-x,y,-z
-x,-y,-z
x,-y,z
loop_
_atom_site_type_symbol
_atom_site_label
_atom_site_fract_x
_atom_site_fract_y
_atom_site_fract_z
Si Si1 0.974912 0.295663 0.211860
Si Si2 0.535125 0.293775 0.796368
Si Si3 0.785675 0.384397 0.902709
Si Si4 0.417404 0.886765 0.900979
Si Si5 0.415093 0.385825 0.403983
Si Si6 0.086987 0.613616 0.403200
Si Si7 0.725815 0.386879 0.120844
Si Si8 0.913226 0.887235 0.098505
O O1 0.054969 0.363542 0.131460
O O2 0.033251 0.312441 0.319813
O O3 0.812088 0.328802 0.203860
O O4 0.981121 0.179702 0.183938
O O5 0.693255 0.316596 0.830710
O O6 0.485719 0.181239 0.816063
O O7 0.525395 0.315734 0.681431
O O8 0.438609 0.368320 0.859651
O O9 0.748186 0.500000 0.890415
O O10 0.764707 0.347498 0.013030
O O11 0.252194 0.862017 0.917595
O O12 0.439266 0.000000 0.868469
O O13 0.500000 0.863277 0.000000
O O14 0.500000 0.356354 0.500000
O O15 0.442060 0.500000 0.374913
O O16 0.250446 0.366417 0.424292
O O17 0.062145 0.500000 0.370166
O O18 0.000000 0.638870 0.500000
O O19 0.764352 0.500000 0.129740
O O20 0.932404 0.000000 0.132160
O O21 0.000000 0.865713 0.000000
#
# Coordination Sequence:
#
# PCOD8067029 Si02
#       8
#     4   4   4   4   4   4   4   4
#     4  12  22  36  57  82 114 157 193 235 289 339
#     4  12  22  36  57  82 114 157 193 235 289 339
#     4  11  22  36  52  78 120 157 190 228 274 341
#     4  10  22  39  59  85 116 153 199 247 291 339
#     4  10  22  39  59  83 113 150 194 242 288 340
#     4  10  22  39  59  83 113 150 194 242 288 340
#     4  11  22  32  50  82 116 153 192 224 272 349
#     4  10  22  39  59  85 116 153 199 247 291 339
#
# _framework density 18.269447
#
# number of rings (size 3 to 8) (size 9 to 14) (size 15 to 20)
#    0.000    1.250    2.500    4.500    3.500    2.000 
#    0.000    0.000    0.000    0.750    0.000    0.000 
#    0.000    0.000    0.000    0.000    0.000    0.000 
#
# Total GULP energy -396904.215131 kJ/mol
# GULP energy per Si atom -12403.256723 kJ/mol
# Density = 1.822786 g / cm^3
# Si number density = 18.269447 Si / 1000 Ang^3
#
#
#
# Elastic Constant Matrix: (Units=GPa)
#
#
# Indices 1 2 3 4 5 6 
#
# 1 77.0917 42.2872 45.6959 0.0000 2.5280 0.0000
# 2 42.2872 108.1770 62.9494 0.0000 4.1649 0.0000
# 3 45.6959 62.9494 123.4498 0.0000 4.3860 0.0000
# 4 0.0000 0.0000 0.0000 29.3714 0.0000 -0.1774
# 5 2.5280 4.1649 4.3860 0.0000 34.0841 0.0000
# 6 0.0000 0.0000 0.0000 -0.1774 0.0000 27.9916
#
#
#
# Elastic Compliance Matrix: (Units=1/GPa)
#
#
# Indices 1 2 3 4 5 6 
#
# 1 0.018040 -0.004496 -0.004377 0.000000 -0.000225 0.000000
# 2 -0.004496 0.014284 -0.005595 0.000000 -0.000692 0.000000
# 3 -0.004377 -0.005595 0.012595 0.000000 -0.000612 0.000000
# 4 0.000000 0.000000 0.000000 0.034048 0.000000 0.000216
# 5 -0.000225 -0.000692 -0.000612 0.000000 0.029519 0.000000
# 6 0.000000 0.000000 0.000000 0.000216 0.000000 0.035726
#
#
# Mechanical properties :
#
#
# Convention : Reuss Voigt Hill
#
# Bulk Modulus (GPa) = 62.56560 67.84261 65.20411
# Shear Modulus (GPa) = 28.01499 28.80850 28.41175
#
# Velocity S-wave (km/s) = 3.92016 3.97529 3.94782
# Velocity P-wave (km/s) = 7.40341 7.63450 7.51985
#
# Compressibility (1/GPa) = 0.01598322
#
# Stress axis : x y z
#
# Youngs Moduli (GPa) = 55.43353 70.00820 79.39530
#
# Poissons Ratio (x) = 0.31477 0.34750
# Poissons Ratio (y) = 0.24924 0.44420
# Poissons Ratio (z) = 0.24262 0.39168
#
# Static dielectric constant tensor:
#      x y z
#    x 3.502230 0.000000 -0.028960 
#    y 0.000000 3.309260 0.000000 
#    z -0.028960 0.000000 3.173600 
# 
# 
# High freq. dielectric constant tensor:
#      x y z
#    x 1.728720 0.000000 -0.000570 
#    y 0.000000 1.694380 0.000000 
#    z -0.000570 0.000000 1.685930 
# 
# From -- ./inp_files/42960.got.cif
#   From: 2010.06.25/outbox.cif.g09.slc.cpg/sg10_22_cif.got.tgz:42960.got - 2010.06.27 22:07:45.
