data_PCOD8067720
_publ_section_title
;
Structure prediction by ZEFSAII (Michael W. Deem and Ramdas Pophale) SiO2 
 PCOD8067720
Probable space group: P 2/M
;
_chemical_formula_sum "Si O2"
_cell_formula_units_Z 32
_cell_length_a 5.052183
_cell_length_b 16.891955
_cell_length_c 18.337052
_cell_angle_alpha 90.000000
_cell_angle_beta 83.369346
_cell_angle_gamma 90.000000
_cell_volume 1554.439442
_symmetry_space_group_name_H-M "P 2/M"
_symmetry_group_IT_number 10
_symmetry_cell_setting 'monoclinic'
loop_
_space_group_symop_operation_xyz
x,y,z
-x,y,-z
-x,-y,-z
x,-y,z
loop_
_atom_site_type_symbol
_atom_site_label
_atom_site_fract_x
_atom_site_fract_y
_atom_site_fract_z
Si Si1 0.031529 0.314601 0.211114
Si Si2 0.219942 0.747480 0.547788
Si Si3 0.493169 0.591281 0.739404
Si Si4 0.954815 0.827723 0.312383
Si Si5 0.346650 0.414415 0.581686
Si Si6 0.466339 0.912916 0.271485
Si Si7 0.043309 0.193739 0.078680
Si Si8 0.520179 0.090631 0.106448
O O1 0.746795 0.356504 0.221357
O O2 0.061459 0.252719 0.275062
O O3 0.073623 0.267457 0.133571
O O4 0.251076 0.380645 0.222884
O O5 0.500000 0.745289 0.500000
O O6 0.221544 0.812137 0.610654
O O7 0.145592 0.659724 0.581980
O O8 0.000000 0.776431 0.500000
O O9 0.443741 0.500000 0.760816
O O10 0.524499 0.600337 0.649590
O O11 0.749938 0.869700 0.265146
O O12 0.219770 0.876501 0.324127
O O13 0.500000 0.417575 0.500000
O O14 0.197894 0.500000 0.595786
O O15 0.380675 0.912570 0.190004
O O16 0.512322 0.000000 0.301699
O O17 0.801280 0.135049 0.105207
O O18 0.311918 0.140203 0.064113
O O19 0.000000 0.231371 0.000000
O O20 0.559875 0.000000 0.076160
#
# Coordination Sequence:
#
# PCOD8067720 Si02
#       8
#     4   4   4   4   4   4   4   4
#     4  12  23  41  64  91 121 159 210 254 298 360
#     4  11  24  38  58  87 122 161 204 252 306 360
#     4  11  24  41  64  91 124 164 203 252 307 357
#     4  12  22  39  66  88 122 163 206 259 300 355
#     4   9  20  36  56  87 127 162 192 232 296 372
#     4  11  22  39  64  93 122 157 204 255 308 361
#     4  12  25  41  62  91 127 166 203 253 311 362
#     4  11  22  39  60  92 132 165 200 241 299 381
#
# _framework density 20.586199000000001
#
# number of rings (size 3 to 8) (size 9 to 14) (size 15 to 20)
#    0.000    0.875    3.750    3.750    3.500    3.750 
#    0.000    0.000    0.000    9.750    0.000    0.000 
#    0.000    0.000    0.000    0.000    0.000    0.000 
#
# Total GULP energy -396583.532227 kJ/mol
# GULP energy per Si atom -12393.235382 kJ/mol
# Density = 2.053934 g / cm^3
# Si number density = 20.586199 Si / 1000 Ang^3
#
#
#
# Elastic Constant Matrix: (Units=GPa)
#
#
# Indices 1 2 3 4 5 6 
#
# 1 94.0943 16.5785 16.7321 0.0000 3.2352 0.0000
# 2 16.5785 78.7135 41.0060 0.0000 2.5825 0.0000
# 3 16.7321 41.0060 100.5114 0.0000 4.7803 0.0000
# 4 0.0000 0.0000 0.0000 17.0530 0.0000 8.7052
# 5 3.2352 2.5825 4.7803 0.0000 22.7574 0.0000
# 6 0.0000 0.0000 0.0000 8.7052 0.0000 118.6261
#
#
#
# Elastic Compliance Matrix: (Units=1/GPa)
#
#
# Indices 1 2 3 4 5 6 
#
# 1 0.011169 -0.001745 -0.001092 0.000000 -0.001160 0.000000
# 2 -0.001745 0.016411 -0.006392 0.000000 -0.000272 0.000000
# 3 -0.001092 -0.006392 0.012825 0.000000 -0.001813 0.000000
# 4 0.000000 0.000000 0.000000 0.060923 0.000000 -0.004471
# 5 -0.001160 -0.000272 -0.001813 0.000000 0.044518 0.000000
# 6 0.000000 0.000000 0.000000 -0.004471 0.000000 0.008758
#
#
# Mechanical properties :
#
#
# Convention : Reuss Voigt Hill
#
# Bulk Modulus (GPa) = 45.56569 46.88361 46.22465
# Shear Modulus (GPa) = 27.71962 44.95414 36.33688
#
# Velocity S-wave (km/s) = 3.67347 4.67808 4.20588
# Velocity P-wave (km/s) = 6.33835 7.21131 6.78887
#
# Compressibility (1/GPa) = 0.02194634
#
# Stress axis : x y z
#
# Youngs Moduli (GPa) = 89.53140 60.93641 77.97416
#
# Poissons Ratio (x) = 0.10636 0.08515
# Poissons Ratio (y) = 0.15628 0.49838
# Poissons Ratio (z) = 0.09777 0.38948
#
# Static dielectric constant tensor:
#      x y z
#    x 3.500370 0.000000 0.031670 
#    y 0.000000 4.059250 0.000000 
#    z 0.031670 0.000000 3.765240 
# 
# 
# High freq. dielectric constant tensor:
#      x y z
#    x 1.803130 0.000000 0.005060 
#    y 0.000000 1.806430 0.000000 
#    z 0.005060 0.000000 1.798250 
# 
# From -- ./inp_files/73534.got.cif
#   From: 2010.06.25/outbox.cif.g09.slc.cpg/sg10_37_cif.got.tgz:73534.got - 2010.06.27 22:07:45.
