data_PCOD8067537
_publ_section_title
;
Structure prediction by ZEFSAII (Michael W. Deem and Ramdas Pophale) SiO2 
 PCOD8067537
Probable space group: P 2/M
;
_chemical_formula_sum "Si O2"
_cell_formula_units_Z 32
_cell_length_a 18.379991
_cell_length_b 14.033617
_cell_length_c 10.023318
_cell_angle_alpha 90.000000
_cell_angle_beta 133.264697
_cell_angle_gamma 90.000000
_cell_volume 1882.670114
_symmetry_space_group_name_H-M "P 2/M"
_symmetry_group_IT_number 10
_symmetry_cell_setting 'monoclinic'
loop_
_space_group_symop_operation_xyz
x,y,z
-x,y,-z
-x,-y,-z
x,-y,z
loop_
_atom_site_type_symbol
_atom_site_label
_atom_site_fract_x
_atom_site_fract_y
_atom_site_fract_z
Si Si1 0.618068 0.697633 0.624274
Si Si2 0.594709 0.897608 0.524505
Si Si3 0.717172 0.390079 0.502170
Si Si4 0.711128 0.613043 0.001055
Si Si5 0.618869 0.298929 0.138405
Si Si6 0.405029 0.103579 0.785946
Si Si7 0.059813 0.613802 0.201631
Si Si8 0.939792 0.613104 0.299960
O O1 0.500000 0.693387 0.500000
O O2 0.656632 0.807672 0.660283
O O3 0.638951 0.650943 0.508521
O O4 0.677206 0.640055 0.810291
O O5 0.500000 0.906775 0.500000
O O6 0.564850 0.877799 0.331450
O O7 0.652918 0.000000 0.606129
O O8 0.728144 0.500000 0.545465
O O9 0.673778 0.375813 0.299921
O O10 0.827779 0.344041 0.655307
O O11 0.695658 0.500000 0.004876
O O12 0.647262 0.676395 0.022886
O O13 0.825305 0.645397 0.160684
O O14 0.657708 0.193824 0.235873
O O15 0.500000 0.306395 0.000000
O O16 0.348933 0.000000 0.726215
O O17 0.500000 0.097918 0.000000
O O18 0.063160 0.500000 0.210154
O O19 0.996772 0.655563 0.244824
O O20 0.000000 0.652191 0.000000
O O21 0.944260 0.500000 0.303564
O O22 0.000000 0.655384 0.500000
#
# Coordination Sequence:
#
# PCOD8067537 Si02
#       8
#     4   4   4   4   4   4   4   4
#     4  11  22  34  48  71 104 144 173 202 239 288
#     4   9  18  33  53  74  96 127 167 215 264 295
#     4  11  21  33  49  71 100 135 175 206 240 295
#     4  11  23  35  49  71 104 141 176 207 240 294
#     4  11  22  34  48  71 102 140 172 205 237 288
#     4   9  18  33  53  74  96 126 167 217 264 295
#     4   9  17  30  49  69  90 118 159 216 264 291
#     4   9  17  32  51  69  90 122 164 215 267 294
#
# _framework density 16.997136000000001
#
# number of rings (size 3 to 8) (size 9 to 14) (size 15 to 20)
#    0.000    2.000    1.250    3.000    5.250    7.000 
#    0.000    0.000    0.000    0.000    0.000    0.000 
#    0.000   20.000    0.000    0.000    0.000    0.000 
#
# Total GULP energy -396498.743008 kJ/mol
# GULP energy per Si atom -12390.585719 kJ/mol
# Density = 1.695845 g / cm^3
# Si number density = 16.997136 Si / 1000 Ang^3
#
#
#
# Elastic Constant Matrix: (Units=GPa)
#
#
# Indices 1 2 3 4 5 6 
#
# 1 80.9356 28.9608 29.3189 0.0000 -2.3755 0.0000
# 2 28.9608 80.4445 15.8495 0.0000 -0.6601 0.0000
# 3 29.3189 15.8495 83.4534 0.0000 1.7757 0.0000
# 4 0.0000 0.0000 0.0000 16.1706 0.0000 -11.0500
# 5 -2.3755 -0.6601 1.7757 0.0000 33.2239 0.0000
# 6 0.0000 0.0000 0.0000 -11.0500 0.0000 8.6100
#
#
#
# Elastic Compliance Matrix: (Units=1/GPa)
#
#
# Indices 1 2 3 4 5 6 
#
# 1 0.015786 -0.004752 -0.004671 0.000000 0.001284 0.000000
# 2 -0.004752 0.014350 -0.001056 0.000000 0.000002 0.000000
# 3 -0.004671 -0.001056 0.013847 0.000000 -0.001095 0.000000
# 4 0.000000 0.000000 0.000000 0.502746 0.000000 0.645221
# 5 0.001284 0.000002 -0.001095 0.000000 0.030249 0.000000
# 6 0.000000 0.000000 0.000000 0.645221 0.000000 0.944214
#
#
# Mechanical properties :
#
#
# Convention : Reuss Voigt Hill
#
# Bulk Modulus (GPa) = 43.42990 43.67689 43.55340
# Shear Modulus (GPa) = 3.22617 22.98119 13.10368
#
# Velocity S-wave (km/s) = 1.37920 3.68103 2.77958
# Velocity P-wave (km/s) = 5.30500 6.61960 5.99842
#
# Compressibility (1/GPa) = 0.02302561
#
# Stress axis : x y z
#
# Youngs Moduli (GPa) = 63.34904 69.68733 72.21563
#
# Poissons Ratio (x) = 0.33117 0.33729
# Poissons Ratio (y) = 0.30105 0.07625
# Poissons Ratio (z) = 0.29588 0.07358
#
# Static dielectric constant tensor:
#      x y z
#    x 3.207050 0.000000 -0.128770 
#    y 0.000000 3.522860 0.000000 
#    z -0.128770 0.000000 3.286930 
# 
# 
# High freq. dielectric constant tensor:
#      x y z
#    x 1.648250 0.000000 -0.026480 
#    y 0.000000 1.634240 0.000000 
#    z -0.026480 0.000000 1.657720 
# 
# From -- ./inp_files/29549.got.cif
#   From: 2010.06.25/outbox.cif.g09.slc.cpg/sg10_15_cif.got.tgz:29549.got - 2010.06.27 22:07:45.
