data_PCOD8067639
_publ_section_title
;
Structure prediction by ZEFSAII (Michael W. Deem and Ramdas Pophale) SiO2 
 PCOD8067639
Probable space group: P 2/M
;
_chemical_formula_sum "Si O2"
_cell_formula_units_Z 20
_cell_length_a 9.262703
_cell_length_b 11.657104
_cell_length_c 18.669904
_cell_angle_alpha 90.000000
_cell_angle_beta 29.386511
_cell_angle_gamma 90.000000
_cell_volume 989.202813
_symmetry_space_group_name_H-M "P 2/M"
_symmetry_group_IT_number 10
_symmetry_cell_setting 'monoclinic'
loop_
_space_group_symop_operation_xyz
x,y,z
-x,y,-z
-x,-y,-z
x,-y,z
loop_
_atom_site_type_symbol
_atom_site_label
_atom_site_fract_x
_atom_site_fract_y
_atom_site_fract_z
Si Si1 0.995422 0.866013 0.085349
Si Si2 0.745041 0.500000 0.053956
Si Si3 0.352039 0.500000 0.348316
Si Si4 0.458902 0.292295 0.935253
Si Si5 0.909812 0.634854 0.346053
Si Si6 0.609309 0.307444 0.335676
O O1 0.729837 0.806069 0.243917
O O2 0.951404 0.000000 0.115794
O O3 0.000000 0.831550 0.000000
O O4 0.316014 0.830301 0.978154
O O5 0.433273 0.500000 0.229541
O O6 0.772419 0.387305 0.993125
O O7 0.000000 0.500000 0.000000
O O8 0.506987 0.391697 0.317565
O O9 0.000000 0.500000 0.500000
O O10 0.779508 0.313026 0.762593
O O11 0.500000 0.311033 0.000000
O O12 0.875690 0.500000 0.381982
O O13 0.676347 0.712142 0.490650
O O14 0.862656 0.646264 0.280447
#
# Coordination Sequence:
#
# PCOD8067639 Si02
#       6
#     4   2   2   4   4   4
#     4  11  26  48  68  91 128 175 224 276 328 380
#     4  12  25  34  56  95 135 169 207 256 327 398
#     4  12  22  35  60  93 134 167 206 252 319 406
#     4  12  23  40  65  96 132 169 220 273 324 386
#     4  11  21  39  64  99 140 168 205 261 332 396
#     4  11  21  41  64  94 132 175 212 262 323 389
#
# _framework density 20.218302999999999
#
# number of rings (size 3 to 8) (size 9 to 14) (size 15 to 20)
#    0.000    0.600    5.000    5.100    0.000    0.400 
#    0.000    3.000    0.000    3.000    0.000    0.000 
#    0.000    0.000    0.000    0.000    0.000    0.000 
#
# Total GULP energy -247915.340479 kJ/mol
# GULP energy per Si atom -12395.767024 kJ/mol
# Density = 2.017228 g / cm^3
# Si number density = 20.218303 Si / 1000 Ang^3
#
#
#
# Elastic Constant Matrix: (Units=GPa)
#
#
# Indices 1 2 3 4 5 6 
#
# 1 125.3167 54.7042 48.7713 0.0000 -5.1743 0.0000
# 2 54.7042 107.1138 66.7795 0.0000 0.3964 0.0000
# 3 48.7713 66.7795 119.0915 0.0000 -3.5293 0.0000
# 4 0.0000 0.0000 0.0000 32.7620 0.0000 3.4641
# 5 -5.1743 0.3964 -3.5293 0.0000 42.9590 0.0000
# 6 0.0000 0.0000 0.0000 3.4641 0.0000 25.9304
#
#
#
# Elastic Compliance Matrix: (Units=1/GPa)
#
#
# Indices 1 2 3 4 5 6 
#
# 1 0.010628 -0.004213 -0.001956 0.000000 0.001158 0.000000
# 2 -0.004213 0.016051 -0.007312 0.000000 -0.001256 0.000000
# 3 -0.001956 -0.007312 0.013326 0.000000 0.000927 0.000000
# 4 0.000000 0.000000 0.000000 0.030960 0.000000 -0.004136
# 5 0.001158 -0.001256 0.000927 0.000000 0.023505 0.000000
# 6 0.000000 0.000000 0.000000 -0.004136 0.000000 0.039117
#
#
# Mechanical properties :
#
#
# Convention : Reuss Voigt Hill
#
# Bulk Modulus (GPa) = 76.67225 76.89243 76.78234
# Shear Modulus (GPa) = 30.32206 32.41475 31.36840
#
# Velocity S-wave (km/s) = 3.87684 4.00839 3.94316
# Velocity P-wave (km/s) = 7.61869 7.71599 7.66749
#
# Compressibility (1/GPa) = 0.01304253
#
# Stress axis : x y z
#
# Youngs Moduli (GPa) = 94.09361 62.30212 75.04299
#
# Poissons Ratio (x) = 0.26246 0.14677
# Poissons Ratio (y) = 0.39638 0.54874
# Poissons Ratio (z) = 0.18403 0.45558
#
# Static dielectric constant tensor:
#      x y z
#    x 4.109400 0.000000 0.011500 
#    y 0.000000 3.279500 0.000000 
#    z 0.011500 0.000000 4.184650 
# 
# 
# High freq. dielectric constant tensor:
#      x y z
#    x 1.815540 0.000000 0.002120 
#    y 0.000000 1.743180 0.000000 
#    z 0.002120 0.000000 1.810830 
# 
# From -- ./inp_files/74963.got.cif
#   From: 2010.06.25/outbox.cif.g09.slc.cpg/sg10_38_cif.got.tgz:74963.got - 2010.06.27 22:07:45.
