data_PCOD8067124
_publ_section_title
;
Structure prediction by ZEFSAII (Michael W. Deem and Ramdas Pophale) SiO2 
 PCOD8067124
Probable space group: P 2/M
;
_chemical_formula_sum "Si O2"
_cell_formula_units_Z 28
_cell_length_a 18.851756
_cell_length_b 12.660757
_cell_length_c 9.628955
_cell_angle_alpha 90.000000
_cell_angle_beta 138.727912
_cell_angle_gamma 90.000000
_cell_volume 1515.984395
_symmetry_space_group_name_H-M "P 2/M"
_symmetry_group_IT_number 10
_symmetry_cell_setting 'monoclinic'
loop_
_space_group_symop_operation_xyz
x,y,z
-x,y,-z
-x,-y,-z
x,-y,z
loop_
_atom_site_type_symbol
_atom_site_label
_atom_site_fract_x
_atom_site_fract_y
_atom_site_fract_z
Si Si1 0.105845 0.878134 0.243794
Si Si2 0.627853 0.377967 0.679371
Si Si3 0.306276 0.753808 0.974296
Si Si4 0.500210 0.122947 0.159609
Si Si5 0.892266 0.879153 0.428664
Si Si6 0.693253 0.743638 0.516856
Si Si7 0.373295 0.618204 0.832583
O O1 0.088754 0.850519 0.381399
O O2 0.195650 0.805876 0.303207
O O3 0.140644 0.000000 0.279835
O O4 0.000000 0.854176 0.000000
O O5 0.500000 0.360543 0.500000
O O6 0.656183 0.500000 0.756247
O O7 0.674054 0.351725 0.595551
O O8 0.690076 0.291899 0.865139
O O9 0.190146 0.797789 0.762750
O O10 0.343172 0.651460 0.942872
O O11 0.388729 0.849738 0.070208
O O12 0.595770 0.174192 0.388012
O O13 0.519926 0.000000 0.190127
O O14 0.500000 0.165308 0.000000
O O15 0.000000 0.864875 0.500000
O O16 0.850273 0.000000 0.354638
O O17 0.693991 0.693525 0.366038
O O18 0.334332 0.500000 0.749536
O O19 0.500000 0.629262 0.000000
#
# Coordination Sequence:
#
# PCOD8067124 Si02
#       7
#     4   4   4   4   4   4   4
#     4  10  22  40  63  90 119 156 199 242 292 355
#     4  11  24  40  59  86 125 161 198 246 298 352
#     4  12  20  38  58  87 118 157 194 242 300 348
#     4  11  20  33  56  89 121 151 185 237 300 361
#     4  10  22  40  63  90 119 156 199 242 292 355
#     4  12  20  38  58  87 118 157 194 242 300 348
#     4  11  20  34  59  88 115 147 202 246 286 358
#
# _framework density 18.469847999999999
#
# number of rings (size 3 to 8) (size 9 to 14) (size 15 to 20)
#    0.000    1.000    5.714    1.714    2.000    4.571 
#    0.000    2.857    0.000    5.143    0.000    0.000 
#    0.000    0.000    0.000    0.000    0.000    0.000 
#
# Total GULP energy -347205.348004 kJ/mol
# GULP energy per Si atom -12400.191000 kJ/mol
# Density = 1.842781 g / cm^3
# Si number density = 18.469848 Si / 1000 Ang^3
#
#
#
# Elastic Constant Matrix: (Units=GPa)
#
#
# Indices 1 2 3 4 5 6 
#
# 1 69.1766 18.9425 20.9144 0.0000 5.5523 0.0000
# 2 18.9425 80.0967 35.4811 0.0000 8.8873 0.0000
# 3 20.9144 35.4811 95.7663 0.0000 6.1703 0.0000
# 4 0.0000 0.0000 0.0000 31.7183 0.0000 -9.2848
# 5 5.5523 8.8873 6.1703 0.0000 28.8577 0.0000
# 6 0.0000 0.0000 0.0000 -9.2848 0.0000 47.7590
#
#
#
# Elastic Compliance Matrix: (Units=1/GPa)
#
#
# Indices 1 2 3 4 5 6 
#
# 1 0.016028 -0.002504 -0.002458 0.000000 -0.001787 0.000000
# 2 -0.002504 0.015677 -0.005051 0.000000 -0.003266 0.000000
# 3 -0.002458 -0.005051 0.012897 0.000000 -0.000729 0.000000
# 4 0.000000 0.000000 0.000000 0.033430 0.000000 0.006499
# 5 -0.001787 -0.003266 -0.000729 0.000000 0.036159 0.000000
# 6 0.000000 0.000000 0.000000 0.006499 0.000000 0.022202
#
#
# Mechanical properties :
#
#
# Convention : Reuss Voigt Hill
#
# Bulk Modulus (GPa) = 40.68760 43.96841 42.32801
# Shear Modulus (GPa) = 30.37496 32.98043 31.67769
#
# Velocity S-wave (km/s) = 4.05973 4.23026 4.14587
# Velocity P-wave (km/s) = 6.63719 6.90778 6.77383
#
# Compressibility (1/GPa) = 0.02457751
#
# Stress axis : x y z
#
# Youngs Moduli (GPa) = 62.39177 63.78803 77.53629
#
# Poissons Ratio (x) = 0.15969 0.19055
# Poissons Ratio (y) = 0.15620 0.39164
# Poissons Ratio (z) = 0.15333 0.32220
#
# Static dielectric constant tensor:
#      x y z
#    x 3.223960 0.000000 -0.102100 
#    y 0.000000 3.418220 0.000000 
#    z -0.102100 0.000000 3.322440 
# 
# 
# High freq. dielectric constant tensor:
#      x y z
#    x 1.708430 0.000000 -0.010930 
#    y 0.000000 1.723750 0.000000 
#    z -0.010930 0.000000 1.709620 
# 
# From -- ./inp_files/29612.got.cif
#   From: 2010.06.25/outbox.cif.g09.slc.cpg/sg10_15_cif.got.tgz:29612.got - 2010.06.27 22:07:45.
