data_PCOD8067279
_publ_section_title
;
Structure prediction by ZEFSAII (Michael W. Deem and Ramdas Pophale) SiO2 
 PCOD8067279
Probable space group: P 2/M
;
_chemical_formula_sum "Si O2"
_cell_formula_units_Z 26
_cell_length_a 5.540752
_cell_length_b 11.985197
_cell_length_c 20.042329
_cell_angle_alpha 90.000000
_cell_angle_beta 63.632911
_cell_angle_gamma 90.000000
_cell_volume 1192.488217
_symmetry_space_group_name_H-M "P 2/M"
_symmetry_group_IT_number 10
_symmetry_cell_setting 'monoclinic'
loop_
_space_group_symop_operation_xyz
x,y,z
-x,y,-z
-x,-y,-z
x,-y,z
loop_
_atom_site_type_symbol
_atom_site_label
_atom_site_fract_x
_atom_site_fract_y
_atom_site_fract_z
Si Si1 0.680811 0.738827 0.043518
Si Si2 0.080499 0.500000 0.792355
Si Si3 0.565146 0.500000 0.116256
Si Si4 0.814752 0.500000 0.454399
Si Si5 0.358444 0.710081 0.707180
Si Si6 0.915561 0.291208 0.586354
Si Si7 0.964483 0.122168 0.326777
Si Si8 0.506005 0.872460 0.190794
O O1 0.653719 0.609623 0.066113
O O2 0.559593 0.826396 0.110802
O O3 0.500000 0.759970 0.000000
O O4 0.000000 0.765654 0.000000
O O5 0.276386 0.500000 0.832978
O O6 0.144867 0.611364 0.743288
O O7 0.759875 0.500000 0.841523
O O8 0.500000 0.500000 0.500000
O O9 0.886183 0.385739 0.406532
O O10 0.000000 0.500000 0.500000
O O11 0.275031 0.796669 0.661142
O O12 0.374075 0.781486 0.773359
O O13 0.626106 0.657530 0.642019
O O14 0.917946 0.168891 0.618542
O O15 0.000000 0.274018 0.500000
O O16 0.185764 0.122119 0.241127
O O17 0.847198 0.000000 0.353942
O O18 0.622327 0.000000 0.185717
#
# Coordination Sequence:
#
# PCOD8067279 Si02
#       8
#     4   2   2   2   4   4   4   4
#     4  12  26  44  71 102 142 180 223 278 345 409
#     4  12  25  40  77 101 136 178 234 279 337 405
#     4  12  24  47  68 104 139 181 218 285 340 411
#     4  10  23  41  68  94 134 180 214 270 348 410
#     4  11  23  42  67 101 133 179 230 286 338 411
#     4  10  24  42  65  98 139 178 225 286 352 411
#     4  10  23  42  70  97 131 183 234 285 340 402
#     4  10  23  44  67  95 136 180 230 284 336 400
#
# _framework density 21.803149999999999
#
# number of rings (size 3 to 8) (size 9 to 14) (size 15 to 20)
#    0.000    1.231    1.538    3.231    8.615    2.154 
#    0.000    0.769    0.000    0.000    0.000    0.000 
#    0.000    0.000    0.000    0.000    0.000    0.000 
#
# Total GULP energy -322109.046733 kJ/mol
# GULP energy per Si atom -12388.809490 kJ/mol
# Density = 2.175352 g / cm^3
# Si number density = 21.803150 Si / 1000 Ang^3
#
#
#
# Elastic Constant Matrix: (Units=GPa)
#
#
# Indices 1 2 3 4 5 6 
#
# 1 114.1032 28.1477 38.0713 0.0000 -14.2050 0.0000
# 2 28.1477 152.8406 51.9378 0.0000 -13.3019 0.0000
# 3 38.0713 51.9378 126.4501 0.0000 -6.3910 0.0000
# 4 0.0000 0.0000 0.0000 21.6387 0.0000 -6.0904
# 5 -14.2050 -13.3019 -6.3910 0.0000 28.2070 0.0000
# 6 0.0000 0.0000 0.0000 -6.0904 0.0000 -1.1076
#
#
#
# Elastic Compliance Matrix: (Units=1/GPa)
#
#
# Indices 1 2 3 4 5 6 
#
# 1 0.010336 -0.000633 -0.002634 0.000000 0.004309 0.000000
# 2 -0.000633 0.007887 -0.002910 0.000000 0.002741 0.000000
# 3 -0.002634 -0.002910 0.009873 0.000000 -0.000462 0.000000
# 4 0.000000 0.000000 0.000000 0.018139 0.000000 -0.099744
# 5 0.004309 0.002741 -0.000462 0.000000 0.038810 0.000000
# 6 0.000000 0.000000 0.000000 -0.099744 0.000000 -0.354379
#
#
# Mechanical properties :
#
#
# Convention : Reuss Voigt Hill
#
# Bulk Modulus (GPa) = 63.52899 69.96750 66.74824
# Shear Modulus (GPa) = -19.86239 28.09675 4.11718
#
# Velocity S-wave (km/s) = -3.02153 3.59368 1.37566
# Velocity P-wave (km/s) = 4.12649 7.02706 5.76227
#
# Compressibility (1/GPa) = 0.01574085
#
# Stress axis : x y z
#
# Youngs Moduli (GPa) = 96.75354 126.79255 101.28372
#
# Poissons Ratio (x) = 0.08030 0.26677
# Poissons Ratio (y) = 0.06128 0.29476
# Poissons Ratio (z) = 0.25483 0.36900
#
# Static dielectric constant tensor:
#      x y z
#    x 4.087820 0.000000 0.023210 
#    y 0.000000 4.617890 0.000000 
#    z 0.023210 0.000000 3.974070 
# 
# 
# High freq. dielectric constant tensor:
#      x y z
#    x 1.856230 0.000000 -0.005540 
#    y 0.000000 1.877000 0.000000 
#    z -0.005540 0.000000 1.855390 
# 
# From -- ./inp_files/81165.got.cif
#   From: 2010.06.25/outbox.cif.g09.slc.cpg/sg10_41_cif.got.tgz:81165.got - 2010.06.27 22:07:45.
