data_PCOD8067662
_publ_section_title
;
Structure prediction by ZEFSAII (Michael W. Deem and Ramdas Pophale) SiO2 
 PCOD8067662
Probable space group: P 2/M
;
_chemical_formula_sum "Si O2"
_cell_formula_units_Z 32
_cell_length_a 28.531051
_cell_length_b 13.457629
_cell_length_c 9.924981
_cell_angle_alpha 90.000000
_cell_angle_beta 29.347017
_cell_angle_gamma 90.000000
_cell_volume 1867.664460
_symmetry_space_group_name_H-M "P 2/M"
_symmetry_group_IT_number 10
_symmetry_cell_setting 'monoclinic'
loop_
_space_group_symop_operation_xyz
x,y,z
-x,y,-z
-x,-y,-z
x,-y,z
loop_
_atom_site_type_symbol
_atom_site_label
_atom_site_fract_x
_atom_site_fract_y
_atom_site_fract_z
Si Si1 0.208002 0.883152 0.239403
Si Si2 0.298841 0.798705 0.268849
Si Si3 0.990236 0.883638 0.375576
Si Si4 0.491383 0.114435 0.871452
Si Si5 0.398128 0.611981 0.588309
Si Si6 0.683696 0.190306 0.278951
Si Si7 0.802076 0.116883 0.225204
Si Si8 0.382068 0.611682 0.944404
O O1 0.232472 0.857656 0.331221
O O2 0.102058 0.840414 0.470976
O O3 0.212165 0.000000 0.206746
O O4 0.286250 0.831915 0.948752
O O5 0.251622 0.814973 0.532364
O O6 0.406923 0.837744 0.996655
O O7 0.306802 0.682668 0.209845
O O8 0.000000 0.834912 0.500000
O O9 0.975292 0.000000 0.432468
O O10 0.084680 0.862833 0.050045
O O11 0.588767 0.128107 0.546517
O O12 0.465582 0.000000 0.951845
O O13 0.500000 0.162010 0.000000
O O14 0.367764 0.500000 0.622844
O O15 0.337162 0.691487 0.654626
O O16 0.377843 0.630295 0.795900
O O17 0.509708 0.629171 0.275978
O O18 0.767888 0.153372 0.164844
O O19 0.777854 0.000000 0.306326
O O20 0.349669 0.500000 0.059771
#
# Coordination Sequence:
#
# PCOD8067662 Si02
#       8
#     4   4   4   4   4   4   4   4
#     4  11  22  34  53  82 111 137 183 233 265 314
#     4  12  22  35  52  81 112 145 182 221 269 320
#     4   9  18  35  56  77 103 142 185 227 268 314
#     4  11  22  34  48  71 115 160 182 202 257 329
#     4   9  18  34  54  77 104 139 185 233 270 309
#     4  12  20  33  55  80 105 145 186 216 262 325
#     4  11  22  36  55  78 112 151 182 215 267 329
#     4   9  18  35  54  74 105 144 182 227 273 315
#
# _framework density 17.133699
#
# number of rings (size 3 to 8) (size 9 to 14) (size 15 to 20)
#    0.000    1.500    5.000    3.000    0.000    1.000 
#    0.000    3.750    0.000    2.250    0.000    5.250 
#    0.000    0.000    0.000    0.000    0.000    0.000 
#
# Total GULP energy -396804.335922 kJ/mol
# GULP energy per Si atom -12400.135498 kJ/mol
# Density = 1.709470 g / cm^3
# Si number density = 17.133699 Si / 1000 Ang^3
#
#
#
# Elastic Constant Matrix: (Units=GPa)
#
#
# Indices 1 2 3 4 5 6 
#
# 1 74.7641 18.5466 17.0883 0.0000 -16.0941 0.0000
# 2 18.5466 82.6903 33.0020 0.0000 -2.8471 0.0000
# 3 17.0883 33.0020 63.7031 0.0000 -7.9593 0.0000
# 4 0.0000 0.0000 0.0000 13.7996 0.0000 7.2789
# 5 -16.0941 -2.8471 -7.9593 0.0000 27.1244 0.0000
# 6 0.0000 0.0000 0.0000 7.2789 0.0000 19.9014
#
#
#
# Elastic Compliance Matrix: (Units=1/GPa)
#
#
# Indices 1 2 3 4 5 6 
#
# 1 0.016372 -0.002592 -0.001940 0.000000 0.008873 0.000000
# 2 -0.002592 0.015670 -0.007691 0.000000 -0.002150 0.000000
# 3 -0.001940 -0.007691 0.020718 0.000000 0.004121 0.000000
# 4 0.000000 0.000000 0.000000 0.089788 0.000000 -0.032840
# 5 0.008873 -0.002150 0.004121 0.000000 0.043115 0.000000
# 6 0.000000 0.000000 0.000000 -0.032840 0.000000 0.062259
#
#
# Mechanical properties :
#
#
# Convention : Reuss Voigt Hill
#
# Bulk Modulus (GPa) = 35.32041 39.82569 37.57305
# Shear Modulus (GPa) = 17.74260 22.33312 20.03786
#
# Velocity S-wave (km/s) = 3.22147 3.61427 3.42351
# Velocity P-wave (km/s) = 5.87337 6.38058 6.13222
#
# Compressibility (1/GPa) = 0.02831225
#
# Stress axis : x y z
#
# Youngs Moduli (GPa) = 61.08020 63.81462 48.26764
#
# Poissons Ratio (x) = 0.16542 0.09365
# Poissons Ratio (y) = 0.15833 0.37125
# Poissons Ratio (z) = 0.11851 0.49083
#
# Static dielectric constant tensor:
#      x y z
#    x 3.228780 0.000000 -0.091370 
#    y 0.000000 3.081280 0.000000 
#    z -0.091370 0.000000 3.109330 
# 
# 
# High freq. dielectric constant tensor:
#      x y z
#    x 1.656730 0.000000 -0.000020 
#    y 0.000000 1.639610 0.000000 
#    z -0.000020 0.000000 1.655940 
# 
# From -- ./inp_files/35149.got.cif
#   From: 2010.06.25/outbox.cif.g09.slc.cpg/sg10_18_cif.got.tgz:35149.got - 2010.06.27 22:07:45.
