data_PCOD8067657
_publ_section_title
;
Structure prediction by ZEFSAII (Michael W. Deem and Ramdas Pophale) SiO2 
 PCOD8067657
Probable space group: P 2/M
;
_chemical_formula_sum "Si O2"
_cell_formula_units_Z 28
_cell_length_a 23.691277
_cell_length_b 17.812884
_cell_length_c 25.890978
_cell_angle_alpha 90.000000
_cell_angle_beta 169.027532
_cell_angle_gamma 90.000000
_cell_volume 2079.672839
_symmetry_space_group_name_H-M "P 2/M"
_symmetry_group_IT_number 10
_symmetry_cell_setting 'monoclinic'
loop_
_space_group_symop_operation_xyz
x,y,z
-x,y,-z
-x,-y,-z
x,-y,z
loop_
_atom_site_type_symbol
_atom_site_label
_atom_site_fract_x
_atom_site_fract_y
_atom_site_fract_z
Si Si1 0.178276 0.584879 0.606969
Si Si2 0.664919 0.910486 0.698950
Si Si3 0.677498 0.840265 0.106503
Si Si4 0.677888 0.669595 0.106736
Si Si5 0.342029 0.910696 0.105221
Si Si6 0.681799 0.089083 0.309076
Si Si7 0.673246 0.910460 0.503947
O O1 0.239616 0.500000 0.643777
O O2 0.000000 0.585105 0.500000
O O3 0.991101 0.627475 0.394797
O O4 0.490425 0.627482 0.894121
O O5 0.500000 0.879681 0.500000
O O6 0.495992 0.879702 0.597594
O O7 0.664998 0.000000 0.698991
O O8 0.000000 0.879686 0.000000
O O9 0.735790 0.754831 0.141488
O O10 0.985823 0.881576 0.391540
O O11 0.500000 0.843691 0.000000
O O12 0.485620 0.881563 0.891330
O O13 0.500000 0.667683 0.000000
O O14 0.511778 0.881592 0.207073
O O15 0.508231 0.879185 0.305045
O O16 0.338211 0.000000 0.102936
O O17 0.007707 0.879189 0.804519
O O18 0.688980 0.000000 0.313372
O O19 0.672815 0.000000 0.503684
#
# Coordination Sequence:
#
# PCOD8067657 Si02
#       7
#     4   4   4   4   4   4   4
#     4   9  15  24  40  60  79  97 115 133 151 183
#     4   9  15  21  30  47  69  89 107 125 149 193
#     4  11  22  34  46  58  74  95 115 145 195 246
#     4   9  17  28  40  56  77  97 115 133 163 213
#     4   9  17  28  40  52  64  81 109 146 184 217
#     4  11  22  34  46  58  70  87 120 163 199 236
#     4   9  15  24  37  50  66  87 107 131 168 209
#
# _framework density 13.463656
#
# number of rings (size 3 to 8) (size 9 to 14) (size 15 to 20)
#    0.000    2.429    0.000    3.857    0.000   11.429 
#    0.000    0.000    0.000    0.000    0.000    0.000 
#    0.000    0.000    0.000    0.000    0.000    0.000 
#
# Total GULP energy -347191.381364 kJ/mol
# GULP energy per Si atom -12399.692192 kJ/mol
# Density = 1.343301 g / cm^3
# Si number density = 13.463656 Si / 1000 Ang^3
#
#
#
# Elastic Constant Matrix: (Units=GPa)
#
#
# Indices 1 2 3 4 5 6 
#
# 1 88.7462 23.9022 58.6107 0.0000 -5.2522 0.0000
# 2 23.9022 63.3672 36.0293 0.0000 -6.8769 0.0000
# 3 58.6107 36.0293 131.9520 0.0000 -19.2341 0.0000
# 4 0.0000 0.0000 0.0000 12.6967 0.0000 -5.7771
# 5 -5.2522 -6.8769 -19.2341 0.0000 27.6133 0.0000
# 6 0.0000 0.0000 0.0000 -5.7771 0.0000 2.4886
#
#
#
# Elastic Compliance Matrix: (Units=1/GPa)
#
#
# Indices 1 2 3 4 5 6 
#
# 1 0.016382 -0.002488 -0.006938 0.000000 -0.002336 0.000000
# 2 -0.002488 0.019096 -0.003879 0.000000 0.001581 0.000000
# 3 -0.006938 -0.003879 0.012673 0.000000 0.006542 0.000000
# 4 0.000000 0.000000 0.000000 -1.399963 0.000000 -3.249900
# 5 -0.002336 0.001581 0.006542 0.000000 0.040720 0.000000
# 6 0.000000 0.000000 0.000000 -3.249900 0.000000 -7.142543
#
#
# Mechanical properties :
#
#
# Convention : Reuss Voigt Hill
#
# Bulk Modulus (GPa) = 46.42079 57.90554 52.16317
# Shear Modulus (GPa) = -0.59384 19.59461 9.50039
#
# Velocity S-wave (km/s) = -0.66485 3.81907 2.65926
# Velocity P-wave (km/s) = 5.82787 7.90881 6.94670
#
# Compressibility (1/GPa) = 0.02154207
#
# Stress axis : x y z
#
# Youngs Moduli (GPa) = 61.04336 52.36577 78.90986
#
# Poissons Ratio (x) = 0.13030 0.54745
# Poissons Ratio (y) = 0.15189 0.30606
# Poissons Ratio (z) = 0.42350 0.20311
#
# Static dielectric constant tensor:
#      x y z
#    x 2.657230 0.000000 -0.127830 
#    y 0.000000 2.403680 0.000000 
#    z -0.127830 0.000000 2.882960 
# 
# 
# High freq. dielectric constant tensor:
#      x y z
#    x 1.496020 0.000000 -0.020170 
#    y 0.000000 1.459310 0.000000 
#    z -0.020170 0.000000 1.531660 
# 
# From -- ./inp_files/81297.got.cif
#   From: 2010.06.25/outbox.cif.g09.slc.cpg/sg10_41_cif.got.tgz:81297.got - 2010.06.27 22:07:45.
