data_PCOD8067351
_publ_section_title
;
Structure prediction by ZEFSAII (Michael W. Deem and Ramdas Pophale) SiO2 
 PCOD8067351
Probable space group: P 2/M
;
_chemical_formula_sum "Si O2"
_cell_formula_units_Z 28
_cell_length_a 29.010704
_cell_length_b 8.557325
_cell_length_c 9.703948
_cell_angle_alpha 90.000000
_cell_angle_beta 33.418184
_cell_angle_gamma 90.000000
_cell_volume 1326.770618
_symmetry_space_group_name_H-M "P 2/M"
_symmetry_group_IT_number 10
_symmetry_cell_setting 'monoclinic'
loop_
_space_group_symop_operation_xyz
x,y,z
-x,y,-z
-x,-y,-z
x,-y,z
loop_
_atom_site_type_symbol
_atom_site_label
_atom_site_fract_x
_atom_site_fract_y
_atom_site_fract_z
Si Si1 0.636439 0.817856 0.520709
Si Si2 0.506050 0.682612 0.642866
Si Si3 0.875615 0.319468 0.571770
Si Si4 0.184998 0.179988 0.547907
Si Si5 0.175840 0.180912 0.021727
Si Si6 0.067977 0.318973 0.061185
Si Si7 0.645308 0.318917 0.782404
O O1 0.581136 0.774483 0.527084
O O2 0.731199 0.768551 0.252009
O O3 0.605510 0.724437 0.733359
O O4 0.627761 0.000000 0.572598
O O5 0.500000 0.739133 0.500000
O O6 0.526611 0.500000 0.600145
O O7 0.419623 0.722787 0.935129
O O8 0.867276 0.500000 0.634616
O O9 0.822694 0.288118 0.566623
O O10 0.971370 0.271313 0.308564
O O11 0.836474 0.211912 0.786835
O O12 0.272234 0.215395 0.404771
O O13 0.181313 0.000000 0.513456
O O14 0.109801 0.213968 0.840005
O O15 0.159736 0.000000 0.028241
O O16 0.109566 0.285761 0.104770
O O17 0.079010 0.500000 0.994551
O O18 0.669851 0.500000 0.724384
#
# Coordination Sequence:
#
# PCOD8067351 Si02
#       7
#     4   4   4   4   4   4   4
#     4  11  24  42  65  96 130 169 212 258 316 377
#     4  10  24  44  67  98 130 164 208 259 315 377
#     4  11  25  42  63  92 128 170 217 268 321 378
#     4  12  25  41  64  95 130 168 213 265 323 382
#     4  11  24  41  63  95 131 170 214 263 320 379
#     4  11  23  42  66  93 125 168 219 266 317 380
#     4  11  23  42  68  95 126 169 216 261 313 376
#
# _framework density 21.103874999999999
#
# number of rings (size 3 to 8) (size 9 to 14) (size 15 to 20)
#    0.000    1.000    1.429    4.714    2.000   10.571 
#    0.000    0.000    0.000    0.000    0.000    0.000 
#    0.000    0.000    0.000    0.000    0.000    0.000 
#
# Total GULP energy -347461.671041 kJ/mol
# GULP energy per Si atom -12409.345394 kJ/mol
# Density = 2.105584 g / cm^3
# Si number density = 21.103875 Si / 1000 Ang^3
#
#
#
# Elastic Constant Matrix: (Units=GPa)
#
#
# Indices 1 2 3 4 5 6 
#
# 1 114.1063 22.6674 46.5228 0.0000 14.4323 0.0000
# 2 22.6674 69.3003 41.9201 0.0000 -9.5127 0.0000
# 3 46.5228 41.9201 96.2427 0.0000 11.3420 0.0000
# 4 0.0000 0.0000 0.0000 27.5126 0.0000 3.1877
# 5 14.4323 -9.5127 11.3420 0.0000 34.8613 0.0000
# 6 0.0000 0.0000 0.0000 3.1877 0.0000 31.7374
#
#
#
# Elastic Compliance Matrix: (Units=1/GPa)
#
#
# Indices 1 2 3 4 5 6 
#
# 1 0.011318 -0.001582 -0.004346 0.000000 -0.003703 0.000000
# 2 -0.001582 0.022537 -0.010247 0.000000 0.010138 0.000000
# 3 -0.004346 -0.010247 0.017752 0.000000 -0.006773 0.000000
# 4 0.000000 0.000000 0.000000 0.036775 0.000000 -0.003694
# 5 -0.003703 0.010138 -0.006773 0.000000 0.035188 0.000000
# 6 0.000000 0.000000 0.000000 -0.003694 0.000000 0.031880
#
#
# Mechanical properties :
#
#
# Convention : Reuss Voigt Hill
#
# Bulk Modulus (GPa) = 51.92220 55.76331 53.84276
# Shear Modulus (GPa) = 25.74423 30.05819 27.90121
#
# Velocity S-wave (km/s) = 3.49647 3.77808 3.64000
# Velocity P-wave (km/s) = 6.39976 6.74629 6.57531
#
# Compressibility (1/GPa) = 0.01925958
#
# Stress axis : x y z
#
# Youngs Moduli (GPa) = 88.35337 44.37109 56.33064
#
# Poissons Ratio (x) = 0.07018 0.24480
# Poissons Ratio (y) = 0.13974 0.57720
# Poissons Ratio (z) = 0.38396 0.45466
#
# Static dielectric constant tensor:
#      x y z
#    x 3.869750 0.000000 0.043100 
#    y 0.000000 3.707620 0.000000 
#    z 0.043100 0.000000 3.841840 
# 
# 
# High freq. dielectric constant tensor:
#      x y z
#    x 1.837680 0.000000 0.004130 
#    y 0.000000 1.829510 0.000000 
#    z 0.004130 0.000000 1.834990 
# 
# From -- ./inp_files/36970.got.cif
#   From: 2010.06.25/outbox.cif.g09.slc.cpg/sg10_19_cif.got.tgz:36970.got - 2010.06.27 22:07:45.
