data_PCOD8067034
_publ_section_title
;
Structure prediction by ZEFSAII (Michael W. Deem and Ramdas Pophale) SiO2 
 PCOD8067034
Probable space group: P 2/M
;
_chemical_formula_sum "Si O2"
_cell_formula_units_Z 24
_cell_length_a 18.372897
_cell_length_b 8.624936
_cell_length_c 22.841602
_cell_angle_alpha 90.000000
_cell_angle_beta 161.721873
_cell_angle_gamma 90.000000
_cell_volume 1135.213789
_symmetry_space_group_name_H-M "P 2/M"
_symmetry_group_IT_number 10
_symmetry_cell_setting 'monoclinic'
loop_
_space_group_symop_operation_xyz
x,y,z
-x,y,-z
-x,-y,-z
x,-y,z
loop_
_atom_site_type_symbol
_atom_site_label
_atom_site_fract_x
_atom_site_fract_y
_atom_site_fract_z
Si Si1 0.523880 0.179889 0.856421
Si Si2 0.165942 0.318069 0.499574
Si Si3 0.686558 0.679456 0.191663
Si Si4 0.801464 0.320164 0.895332
Si Si5 0.309683 0.181566 0.493679
Si Si6 0.032497 0.318296 0.850627
O O1 0.381914 0.224217 0.690210
O O2 0.369163 0.219964 0.794350
O O3 0.585425 0.000000 0.902854
O O4 0.762951 0.275669 0.038809
O O5 0.211211 0.500000 0.540932
O O6 0.152976 0.271676 0.421877
O O7 0.933711 0.267562 0.355604
O O8 0.687674 0.500000 0.211001
O O9 0.500000 0.715112 0.000000
O O10 0.730112 0.500000 0.845520
O O11 0.578837 0.225143 0.704229
O O12 0.895891 0.259809 0.029991
O O13 0.000000 0.291207 0.000000
O O14 0.204827 0.233579 0.350801
O O15 0.279851 0.000000 0.479542
O O16 0.985243 0.500000 0.814172
#
# Coordination Sequence:
#
# PCOD8067034 Si02
#       6
#     4   4   4   4   4   4
#     4  12  24  38  60  91 128 166 212 269 329 382
#     4  11  22  39  63  89 123 170 222 266 315 383
#     4  10  22  39  59  85 119 165 220 270 317 377
#     4  10  23  45  72  99 128 169 220 268 317 385
#     4  12  25  41  66  99 136 171 212 269 331 387
#     4  11  23  42  69  95 129 174 220 266 317 387
#
# _framework density 21.141390999999999
#
# number of rings (size 3 to 8) (size 9 to 14) (size 15 to 20)
#    0.000    1.000    1.667    5.500    0.000    6.667 
#    0.000    3.333    0.000    0.000    0.000    0.000 
#    0.000    0.000    0.000    0.000    0.000    0.000 
#
# Total GULP energy -297760.478771 kJ/mol
# GULP energy per Si atom -12406.686615 kJ/mol
# Density = 2.109327 g / cm^3
# Si number density = 21.141391 Si / 1000 Ang^3
#
#
#
# Elastic Constant Matrix: (Units=GPa)
#
#
# Indices 1 2 3 4 5 6 
#
# 1 93.0035 22.9799 49.8054 0.0000 2.8739 0.0000
# 2 22.9799 57.3943 36.2170 0.0000 -3.9015 0.0000
# 3 49.8054 36.2170 124.3426 0.0000 -17.0803 0.0000
# 4 0.0000 0.0000 0.0000 13.1153 0.0000 -4.6622
# 5 2.8739 -3.9015 -17.0803 0.0000 30.9035 0.0000
# 6 0.0000 0.0000 0.0000 -4.6622 0.0000 18.8163
#
#
#
# Elastic Compliance Matrix: (Units=1/GPa)
#
#
# Indices 1 2 3 4 5 6 
#
# 1 0.014632 -0.002535 -0.005793 0.000000 -0.004883 0.000000
# 2 -0.002535 0.021804 -0.005330 0.000000 0.000043 0.000000
# 3 -0.005793 -0.005330 0.012874 0.000000 0.006981 0.000000
# 4 0.000000 0.000000 0.000000 0.083611 0.000000 0.020717
# 5 -0.004883 0.000043 0.006981 0.000000 0.036677 0.000000
# 6 0.000000 0.000000 0.000000 0.020717 0.000000 0.058278
#
#
# Mechanical properties :
#
#
# Convention : Reuss Voigt Hill
#
# Bulk Modulus (GPa) = 45.46487 54.74944 50.10715
# Shear Modulus (GPa) = 19.04591 23.61624 21.33107
#
# Velocity S-wave (km/s) = 3.00473 3.34587 3.17988
# Velocity P-wave (km/s) = 5.79566 6.39371 6.10202
#
# Compressibility (1/GPa) = 0.02199501
#
# Stress axis : x y z
#
# Youngs Moduli (GPa) = 68.34415 45.86257 77.67499
#
# Poissons Ratio (x) = 0.11625 0.44999
# Poissons Ratio (y) = 0.17323 0.41399
# Poissons Ratio (z) = 0.39593 0.24444
#
# Static dielectric constant tensor:
#      x y z
#    x 3.927500 0.000000 -0.088410 
#    y 0.000000 3.652460 0.000000 
#    z -0.088410 0.000000 3.916340 
# 
# 
# High freq. dielectric constant tensor:
#      x y z
#    x 1.831180 0.000000 -0.007200 
#    y 0.000000 1.821990 0.000000 
#    z -0.007200 0.000000 1.841720 
# 
# From -- ./inp_files/90063.got.cif
#   From: 2010.06.25/outbox.cif.g09.slc.cpg/sg10_46_cif.got.tgz:90063.got - 2010.06.27 22:07:45.
