data_PCOD8067232
_publ_section_title
;
Structure prediction by ZEFSAII (Michael W. Deem and Ramdas Pophale) SiO2 
 PCOD8067232
Probable space group: P 2/M
;
_chemical_formula_sum "Si O2"
_cell_formula_units_Z 32
_cell_length_a 21.910889
_cell_length_b 14.499881
_cell_length_c 14.448980
_cell_angle_alpha 90.000000
_cell_angle_beta 161.664791
_cell_angle_gamma 90.000000
_cell_volume 1444.065788
_symmetry_space_group_name_H-M "P 2/M"
_symmetry_group_IT_number 10
_symmetry_cell_setting 'monoclinic'
loop_
_space_group_symop_operation_xyz
x,y,z
-x,y,-z
-x,-y,-z
x,-y,z
loop_
_atom_site_type_symbol
_atom_site_label
_atom_site_fract_x
_atom_site_fract_y
_atom_site_fract_z
Si Si1 0.181027 0.104204 0.639515
Si Si2 0.229696 0.104427 0.509377
Si Si3 0.037965 0.603492 0.163267
Si Si4 0.217307 0.718551 0.812712
Si Si5 0.469058 0.391929 0.850018
Si Si6 0.148992 0.215119 0.067992
Si Si7 0.618901 0.899278 0.461574
Si Si8 0.750722 0.161653 0.981716
O O1 0.299680 0.126780 0.714978
O O2 0.229615 0.179210 0.786087
O O3 0.227965 0.000000 0.742577
O O4 0.954282 0.111018 0.288621
O O5 0.401424 0.117769 0.679831
O O6 0.150517 0.000000 0.395448
O O7 0.061310 0.170853 0.234027
O O8 0.999543 0.500000 0.146562
O O9 0.256491 0.634472 0.505990
O O10 0.000000 0.605559 0.000000
O O11 0.883221 0.674429 0.984033
O O12 0.000000 0.676049 0.500000
O O13 0.367821 0.651133 0.981350
O O14 0.268248 0.739189 0.992911
O O15 0.504156 0.500000 0.895669
O O16 0.500000 0.356374 0.000000
O O17 0.254015 0.183445 0.313081
O O18 0.280321 0.183235 0.171064
O O19 0.413061 0.905708 0.215305
O O20 0.718361 0.000000 0.619954
#
# Coordination Sequence:
#
# PCOD8067232 Si02
#       8
#     4   4   4   4   4   4   4   4
#     4   9  19  38  59  83 121 168 210 253 314 380
#     4   9  19  34  56  85 117 158 205 256 313 371
#     4  10  23  43  70  99 127 165 214 267 329 390
#     4  10  23  39  62  92 127 168 210 262 320 382
#     4  10  24  44  71 101 127 162 214 270 329 391
#     4  11  22  37  61  85 122 167 206 260 317 378
#     4  11  22  36  56  89 125 162 213 265 314 375
#     4  10  23  36  55  87 122 169 213 256 315 377
#
# _framework density 22.159655000000001
#
# number of rings (size 3 to 8) (size 9 to 14) (size 15 to 20)
#    0.000    2.000    0.000    2.250    8.750    6.000 
#    0.000    0.625    0.000    4.125    0.000    0.000 
#    0.000    0.000    0.000    0.000    0.000    0.000 
#
# Total GULP energy -396592.404305 kJ/mol
# GULP energy per Si atom -12393.512635 kJ/mol
# Density = 2.210922 g / cm^3
# Si number density = 22.159655 Si / 1000 Ang^3
#
#
#
# Elastic Constant Matrix: (Units=GPa)
#
#
# Indices 1 2 3 4 5 6 
#
# 1 125.8546 26.0145 12.5192 0.0000 18.7112 0.0000
# 2 26.0145 76.0929 28.0182 0.0000 13.7610 0.0000
# 3 12.5192 28.0182 54.7537 0.0000 11.0751 0.0000
# 4 0.0000 0.0000 0.0000 25.2173 0.0000 10.6519
# 5 18.7112 13.7610 11.0751 0.0000 33.7649 0.0000
# 6 0.0000 0.0000 0.0000 10.6519 0.0000 24.5951
#
#
#
# Elastic Compliance Matrix: (Units=1/GPa)
#
#
# Indices 1 2 3 4 5 6 
#
# 1 0.009035 -0.002340 -0.000052 0.000000 -0.004036 0.000000
# 2 -0.002340 0.017363 -0.007691 0.000000 -0.003257 0.000000
# 3 -0.000052 -0.007691 0.023104 0.000000 -0.004415 0.000000
# 4 0.000000 0.000000 0.000000 0.048534 0.000000 -0.021020
# 5 -0.004036 -0.003257 -0.004415 0.000000 0.034629 0.000000
# 6 0.000000 0.000000 0.000000 -0.021020 0.000000 0.049762
#
#
# Mechanical properties :
#
#
# Convention : Reuss Voigt Hill
#
# Bulk Modulus (GPa) = 34.08803 43.31165 38.69984
# Shear Modulus (GPa) = 23.54382 29.39209 26.46795
#
# Velocity S-wave (km/s) = 3.26308 3.64590 3.45979
# Velocity P-wave (km/s) = 5.44181 6.10828 5.78465
#
# Compressibility (1/GPa) = 0.02933581
#
# Stress axis : x y z
#
# Youngs Moduli (GPa) = 110.68675 57.59507 43.28239
#
# Poissons Ratio (x) = 0.13475 0.00226
# Poissons Ratio (y) = 0.25897 0.33288
# Poissons Ratio (z) = 0.00577 0.44296
#
# Static dielectric constant tensor:
#      x y z
#    x 4.398770 0.000000 0.084420 
#    y 0.000000 3.925780 0.000000 
#    z 0.084420 0.000000 3.941860 
# 
# 
# High freq. dielectric constant tensor:
#      x y z
#    x 1.885510 0.000000 0.000110 
#    y 0.000000 1.856760 0.000000 
#    z 0.000110 0.000000 1.865440 
# 
# From -- ./inp_files/25333.got.cif
#   From: 2010.06.25/outbox.cif.g09.slc.cpg/sg10_13_cif.got.tgz:25333.got - 2010.06.27 22:07:45.
