data_PCOD8067048
_publ_section_title
;
Structure prediction by ZEFSAII (Michael W. Deem and Ramdas Pophale) SiO2 
 PCOD8067048
Probable space group: P 2/M
;
_chemical_formula_sum "Si O2"
_cell_formula_units_Z 20
_cell_length_a 10.736082
_cell_length_b 8.610083
_cell_length_c 12.768905
_cell_angle_alpha 90.000000
_cell_angle_beta 53.105957
_cell_angle_gamma 90.000000
_cell_volume 943.972791
_symmetry_space_group_name_H-M "P 2/M"
_symmetry_group_IT_number 10
_symmetry_cell_setting 'monoclinic'
loop_
_space_group_symop_operation_xyz
x,y,z
-x,y,-z
-x,-y,-z
x,-y,z
loop_
_atom_site_type_symbol
_atom_site_label
_atom_site_fract_x
_atom_site_fract_y
_atom_site_fract_z
Si Si1 0.680597 0.172814 0.884543
Si Si2 0.338293 0.317181 0.532353
Si Si3 0.819826 0.817739 0.590834
Si Si4 0.840102 0.321586 0.987045
Si Si5 0.832852 0.819803 0.194674
O O1 0.731052 0.226274 0.743108
O O2 0.741416 0.302503 0.932875
O O3 0.750639 0.000000 0.869484
O O4 0.500000 0.167352 0.000000
O O5 0.500000 0.250451 0.500000
O O6 0.348627 0.500000 0.516568
O O7 0.289920 0.252606 0.443726
O O8 0.205663 0.265981 0.678748
O O9 0.000000 0.754077 0.500000
O O10 0.825084 0.000000 0.568931
O O11 0.891703 0.500000 0.973020
O O12 0.983702 0.204102 0.908389
O O13 0.747192 0.264478 0.138708
O O14 0.786911 0.000000 0.222093
#
# Coordination Sequence:
#
# PCOD8067048 Si02
#       5
#     4   4   4   4   4
#     4  10  22  39  60  90 126 164 210 260 311 372
#     4  11  25  42  62  93 131 166 207 263 324 381
#     4  10  22  41  65  92 124 168 219 264 311 381
#     4  11  22  38  62  92 126 161 203 255 316 374
#     4  11  22  39  64  90 121 163 210 255 308 373
#
# _framework density 21.187052000000001
#
# number of rings (size 3 to 8) (size 9 to 14) (size 15 to 20)
#    0.000    1.400    0.000    6.600    2.800    4.800 
#    0.000    0.000    0.000    0.000    0.000    0.000 
#    0.000    0.000    0.000    0.000    0.000    0.000 
#
# Total GULP energy -247884.217455 kJ/mol
# GULP energy per Si atom -12394.210873 kJ/mol
# Density = 2.113883 g / cm^3
# Si number density = 21.187052 Si / 1000 Ang^3
#
#
#
# Elastic Constant Matrix: (Units=GPa)
#
#
# Indices 1 2 3 4 5 6 
#
# 1 122.7016 53.7489 45.5294 0.0000 28.0626 0.0000
# 2 53.7489 49.0745 29.0600 0.0000 14.8258 0.0000
# 3 45.5294 29.0600 132.0391 0.0000 25.4210 0.0000
# 4 0.0000 0.0000 0.0000 21.0056 0.0000 5.5195
# 5 28.0626 14.8258 25.4210 0.0000 39.4803 0.0000
# 6 0.0000 0.0000 0.0000 5.5195 0.0000 31.4097
#
#
#
# Elastic Compliance Matrix: (Units=1/GPa)
#
#
# Indices 1 2 3 4 5 6 
#
# 1 0.016884 -0.016197 -0.001276 0.000000 -0.005097 0.000000
# 2 -0.016197 0.040404 -0.002971 0.000000 -0.001747 0.000000
# 3 -0.001276 -0.002971 0.009449 0.000000 -0.004062 0.000000
# 4 0.000000 0.000000 0.000000 0.049911 0.000000 -0.008771
# 5 -0.005097 -0.001747 -0.004062 0.000000 0.032224 0.000000
# 6 0.000000 0.000000 0.000000 -0.008771 0.000000 0.033379
#
#
# Mechanical properties :
#
#
# Convention : Reuss Voigt Hill
#
# Bulk Modulus (GPa) = 38.68500 62.27688 50.48094
# Shear Modulus (GPa) = 21.57459 30.07759 25.82609
#
# Velocity S-wave (km/s) = 3.19453 3.77187 3.49514
# Velocity P-wave (km/s) = 5.64846 6.95895 6.33767
#
# Compressibility (1/GPa) = 0.02584981
#
# Stress axis : x y z
#
# Youngs Moduli (GPa) = 59.22780 24.75015 105.82755
#
# Poissons Ratio (x) = 0.40087 0.13502
# Poissons Ratio (y) = 0.95930 0.31442
# Poissons Ratio (z) = 0.07556 0.07353
#
# Static dielectric constant tensor:
#      x y z
#    x 3.044130 0.000000 -0.525400 
#    y 0.000000 3.715070 0.000000 
#    z -0.525400 0.000000 3.527960 
# 
# 
# High freq. dielectric constant tensor:
#      x y z
#    x 1.827520 0.000000 0.016890 
#    y 0.000000 1.825580 0.000000 
#    z 0.016890 0.000000 1.844880 
# 
# From -- ./inp_files/44903.got.cif
#   From: 2010.06.25/outbox.cif.g09.slc.cpg/sg10_23_cif.got.tgz:44903.got - 2010.06.27 22:07:45.
