data_PCOD8067786
_publ_section_title
;
Structure prediction by ZEFSAII (Michael W. Deem and Ramdas Pophale) SiO2 
 PCOD8067786
Probable space group: P 2/M
;
_chemical_formula_sum "Si O2"
_cell_formula_units_Z 32
_cell_length_a 8.791485
_cell_length_b 22.910935
_cell_length_c 14.505232
_cell_angle_alpha 90.000000
_cell_angle_beta 149.235706
_cell_angle_gamma 90.000000
_cell_volume 1494.451120
_symmetry_space_group_name_H-M "P 2/M"
_symmetry_group_IT_number 10
_symmetry_cell_setting 'monoclinic'
loop_
_space_group_symop_operation_xyz
x,y,z
-x,y,-z
-x,-y,-z
x,-y,z
loop_
_atom_site_type_symbol
_atom_site_label
_atom_site_fract_x
_atom_site_fract_y
_atom_site_fract_z
Si Si1 0.272112 0.221076 0.801823
Si Si2 0.782110 0.346041 0.302076
Si Si3 0.313881 0.861115 0.312588
Si Si4 0.146191 0.435154 0.809371
Si Si5 0.124913 0.363736 0.964470
Si Si6 0.329270 0.882874 0.686406
Si Si7 0.284216 0.933875 0.968794
Si Si8 0.808730 0.259958 0.695843
O O1 0.335480 0.285954 0.800731
O O2 0.297354 0.177189 0.728913
O O3 0.946296 0.226051 0.678375
O O4 0.500000 0.202161 0.000000
O O5 0.956902 0.387724 0.320629
O O6 0.000000 0.334968 0.500000
O O7 0.471400 0.374913 0.166606
O O8 0.500000 0.876157 0.500000
O O9 0.501400 0.878071 0.321460
O O10 0.258952 0.792167 0.268571
O O11 0.000861 0.893864 0.161749
O O12 0.029691 0.500000 0.723522
O O13 0.013816 0.415942 0.839670
O O14 0.500000 0.433427 0.000000
O O15 0.031603 0.304062 0.863134
O O16 0.000000 0.368159 0.000000
O O17 0.000000 0.907620 0.500000
O O18 0.513419 0.931969 0.835301
O O19 0.180113 0.000000 0.894684
O O20 0.500000 0.909970 0.000000
O O21 0.500000 0.290134 0.500000
#
# Coordination Sequence:
#
# PCOD8067786 Si02
#       8
#     4   4   4   4   4   4   4   4
#     4  12  22  41  64  92 131 168 216 267 328 391
#     4  11  23  39  62  93 125 168 218 263 321 394
#     4  11  25  44  66  98 136 175 220 275 335 390
#     4   9  19  42  65  87 124 170 218 268 320 384
#     4  11  24  37  61  96 128 166 211 269 330 389
#     4  12  25  41  67  99 133 174 221 274 333 394
#     4  11  25  46  71  98 133 180 226 273 325 389
#     4  11  23  39  62  89 134 170 208 268 334 394
#
# _framework density 21.412541999999998
#
# number of rings (size 3 to 8) (size 9 to 14) (size 15 to 20)
#    0.000    1.000    2.500    5.250    3.500    2.000 
#    0.000    0.000    0.000    2.625    0.000    0.000 
#    0.000    0.000    0.000    0.000    0.000    0.000 
#
# Total GULP energy -396536.733251 kJ/mol
# GULP energy per Si atom -12391.772914 kJ/mol
# Density = 2.136381 g / cm^3
# Si number density = 21.412542 Si / 1000 Ang^3
#
#
#
# Elastic Constant Matrix: (Units=GPa)
#
#
# Indices 1 2 3 4 5 6 
#
# 1 161.8639 21.1756 43.1651 0.0000 -6.4447 0.0000
# 2 21.1756 74.7612 22.9399 0.0000 -5.3131 0.0000
# 3 43.1651 22.9399 128.6910 0.0000 -0.1011 0.0000
# 4 0.0000 0.0000 0.0000 14.0587 0.0000 -5.2114
# 5 -6.4447 -5.3131 -0.1011 0.0000 32.0857 0.0000
# 6 0.0000 0.0000 0.0000 -5.2114 0.0000 23.7582
#
#
#
# Elastic Compliance Matrix: (Units=1/GPa)
#
#
# Indices 1 2 3 4 5 6 
#
# 1 0.006950 -0.001237 -0.002110 0.000000 0.001184 0.000000
# 2 -0.001237 0.014547 -0.002177 0.000000 0.002154 0.000000
# 3 -0.002110 -0.002177 0.008866 0.000000 -0.000756 0.000000
# 4 0.000000 0.000000 0.000000 0.077426 0.000000 0.016983
# 5 0.001184 0.002154 -0.000756 0.000000 0.031759 0.000000
# 6 0.000000 0.000000 0.000000 0.016983 0.000000 0.045816
#
#
# Mechanical properties :
#
#
# Convention : Reuss Voigt Hill
#
# Bulk Modulus (GPa) = 51.77012 59.98640 55.87826
# Shear Modulus (GPa) = 24.64902 32.51621 28.58262
#
# Velocity S-wave (km/s) = 3.39654 3.90110 3.65753
# Velocity P-wave (km/s) = 6.29380 6.95463 6.63245
#
# Compressibility (1/GPa) = 0.01931616
#
# Stress axis : x y z
#
# Youngs Moduli (GPa) = 143.89356 68.74187 112.79647
#
# Poissons Ratio (x) = 0.08503 0.23795
# Poissons Ratio (y) = 0.17799 0.24551
# Poissons Ratio (z) = 0.30356 0.14962
#
# Static dielectric constant tensor:
#      x y z
#    x 4.038370 0.000000 0.039360 
#    y 0.000000 3.848270 0.000000 
#    z 0.039360 0.000000 3.862910 
# 
# 
# High freq. dielectric constant tensor:
#      x y z
#    x 1.851010 0.000000 0.000590 
#    y 0.000000 1.829740 0.000000 
#    z 0.000590 0.000000 1.839390 
# 
# From -- ./inp_files/62708.got.cif
#   From: 2010.06.25/outbox.cif.g09.slc.cpg/sg10_32_cif.got.tgz:62708.got - 2010.06.27 22:07:45.
