data_PCOD8067443
_publ_section_title
;
Structure prediction by ZEFSAII (Michael W. Deem and Ramdas Pophale) SiO2 
 PCOD8067443
Probable space group: P 2/M
;
_chemical_formula_sum "Si O2"
_cell_formula_units_Z 28
_cell_length_a 11.349086
_cell_length_b 13.826057
_cell_length_c 15.029377
_cell_angle_alpha 90.000000
_cell_angle_beta 41.409289
_cell_angle_gamma 90.000000
_cell_volume 1559.862703
_symmetry_space_group_name_H-M "P 2/M"
_symmetry_group_IT_number 10
_symmetry_cell_setting 'monoclinic'
loop_
_space_group_symop_operation_xyz
x,y,z
-x,y,-z
-x,-y,-z
x,-y,z
loop_
_atom_site_type_symbol
_atom_site_label
_atom_site_fract_x
_atom_site_fract_y
_atom_site_fract_z
Si Si1 0.396035 0.801968 0.465492
Si Si2 0.050391 0.604544 0.870852
Si Si3 0.096467 0.800699 0.039384
Si Si4 0.540180 0.110013 0.211091
Si Si5 0.342320 0.112197 0.149921
Si Si6 0.023841 0.888135 0.719915
Si Si7 0.459562 0.395612 0.624426
O O1 0.500000 0.813274 0.500000
O O2 0.476839 0.875303 0.347773
O O3 0.417498 0.693365 0.412051
O O4 0.189312 0.823243 0.596153
O O5 0.020346 0.500000 0.838046
O O6 0.255499 0.636933 0.750065
O O7 0.931439 0.693321 0.901094
O O8 0.000000 0.587909 0.000000
O O9 0.011846 0.878512 0.154387
O O10 0.304051 0.817942 0.906248
O O11 0.000000 0.809828 0.000000
O O12 0.377906 0.129253 0.234398
O O13 0.608760 0.000000 0.162800
O O14 0.148449 0.154614 0.234740
O O15 0.332102 0.000000 0.130326
O O16 0.500000 0.159037 0.000000
O O17 0.064663 0.000000 0.674683
O O18 0.500000 0.413107 0.500000
O O19 0.494925 0.500000 0.653747
#
# Coordination Sequence:
#
# PCOD8067443 Si02
#       7
#     4   4   4   4   4   4   4
#     4  11  22  35  50  80 117 139 164 210 266 326
#     4   9  17  30  48  71 100 132 170 216 256 297
#     4  11  20  31  50  78 105 135 174 209 258 325
#     4  11  22  35  53  74 104 145 180 214 255 305
#     4   9  18  37  57  73  94 131 192 238 247 275
#     4  11  22  35  53  74 104 143 176 215 260 299
#     4   9  17  32  52  71 100 140 174 208 250 303
#
# _framework density 17.950296999999999
#
# number of rings (size 3 to 8) (size 9 to 14) (size 15 to 20)
#    0.000    1.857    1.429    5.143    0.000    4.000 
#    0.000    2.143    0.000    0.000    0.000    6.000 
#    0.000    0.000    0.000    0.000    0.000    0.000 
#
# Total GULP energy -346977.998993 kJ/mol
# GULP energy per Si atom -12392.071393 kJ/mol
# Density = 1.790944 g / cm^3
# Si number density = 17.950297 Si / 1000 Ang^3
#
#
#
# Elastic Constant Matrix: (Units=GPa)
#
#
# Indices 1 2 3 4 5 6 
#
# 1 84.9408 57.2501 46.4200 0.0000 -17.0420 0.0000
# 2 57.2501 85.5555 33.5987 0.0000 -14.4071 0.0000
# 3 46.4200 33.5987 124.3197 0.0000 -21.2246 0.0000
# 4 0.0000 0.0000 0.0000 28.6077 0.0000 -7.0724
# 5 -17.0420 -14.4071 -21.2246 0.0000 34.0973 0.0000
# 6 0.0000 0.0000 0.0000 -7.0724 0.0000 4.5164
#
#
#
# Elastic Compliance Matrix: (Units=1/GPa)
#
#
# Indices 1 2 3 4 5 6 
#
# 1 0.024438 -0.013905 -0.004794 0.000000 0.003355 0.000000
# 2 -0.013905 0.021424 -0.000267 0.000000 0.001936 0.000000
# 3 -0.004794 -0.000267 0.010605 0.000000 0.004092 0.000000
# 4 0.000000 0.000000 0.000000 0.057037 0.000000 0.089318
# 5 0.003355 0.001936 0.004092 0.000000 0.034370 0.000000
# 6 0.000000 0.000000 0.000000 0.089318 0.000000 0.361286
#
#
# Mechanical properties :
#
#
# Convention : Reuss Voigt Hill
#
# Bulk Modulus (GPa) = 53.95743 63.26150 58.60947
# Shear Modulus (GPa) = 9.03716 23.94741 16.49229
#
# Velocity S-wave (km/s) = 2.24621 3.65649 3.03442
# Velocity P-wave (km/s) = 6.07058 7.29011 6.70811
#
# Compressibility (1/GPa) = 0.01853313
#
# Stress axis : x y z
#
# Youngs Moduli (GPa) = 40.91949 46.67604 94.29690
#
# Poissons Ratio (x) = 0.64905 0.45208
# Poissons Ratio (y) = 0.56900 0.02522
# Poissons Ratio (z) = 0.19618 0.01248
#
# Static dielectric constant tensor:
#      x y z
#    x 3.147670 0.000000 -0.038160 
#    y 0.000000 3.833880 0.000000 
#    z -0.038160 0.000000 3.452310 
# 
# 
# High freq. dielectric constant tensor:
#      x y z
#    x 1.651250 0.000000 -0.008400 
#    y 0.000000 1.690550 0.000000 
#    z -0.008400 0.000000 1.714390 
# 
# From -- ./inp_files/64905.got.cif
#   From: 2010.06.25/outbox.cif.g09.slc.cpg/sg10_33_cif.got.tgz:64905.got - 2010.06.27 22:07:45.
