data_PCOD8067497
_publ_section_title
;
Structure prediction by ZEFSAII (Michael W. Deem and Ramdas Pophale) SiO2 
 PCOD8067497
Probable space group: P 2/M
;
_chemical_formula_sum "Si O2"
_cell_formula_units_Z 18
_cell_length_a 24.901468
_cell_length_b 7.624699
_cell_length_c 5.162625
_cell_angle_alpha 90.000000
_cell_angle_beta 59.171415
_cell_angle_gamma 90.000000
_cell_volume 841.708838
_symmetry_space_group_name_H-M "P 2/M"
_symmetry_group_IT_number 10
_symmetry_cell_setting 'monoclinic'
loop_
_space_group_symop_operation_xyz
x,y,z
-x,y,-z
-x,-y,-z
x,-y,z
loop_
_atom_site_type_symbol
_atom_site_label
_atom_site_fract_x
_atom_site_fract_y
_atom_site_fract_z
Si Si1 0.142610 0.291200 0.651284
Si Si2 0.542619 0.500000 0.644626
Si Si3 0.283938 0.705668 0.279645
Si Si4 0.070534 0.709175 0.330097
Si Si5 0.642344 0.802702 0.406090
O O1 0.142625 0.500000 0.645761
O O2 0.213490 0.221546 0.473249
O O3 0.105646 0.217026 0.495253
O O4 0.107660 0.218452 0.990365
O O5 0.500000 0.500000 0.500000
O O6 0.583563 0.674890 0.542073
O O7 0.500000 0.500000 0.000000
O O8 0.287089 0.500000 0.327257
O O9 0.325684 0.799364 0.391976
O O10 0.307916 0.746998 0.933573
O O11 0.069811 0.500000 0.331472
O O12 0.000000 0.782455 0.500000
O O13 0.618367 0.000000 0.413856
#
# Coordination Sequence:
#
# PCOD8067497 Si02
#       5
#     4   2   4   4   4
#     4   9  17  26  45  73 104 155 205 249 312 376
#     4  12  26  46  72  98 134 172 209 250 307 366
#     4  11  20  39  63  89 128 168 213 265 323 379
#     4   9  15  24  37  64 109 154 199 255 314 369
#     4  12  25  43  68  99 131 168 213 261 312 369
#
# _framework density 21.385065999999998
#
# number of rings (size 3 to 8) (size 9 to 14) (size 15 to 20)
#    0.000    1.556    2.222    4.000    0.000    7.111 
#    0.000    0.000    0.000    0.000    0.000    0.000 
#    0.000   62.222    0.000    0.000    0.000    0.000 
#
# Total GULP energy -223261.325876 kJ/mol
# GULP energy per Si atom -12403.406993 kJ/mol
# Density = 2.133639 g / cm^3
# Si number density = 21.385066 Si / 1000 Ang^3
#
#
#
# Elastic Constant Matrix: (Units=GPa)
#
#
# Indices 1 2 3 4 5 6 
#
# 1 171.2807 36.2306 64.8093 0.0000 -1.4531 0.0000
# 2 36.2306 78.4372 32.1338 0.0000 -18.3828 0.0000
# 3 64.8093 32.1338 175.5060 0.0000 -5.9570 0.0000
# 4 0.0000 0.0000 0.0000 5.8618 0.0000 10.2387
# 5 -1.4531 -18.3828 -5.9570 0.0000 48.5418 0.0000
# 6 0.0000 0.0000 0.0000 10.2387 0.0000 -0.3784
#
#
#
# Elastic Compliance Matrix: (Units=1/GPa)
#
#
# Indices 1 2 3 4 5 6 
#
# 1 0.007236 -0.002686 -0.002217 0.000000 -0.001072 0.000000
# 2 -0.002686 0.016064 -0.001753 0.000000 0.005788 0.000000
# 3 -0.002217 -0.001753 0.006841 0.000000 0.000109 0.000000
# 4 0.000000 0.000000 0.000000 0.003535 0.000000 0.095644
# 5 -0.001072 0.005788 0.000109 0.000000 0.022774 0.000000
# 6 0.000000 0.000000 0.000000 0.095644 0.000000 -0.054757
#
#
# Mechanical properties :
#
#
# Convention : Reuss Voigt Hill
#
# Bulk Modulus (GPa) = 59.41573 76.84126 68.12850
# Shear Modulus (GPa) = 242.54975 30.27503 136.41239
#
# Velocity S-wave (km/s) = 10.66144 3.76667 7.99544
# Velocity P-wave (km/s) = 13.39400 7.41130 10.82420
#
# Compressibility (1/GPa) = 0.01683056
#
# Stress axis : x y z
#
# Youngs Moduli (GPa) = 138.19528 62.25009 146.17556
#
# Poissons Ratio (x) = 0.16718 0.32404
# Poissons Ratio (y) = 0.37114 0.25626
# Poissons Ratio (z) = 0.30635 0.10913
#
# Static dielectric constant tensor:
#      x y z
#    x 3.983650 0.000000 0.015790 
#    y 0.000000 3.607760 0.000000 
#    z 0.015790 0.000000 4.061120 
# 
# 
# High freq. dielectric constant tensor:
#      x y z
#    x 1.847680 0.000000 0.005480 
#    y 0.000000 1.815640 0.000000 
#    z 0.005480 0.000000 1.854970 
# 
# From -- ./inp_files/11960.got.cif
#   From: 2010.06.25/outbox.cif.g09.slc.cpg/sg10_6_cif.got.tgz:11960.got - 2010.06.27 22:07:45.
