data_PCOD8067242
_publ_section_title
;
Structure prediction by ZEFSAII (Michael W. Deem and Ramdas Pophale) SiO2 
 PCOD8067242
Probable space group: P 2/M
;
_chemical_formula_sum "Si O2"
_cell_formula_units_Z 26
_cell_length_a 8.867110
_cell_length_b 24.531327
_cell_length_c 10.813843
_cell_angle_alpha 90.000000
_cell_angle_beta 31.905241
_cell_angle_gamma 90.000000
_cell_volume 1243.200938
_symmetry_space_group_name_H-M "P 2/M"
_symmetry_group_IT_number 10
_symmetry_cell_setting 'monoclinic'
loop_
_space_group_symop_operation_xyz
x,y,z
-x,y,-z
-x,-y,-z
x,-y,z
loop_
_atom_site_type_symbol
_atom_site_label
_atom_site_fract_x
_atom_site_fract_y
_atom_site_fract_z
Si Si1 0.077865 0.651242 0.683156
Si Si2 0.782966 0.141018 0.367128
Si Si3 0.000000 0.616526 0.000000
Si Si4 0.500000 0.387278 0.000000
Si Si5 0.835703 0.936152 0.743786
Si Si6 0.575216 0.246387 0.590796
Si Si7 0.563794 0.437160 0.699183
Si Si8 0.000000 0.787354 0.000000
O O1 0.226727 0.702671 0.511964
O O2 0.214004 0.595634 0.539059
O O3 0.118114 0.653752 0.804461
O O4 0.747654 0.652802 0.875466
O O5 0.500000 0.115320 0.500000
O O6 0.712257 0.186618 0.523928
O O7 0.979654 0.093076 0.279950
O O8 0.951512 0.173567 0.147383
O O9 0.756866 0.577682 0.115250
O O10 0.612007 0.425111 0.810594
O O11 0.000000 0.921580 0.500000
O O12 0.857428 0.000000 0.752501
O O13 0.500000 0.918551 0.000000
O O14 0.500000 0.245851 0.500000
O O15 0.260419 0.250764 0.870005
O O16 0.623831 0.500000 0.630600
#
# Coordination Sequence:
#
# PCOD8067242 Si02
#       8
#     4   4   2   2   4   4   4   2
#     4  11  23  40  61  85 117 154 195 243 299 363
#     4   9  20  37  63  91 124 167 214 261 312 378
#     4  10  23  39  61  88 115 146 189 247 302 368
#     4  10  25  42  56  80 118 156 191 238 298 362
#     4  10  23  42  64  93 135 180 222 269 327 385
#     4   9  19  36  60  90 118 155 197 252 308 365
#     4  11  23  40  61  85 113 149 193 242 298 364
#     4   8  18  35  62  94 120 152 202 261 310 362
#
# _framework density 20.913754000000001
#
# number of rings (size 3 to 8) (size 9 to 14) (size 15 to 20)
#    0.000    2.462    0.000    2.308    4.308   13.231 
#    1.385    1.923    0.000    0.000    0.000    0.000 
#    0.000    0.000    0.000    0.000    0.000    0.000 
#
# Total GULP energy -322126.651613 kJ/mol
# GULP energy per Si atom -12389.486600 kJ/mol
# Density = 2.086615 g / cm^3
# Si number density = 20.913754 Si / 1000 Ang^3
#
#
#
# Elastic Constant Matrix: (Units=GPa)
#
#
# Indices 1 2 3 4 5 6 
#
# 1 95.0487 42.9887 46.2108 0.0000 -6.9564 0.0000
# 2 42.9887 86.1448 46.4931 0.0000 -20.1688 0.0000
# 3 46.2108 46.4931 141.3640 0.0000 -3.7707 0.0000
# 4 0.0000 0.0000 0.0000 41.4579 0.0000 4.6556
# 5 -6.9564 -20.1688 -3.7707 0.0000 29.9879 0.0000
# 6 0.0000 0.0000 0.0000 4.6556 0.0000 19.7550
#
#
#
# Elastic Compliance Matrix: (Units=1/GPa)
#
#
# Indices 1 2 3 4 5 6 
#
# 1 0.014508 -0.005956 -0.002810 0.000000 -0.000994 0.000000
# 2 -0.005956 0.019433 -0.004146 0.000000 0.011167 0.000000
# 3 -0.002810 -0.004146 0.009296 0.000000 -0.002272 0.000000
# 4 0.000000 0.000000 0.000000 0.024777 0.000000 -0.005839
# 5 -0.000994 0.011167 -0.002272 0.000000 0.040341 0.000000
# 6 0.000000 0.000000 0.000000 -0.005839 0.000000 0.051996
#
#
# Mechanical properties :
#
#
# Convention : Reuss Voigt Hill
#
# Bulk Modulus (GPa) = 57.43324 65.99362 61.71343
# Shear Modulus (GPa) = 26.04437 30.69781 28.37109
#
# Velocity S-wave (km/s) = 3.53274 3.83538 3.68717
# Velocity P-wave (km/s) = 6.64544 7.15801 6.90649
#
# Compressibility (1/GPa) = 0.01741152
#
# Stress axis : x y z
#
# Youngs Moduli (GPa) = 68.92615 51.45913 107.57630
#
# Poissons Ratio (x) = 0.30649 0.30232
# Poissons Ratio (y) = 0.41052 0.44606
# Poissons Ratio (z) = 0.19370 0.21337
#
# Static dielectric constant tensor:
#      x y z
#    x 3.566790 0.000000 0.008010 
#    y 0.000000 3.852710 0.000000 
#    z 0.008010 0.000000 4.777620 
# 
# 
# High freq. dielectric constant tensor:
#      x y z
#    x 1.795870 0.000000 -0.006860 
#    y 0.000000 1.807420 0.000000 
#    z -0.006860 0.000000 1.845710 
# 
# From -- ./inp_files/43736.got.cif
#   From: 2010.06.25/outbox.cif.g09.slc.cpg/sg10_22_cif.got.tgz:43736.got - 2010.06.27 22:07:45.
