data_PCOD8067666
_publ_section_title
;
Structure prediction by ZEFSAII (Michael W. Deem and Ramdas Pophale) SiO2 
 PCOD8067666
Probable space group: P 2/M
;
_chemical_formula_sum "Si O2"
_cell_formula_units_Z 28
_cell_length_a 12.535355
_cell_length_b 9.051345
_cell_length_c 16.247973
_cell_angle_alpha 90.000000
_cell_angle_beta 55.779068
_cell_angle_gamma 90.000000
_cell_volume 1524.364748
_symmetry_space_group_name_H-M "P 2/M"
_symmetry_group_IT_number 10
_symmetry_cell_setting 'monoclinic'
loop_
_space_group_symop_operation_xyz
x,y,z
-x,y,-z
-x,-y,-z
x,-y,z
loop_
_atom_site_type_symbol
_atom_site_label
_atom_site_fract_x
_atom_site_fract_y
_atom_site_fract_z
Si Si1 0.030072 0.170495 0.293108
Si Si2 0.998656 0.325761 0.867605
Si Si3 0.795013 0.673192 0.091224
Si Si4 0.423465 0.170248 0.453200
Si Si5 0.252847 0.169897 0.311860
Si Si6 0.825386 0.675134 0.493074
Si Si7 0.466771 0.831525 0.770132
O O1 0.180049 0.186438 0.256191
O O2 0.009359 0.237703 0.212975
O O3 0.949191 0.256887 0.395914
O O4 0.987561 0.000000 0.309753
O O5 0.999755 0.500000 0.848945
O O6 0.128659 0.276839 0.859466
O O7 0.875927 0.280116 0.975847
O O8 0.779812 0.500000 0.100144
O O9 0.653459 0.739618 0.145538
O O10 0.500000 0.221099 0.500000
O O11 0.299942 0.274691 0.502910
O O12 0.514790 0.194759 0.335012
O O13 0.378505 0.000000 0.478708
O O14 0.180391 0.268264 0.410986
O O15 0.402681 0.219197 0.238583
O O16 0.250525 0.000000 0.344571
O O17 0.836609 0.500000 0.487859
O O18 0.434685 0.000000 0.803963
#
# Coordination Sequence:
#
# PCOD8067666 Si02
#       7
#     4   4   4   4   4   4   4
#     4  11  22  36  57  80 106 142 185 226 269 319
#     4   9  20  38  56  79 109 140 175 220 271 322
#     4   9  19  37  58  78 108 143 173 214 273 330
#     4   9  19  35  52  75 110 146 181 221 262 312
#     4   9  20  39  56  76 108 146 183 222 267 318
#     4  11  22  34  52  80 111 144 181 221 267 319
#     4   9  18  33  55  79 104 138 179 221 265 313
#
# _framework density 18.368307000000001
#
# number of rings (size 3 to 8) (size 9 to 14) (size 15 to 20)
#    0.000    2.429    0.000    3.857    2.000    6.571 
#    0.000    2.143    0.000    4.286    0.000    0.000 
#    0.000    0.000    0.000    0.000    0.000    0.000 
#
# Total GULP energy -347175.790598 kJ/mol
# GULP energy per Si atom -12399.135378 kJ/mol
# Density = 1.832650 g / cm^3
# Si number density = 18.368307 Si / 1000 Ang^3
#
#
#
# Elastic Constant Matrix: (Units=GPa)
#
#
# Indices 1 2 3 4 5 6 
#
# 1 103.8575 41.7825 51.9123 0.0000 -7.0827 0.0000
# 2 41.7825 75.8544 33.0598 0.0000 -6.3673 0.0000
# 3 51.9123 33.0598 59.8396 0.0000 -17.4913 0.0000
# 4 0.0000 0.0000 0.0000 94.9288 0.0000 81.3286
# 5 -7.0827 -6.3673 -17.4913 0.0000 28.2150 0.0000
# 6 0.0000 0.0000 0.0000 81.3286 0.0000 146.9051
#
#
#
# Elastic Compliance Matrix: (Units=1/GPa)
#
#
# Indices 1 2 3 4 5 6 
#
# 1 0.018695 -0.003911 -0.015809 0.000000 -0.005990 0.000000
# 2 -0.003911 0.018325 -0.007096 0.000000 -0.001245 0.000000
# 3 -0.015809 -0.007096 0.039959 0.000000 0.019202 0.000000
# 4 0.000000 0.000000 0.000000 0.020038 0.000000 -0.011093
# 5 -0.005990 -0.001245 0.019202 0.000000 0.045561 0.000000
# 6 0.000000 0.000000 0.000000 -0.011093 0.000000 0.012949
#
#
# Mechanical properties :
#
#
# Convention : Reuss Voigt Hill
#
# Bulk Modulus (GPa) = 42.82814 54.78452 48.80633
# Shear Modulus (GPa) = 23.04768 61.52959 42.28863
#
# Velocity S-wave (km/s) = 3.54609 5.79400 4.80339
# Velocity P-wave (km/s) = 6.33508 8.64007 7.57576
#
# Compressibility (1/GPa) = 0.02334913
#
# Stress axis : x y z
#
# Youngs Moduli (GPa) = 53.48916 54.56979 25.02559
#
# Poissons Ratio (x) = 0.21340 0.39563
# Poissons Ratio (y) = 0.20917 0.17757
# Poissons Ratio (z) = 0.84562 0.38720
#
# Static dielectric constant tensor:
#      x y z
#    x 3.678690 0.000000 -0.121800 
#    y 0.000000 3.284230 0.000000 
#    z -0.121800 0.000000 3.280740 
# 
# 
# High freq. dielectric constant tensor:
#      x y z
#    x 1.724910 0.000000 -0.002340 
#    y 0.000000 1.707890 0.000000 
#    z -0.002340 0.000000 1.694630 
# 
# From -- ./inp_files/63612.got.cif
#   From: 2010.06.25/outbox.cif.g09.slc.cpg/sg10_32_cif.got.tgz:63612.got - 2010.06.27 22:07:45.
