data_PCOD8067449
_publ_section_title
;
Structure prediction by ZEFSAII (Michael W. Deem and Ramdas Pophale) SiO2 
 PCOD8067449
Probable space group: P 2/M
;
_chemical_formula_sum "Si O2"
_cell_formula_units_Z 24
_cell_length_a 5.018886
_cell_length_b 20.364186
_cell_length_c 13.383852
_cell_angle_alpha 90.000000
_cell_angle_beta 121.427688
_cell_angle_gamma 90.000000
_cell_volume 1167.230718
_symmetry_space_group_name_H-M "P 2/M"
_symmetry_group_IT_number 10
_symmetry_cell_setting 'monoclinic'
loop_
_space_group_symop_operation_xyz
x,y,z
-x,y,-z
-x,-y,-z
x,-y,z
loop_
_atom_site_type_symbol
_atom_site_label
_atom_site_fract_x
_atom_site_fract_y
_atom_site_fract_z
Si Si1 0.054058 0.364019 0.262847
Si Si2 0.212351 0.075554 0.638418
Si Si3 0.732165 0.424747 0.369112
Si Si4 0.861984 0.743127 0.081472
Si Si5 0.830553 0.259656 0.568420
Si Si6 0.835271 0.851400 0.716404
O O1 0.414881 0.383745 0.321135
O O2 0.960521 0.306840 0.323744
O O3 0.853268 0.422172 0.276400
O O4 0.933470 0.331040 0.136974
O O5 0.519040 0.120529 0.700226
O O6 0.000000 0.090848 0.500000
O O7 0.046175 0.089764 0.712724
O O8 0.314924 0.000000 0.656764
O O9 0.656311 0.500000 0.380189
O O10 0.000000 0.398267 0.500000
O O11 0.000540 0.803793 0.171509
O O12 0.500000 0.754558 0.000000
O O13 0.000000 0.746416 0.000000
O O14 0.500000 0.297592 0.500000
O O15 0.754545 0.190584 0.603541
O O16 0.000000 0.243985 0.500000
#
# Coordination Sequence:
#
# PCOD8067449 Si02
#       6
#     4   4   4   4   4   4
#     4  11  22  37  59  86 115 154 198 240 292 350
#     4  11  22  37  59  89 127 163 190 223 278 356
#     4  11  22  37  59  89 127 163 190 223 278 356
#     4  11  24  43  65  86 111 150 200 260 312 340
#     4  11  20  31  52  82 116 144 178 234 289 346
#     4  11  22  37  59  86 115 154 198 240 292 350
#
# _framework density 20.561485000000001
#
# number of rings (size 3 to 8) (size 9 to 14) (size 15 to 20)
#    0.000    1.000    0.000    9.000    0.000    8.000 
#    0.000    2.500    0.000   20.000    0.000    0.000 
#    0.000    0.000    0.000    0.000    0.000    0.000 
#
# Total GULP energy -297365.403025 kJ/mol
# GULP energy per Si atom -12390.225126 kJ/mol
# Density = 2.051469 g / cm^3
# Si number density = 20.561485 Si / 1000 Ang^3
#
#
#
# Elastic Constant Matrix: (Units=GPa)
#
#
# Indices 1 2 3 4 5 6 
#
# 1 148.7335 29.8581 61.0866 0.0000 -4.3011 0.0000
# 2 29.8581 78.5334 43.2994 0.0000 6.1139 0.0000
# 3 61.0866 43.2994 111.5589 0.0000 -5.6279 0.0000
# 4 0.0000 0.0000 0.0000 32.4925 0.0000 -0.3699
# 5 -4.3011 6.1139 -5.6279 0.0000 38.2577 0.0000
# 6 0.0000 0.0000 0.0000 -0.3699 0.0000 37.1417
#
#
#
# Elastic Compliance Matrix: (Units=1/GPa)
#
#
# Indices 1 2 3 4 5 6 
#
# 1 0.008729 -0.000935 -0.004393 0.000000 0.000485 0.000000
# 2 -0.000935 0.016791 -0.006192 0.000000 -0.003699 0.000000
# 3 -0.004393 -0.006192 0.013901 0.000000 0.002540 0.000000
# 4 0.000000 0.000000 0.000000 0.030780 0.000000 0.000307
# 5 0.000485 -0.003699 0.002540 0.000000 0.027158 0.000000
# 6 0.000000 0.000000 0.000000 0.000307 0.000000 0.026927
#
#
# Mechanical properties :
#
#
# Convention : Reuss Voigt Hill
#
# Bulk Modulus (GPa) = 61.04185 67.47933 64.26059
# Shear Modulus (GPa) = 32.72596 35.21716 33.97156
#
# Velocity S-wave (km/s) = 3.99383 4.14306 4.06913
# Velocity P-wave (km/s) = 7.14279 7.46834 7.30738
#
# Compressibility (1/GPa) = 0.01638220
#
# Stress axis : x y z
#
# Youngs Moduli (GPa) = 114.55820 59.55711 71.93955
#
# Poissons Ratio (x) = 0.05566 0.31601
# Poissons Ratio (y) = 0.10707 0.44543
# Poissons Ratio (z) = 0.50322 0.36876
#
# Static dielectric constant tensor:
#      x y z
#    x 3.748150 0.000000 -0.095170 
#    y 0.000000 3.859070 0.000000 
#    z -0.095170 0.000000 3.706870 
# 
# 
# High freq. dielectric constant tensor:
#      x y z
#    x 1.825560 0.000000 -0.011830 
#    y 0.000000 1.812180 0.000000 
#    z -0.011830 0.000000 1.774900 
# 
# From -- ./inp_files/39647.got.cif
#   From: 2010.06.25/outbox.cif.g09.slc.cpg/sg10_20_cif.got.tgz:39647.got - 2010.06.27 22:07:45.
