data_PCOD8067642
_publ_section_title
;
Structure prediction by ZEFSAII (Michael W. Deem and Ramdas Pophale) SiO2 
 PCOD8067642
Probable space group: P 2/M
;
_chemical_formula_sum "Si O2"
_cell_formula_units_Z 20
_cell_length_a 11.526613
_cell_length_b 11.321504
_cell_length_c 8.886586
_cell_angle_alpha 90.000000
_cell_angle_beta 54.092109
_cell_angle_gamma 90.000000
_cell_volume 939.301089
_symmetry_space_group_name_H-M "P 2/M"
_symmetry_group_IT_number 10
_symmetry_cell_setting 'monoclinic'
loop_
_space_group_symop_operation_xyz
x,y,z
-x,y,-z
-x,-y,-z
x,-y,z
loop_
_atom_site_type_symbol
_atom_site_label
_atom_site_fract_x
_atom_site_fract_y
_atom_site_fract_z
Si Si1 0.705087 0.246461 0.555788
Si Si2 0.554151 0.631534 0.128417
Si Si3 0.048221 0.360521 0.792614
Si Si4 0.645846 0.000000 0.985191
Si Si5 0.802336 0.757612 0.814685
Si Si6 0.424835 0.000000 0.401312
O O1 0.543402 0.295462 0.683147
O O2 0.789374 0.314122 0.357722
O O3 0.783405 0.275958 0.654340
O O4 0.684665 0.107721 0.543468
O O5 0.555197 0.500000 0.188641
O O6 0.500000 0.644765 0.000000
O O7 0.714875 0.678720 0.001503
O O8 0.034237 0.500000 0.762106
O O9 0.962975 0.273604 0.742659
O O10 0.000000 0.337421 0.000000
O O11 0.750998 0.891388 0.874341
O O12 0.500000 0.000000 0.000000
O O13 0.576491 0.000000 0.199882
O O14 0.500000 0.000000 0.500000
#
# Coordination Sequence:
#
# PCOD8067642 Si02
#       6
#     4   4   4   2   4   2
#     4  11  22  41  66  95 127 170 219 266 318 382
#     4   9  17  31  59  95 121 153 209 268 318 368
#     4  11  27  46  62  91 137 177 215 266 326 388
#     4  12  20  43  68 101 133 163 211 275 324 381
#     4  11  21  39  68  94 127 169 215 270 320 378
#     4  12  26  41  66 101 137 169 209 267 330 391
#
# _framework density 21.292425999999999
#
# number of rings (size 3 to 8) (size 9 to 14) (size 15 to 20)
#    0.000    1.200    4.000    2.400    2.800    4.000 
#    0.000    3.000    0.000    4.800    0.000    0.000 
#    0.000    0.000    0.000    0.000    0.000    0.000 
#
# Total GULP energy -247842.708359 kJ/mol
# GULP energy per Si atom -12392.135418 kJ/mol
# Density = 2.124396 g / cm^3
# Si number density = 21.292426 Si / 1000 Ang^3
#
#
#
# Elastic Constant Matrix: (Units=GPa)
#
#
# Indices 1 2 3 4 5 6 
#
# 1 55.1063 16.8494 16.8234 0.0000 0.7403 0.0000
# 2 16.8494 141.5210 44.3550 0.0000 -7.0823 0.0000
# 3 16.8234 44.3550 137.7676 0.0000 -4.9447 0.0000
# 4 0.0000 0.0000 0.0000 25.1225 0.0000 -4.9670
# 5 0.7403 -7.0823 -4.9447 0.0000 27.7749 0.0000
# 6 0.0000 0.0000 0.0000 -4.9670 0.0000 22.4454
#
#
#
# Elastic Compliance Matrix: (Units=1/GPa)
#
#
# Indices 1 2 3 4 5 6 
#
# 1 0.019267 -0.001787 -0.001824 0.000000 -0.001294 0.000000
# 2 -0.001787 0.008093 -0.002326 0.000000 0.001697 0.000000
# 3 -0.001824 -0.002326 0.008264 0.000000 0.000927 0.000000
# 4 0.000000 0.000000 0.000000 0.041626 0.000000 0.009211
# 5 -0.001294 0.001697 0.000927 0.000000 0.036636 0.000000
# 6 0.000000 0.000000 0.000000 0.009211 0.000000 0.046591
#
#
# Mechanical properties :
#
#
# Convention : Reuss Voigt Hill
#
# Bulk Modulus (GPa) = 42.10688 54.49449 48.30069
# Shear Modulus (GPa) = 27.73649 32.15972 29.94811
#
# Velocity S-wave (km/s) = 3.61313 3.89058 3.75442
# Velocity P-wave (km/s) = 6.10121 6.76987 6.44422
#
# Compressibility (1/GPa) = 0.02374909
#
# Stress axis : x y z
#
# Youngs Moduli (GPa) = 51.90123 123.56475 121.01280
#
# Poissons Ratio (x) = 0.22082 0.22072
# Poissons Ratio (y) = 0.09275 0.28153
# Poissons Ratio (z) = 0.09466 0.28746
#
# Static dielectric constant tensor:
#      x y z
#    x 3.534540 0.000000 -0.101930 
#    y 0.000000 3.870860 0.000000 
#    z -0.101930 0.000000 3.859000 
# 
# 
# High freq. dielectric constant tensor:
#      x y z
#    x 1.811410 0.000000 -0.009450 
#    y 0.000000 1.842840 0.000000 
#    z -0.009450 0.000000 1.848010 
# 
# From -- ./inp_files/23881.got.cif
#   From: 2010.06.25/outbox.cif.g09.slc.cpg/sg10_12_cif.got.tgz:23881.got - 2010.06.27 22:07:45.
