data_PCOD8067764
_publ_section_title
;
Structure prediction by ZEFSAII (Michael W. Deem and Ramdas Pophale) SiO2 
 PCOD8067764
Probable space group: P 2/M
;
_chemical_formula_sum "Si O2"
_cell_formula_units_Z 24
_cell_length_a 10.298969
_cell_length_b 12.475886
_cell_length_c 9.758847
_cell_angle_alpha 90.000000
_cell_angle_beta 96.209547
_cell_angle_gamma 90.000000
_cell_volume 1246.545480
_symmetry_space_group_name_H-M "P 2/M"
_symmetry_group_IT_number 10
_symmetry_cell_setting 'monoclinic'
loop_
_space_group_symop_operation_xyz
x,y,z
-x,y,-z
-x,-y,-z
x,-y,z
loop_
_atom_site_type_symbol
_atom_site_label
_atom_site_fract_x
_atom_site_fract_y
_atom_site_fract_z
Si Si1 0.875232 0.190864 0.078271
Si Si2 0.911863 0.000000 0.280939
Si Si3 0.073511 0.376041 0.717620
Si Si4 0.809589 0.000000 0.573199
Si Si5 0.383452 0.874377 0.091438
Si Si6 0.379950 0.191212 0.388642
Si Si7 0.800379 0.376063 0.553604
O O1 0.885043 0.308364 0.145618
O O2 0.863043 0.104592 0.197029
O O3 0.746121 0.186540 0.971869
O O4 0.000000 0.164607 0.000000
O O5 0.844963 0.000000 0.419384
O O6 0.067047 0.000000 0.312391
O O7 0.082856 0.500000 0.760098
O O8 0.169259 0.350848 0.601697
O O9 0.926101 0.345478 0.658793
O O10 0.733160 0.892931 0.596821
O O11 0.428558 0.820485 0.238494
O O12 0.353319 0.000000 0.108188
O O13 0.500000 0.854878 0.000000
O O14 0.500000 0.165423 0.500000
O O15 0.324270 0.309413 0.410759
O O16 0.764812 0.500000 0.568825
#
# Coordination Sequence:
#
# PCOD8067764 Si02
#       7
#     4   2   4   2   4   4   4
#     4  12  23  37  63  88 124 165 205 246 311 372
#     4  11  23  36  62  89 122 157 194 260 316 359
#     4   9  19  37  65  93 120 155 200 259 312 360
#     4  11  23  38  58  94 122 146 208 266 301 350
#     4  11  26  43  60  86 130 170 205 247 306 376
#     4  12  25  39  64  88 121 165 211 252 296 364
#     4   9  19  39  64  92 122 154 202 259 310 356
#
# _framework density 19.253208000000001
#
# number of rings (size 3 to 8) (size 9 to 14) (size 15 to 20)
#    0.000    1.333    1.667    5.500    4.667    3.333 
#    0.000    0.833    0.000    1.000    0.000    0.000 
#    0.000    0.000    0.000    0.000    0.000    0.000 
#
# Total GULP energy -297750.371758 kJ/mol
# GULP energy per Si atom -12406.265490 kJ/mol
# Density = 1.920939 g / cm^3
# Si number density = 19.253208 Si / 1000 Ang^3
#
#
#
# Elastic Constant Matrix: (Units=GPa)
#
#
# Indices 1 2 3 4 5 6 
#
# 1 69.7671 10.3644 44.4870 0.0000 -5.2224 0.0000
# 2 10.3644 68.3683 33.5502 0.0000 -8.3334 0.0000
# 3 44.4870 33.5502 112.7741 0.0000 12.9519 0.0000
# 4 0.0000 0.0000 0.0000 50.0667 0.0000 -21.4902
# 5 -5.2224 -8.3334 12.9519 0.0000 24.9893 0.0000
# 6 0.0000 0.0000 0.0000 -21.4902 0.0000 96.3583
#
#
#
# Elastic Compliance Matrix: (Units=1/GPa)
#
#
# Indices 1 2 3 4 5 6 
#
# 1 0.021563 0.003407 -0.010811 0.000000 0.011246 0.000000
# 2 0.003407 0.019744 -0.008566 0.000000 0.011736 0.000000
# 3 -0.010811 -0.008566 0.017298 0.000000 -0.014081 0.000000
# 4 0.000000 0.000000 0.000000 0.022088 0.000000 0.004926
# 5 0.011246 0.011736 -0.014081 0.000000 0.053579 0.000000
# 6 0.000000 0.000000 0.000000 0.004926 0.000000 0.011477
#
#
# Mechanical properties :
#
#
# Convention : Reuss Voigt Hill
#
# Bulk Modulus (GPa) = 37.50238 47.52363 42.51300
# Shear Modulus (GPa) = 26.79863 45.11671 35.95767
#
# Velocity S-wave (km/s) = 3.73487 4.84605 4.32628
# Velocity P-wave (km/s) = 6.17412 7.48661 6.86182
#
# Compressibility (1/GPa) = 0.02666498
#
# Stress axis : x y z
#
# Youngs Moduli (GPa) = 46.37582 50.64803 57.81112
#
# Poissons Ratio (x) = -0.17258 0.62502
# Poissons Ratio (y) = -0.15802 0.49520
# Poissons Ratio (z) = 0.50139 0.43384
#
# Static dielectric constant tensor:
#      x y z
#    x 3.441220 0.000000 -0.005900 
#    y 0.000000 3.506480 0.000000 
#    z -0.005900 0.000000 3.629800 
# 
# 
# High freq. dielectric constant tensor:
#      x y z
#    x 1.743820 0.000000 -0.002330 
#    y 0.000000 1.749870 0.000000 
#    z -0.002330 0.000000 1.759350 
# 
# From -- ./inp_files/24102.got.cif
#   From: 2010.06.25/outbox.cif.g09.slc.cpg/sg10_13_cif.got.tgz:24102.got - 2010.06.27 22:07:45.
