data_PCOD8067183
_publ_section_title
;
Structure prediction by ZEFSAII (Michael W. Deem and Ramdas Pophale) SiO2 
 PCOD8067183
Probable space group: P 2/M
;
_chemical_formula_sum "Si O2"
_cell_formula_units_Z 28
_cell_length_a 13.901956
_cell_length_b 8.690818
_cell_length_c 11.744681
_cell_angle_alpha 90.000000
_cell_angle_beta 73.372405
_cell_angle_gamma 90.000000
_cell_volume 1359.649911
_symmetry_space_group_name_H-M "P 2/M"
_symmetry_group_IT_number 10
_symmetry_cell_setting 'monoclinic'
loop_
_space_group_symop_operation_xyz
x,y,z
-x,y,-z
-x,-y,-z
x,-y,z
loop_
_atom_site_type_symbol
_atom_site_label
_atom_site_fract_x
_atom_site_fract_y
_atom_site_fract_z
Si Si1 0.799019 0.680673 0.338313
Si Si2 0.861090 0.322247 0.779603
Si Si3 0.882307 0.822197 0.539568
Si Si4 0.965554 0.819088 0.136429
Si Si5 0.645691 0.677549 0.941768
Si Si6 0.571017 0.324760 0.368655
Si Si7 0.508432 0.178056 0.164638
O O1 0.812657 0.500000 0.351548
O O2 0.836396 0.766619 0.437398
O O3 0.862715 0.734420 0.206660
O O4 0.683732 0.726957 0.359234
O O5 0.893930 0.500000 0.771258
O O6 0.835158 0.273322 0.659658
O O7 0.763314 0.292579 0.888668
O O8 0.949877 0.218766 0.799270
O O9 0.000000 0.791390 0.500000
O O10 0.855779 0.000000 0.565680
O O11 0.945529 0.000000 0.143196
O O12 0.000000 0.760784 0.000000
O O13 0.622973 0.500000 0.974170
O O14 0.586886 0.726342 0.847702
O O15 0.608363 0.777077 0.061070
O O16 0.500000 0.305329 0.500000
O O17 0.570744 0.500000 0.323903
O O18 0.525500 0.212926 0.290166
O O19 0.484963 0.000000 0.155069
#
# Coordination Sequence:
#
# PCOD8067183 Si02
#       7
#     4   4   4   4   4   4   4
#     4  11  24  42  67  94 122 165 216 261 308 370
#     4  11  24  40  65  95 122 161 211 257 304 367
#     4  11  23  40  63  91 126 163 199 249 314 369
#     4  11  25  43  63  92 131 170 206 254 318 376
#     4  10  22  41  65  92 124 163 206 256 312 367
#     4  10  24  45  66  90 124 167 212 259 313 372
#     4  11  23  40  64  94 125 161 207 257 313 371
#
# _framework density 20.593537000000001
#
# number of rings (size 3 to 8) (size 9 to 14) (size 15 to 20)
#    0.000    1.286    1.429    4.286    4.000    5.429 
#    0.000    0.000    0.000    0.000    0.000    0.000 
#    0.000    0.000    0.000    0.000    0.000    0.000 
#
# Total GULP energy -347373.241791 kJ/mol
# GULP energy per Si atom -12406.187207 kJ/mol
# Density = 2.054667 g / cm^3
# Si number density = 20.593537 Si / 1000 Ang^3
#
#
#
# Elastic Constant Matrix: (Units=GPa)
#
#
# Indices 1 2 3 4 5 6 
#
# 1 89.2569 18.9734 33.9024 0.0000 -13.6656 0.0000
# 2 18.9734 54.5778 13.2458 0.0000 -8.6206 0.0000
# 3 33.9024 13.2458 91.7171 0.0000 2.3370 0.0000
# 4 0.0000 0.0000 0.0000 35.9363 0.0000 4.2846
# 5 -13.6656 -8.6206 2.3370 0.0000 32.3723 0.0000
# 6 0.0000 0.0000 0.0000 4.2846 0.0000 8.9031
#
#
#
# Elastic Compliance Matrix: (Units=1/GPa)
#
#
# Indices 1 2 3 4 5 6 
#
# 1 0.014667 -0.002937 -0.005145 0.000000 0.005781 0.000000
# 2 -0.002937 0.020516 -0.001988 0.000000 0.004367 0.000000
# 3 -0.005145 -0.001988 0.013185 0.000000 -0.003653 0.000000
# 4 0.000000 0.000000 0.000000 0.029521 0.000000 -0.014207
# 5 0.005781 0.004367 -0.003653 0.000000 0.034758 0.000000
# 6 0.000000 0.000000 0.000000 -0.014207 0.000000 0.119157
#
#
# Mechanical properties :
#
#
# Convention : Reuss Voigt Hill
#
# Bulk Modulus (GPa) = 35.42664 40.86614 38.14639
# Shear Modulus (GPa) = 19.13121 26.73768 22.93445
#
# Velocity S-wave (km/s) = 3.05124 3.60718 3.34079
# Velocity P-wave (km/s) = 5.44551 6.10215 5.78316
#
# Compressibility (1/GPa) = 0.02822735
#
# Stress axis : x y z
#
# Youngs Moduli (GPa) = 68.17958 48.74267 75.84352
#
# Poissons Ratio (x) = 0.14317 0.39019
# Poissons Ratio (y) = 0.20026 0.15081
# Poissons Ratio (z) = 0.35076 0.09692
#
# Static dielectric constant tensor:
#      x y z
#    x 3.768480 0.000000 -0.099450 
#    y 0.000000 3.781170 0.000000 
#    z -0.099450 0.000000 3.849880 
# 
# 
# High freq. dielectric constant tensor:
#      x y z
#    x 1.806870 0.000000 -0.004060 
#    y 0.000000 1.812760 0.000000 
#    z -0.004060 0.000000 1.815510 
# 
# From -- ./inp_files/49057.got.cif
#   From: 2010.06.25/outbox.cif.g09.slc.cpg/sg10_25_cif.got.tgz:49057.got - 2010.06.27 22:07:45.
