data_PCOD8067614
_publ_section_title
;
Structure prediction by ZEFSAII (Michael W. Deem and Ramdas Pophale) SiO2 
 PCOD8067614
Probable space group: P 2/M
;
_chemical_formula_sum "Si O2"
_cell_formula_units_Z 24
_cell_length_a 15.146032
_cell_length_b 8.336523
_cell_length_c 14.936208
_cell_angle_alpha 90.000000
_cell_angle_beta 140.931288
_cell_angle_gamma 90.000000
_cell_volume 1188.607211
_symmetry_space_group_name_H-M "P 2/M"
_symmetry_group_IT_number 10
_symmetry_cell_setting 'monoclinic'
loop_
_space_group_symop_operation_xyz
x,y,z
-x,y,-z
-x,-y,-z
x,-y,z
loop_
_atom_site_type_symbol
_atom_site_label
_atom_site_fract_x
_atom_site_fract_y
_atom_site_fract_z
Si Si1 0.638577 0.314247 0.846876
Si Si2 0.841234 0.313813 0.648935
Si Si3 0.659842 0.813891 0.349955
Si Si4 0.864130 0.813865 0.153727
Si Si5 0.144594 0.809878 0.651957
Si Si6 0.355403 0.689516 0.347839
O O1 0.679210 0.500000 0.888229
O O2 0.474506 0.294199 0.736996
O O3 0.672406 0.246063 0.774254
O O4 0.727082 0.212016 0.986663
O O5 0.809788 0.500000 0.605871
O O6 0.776222 0.209565 0.518116
O O7 0.772439 0.259834 0.688862
O O8 0.006412 0.282997 0.786381
O O9 0.725917 0.754393 0.307945
O O10 0.616549 0.000000 0.312257
O O11 0.831533 0.749428 0.228056
O O12 0.904115 0.000000 0.187678
O O13 0.000000 0.735409 0.500000
O O14 0.134790 0.000000 0.640380
O O15 0.500000 0.764034 0.500000
O O16 0.372846 0.500000 0.355099
#
# Coordination Sequence:
#
# PCOD8067614 Si02
#       6
#     4   4   4   4   4   4
#     4  11  23  41  61  86 121 156 195 242 294 349
#     4  11  21  37  62  90 117 153 199 242 289 345
#     4  11  21  37  62  90 117 153 199 242 289 345
#     4  11  23  41  61  86 121 156 195 242 294 349
#     4   9  18  36  61  85 114 157 197 230 285 361
#     4   9  18  36  61  85 114 157 197 230 285 361
#
# _framework density 20.191697999999999
#
# number of rings (size 3 to 8) (size 9 to 14) (size 15 to 20)
#    0.000    1.667    3.333    2.000    0.000    1.333 
#    0.000   15.000    0.000    0.000    0.000    0.000 
#    0.000    0.000    0.000    0.000    0.000    0.000 
#
# Total GULP energy -297677.263904 kJ/mol
# GULP energy per Si atom -12403.219329 kJ/mol
# Density = 2.014574 g / cm^3
# Si number density = 20.191698 Si / 1000 Ang^3
#
#
#
# Elastic Constant Matrix: (Units=GPa)
#
#
# Indices 1 2 3 4 5 6 
#
# 1 169.2951 25.7489 48.4220 0.0000 -18.1042 0.0000
# 2 25.7489 34.4581 9.4602 0.0000 -4.5493 0.0000
# 3 48.4220 9.4602 107.5647 0.0000 -19.3062 0.0000
# 4 0.0000 0.0000 0.0000 34.6494 0.0000 6.6925
# 5 -18.1042 -4.5493 -19.3062 0.0000 37.2270 0.0000
# 6 0.0000 0.0000 0.0000 6.6925 0.0000 25.9529
#
#
#
# Elastic Compliance Matrix: (Units=1/GPa)
#
#
# Indices 1 2 3 4 5 6 
#
# 1 0.007573 -0.004695 -0.002689 0.000000 0.001715 0.000000
# 2 -0.004695 0.032863 -0.000514 0.000000 0.001467 0.000000
# 3 -0.002689 -0.000514 0.011364 0.000000 0.004523 0.000000
# 4 0.000000 0.000000 0.000000 0.030373 0.000000 -0.007832
# 5 0.001715 0.001467 0.004523 0.000000 0.030221 0.000000
# 6 0.000000 0.000000 0.000000 -0.007832 0.000000 0.040551
#
#
# Mechanical properties :
#
#
# Convention : Reuss Voigt Hill
#
# Bulk Modulus (GPa) = 27.77234 53.17558 40.47396
# Shear Modulus (GPa) = 27.66367 34.74497 31.20432
#
# Velocity S-wave (km/s) = 3.70544 4.15270 3.93543
# Velocity P-wave (km/s) = 5.66491 7.02750 6.38267
#
# Compressibility (1/GPa) = 0.03600705
#
# Stress axis : x y z
#
# Youngs Moduli (GPa) = 132.04380 30.42895 87.99685
#
# Poissons Ratio (x) = 0.14285 0.23658
# Poissons Ratio (y) = 0.61989 0.04521
# Poissons Ratio (z) = 0.35500 0.01563
#
# Static dielectric constant tensor:
#      x y z
#    x 3.963380 0.000000 -0.168690 
#    y 0.000000 3.278490 0.000000 
#    z -0.168690 0.000000 3.515460 
# 
# 
# High freq. dielectric constant tensor:
#      x y z
#    x 1.806060 0.000000 -0.003980 
#    y 0.000000 1.762140 0.000000 
#    z -0.003980 0.000000 1.781630 
# 
# From -- ./inp_files/66311.got.cif
#   From: 2010.06.25/outbox.cif.g09.slc.cpg/sg10_34_cif.got.tgz:66311.got - 2010.06.27 22:07:45.
