data_PCOD8067600
_publ_section_title
;
Structure prediction by ZEFSAII (Michael W. Deem and Ramdas Pophale) SiO2 
 PCOD8067600
Probable space group: P 2/M
;
_chemical_formula_sum "Si O2"
_cell_formula_units_Z 24
_cell_length_a 15.155753
_cell_length_b 8.377072
_cell_length_c 15.164587
_cell_angle_alpha 90.000000
_cell_angle_beta 38.863141
_cell_angle_gamma 90.000000
_cell_volume 1208.058524
_symmetry_space_group_name_H-M "P 2/M"
_symmetry_group_IT_number 10
_symmetry_cell_setting 'monoclinic'
loop_
_space_group_symop_operation_xyz
x,y,z
-x,y,-z
-x,-y,-z
x,-y,z
loop_
_atom_site_type_symbol
_atom_site_label
_atom_site_fract_x
_atom_site_fract_y
_atom_site_fract_z
Si Si1 0.611266 0.814449 0.590360
Si Si2 0.689116 0.315752 0.199277
Si Si3 0.889957 0.185802 0.903007
Si Si4 0.187933 0.685660 0.710194
Si Si5 0.801107 0.810473 0.595616
Si Si6 0.899759 0.189184 0.700104
O O1 0.477445 0.710697 0.668014
O O2 0.735004 0.789836 0.423596
O O3 0.667466 0.752822 0.642292
O O4 0.569520 0.000000 0.625215
O O5 0.723237 0.500000 0.156384
O O6 0.755178 0.257219 0.239513
O O7 0.755105 0.214203 0.068676
O O8 0.850382 0.247071 0.835020
O O9 0.021646 0.283984 0.837643
O O10 0.929899 0.000000 0.870719
O O11 0.220787 0.500000 0.669056
O O12 0.794438 0.751750 0.703332
O O13 0.944102 0.743035 0.440218
O O14 0.805951 0.000000 0.586889
O O15 0.903528 0.000000 0.693741
#
# Coordination Sequence:
#
# PCOD8067600 Si02
#       6
#     4   4   4   4   4   4
#     4  11  21  36  60  88 111 140 187 237 274 314
#     4  11  25  41  54  75 114 158 187 219 280 343
#     4  11  21  36  60  88 111 140 187 237 274 314
#     4  11  23  39  58  79 110 152 189 223 276 339
#     4   8  14  28  53  84 113 138 171 221 277 328
#     4   8  14  28  53  84 113 138 171 221 277 328
#
# _framework density 19.866586999999999
#
# number of rings (size 3 to 8) (size 9 to 14) (size 15 to 20)
#    0.000    2.000    1.667    4.000    0.000    6.667 
#    0.000    0.833    0.000   10.000    0.000    0.000 
#    0.000    0.000    0.000    0.000    0.000    0.000 
#
# Total GULP energy -297557.581662 kJ/mol
# GULP energy per Si atom -12398.232569 kJ/mol
# Density = 1.982137 g / cm^3
# Si number density = 19.866587 Si / 1000 Ang^3
#
#
#
# Elastic Constant Matrix: (Units=GPa)
#
#
# Indices 1 2 3 4 5 6 
#
# 1 128.8275 30.0890 40.8690 0.0000 32.7805 0.0000
# 2 30.0890 31.8014 10.7829 0.0000 6.9123 0.0000
# 3 40.8690 10.7829 70.2414 0.0000 8.8257 0.0000
# 4 0.0000 0.0000 0.0000 23.0786 0.0000 -8.9816
# 5 32.7805 6.9123 8.8257 0.0000 29.6723 0.0000
# 6 0.0000 0.0000 0.0000 -8.9816 0.0000 -3.7538
#
#
#
# Elastic Compliance Matrix: (Units=1/GPa)
#
#
# Indices 1 2 3 4 5 6 
#
# 1 0.015016 -0.009525 -0.005681 0.000000 -0.012680 0.000000
# 2 -0.009525 0.040448 -0.000837 0.000000 0.001349 0.000000
# 3 -0.005681 -0.000837 0.017512 0.000000 0.001263 0.000000
# 4 0.000000 0.000000 0.000000 0.022437 0.000000 -0.053685
# 5 -0.012680 0.001349 0.001263 0.000000 0.047020 0.000000
# 6 0.000000 0.000000 0.000000 -0.053685 0.000000 -0.137946
#
#
# Mechanical properties :
#
#
# Convention : Reuss Voigt Hill
#
# Bulk Modulus (GPa) = 24.45614 43.81688 34.13651
# Shear Modulus (GPa) = 99.59844 19.74140 59.66992
#
# Velocity S-wave (km/s) = 7.08819 3.15572 5.48639
# Velocity P-wave (km/s) = 8.90656 5.94824 7.57326
#
# Compressibility (1/GPa) = 0.04088953
#
# Stress axis : x y z
#
# Youngs Moduli (GPa) = 66.59709 24.72337 57.10367
#
# Poissons Ratio (x) = 0.23548 0.32442
# Poissons Ratio (y) = 0.63432 0.04779
# Poissons Ratio (z) = 0.37836 0.02069
#
# Static dielectric constant tensor:
#      x y z
#    x 4.107000 0.000000 0.303960 
#    y 0.000000 3.212430 0.000000 
#    z 0.303960 0.000000 3.392610 
# 
# 
# High freq. dielectric constant tensor:
#      x y z
#    x 1.793020 0.000000 0.015820 
#    y 0.000000 1.746280 0.000000 
#    z 0.015820 0.000000 1.755750 
# 
# From -- ./inp_files/66309.got.cif
#   From: 2010.06.25/outbox.cif.g09.slc.cpg/sg10_34_cif.got.tgz:66309.got - 2010.06.27 22:07:45.
