data_PCOD8067240
_publ_section_title
;
Structure prediction by ZEFSAII (Michael W. Deem and Ramdas Pophale) SiO2 
 PCOD8067240
Probable space group: P 2/M
;
_chemical_formula_sum "Si O2"
_cell_formula_units_Z 28
_cell_length_a 9.291018
_cell_length_b 13.324089
_cell_length_c 12.174708
_cell_angle_alpha 90.000000
_cell_angle_beta 104.903215
_cell_angle_gamma 90.000000
_cell_volume 1456.461693
_symmetry_space_group_name_H-M "P 2/M"
_symmetry_group_IT_number 10
_symmetry_cell_setting 'monoclinic'
loop_
_space_group_symop_operation_xyz
x,y,z
-x,y,-z
-x,-y,-z
x,-y,z
loop_
_atom_site_type_symbol
_atom_site_label
_atom_site_fract_x
_atom_site_fract_y
_atom_site_fract_z
Si Si1 0.721655 0.620105 0.230942
Si Si2 0.567573 0.109644 0.894205
Si Si3 0.621236 0.709360 0.602543
Si Si4 0.172793 0.255350 0.543675
Si Si5 0.423390 0.111100 0.643618
Si Si6 0.616782 0.321068 0.842728
Si Si7 0.135330 0.387499 0.960310
O O1 0.713051 0.500000 0.234635
O O2 0.787365 0.660356 0.358204
O O3 0.558513 0.663941 0.172067
O O4 0.827198 0.659546 0.151812
O O5 0.436664 0.108737 0.778068
O O6 0.668726 0.206522 0.884401
O O7 0.651493 0.000000 0.905767
O O8 0.500000 0.126247 0.000000
O O9 0.500000 0.653525 0.500000
O O10 0.776174 0.710538 0.567868
O O11 0.552772 0.819942 0.615780
O O12 0.649759 0.651895 0.721908
O O13 0.259028 0.153165 0.588302
O O14 0.000000 0.233083 0.500000
O O15 0.438436 0.000000 0.596075
O O16 0.715213 0.392874 0.936995
O O17 0.081729 0.500000 0.926402
O O18 0.000000 0.331533 0.000000
#
# Coordination Sequence:
#
# PCOD8067240 Si02
#       7
#     4   4   4   4   4   4   4
#     4  11  22  39  59  82 109 146 193 234 283 336
#     4   9  16  28  52  86 115 140 179 223 272 333
#     4   9  18  36  54  82 112 145 188 226 271 337
#     4  11  23  37  55  80 118 148 188 236 282 336
#     4   9  18  35  59  83 113 150 188 232 279 331
#     4  11  19  35  62  85 110 146 189 233 279 325
#     4  10  23  39  57  85 114 144 186 233 285 341
#
# _framework density 19.224672999999999
#
# number of rings (size 3 to 8) (size 9 to 14) (size 15 to 20)
#    0.000    2.000    4.286    1.714    2.000    4.286 
#    0.000    2.143    0.000    0.429    0.000    0.000 
#    0.000    0.000    0.000    0.000    0.000    0.000 
#
# Total GULP energy -346880.292156 kJ/mol
# GULP energy per Si atom -12388.581863 kJ/mol
# Density = 1.918092 g / cm^3
# Si number density = 19.224673 Si / 1000 Ang^3
#
#
#
# Elastic Constant Matrix: (Units=GPa)
#
#
# Indices 1 2 3 4 5 6 
#
# 1 129.7073 14.1391 46.1128 0.0000 -17.7258 0.0000
# 2 14.1391 55.7090 17.4154 0.0000 -4.9368 0.0000
# 3 46.1128 17.4154 105.4541 0.0000 -28.9255 0.0000
# 4 0.0000 0.0000 0.0000 21.6175 0.0000 4.3560
# 5 -17.7258 -4.9368 -28.9255 0.0000 35.8517 0.0000
# 6 0.0000 0.0000 0.0000 4.3560 0.0000 12.1650
#
#
#
# Elastic Compliance Matrix: (Units=1/GPa)
#
#
# Indices 1 2 3 4 5 6 
#
# 1 0.009275 -0.001140 -0.003406 0.000000 0.001680 0.000000
# 2 -0.001140 0.019068 -0.002677 0.000000 -0.000098 0.000000
# 3 -0.003406 -0.002677 0.013935 0.000000 0.009190 0.000000
# 4 0.000000 0.000000 0.000000 0.049856 0.000000 -0.017852
# 5 0.001680 -0.000098 0.009190 0.000000 0.036125 0.000000
# 6 0.000000 0.000000 0.000000 -0.017852 0.000000 0.088596
#
#
# Mechanical properties :
#
#
# Convention : Reuss Voigt Hill
#
# Bulk Modulus (GPa) = 35.93222 49.57831 42.75527
# Shear Modulus (GPa) = 20.78316 28.14037 24.46177
#
# Velocity S-wave (km/s) = 3.29153 3.83007 3.57096
# Velocity P-wave (km/s) = 5.75993 6.73826 6.26821
#
# Compressibility (1/GPa) = 0.02783017
#
# Stress axis : x y z
#
# Youngs Moduli (GPa) = 107.82144 52.44363 71.75982
#
# Poissons Ratio (x) = 0.05979 0.24444
# Poissons Ratio (y) = 0.12293 0.19213
# Poissons Ratio (z) = 0.36728 0.14041
#
# Static dielectric constant tensor:
#      x y z
#    x 3.357700 0.000000 -0.301190 
#    y 0.000000 3.586790 0.000000 
#    z -0.301190 0.000000 3.882330 
# 
# 
# High freq. dielectric constant tensor:
#      x y z
#    x 1.716490 0.000000 -0.023530 
#    y 0.000000 1.732340 0.000000 
#    z -0.023530 0.000000 1.769970 
# 
# From -- ./inp_files/42766.got.cif
#   From: 2010.06.25/outbox.cif.g09.slc.cpg/sg10_22_cif.got.tgz:42766.got - 2010.06.27 22:07:45.
