data_PCOD8067820
_publ_section_title
;
Structure prediction by ZEFSAII (Michael W. Deem and Ramdas Pophale) SiO2 
 PCOD8067820
Probable space group: P 2/M
;
_chemical_formula_sum "Si O2"
_cell_formula_units_Z 28
_cell_length_a 26.750272
_cell_length_b 8.862699
_cell_length_c 9.367929
_cell_angle_alpha 90.000000
_cell_angle_beta 138.397653
_cell_angle_gamma 90.000000
_cell_volume 1474.611596
_symmetry_space_group_name_H-M "P 2/M"
_symmetry_group_IT_number 10
_symmetry_cell_setting 'monoclinic'
loop_
_space_group_symop_operation_xyz
x,y,z
-x,y,-z
-x,-y,-z
x,-y,z
loop_
_atom_site_type_symbol
_atom_site_label
_atom_site_fract_x
_atom_site_fract_y
_atom_site_fract_z
Si Si1 0.927115 0.822380 0.933436
Si Si2 0.684473 0.834101 0.626538
Si Si3 0.294497 0.825071 0.859368
Si Si4 0.062059 0.672473 0.746365
Si Si5 0.812624 0.837715 0.126675
Si Si6 0.234697 0.677400 0.457309
Si Si7 0.583539 0.180045 0.654554
O O1 0.848975 0.748401 0.715421
O O2 0.916022 0.000000 0.894821
O O3 0.944602 0.781475 0.133592
O O4 0.000000 0.766341 0.000000
O O5 0.718895 0.721114 0.584873
O O6 0.610932 0.768277 0.553189
O O7 0.669157 0.000000 0.523559
O O8 0.740665 0.858306 0.875980
O O9 0.215493 0.802957 0.773826
O O10 0.286647 0.728906 0.699108
O O11 0.307533 0.000000 0.847653
O O12 0.363489 0.761018 0.102543
O O13 0.056752 0.500000 0.786375
O O14 0.139735 0.698523 0.829798
O O15 0.000000 0.717330 0.500000
O O16 0.856674 0.000000 0.219388
O O17 0.223438 0.500000 0.434747
O O18 0.500000 0.245623 0.500000
O O19 0.584636 0.000000 0.659797
#
# Coordination Sequence:
#
# PCOD8067820 Si02
#       7
#     4   4   4   4   4   4   4
#     4  11  25  43  61  81 107 147 194 239 288 338
#     4   9  17  33  58  84 110 144 184 230 277 331
#     4   9  19  35  57  85 114 147 188 233 279 332
#     4  11  24  38  54  81 113 143 180 229 283 335
#     4   9  18  34  56  78 102 141 189 231 272 326
#     4  12  24  37  56  82 115 153 190 234 283 338
#     4   8  15  32  61  93 117 141 184 238 283 325
#
# _framework density 18.988050000000001
#
# number of rings (size 3 to 8) (size 9 to 14) (size 15 to 20)
#    0.000    2.143    1.429    3.857    2.000    2.857 
#    0.000    2.857    0.000    6.000    0.000    0.000 
#    0.000    0.000    0.000    0.000    0.000    0.000 
#
# Total GULP energy -347015.679111 kJ/mol
# GULP energy per Si atom -12393.417111 kJ/mol
# Density = 1.894483 g / cm^3
# Si number density = 18.988050 Si / 1000 Ang^3
#
#
#
# Elastic Constant Matrix: (Units=GPa)
#
#
# Indices 1 2 3 4 5 6 
#
# 1 126.2338 38.8883 53.4498 0.0000 14.1525 0.0000
# 2 38.8883 67.3709 32.6539 0.0000 0.5083 0.0000
# 3 53.4498 32.6539 85.4025 0.0000 1.1944 0.0000
# 4 0.0000 0.0000 0.0000 11.6307 0.0000 -2.7273
# 5 14.1525 0.5083 1.1944 0.0000 28.8968 0.0000
# 6 0.0000 0.0000 0.0000 -2.7273 0.0000 11.3273
#
#
#
# Elastic Compliance Matrix: (Units=1/GPa)
#
#
# Indices 1 2 3 4 5 6 
#
# 1 0.012442 -0.004177 -0.006109 0.000000 -0.005768 0.000000
# 2 -0.004177 0.019622 -0.004915 0.000000 0.001904 0.000000
# 3 -0.006109 -0.004915 0.017379 0.000000 0.002360 0.000000
# 4 0.000000 0.000000 0.000000 0.091124 0.000000 0.021940
# 5 -0.005768 0.001904 0.002360 0.000000 0.037300 0.000000
# 6 0.000000 0.000000 0.000000 0.021940 0.000000 0.093565
#
#
# Mechanical properties :
#
#
# Convention : Reuss Voigt Hill
#
# Bulk Modulus (GPa) = 52.51912 58.77679 55.64796
# Shear Modulus (GPa) = 16.22421 20.63863 18.43142
#
# Velocity S-wave (km/s) = 2.92626 3.30043 3.11896
# Velocity P-wave (km/s) = 6.25591 6.74875 6.50700
#
# Compressibility (1/GPa) = 0.01904068
#
# Stress axis : x y z
#
# Youngs Moduli (GPa) = 80.37270 50.96241 57.54121
#
# Poissons Ratio (x) = 0.21289 0.35152
# Poissons Ratio (y) = 0.33575 0.28280
# Poissons Ratio (z) = 0.49100 0.25047
#
# Static dielectric constant tensor:
#      x y z
#    x 3.761760 0.000000 0.019830 
#    y 0.000000 3.230770 0.000000 
#    z 0.019830 0.000000 3.368330 
# 
# 
# High freq. dielectric constant tensor:
#      x y z
#    x 1.745520 0.000000 -0.006370 
#    y 0.000000 1.716890 0.000000 
#    z -0.006370 0.000000 1.725170 
# 
# From -- ./inp_files/37318.got.cif
#   From: 2010.06.25/outbox.cif.g09.slc.cpg/sg10_19_cif.got.tgz:37318.got - 2010.06.27 22:07:45.
