data_PCOD8067101
_publ_section_title
;
Structure prediction by ZEFSAII (Michael W. Deem and Ramdas Pophale) SiO2 
 PCOD8067101
Probable space group: P 2/M
;
_chemical_formula_sum "Si O2"
_cell_formula_units_Z 20
_cell_length_a 9.977204
_cell_length_b 23.626825
_cell_length_c 8.506043
_cell_angle_alpha 90.000000
_cell_angle_beta 30.168778
_cell_angle_gamma 90.000000
_cell_volume 1007.674160
_symmetry_space_group_name_H-M "P 2/M"
_symmetry_group_IT_number 10
_symmetry_cell_setting 'monoclinic'
loop_
_space_group_symop_operation_xyz
x,y,z
-x,y,-z
-x,-y,-z
x,-y,z
loop_
_atom_site_type_symbol
_atom_site_label
_atom_site_fract_x
_atom_site_fract_y
_atom_site_fract_z
Si Si1 0.754336 0.564835 0.849786
Si Si2 0.761010 0.354040 0.131987
Si Si3 0.087875 0.229795 0.086213
Si Si4 0.756256 0.061171 0.635776
Si Si5 0.409860 0.176835 0.271298
O O1 0.807657 0.500000 0.844521
O O2 0.000000 0.589224 0.500000
O O3 0.500000 0.571352 0.000000
O O4 0.707565 0.599229 0.055560
O O5 0.500000 0.344625 0.500000
O O6 0.834418 0.295219 0.973930
O O7 0.000000 0.375464 0.000000
O O8 0.835364 0.219755 0.455592
O O9 0.340868 0.191010 0.870930
O O10 0.000000 0.214119 0.000000
O O11 0.697251 0.113302 0.577066
O O12 0.000000 0.079339 0.500000
O O13 0.817128 0.000000 0.489554
O O14 0.500000 0.052006 0.000000
O O15 0.500000 0.180916 0.000000
#
# Coordination Sequence:
#
# PCOD8067101 Si02
#       5
#     4   4   4   4   4
#     4  10  22  40  61  88 120 150 183 232 291 334
#     4  11  23  40  60  84 113 152 198 231 270 335
#     4  11  23  39  55  79 118 154 182 227 289 335
#     4   9  17  31  52  80 111 139 176 232 284 324
#     4  11  21  36  59  86 109 142 194 235 273 335
#
# _framework density 19.847687000000001
#
# number of rings (size 3 to 8) (size 9 to 14) (size 15 to 20)
#    0.000    1.600    0.000    7.200    0.000    3.200 
#    0.000    0.000    0.000    3.600    0.000    0.000 
#    0.000    0.000    0.000    0.000    0.000    0.000 
#
# Total GULP energy -247974.453524 kJ/mol
# GULP energy per Si atom -12398.722676 kJ/mol
# Density = 1.980251 g / cm^3
# Si number density = 19.847687 Si / 1000 Ang^3
#
#
#
# Elastic Constant Matrix: (Units=GPa)
#
#
# Indices 1 2 3 4 5 6 
#
# 1 85.5264 70.9934 26.8488 0.0000 -15.7277 0.0000
# 2 70.9934 126.5025 46.9402 0.0000 3.9995 0.0000
# 3 26.8488 46.9402 131.1982 0.0000 -9.7334 0.0000
# 4 0.0000 0.0000 0.0000 32.2399 0.0000 -8.9702
# 5 -15.7277 3.9995 -9.7334 0.0000 38.3186 0.0000
# 6 0.0000 0.0000 0.0000 -8.9702 0.0000 36.7440
#
#
#
# Elastic Compliance Matrix: (Units=1/GPa)
#
#
# Indices 1 2 3 4 5 6 
#
# 1 0.027011 -0.016005 0.001167 0.000000 0.013054 0.000000
# 2 -0.016005 0.018723 -0.004134 0.000000 -0.009573 0.000000
# 3 0.001167 -0.004134 0.009101 0.000000 0.003222 0.000000
# 4 0.000000 0.000000 0.000000 0.033278 0.000000 0.008124
# 5 0.013054 -0.009573 0.003222 0.000000 0.033272 0.000000
# 6 0.000000 0.000000 0.000000 0.008124 0.000000 0.029199
#
#
# Mechanical properties :
#
#
# Convention : Reuss Voigt Hill
#
# Bulk Modulus (GPa) = 59.19613 70.31019 64.75316
# Shear Modulus (GPa) = 25.75209 34.69014 30.22111
#
# Velocity S-wave (km/s) = 3.60597 4.18523 3.90635
# Velocity P-wave (km/s) = 6.87221 7.67181 7.28299
#
# Compressibility (1/GPa) = 0.01689300
#
# Stress axis : x y z
#
# Youngs Moduli (GPa) = 37.02138 53.40936 109.87397
#
# Poissons Ratio (x) = 0.85479 -0.12820
# Poissons Ratio (y) = 0.59251 0.45420
# Poissons Ratio (z) = -0.04320 0.22079
#
# Static dielectric constant tensor:
#      x y z
#    x 3.411220 0.000000 -0.211850 
#    y 0.000000 4.024610 0.000000 
#    z -0.211850 0.000000 3.768850 
# 
# 
# High freq. dielectric constant tensor:
#      x y z
#    x 1.754110 0.000000 -0.025940 
#    y 0.000000 1.783650 0.000000 
#    z -0.025940 0.000000 1.792090 
# 
# From -- ./inp_files/20720.got.cif
#   From: 2010.06.25/outbox.cif.g09.slc.cpg/sg10_11_cif.got.tgz:20720.got - 2010.06.27 22:07:45.
