data_PCOD8067896
_publ_section_title
;
Structure prediction by ZEFSAII (Michael W. Deem and Ramdas Pophale) SiO2 
 PCOD8067896
Probable space group: P 2/M
;
_chemical_formula_sum "Si O2"
_cell_formula_units_Z 24
_cell_length_a 9.247461
_cell_length_b 7.700088
_cell_length_c 19.730558
_cell_angle_alpha 90.000000
_cell_angle_beta 103.552711
_cell_angle_gamma 90.000000
_cell_volume 1365.818416
_symmetry_space_group_name_H-M "P 2/M"
_symmetry_group_IT_number 10
_symmetry_cell_setting 'monoclinic'
loop_
_space_group_symop_operation_xyz
x,y,z
-x,y,-z
-x,-y,-z
x,-y,z
loop_
_atom_site_type_symbol
_atom_site_label
_atom_site_fract_x
_atom_site_fract_y
_atom_site_fract_z
Si Si1 0.210932 0.807159 0.077949
Si Si2 0.663900 0.500000 0.670601
Si Si3 0.993301 0.500000 0.329399
Si Si4 0.867017 0.192841 0.077950
Si Si5 0.383791 0.197083 0.429309
Si Si6 0.045521 0.802918 0.429309
Si Si7 0.259740 0.500000 0.173307
Si Si8 0.913567 0.500000 0.173308
O O1 0.300530 0.669538 0.133357
O O2 0.039264 0.801418 0.078529
O O3 0.275312 0.000000 0.099053
O O4 0.226642 0.760188 1.000000
O O5 0.837706 0.500000 0.675415
O O6 0.590713 0.326748 0.630830
O O7 0.637468 0.500000 0.748450
O O8 0.959886 0.673252 0.369170
O O9 0.889018 0.500000 0.251551
O O10 0.832827 0.330461 0.133358
O O11 0.823741 0.000000 0.099053
O O12 0.500000 0.246320 0.500000
O O13 0.221739 0.222444 0.443476
O O14 0.407354 0.000000 0.405826
O O15 0.000000 0.753682 0.500000
O O16 0.998477 0.000000 0.405825
O O17 0.086994 0.500000 0.173989
#
# Coordination Sequence:
#
# PCOD8067896 Si02
#       8
#     4   2   2   4   4   4   2   2
#     4   8  13  20  29  41  58  83 117 154 186 216
#     4   9  17  26  36  53  75  98 125 159 198 235
#     4   9  17  26  36  53  75  98 125 159 198 235
#     4   8  13  20  29  41  58  83 117 154 186 216
#     4   9  17  29  44  60  78 101 130 163 196 231
#     4   9  17  29  44  60  78 101 130 163 196 231
#     4   9  15  21  30  44  63  88 117 151 190 225
#     4   9  15  21  30  44  63  88 117 151 190 225
#
# _framework density 17.571881999999999
#
# number of rings (size 3 to 8) (size 9 to 14) (size 15 to 20)
#    0.000    3.333    0.000    2.000    0.000    3.333 
#    0.000    6.667    0.000    0.000    0.000    0.000 
#    0.000    0.000    0.000    0.000    0.000   13.333 
#
# Total GULP energy -297461.481121 kJ/mol
# GULP energy per Si atom -12394.228380 kJ/mol
# Density = 1.753189 g / cm^3
# Si number density = 17.571882 Si / 1000 Ang^3
#
#
#
# Elastic Constant Matrix: (Units=GPa)
#
#
# Indices 1 2 3 4 5 6 
#
# 1 7.8339 12.3119 14.9755 0.0000 0.6748 0.0000
# 2 12.3119 164.3943 119.8462 0.0000 2.4005 0.0000
# 3 14.9755 119.8462 175.9818 0.0000 3.0788 0.0000
# 4 0.0000 0.0000 0.0000 24.2378 0.0000 0.3589
# 5 0.6748 2.4005 3.0788 0.0000 11.6034 0.0000
# 6 0.0000 0.0000 0.0000 0.3589 0.0000 8.1626
#
#
#
# Elastic Compliance Matrix: (Units=1/GPa)
#
#
# Indices 1 2 3 4 5 6 
#
# 1 0.154050 -0.003913 -0.010350 0.000000 -0.005404 0.000000
# 2 -0.003913 0.012181 -0.007959 0.000000 -0.000180 0.000000
# 3 -0.010350 -0.007959 0.012000 0.000000 -0.000936 0.000000
# 4 0.000000 0.000000 0.000000 0.041285 0.000000 -0.001815
# 5 -0.005404 -0.000180 -0.000936 0.000000 0.086781 0.000000
# 6 0.000000 0.000000 0.000000 -0.001815 0.000000 0.122590
#
#
# Mechanical properties :
#
#
# Convention : Reuss Voigt Hill
#
# Bulk Modulus (GPa) = 7.47457 71.38635 39.43046
# Shear Modulus (GPa) = 9.65385 22.20586 15.92985
#
# Velocity S-wave (km/s) = 2.34645 3.55873 3.01417
# Velocity P-wave (km/s) = 3.40647 7.58944 5.88233
#
# Compressibility (1/GPa) = 0.13378698
#
# Stress axis : x y z
#
# Youngs Moduli (GPa) = 6.49138 82.09377 83.33355
#
# Poissons Ratio (x) = 0.32125 0.86247
# Poissons Ratio (y) = 0.02540 0.66329
# Poissons Ratio (z) = 0.06718 0.65342
#
# Static dielectric constant tensor:
#      x y z
#    x 2.548770 0.000000 0.021280 
#    y 0.000000 3.639530 0.000000 
#    z 0.021280 0.000000 3.502120 
# 
# 
# High freq. dielectric constant tensor:
#      x y z
#    x 1.594520 0.000000 0.001890 
#    y 0.000000 1.698960 0.000000 
#    z 0.001890 0.000000 1.679180 
# 
# From -- ./inp_files/63264.got.cif
#   From: 2010.06.25/outbox.cif.g09.slc.cpg/sg10_32_cif.got.tgz:63264.got - 2010.06.27 22:07:45.
