data_PCOD8067967
_publ_section_title
;
Structure prediction by ZEFSAII (Michael W. Deem and Ramdas Pophale) SiO2 
 PCOD8067967
Probable space group: P 2/M
;
_chemical_formula_sum "Si O2"
_cell_formula_units_Z 32
_cell_length_a 21.037267
_cell_length_b 9.930933
_cell_length_c 11.303122
_cell_angle_alpha 90.000000
_cell_angle_beta 57.500532
_cell_angle_gamma 90.000000
_cell_volume 1991.634069
_symmetry_space_group_name_H-M "P 2/M"
_symmetry_group_IT_number 10
_symmetry_cell_setting 'monoclinic'
loop_
_space_group_symop_operation_xyz
x,y,z
-x,y,-z
-x,-y,-z
x,-y,z
loop_
_atom_site_type_symbol
_atom_site_label
_atom_site_fract_x
_atom_site_fract_y
_atom_site_fract_z
Si Si1 0.115613 0.650123 0.440102
Si Si2 0.332815 0.847004 0.408292
Si Si3 0.455614 0.349581 0.863566
Si Si4 0.985141 0.156789 0.149180
Si Si5 0.485141 0.843211 0.380538
Si Si6 0.832815 0.152996 0.426077
Si Si7 0.955614 0.349581 0.725205
Si Si8 0.615613 0.349877 0.828672
O O1 0.150135 0.500000 0.418248
O O2 0.167772 0.756853 0.454958
O O3 0.108414 0.687697 0.307883
O O4 0.034446 0.654214 0.580335
O O5 0.398253 0.805952 0.435596
O O6 0.250000 0.830655 0.551423
O O7 0.332228 0.756853 0.290502
O O8 0.346119 0.000000 0.353544
O O9 0.440978 0.500000 0.827293
O O10 0.455969 0.241464 0.757456
O O11 0.534445 0.345784 0.850775
O O12 0.391585 0.312305 0.024712
O O13 0.044031 0.241465 0.169394
O O14 0.898253 0.194048 0.267899
O O15 0.002073 0.000000 0.153868
O O16 0.000000 0.198531 0.000000
O O17 0.500000 0.801469 0.500000
O O18 0.502073 0.000000 0.341985
O O19 0.846119 0.000000 0.454219
O O20 0.940976 0.500000 0.790753
O O21 0.650134 0.500000 0.781481
#
# Coordination Sequence:
#
# PCOD8067967 Si02
#       8
#     4   4   4   4   4   4   4   4
#     4   8  14  25  41  61  83 105 130 162 204 252
#     4   9  17  28  42  61  84 108 136 174 217 256
#     4   8  14  25  41  61  83 105 131 166 206 245
#     4   9  17  28  42  61  84 112 147 180 208 244
#     4   9  17  28  42  61  84 112 147 180 208 244
#     4   9  17  28  42  61  84 108 136 174 217 256
#     4   8  14  25  41  61  83 105 131 166 206 245
#     4   8  14  25  41  61  83 105 130 162 204 252
#
# _framework density 16.067208000000001
#
# number of rings (size 3 to 8) (size 9 to 14) (size 15 to 20)
#    0.000    3.500    0.000    1.500    0.000    2.000 
#    0.000    5.000    0.000    1.500    0.000    3.500 
#    0.000    0.000    0.000    0.000    0.000    0.000 
#
# Total GULP energy -396489.897478 kJ/mol
# GULP energy per Si atom -12390.309296 kJ/mol
# Density = 1.603064 g / cm^3
# Si number density = 16.067208 Si / 1000 Ang^3
#
#
#
# Elastic Constant Matrix: (Units=GPa)
#
#
# Indices 1 2 3 4 5 6 
#
# 1 64.2597 40.0029 43.4234 0.0000 12.1127 0.0000
# 2 40.0029 77.3891 53.5466 0.0000 18.0928 0.0000
# 3 43.4234 53.5466 87.4239 0.0000 18.8326 0.0000
# 4 0.0000 0.0000 0.0000 23.3648 0.0000 6.9400
# 5 12.1127 18.0928 18.8326 0.0000 23.9286 0.0000
# 6 0.0000 0.0000 0.0000 6.9400 0.0000 18.1698
#
#
#
# Elastic Compliance Matrix: (Units=1/GPa)
#
#
# Indices 1 2 3 4 5 6 
#
# 1 0.025888 -0.007625 -0.007956 0.000000 -0.001077 0.000000
# 2 -0.007625 0.025815 -0.010417 0.000000 -0.007461 0.000000
# 3 -0.007956 -0.010417 0.023128 0.000000 -0.006298 0.000000
# 4 0.000000 0.000000 0.000000 0.048276 0.000000 -0.018439
# 5 -0.001077 -0.007461 -0.006298 0.000000 0.052934 0.000000
# 6 0.000000 0.000000 0.000000 -0.018439 0.000000 0.062079
#
#
# Mechanical properties :
#
#
# Convention : Reuss Voigt Hill
#
# Bulk Modulus (GPa) = 43.79399 55.89093 49.84246
# Shear Modulus (GPa) = 16.79384 19.23263 18.01323
#
# Velocity S-wave (km/s) = 3.23650 3.46354 3.35194
# Velocity P-wave (km/s) = 6.42515 7.13134 6.78743
#
# Compressibility (1/GPa) = 0.02283419
#
# Stress axis : x y z
#
# Youngs Moduli (GPa) = 38.62805 38.73715 43.23833
#
# Poissons Ratio (x) = 0.29536 0.34402
# Poissons Ratio (y) = 0.29452 0.45042
# Poissons Ratio (z) = 0.30734 0.40353
#
# Static dielectric constant tensor:
#      x y z
#    x 2.961790 0.000000 0.095590 
#    y 0.000000 3.246030 0.000000 
#    z 0.095590 0.000000 3.033350 
# 
# 
# High freq. dielectric constant tensor:
#      x y z
#    x 1.589090 0.000000 0.005150 
#    y 0.000000 1.623610 0.000000 
#    z 0.005150 0.000000 1.592950 
# 
# From -- ./inp_files/56388.got.cif
#   From: 2010.06.25/outbox.cif.g09.slc.cpg/sg10_29_cif.got.tgz:56388.got - 2010.06.27 22:07:45.
