data_PCOD8067970
_publ_section_title
;
Structure prediction by ZEFSAII (Michael W. Deem and Ramdas Pophale) SiO2 
 PCOD8067970
Probable space group: P 2/M
;
_chemical_formula_sum "Si O2"
_cell_formula_units_Z 28
_cell_length_a 20.648156
_cell_length_b 9.107327
_cell_length_c 18.140776
_cell_angle_alpha 90.000000
_cell_angle_beta 28.522206
_cell_angle_gamma 90.000000
_cell_volume 1628.924016
_symmetry_space_group_name_H-M "P 2/M"
_symmetry_group_IT_number 10
_symmetry_cell_setting 'monoclinic'
loop_
_space_group_symop_operation_xyz
x,y,z
-x,y,-z
-x,-y,-z
x,-y,z
loop_
_atom_site_type_symbol
_atom_site_label
_atom_site_fract_x
_atom_site_fract_y
_atom_site_fract_z
Si Si1 0.338108 0.166038 0.661918
Si Si2 0.661305 0.665594 0.195564
Si Si3 0.848104 0.174437 0.570135
Si Si4 0.847983 0.825564 0.733728
Si Si5 0.656593 0.172627 0.632865
Si Si6 0.343589 0.172626 0.945920
Si Si7 0.338616 0.334406 0.518307
O O1 0.500000 0.166735 0.500000
O O2 0.281167 0.248694 0.790985
O O3 0.281129 0.248684 0.646787
O O4 0.282784 0.000000 0.717254
O O5 0.718116 0.500000 0.139495
O O6 0.711402 0.746978 0.071895
O O7 0.499961 0.665781 0.359616
O O8 0.807991 0.232311 0.691979
O O9 0.742221 0.235478 0.616110
O O10 0.000076 0.227726 0.398028
O O11 0.842755 0.000000 0.575583
O O12 0.842652 0.000000 0.738956
O O13 0.742003 0.764532 0.899586
O O14 0.500095 0.210174 0.805054
O O15 0.711533 0.253032 0.505102
O O16 0.678032 0.000000 0.599517
O O17 0.322143 0.000000 0.955464
O O18 0.281808 0.500000 0.575880
#
# Coordination Sequence:
#
# PCOD8067970 Si02
#       7
#     4   4   4   4   4   4   4
#     4   9  15  23  37  57  82 111 142 175 208 242
#     4   9  16  25  37  55  82 114 143 170 205 250
#     4   8  14  25  41  61  84 109 138 173 212 252
#     4   8  14  25  41  61  84 109 138 173 212 252
#     4   9  16  25  39  61  86 109 137 175 213 246
#     4   9  16  25  39  61  86 109 137 175 213 246
#     4   9  16  25  37  55  82 114 143 170 205 250
#
# _framework density 17.189261999999999
#
# number of rings (size 3 to 8) (size 9 to 14) (size 15 to 20)
#    0.000    3.286    0.000    2.143    0.000    5.714 
#    0.000    2.857    0.000    1.714    0.000    7.000 
#    0.000    8.000    0.000    0.000    0.000    0.000 
#
# Total GULP energy -347075.948674 kJ/mol
# GULP energy per Si atom -12395.569596 kJ/mol
# Density = 1.715014 g / cm^3
# Si number density = 17.189262 Si / 1000 Ang^3
#
#
#
# Elastic Constant Matrix: (Units=GPa)
#
#
# Indices 1 2 3 4 5 6 
#
# 1 138.8154 54.2563 81.7780 0.0000 42.0522 0.0000
# 2 54.2563 78.0291 35.2138 0.0000 17.1402 0.0000
# 3 81.7780 35.2138 67.0661 0.0000 22.4719 0.0000
# 4 0.0000 0.0000 0.0000 6.1377 0.0000 0.8260
# 5 42.0522 17.1402 22.4719 0.0000 22.7935 0.0000
# 6 0.0000 0.0000 0.0000 0.8260 0.0000 7.0489
#
#
#
# Elastic Compliance Matrix: (Units=1/GPa)
#
#
# Indices 1 2 3 4 5 6 
#
# 1 0.041032 -0.004405 -0.035040 0.000000 -0.037843 0.000000
# 2 -0.004405 0.017813 -0.003310 0.000000 -0.002005 0.000000
# 3 -0.035040 -0.003310 0.055073 0.000000 0.012839 0.000000
# 4 0.000000 0.000000 0.000000 0.165539 0.000000 -0.019398
# 5 -0.037843 -0.002005 0.012839 0.000000 0.102539 0.000000
# 6 0.000000 0.000000 0.000000 -0.019398 0.000000 0.144140
#
#
# Mechanical properties :
#
#
# Convention : Reuss Voigt Hill
#
# Bulk Modulus (GPa) = 35.20092 69.60077 52.40085
# Shear Modulus (GPa) = 8.05005 14.70683 11.37844
#
# Velocity S-wave (km/s) = 2.16641 2.92821 2.57563
# Velocity P-wave (km/s) = 5.17501 7.21188 6.27662
#
# Compressibility (1/GPa) = 0.02840835
#
# Stress axis : x y z
#
# Youngs Moduli (GPa) = 24.37125 56.13966 18.15765
#
# Poissons Ratio (x) = 0.24729 0.63625
# Poissons Ratio (y) = 0.10735 0.06010
# Poissons Ratio (z) = 0.85397 0.18581
#
# Static dielectric constant tensor:
#      x y z
#    x 3.382340 0.000000 0.319740 
#    y 0.000000 3.031140 0.000000 
#    z 0.319740 0.000000 3.028460 
# 
# 
# High freq. dielectric constant tensor:
#      x y z
#    x 1.662060 0.000000 0.032440 
#    y 0.000000 1.639060 0.000000 
#    z 0.032440 0.000000 1.626150 
# 
# From -- ./inp_files/34664.got.cif
#   From: 2010.06.25/outbox.cif.g09.slc.cpg/sg10_18_cif.got.tgz:34664.got - 2010.06.27 22:07:45.
