data_PCOD8067283
_publ_section_title
;
Structure prediction by ZEFSAII (Michael W. Deem and Ramdas Pophale) SiO2 
 PCOD8067283
Probable space group: P 2/M
;
_chemical_formula_sum "Si O2"
_cell_formula_units_Z 28
_cell_length_a 30.813318
_cell_length_b 8.553827
_cell_length_c 10.191944
_cell_angle_alpha 90.000000
_cell_angle_beta 147.541134
_cell_angle_gamma 90.000000
_cell_volume 1441.725834
_symmetry_space_group_name_H-M "P 2/M"
_symmetry_group_IT_number 10
_symmetry_cell_setting 'monoclinic'
loop_
_space_group_symop_operation_xyz
x,y,z
-x,y,-z
-x,-y,-z
x,-y,z
loop_
_atom_site_type_symbol
_atom_site_label
_atom_site_fract_x
_atom_site_fract_y
_atom_site_fract_z
Si Si1 0.750900 0.318843 0.148144
Si Si2 0.324168 0.317469 0.319652
Si Si3 0.228475 0.817874 0.309757
Si Si4 0.493789 0.815935 0.831149
Si Si5 0.074287 0.318151 0.032934
Si Si6 0.092297 0.181197 0.358944
Si Si7 0.339450 0.683857 0.817748
O O1 0.774127 0.500000 0.212263
O O2 0.834188 0.221465 0.356785
O O3 0.698235 0.269607 0.139150
O O4 0.699448 0.277320 0.889122
O O5 0.315871 0.500000 0.330853
O O6 0.264339 0.221654 0.259960
O O7 0.415435 0.264306 0.571580
O O8 0.144172 0.726813 0.109617
O O9 0.292537 0.771992 0.583578
O O10 0.210601 0.000000 0.275057
O O11 0.490274 0.000000 0.797794
O O12 0.500000 0.775455 0.000000
O O13 0.568774 0.741691 0.945815
O O14 0.055575 0.500000 0.974744
O O15 0.104202 0.278553 0.255715
O O16 0.992330 0.225708 0.788094
O O17 0.091999 0.000000 0.321692
O O18 0.334751 0.500000 0.778606
#
# Coordination Sequence:
#
# PCOD8067283 Si02
#       7
#     4   4   4   4   4   4   4
#     4  10  23  42  62  89 124 161 203 248 300 364
#     4  11  24  42  64  88 120 163 204 247 303 366
#     4  12  23  38  60  92 124 155 201 254 302 357
#     4  11  23  39  60  89 124 157 198 254 305 354
#     4  11  21  36  60  89 122 160 204 250 296 353
#     4  11  21  35  59  91 125 159 198 250 305 353
#     4  11  22  38  64  90 118 158 203 249 299 361
#
# _framework density 19.421168999999999
#
# number of rings (size 3 to 8) (size 9 to 14) (size 15 to 20)
#    0.000    1.000    2.857    6.000    0.000    2.857 
#    0.000    3.571    0.000    4.286    0.000    0.000 
#    0.000    0.000    0.000    0.000    0.000    0.000 
#
# Total GULP energy -347393.940399 kJ/mol
# GULP energy per Si atom -12406.926443 kJ/mol
# Density = 1.937697 g / cm^3
# Si number density = 19.421169 Si / 1000 Ang^3
#
#
#
# Elastic Constant Matrix: (Units=GPa)
#
#
# Indices 1 2 3 4 5 6 
#
# 1 97.9823 20.2770 44.1818 0.0000 13.6435 0.0000
# 2 20.2770 84.3628 32.3033 0.0000 -1.8327 0.0000
# 3 44.1818 32.3033 114.3582 0.0000 11.8534 0.0000
# 4 0.0000 0.0000 0.0000 10.5988 0.0000 15.3084
# 5 13.6435 -1.8327 11.8534 0.0000 36.3966 0.0000
# 6 0.0000 0.0000 0.0000 15.3084 0.0000 23.3212
#
#
#
# Elastic Compliance Matrix: (Units=1/GPa)
#
#
# Indices 1 2 3 4 5 6 
#
# 1 0.012910 -0.001583 -0.004172 0.000000 -0.003561 0.000000
# 2 -0.001583 0.013622 -0.003486 0.000000 0.002415 0.000000
# 3 -0.004172 -0.003486 0.011588 0.000000 -0.002386 0.000000
# 4 0.000000 0.000000 0.000000 1.817924 0.000000 -1.193314
# 5 -0.003561 0.002415 -0.002386 0.000000 0.029708 0.000000
# 6 0.000000 0.000000 0.000000 -1.193314 0.000000 0.826189
#
#
# Mechanical properties :
#
#
# Convention : Reuss Voigt Hill
#
# Bulk Modulus (GPa) = 50.92186 54.46973 52.69579
# Shear Modulus (GPa) = 1.82684 27.39272 14.60978
#
# Velocity S-wave (km/s) = 0.97092 3.75968 2.74571
# Velocity P-wave (km/s) = 5.24725 6.85233 6.10279
#
# Compressibility (1/GPa) = 0.01963793
#
# Stress axis : x y z
#
# Youngs Moduli (GPa) = 77.45702 73.41332 86.29430
#
# Poissons Ratio (x) = 0.11622 0.35999
# Poissons Ratio (y) = 0.12262 0.30086
# Poissons Ratio (z) = 0.32312 0.25595
#
# Static dielectric constant tensor:
#      x y z
#    x 3.621960 0.000000 0.194240 
#    y 0.000000 3.659370 0.000000 
#    z 0.194240 0.000000 3.489980 
# 
# 
# High freq. dielectric constant tensor:
#      x y z
#    x 1.755410 0.000000 0.020690 
#    y 0.000000 1.770580 0.000000 
#    z 0.020690 0.000000 1.753310 
# 
# From -- ./inp_files/37354.got.cif
#   From: 2010.06.25/outbox.cif.g09.slc.cpg/sg10_19_cif.got.tgz:37354.got - 2010.06.27 22:07:45.
