data_PCOD8067423
_publ_section_title
;
Structure prediction by ZEFSAII (Michael W. Deem and Ramdas Pophale) SiO2 
 PCOD8067423
Probable space group: P 2/M
;
_chemical_formula_sum "Si O2"
_cell_formula_units_Z 32
_cell_length_a 19.690911
_cell_length_b 9.022152
_cell_length_c 13.755910
_cell_angle_alpha 90.000000
_cell_angle_beta 58.184680
_cell_angle_gamma 90.000000
_cell_volume 2076.621513
_symmetry_space_group_name_H-M "P 2/M"
_symmetry_group_IT_number 10
_symmetry_cell_setting 'monoclinic'
loop_
_space_group_symop_operation_xyz
x,y,z
-x,y,-z
-x,-y,-z
x,-y,z
loop_
_atom_site_type_symbol
_atom_site_label
_atom_site_fract_x
_atom_site_fract_y
_atom_site_fract_z
Si Si1 0.559972 0.824677 0.169165
Si Si2 0.324912 0.673701 0.052799
Si Si3 0.169700 0.174986 0.486606
Si Si4 0.174979 0.176108 0.257051
Si Si5 0.421008 0.333178 0.170754
Si Si6 0.319209 0.666526 0.432639
Si Si7 0.519398 0.674946 0.595138
Si Si8 0.001838 0.826643 0.386475
O O1 0.489107 0.782232 0.148595
O O2 0.542719 0.759764 0.289053
O O3 0.568247 0.000000 0.169143
O O4 0.642734 0.754347 0.068309
O O5 0.315339 0.500000 0.041017
O O6 0.239257 0.739725 0.143898
O O7 0.388824 0.707639 0.089248
O O8 0.182978 0.221803 0.364242
O O9 0.238620 0.238978 0.504224
O O10 0.082796 0.235539 0.592016
O O11 0.172793 0.000000 0.492665
O O12 0.087543 0.230328 0.281262
O O13 0.186206 0.000000 0.237309
O O14 0.457481 0.500000 0.145429
O O15 0.347282 0.323078 0.300125
O O16 0.297473 0.500000 0.478873
O O17 0.389968 0.726672 0.449147
O O18 0.500000 0.718508 0.500000
O O19 0.510968 0.500000 0.621902
O O20 0.000000 0.786545 0.500000
O O21 0.001058 0.000000 0.371143
#
# Coordination Sequence:
#
# PCOD8067423 Si02
#       8
#     4   4   4   4   4   4   4   4
#     4  11  22  32  45  66  87 108 142 184 222 257
#     4  11  20  30  43  59  86 120 152 182 214 256
#     4   9  15  24  40  60  84 115 149 181 215 255
#     4   9  16  26  40  58  83 116 154 187 214 245
#     4   9  18  31  43  57  84 120 151 179 214 254
#     4   9  16  27  43  65  87 110 143 181 217 252
#     4   9  19  37  55  66  83 114 145 174 218 271
#     4   7  12  23  37  54  79 114 150 181 212 249
#
# _framework density 15.409644999999999
#
# number of rings (size 3 to 8) (size 9 to 14) (size 15 to 20)
#    0.000    2.750    1.250    4.125    0.000    4.750 
#    0.000    0.625    0.000    2.250    0.000    0.000 
#    0.000    1.000    0.000   11.500    0.000    3.500 
#
# Total GULP energy -396488.420600 kJ/mol
# GULP energy per Si atom -12390.263144 kJ/mol
# Density = 1.537457 g / cm^3
# Si number density = 15.409645 Si / 1000 Ang^3
#
#
#
# Elastic Constant Matrix: (Units=GPa)
#
#
# Indices 1 2 3 4 5 6 
#
# 1 93.4158 42.3950 62.0028 0.0000 -15.1020 0.0000
# 2 42.3950 62.9379 43.4519 0.0000 -12.2268 0.0000
# 3 62.0028 43.4519 84.5072 0.0000 -13.9484 0.0000
# 4 0.0000 0.0000 0.0000 7.0490 0.0000 2.3789
# 5 -15.1020 -12.2268 -13.9484 0.0000 23.7730 0.0000
# 6 0.0000 0.0000 0.0000 2.3789 0.0000 16.5168
#
#
#
# Elastic Compliance Matrix: (Units=1/GPa)
#
#
# Indices 1 2 3 4 5 6 
#
# 1 0.022425 -0.005331 -0.013080 0.000000 0.003829 0.000000
# 2 -0.005331 0.026645 -0.008953 0.000000 0.005064 0.000000
# 3 -0.013080 -0.008953 0.026465 0.000000 0.002614 0.000000
# 4 0.000000 0.000000 0.000000 0.149111 0.000000 -0.021476
# 5 0.003829 0.005064 0.002614 0.000000 0.048636 0.000000
# 6 0.000000 0.000000 0.000000 -0.021476 0.000000 0.063638
#
#
# Mechanical properties :
#
#
# Convention : Reuss Voigt Hill
#
# Bulk Modulus (GPa) = 48.06171 59.61782 53.83976
# Shear Modulus (GPa) = 12.54449 15.66850 14.10649
#
# Velocity S-wave (km/s) = 2.85628 3.19219 3.02889
# Velocity P-wave (km/s) = 6.49114 7.23598 6.87365
#
# Compressibility (1/GPa) = 0.02080658
#
# Stress axis : x y z
#
# Youngs Moduli (GPa) = 44.59352 37.53117 37.78627
#
# Poissons Ratio (x) = 0.20009 0.49423
# Poissons Ratio (y) = 0.23774 0.33829
# Poissons Ratio (z) = 0.58327 0.33600
#
# Static dielectric constant tensor:
#      x y z
#    x 3.066600 0.000000 -0.306370 
#    y 0.000000 2.796680 0.000000 
#    z -0.306370 0.000000 2.805220 
# 
# 
# High freq. dielectric constant tensor:
#      x y z
#    x 1.577580 0.000000 -0.031900 
#    y 0.000000 1.579900 0.000000 
#    z -0.031900 0.000000 1.558050 
# 
# From -- ./inp_files/56435.got.cif
#   From: 2010.06.25/outbox.cif.g09.slc.cpg/sg10_29_cif.got.tgz:56435.got - 2010.06.27 22:07:45.
