data_PCOD8067634
_publ_section_title
;
Structure prediction by ZEFSAII (Michael W. Deem and Ramdas Pophale) SiO2 
 PCOD8067634
Probable space group: P 2/M
;
_chemical_formula_sum "Si O2"
_cell_formula_units_Z 22
_cell_length_a 15.161208
_cell_length_b 12.070211
_cell_length_c 12.185558
_cell_angle_alpha 90.000000
_cell_angle_beta 28.428211
_cell_angle_gamma 90.000000
_cell_volume 1061.581372
_symmetry_space_group_name_H-M "P 2/M"
_symmetry_group_IT_number 10
_symmetry_cell_setting 'monoclinic'
loop_
_space_group_symop_operation_xyz
x,y,z
-x,y,-z
-x,-y,-z
x,-y,z
loop_
_atom_site_type_symbol
_atom_site_label
_atom_site_fract_x
_atom_site_fract_y
_atom_site_fract_z
Si Si1 0.420533 0.720194 0.888801
Si Si2 0.903921 0.500000 0.430032
Si Si3 0.291587 0.500000 0.127482
Si Si4 0.000000 0.309515 0.000000
Si Si5 0.844430 0.263954 0.392999
Si Si6 0.902314 0.125118 0.722673
Si Si7 0.657085 0.376901 0.250398
O O1 0.629298 0.763698 0.648890
O O2 0.327315 0.699690 0.872467
O O3 0.413429 0.609196 0.970428
O O4 0.296123 0.816302 0.077833
O O5 0.760576 0.500000 0.687568
O O6 0.877295 0.393388 0.382825
O O7 0.112167 0.500000 0.246902
O O8 0.101815 0.237933 0.793023
O O9 0.150801 0.385132 0.895315
O O10 0.967558 0.186917 0.334072
O O11 0.000000 0.128456 0.500000
O O12 0.869811 0.000000 0.799169
O O13 0.500000 0.325323 0.500000
O O14 0.597248 0.500000 0.277748
#
# Coordination Sequence:
#
# PCOD8067634 Si02
#       7
#     4   2   2   2   4   4   4
#     4  12  23  41  66  98 133 173 211 271 324 393
#     4  11  23  38  62  95 132 179 209 256 324 400
#     4  11  21  39  61  92 135 172 215 259 325 388
#     4  12  23  38  63  92 128 174 215 257 316 386
#     4  12  26  40  67  98 133 170 215 264 330 387
#     4  11  26  48  71  94 125 170 224 276 325 381
#     4  11  22  36  60  95 136 175 215 259 313 389
#
# _framework density 20.723800000000001
#
# number of rings (size 3 to 8) (size 9 to 14) (size 15 to 20)
#    0.000    0.545    6.364    1.909    2.545    4.364 
#    0.000    2.273    0.000    1.636    0.000    0.000 
#    0.000    0.000    0.000    0.000    0.000    0.000 
#
# Total GULP energy -272843.013305 kJ/mol
# GULP energy per Si atom -12401.955150 kJ/mol
# Density = 2.067663 g / cm^3
# Si number density = 20.723800 Si / 1000 Ang^3
#
#
#
# Elastic Constant Matrix: (Units=GPa)
#
#
# Indices 1 2 3 4 5 6 
#
# 1 70.4895 23.7096 33.0087 0.0000 -6.4664 0.0000
# 2 23.7096 122.8145 49.2849 0.0000 -3.6342 0.0000
# 3 33.0087 49.2849 151.8743 0.0000 -5.9766 0.0000
# 4 0.0000 0.0000 0.0000 5.2042 0.0000 2.5790
# 5 -6.4664 -3.6342 -5.9766 0.0000 37.9164 0.0000
# 6 0.0000 0.0000 0.0000 2.5790 0.0000 2.4013
#
#
#
# Elastic Compliance Matrix: (Units=1/GPa)
#
#
# Indices 1 2 3 4 5 6 
#
# 1 0.016372 -0.001958 -0.002838 0.000000 0.002157 0.000000
# 2 -0.001958 0.009602 -0.002684 0.000000 0.000163 0.000000
# 3 -0.002838 -0.002684 0.008093 0.000000 0.000534 0.000000
# 4 0.000000 0.000000 0.000000 0.410781 0.000000 -0.441176
# 5 0.002157 0.000163 0.000534 0.000000 0.026842 0.000000
# 6 0.000000 0.000000 0.000000 -0.441176 0.000000 0.890264
#
#
# Mechanical properties :
#
#
# Convention : Reuss Voigt Hill
#
# Bulk Modulus (GPa) = 52.33575 61.90942 57.12258
# Shear Modulus (GPa) = 3.61459 25.04937 14.33198
#
# Velocity S-wave (km/s) = 1.32210 3.48044 2.63263
# Velocity P-wave (km/s) = 5.25732 6.78894 6.07162
#
# Compressibility (1/GPa) = 0.01910740
#
# Stress axis : x y z
#
# Youngs Moduli (GPa) = 61.07999 104.14189 123.55945
#
# Poissons Ratio (x) = 0.20390 0.35067
# Poissons Ratio (y) = 0.11959 0.33164
# Poissons Ratio (z) = 0.17335 0.27953
#
# Static dielectric constant tensor:
#      x y z
#    x 3.760090 0.000000 0.123100 
#    y 0.000000 3.514150 0.000000 
#    z 0.123100 0.000000 4.225110 
# 
# 
# High freq. dielectric constant tensor:
#      x y z
#    x 1.820970 0.000000 0.001970 
#    y 0.000000 1.762830 0.000000 
#    z 0.001970 0.000000 1.842860 
# 
# From -- ./inp_files/51026.got.cif
#   From: 2010.06.25/outbox.cif.g09.slc.cpg/sg10_26_cif.got.tgz:51026.got - 2010.06.27 22:07:45.
