data_PCOD8067667
_publ_section_title
;
Structure prediction by ZEFSAII (Michael W. Deem and Ramdas Pophale) SiO2 
 PCOD8067667
Probable space group: P 2/M
;
_chemical_formula_sum "Si O2"
_cell_formula_units_Z 24
_cell_length_a 7.945555
_cell_length_b 9.391241
_cell_length_c 20.987321
_cell_angle_alpha 90.000000
_cell_angle_beta 124.565212
_cell_angle_gamma 90.000000
_cell_volume 1289.608265
_symmetry_space_group_name_H-M "P 2/M"
_symmetry_group_IT_number 10
_symmetry_cell_setting 'monoclinic'
loop_
_space_group_symop_operation_xyz
x,y,z
-x,y,-z
-x,-y,-z
x,-y,z
loop_
_atom_site_type_symbol
_atom_site_label
_atom_site_fract_x
_atom_site_fract_y
_atom_site_fract_z
Si Si1 0.179084 0.848201 0.992396
Si Si2 0.524766 0.339699 0.081437
Si Si3 0.673487 0.663531 0.406901
Si Si4 0.062750 0.663637 0.410794
Si Si5 0.742367 0.168249 0.664136
Si Si6 0.097837 0.835717 0.834462
O O1 0.083998 0.792541 0.905612
O O2 0.294855 0.000000 0.004430
O O3 0.321243 0.738125 0.061371
O O4 0.000000 0.882179 0.000000
O O5 0.529541 0.500000 0.106861
O O6 0.719785 0.261734 0.154054
O O7 0.500000 0.324915 0.000000
O O8 0.603656 0.500000 0.382806
O O9 0.832510 0.706155 0.384336
O O10 0.475866 0.764109 0.365413
O O11 0.784612 0.681844 0.497821
O O12 0.064342 0.500000 0.387435
O O13 0.145679 0.765260 0.373176
O O14 0.885088 0.201463 0.755307
O O15 0.713493 0.000000 0.646024
O O16 0.153542 0.000000 0.834836
#
# Coordination Sequence:
#
# PCOD8067667 Si02
#       6
#     4   4   4   4   4   4
#     4   9  17  32  54  74  95 132 175 210 251 308
#     4   9  17  30  50  73  96 124 162 210 255 295
#     4   9  19  37  59  80 105 142 185 226 264 318
#     4   9  19  37  59  80 105 142 187 224 263 321
#     4  11  22  34  52  81 115 146 176 221 276 323
#     4   9  19  35  50  70 102 137 171 206 254 317
#
# _framework density 18.610301
#
# number of rings (size 3 to 8) (size 9 to 14) (size 15 to 20)
#    0.000    2.667    0.000    2.500    0.000    7.000 
#    3.000    1.667    0.000    0.000    0.000    0.000 
#    0.000    0.000    0.000    0.000    0.000    0.000 
#
# Total GULP energy -297367.586131 kJ/mol
# GULP energy per Si atom -12390.316089 kJ/mol
# Density = 1.856794 g / cm^3
# Si number density = 18.610301 Si / 1000 Ang^3
#
#
#
# Elastic Constant Matrix: (Units=GPa)
#
#
# Indices 1 2 3 4 5 6 
#
# 1 123.8142 73.5611 54.2586 0.0000 22.2796 0.0000
# 2 73.5611 120.6703 58.0077 0.0000 24.5044 0.0000
# 3 54.2586 58.0077 80.3054 0.0000 22.5189 0.0000
# 4 0.0000 0.0000 0.0000 -27.9740 0.0000 -16.2475
# 5 22.2796 24.5044 22.5189 0.0000 23.9876 0.0000
# 6 0.0000 0.0000 0.0000 -16.2475 0.0000 20.4904
#
#
#
# Elastic Compliance Matrix: (Units=1/GPa)
#
#
# Indices 1 2 3 4 5 6 
#
# 1 0.013997 -0.005805 -0.004454 0.000000 -0.002889 0.000000
# 2 -0.005805 0.015753 -0.006049 0.000000 -0.005023 0.000000
# 3 -0.004454 -0.006049 0.022990 0.000000 -0.011267 0.000000
# 4 0.000000 0.000000 0.000000 -0.024475 0.000000 -0.019407
# 5 -0.002889 -0.005023 -0.011267 0.000000 0.060080 0.000000
# 6 0.000000 0.000000 0.000000 -0.019407 0.000000 0.033415
#
#
# Mechanical properties :
#
#
# Convention : Reuss Voigt Hill
#
# Bulk Modulus (GPa) = 49.68710 77.38274 63.53492
# Shear Modulus (GPa) = 31.03969 12.56496 21.80232
#
# Velocity S-wave (km/s) = 4.08840 2.60121 3.42646
# Velocity P-wave (km/s) = 7.00309 7.11987 7.06172
#
# Compressibility (1/GPa) = 0.02012595
#
# Stress axis : x y z
#
# Youngs Moduli (GPa) = 71.44269 63.47812 43.49646
#
# Poissons Ratio (x) = 0.36849 0.19373
# Poissons Ratio (y) = 0.41472 0.26310
# Poissons Ratio (z) = 0.31820 0.38396
#
# Static dielectric constant tensor:
#      x y z
#    x 3.406080 0.000000 0.122600 
#    y 0.000000 3.490960 0.000000 
#    z 0.122600 0.000000 3.311700 
# 
# 
# High freq. dielectric constant tensor:
#      x y z
#    x 1.717640 0.000000 0.013430 
#    y 0.000000 1.726320 0.000000 
#    z 0.013430 0.000000 1.708620 
# 
# From -- ./inp_files/33505.got.cif
#   From: 2010.06.25/outbox.cif.g09.slc.cpg/sg10_17_cif.got.tgz:33505.got - 2010.06.27 22:07:45.
