data_PCOD8067425
_publ_section_title
;
Structure prediction by ZEFSAII (Michael W. Deem and Ramdas Pophale) SiO2 
 PCOD8067425
Probable space group: P 2/M
;
_chemical_formula_sum "Si O2"
_cell_formula_units_Z 28
_cell_length_a 19.424234
_cell_length_b 7.993332
_cell_length_c 22.060491
_cell_angle_alpha 90.000000
_cell_angle_beta 152.881220
_cell_angle_gamma 90.000000
_cell_volume 1561.335329
_symmetry_space_group_name_H-M "P 2/M"
_symmetry_group_IT_number 10
_symmetry_cell_setting 'monoclinic'
loop_
_space_group_symop_operation_xyz
x,y,z
-x,y,-z
-x,-y,-z
x,-y,z
loop_
_atom_site_type_symbol
_atom_site_label
_atom_site_fract_x
_atom_site_fract_y
_atom_site_fract_z
Si Si1 0.683965 0.682057 0.848086
Si Si2 0.936709 0.698228 0.358711
Si Si3 0.766283 0.697816 0.343280
Si Si4 0.237502 0.000000 0.155755
Si Si5 0.996909 0.686239 0.837230
Si Si6 0.549546 0.187833 0.858760
Si Si7 0.912936 0.000000 0.838204
Si Si8 0.833965 0.695985 0.149397
O O1 0.652110 0.500000 0.792380
O O2 0.667430 0.832959 0.786917
O O3 0.568816 0.698623 0.814169
O O4 0.851834 0.683314 0.005371
O O5 0.940402 0.500000 0.358526
O O6 0.815201 0.753668 0.314028
O O7 0.890446 0.773828 0.257336
O O8 0.104242 0.759130 0.508501
O O9 0.741930 0.500000 0.327868
O O10 0.612642 0.789607 0.238671
O O11 0.213383 0.000000 0.208841
O O12 0.079568 0.000000 0.996825
O O13 0.920929 0.500000 0.781148
O O14 0.037670 0.733602 0.800050
O O15 0.888703 0.831794 0.778942
O O16 0.570549 0.000000 0.852092
O O17 0.674801 0.222550 0.007825
O O18 0.804684 0.500000 0.131872
#
# Coordination Sequence:
#
# PCOD8067425 Si02
#       8
#     4   4   4   2   4   4   2   4
#     4   9  16  28  43  61  89 123 158 198 239 278
#     4   8  16  32  52  70  91 120 160 205 247 294
#     4   9  17  32  52  70  90 123 160 200 252 295
#     4   9  16  26  38  64  88 125 156 192 227 289
#     4   8  15  25  40  61  88 121 156 193 235 280
#     4  11  20  30  45  67  96 128 163 203 241 286
#     4   9  16  24  40  58  94 123 156 186 233 281
#     4   9  17  30  48  69  91 122 163 204 242 285
#
# _framework density 17.933367000000001
#
# number of rings (size 3 to 8) (size 9 to 14) (size 15 to 20)
#    0.000    3.000    0.714    3.000    3.000    1.143 
#    0.000    8.571    0.000    0.000    0.000    0.000 
#    0.000    2.286    0.000    8.571    0.000    7.714 
#
# Total GULP energy -347029.244071 kJ/mol
# GULP energy per Si atom -12393.901574 kJ/mol
# Density = 1.789255 g / cm^3
# Si number density = 17.933367 Si / 1000 Ang^3
#
#
#
# Elastic Constant Matrix: (Units=GPa)
#
#
# Indices 1 2 3 4 5 6 
#
# 1 127.4605 60.7437 51.2113 0.0000 -5.9148 0.0000
# 2 60.7437 107.6452 27.2229 0.0000 -3.5596 0.0000
# 3 51.2113 27.2229 49.7531 0.0000 -3.9460 0.0000
# 4 0.0000 0.0000 0.0000 2.7379 0.0000 2.6236
# 5 -5.9148 -3.5596 -3.9460 0.0000 1.9681 0.0000
# 6 0.0000 0.0000 0.0000 2.6236 0.0000 27.4248
#
#
#
# Elastic Compliance Matrix: (Units=1/GPa)
#
#
# Indices 1 2 3 4 5 6 
#
# 1 0.016110 -0.005481 -0.012520 0.000000 0.013399 0.000000
# 2 -0.005481 0.012786 -0.000983 0.000000 0.004682 0.000000
# 3 -0.012520 -0.000983 0.036147 0.000000 0.033069 0.000000
# 4 0.000000 0.000000 0.000000 0.402102 0.000000 -0.038468
# 5 0.013399 0.004682 0.033069 0.000000 0.623133 0.000000
# 6 0.000000 0.000000 0.000000 -0.038468 0.000000 0.040143
#
#
# Mechanical properties :
#
#
# Convention : Reuss Voigt Hill
#
# Bulk Modulus (GPa) = 36.93526 62.57938 49.75732
# Shear Modulus (GPa) = 4.24659 16.13825 10.19242
#
# Velocity S-wave (km/s) = 1.54049 3.00309 2.38659
# Velocity P-wave (km/s) = 4.87901 6.85536 5.94982
#
# Compressibility (1/GPa) = 0.02707440
#
# Stress axis : x y z
#
# Youngs Moduli (GPa) = 62.07308 78.20897 27.66483
#
# Poissons Ratio (x) = 0.42870 0.34637
# Poissons Ratio (y) = 0.34025 0.02719
# Poissons Ratio (z) = 0.77717 0.07686
#
# Static dielectric constant tensor:
#      x y z
#    x 3.443060 0.000000 -0.179130 
#    y 0.000000 3.455540 0.000000 
#    z -0.179130 0.000000 2.967410 
# 
# 
# High freq. dielectric constant tensor:
#      x y z
#    x 1.692900 0.000000 -0.002340 
#    y 0.000000 1.697940 0.000000 
#    z -0.002340 0.000000 1.632820 
# 
# From -- ./inp_files/85676.got.cif
#   From: 2010.06.25/outbox.cif.g09.slc.cpg/sg10_43_cif.got.tgz:85676.got - 2010.06.27 22:07:45.
