data_PCOD8067923
_publ_section_title
;
Structure prediction by ZEFSAII (Michael W. Deem and Ramdas Pophale) SiO2 
 PCOD8067923
Probable space group: P 2/M
;
_chemical_formula_sum "Si O2"
_cell_formula_units_Z 24
_cell_length_a 11.510968
_cell_length_b 9.242007
_cell_length_c 19.979533
_cell_angle_alpha 90.000000
_cell_angle_beta 43.174775
_cell_angle_gamma 90.000000
_cell_volume 1454.330499
_symmetry_space_group_name_H-M "P 2/M"
_symmetry_group_IT_number 10
_symmetry_cell_setting 'monoclinic'
loop_
_space_group_symop_operation_xyz
x,y,z
-x,y,-z
-x,-y,-z
x,-y,z
loop_
_atom_site_type_symbol
_atom_site_label
_atom_site_fract_x
_atom_site_fract_y
_atom_site_fract_z
Si Si1 0.383565 0.331325 0.831324
Si Si2 0.112452 0.163368 0.018859
Si Si3 0.104295 0.672068 0.553327
Si Si4 0.245257 0.328210 0.354943
Si Si5 0.837366 0.331743 0.205683
Si Si6 0.688862 0.672402 0.408204
O O1 0.376814 0.500000 0.852813
O O2 0.575267 0.269279 0.747431
O O3 0.298858 0.303019 0.795072
O O4 0.288872 0.244828 0.929959
O O5 0.011431 0.245002 0.120033
O O6 0.151286 0.000000 0.025341
O O7 0.000000 0.167462 0.000000
O O8 0.113773 0.500000 0.549883
O O9 0.208168 0.730867 0.445351
O O10 0.187446 0.734838 0.585941
O O11 0.907029 0.721213 0.630576
O O12 0.255515 0.500000 0.354497
O O13 0.885283 0.500000 0.190046
O O14 0.756500 0.273054 0.308344
O O15 0.500000 0.733642 0.500000
O O16 0.685197 0.500000 0.411192
#
# Coordination Sequence:
#
# PCOD8067923 Si02
#       6
#     4   4   4   4   4   4
#     4   9  15  24  40  61  82 103 132 167 200 234
#     4   9  17  28  41  58  80 105 133 166 204 241
#     4   8  13  21  33  54  84 111 133 158 193 235
#     4   8  13  21  35  56  82 108 131 161 198 232
#     4   9  16  25  39  60  84 107 130 161 200 237
#     4   9  15  22  35  57  84 110 133 158 192 236
#
# _framework density 16.502438999999999
#
# number of rings (size 3 to 8) (size 9 to 14) (size 15 to 20)
#    0.000    3.333    0.000    2.500    0.000    6.000 
#    0.000    0.000    0.000    1.500    0.000   11.667 
#    0.000    0.000    0.000    0.000    0.000    0.000 
#
# Total GULP energy -297472.520179 kJ/mol
# GULP energy per Si atom -12394.688341 kJ/mol
# Density = 1.646488 g / cm^3
# Si number density = 16.502439 Si / 1000 Ang^3
#
#
#
# Elastic Constant Matrix: (Units=GPa)
#
#
# Indices 1 2 3 4 5 6 
#
# 1 88.8262 22.4548 68.3060 0.0000 -8.7463 0.0000
# 2 22.4548 39.2893 45.1997 0.0000 -5.1649 0.0000
# 3 68.3060 45.1997 176.7256 0.0000 -17.7845 0.0000
# 4 0.0000 0.0000 0.0000 2.4933 0.0000 0.8769
# 5 -8.7463 -5.1649 -17.7845 0.0000 28.5040 0.0000
# 6 0.0000 0.0000 0.0000 0.8769 0.0000 5.1679
#
#
#
# Elastic Compliance Matrix: (Units=1/GPa)
#
#
# Indices 1 2 3 4 5 6 
#
# 1 0.016283 -0.002903 -0.005443 0.000000 0.001074 0.000000
# 2 -0.002903 0.036600 -0.008174 0.000000 0.000641 0.000000
# 3 -0.005443 -0.008174 0.010175 0.000000 0.003197 0.000000
# 4 0.000000 0.000000 0.000000 0.426526 0.000000 -0.072375
# 5 0.001074 0.000641 0.003197 0.000000 0.037523 0.000000
# 6 0.000000 0.000000 0.000000 -0.072375 0.000000 0.205783
#
#
# Mechanical properties :
#
#
# Convention : Reuss Voigt Hill
#
# Bulk Modulus (GPa) = 33.31485 64.08466 48.69975
# Shear Modulus (GPa) = 6.44383 18.49175 12.46779
#
# Velocity S-wave (km/s) = 1.97819 3.35109 2.75164
# Velocity P-wave (km/s) = 5.04473 7.34104 6.29842
#
# Compressibility (1/GPa) = 0.03001665
#
# Stress axis : x y z
#
# Youngs Moduli (GPa) = 61.41310 27.32270 98.28415
#
# Poissons Ratio (x) = 0.07933 0.53495
# Poissons Ratio (y) = 0.17830 0.80339
# Poissons Ratio (z) = 0.33427 0.22334
#
# Static dielectric constant tensor:
#      x y z
#    x 3.105410 0.000000 -0.126730 
#    y 0.000000 2.651290 0.000000 
#    z -0.126730 0.000000 3.342080 
# 
# 
# High freq. dielectric constant tensor:
#      x y z
#    x 1.611090 0.000000 -0.011010 
#    y 0.000000 1.579630 0.000000 
#    z -0.011010 0.000000 1.645540 
# 
# From -- ./inp_files/45641.got.cif
#   From: 2010.06.25/outbox.cif.g09.slc.cpg/sg10_23_cif.got.tgz:45641.got - 2010.06.27 22:07:45.
