data_PCOD8067349
_publ_section_title
;
Structure prediction by ZEFSAII (Michael W. Deem and Ramdas Pophale) SiO2 
 PCOD8067349
Probable space group: P 2/M
;
_chemical_formula_sum "Si O2"
_cell_formula_units_Z 20
_cell_length_a 9.565138
_cell_length_b 7.674161
_cell_length_c 13.297604
_cell_angle_alpha 90.000000
_cell_angle_beta 105.802202
_cell_angle_gamma 90.000000
_cell_volume 939.213427
_symmetry_space_group_name_H-M "P 2/M"
_symmetry_group_IT_number 10
_symmetry_cell_setting 'monoclinic'
loop_
_space_group_symop_operation_xyz
x,y,z
-x,y,-z
-x,-y,-z
x,-y,z
loop_
_atom_site_type_symbol
_atom_site_label
_atom_site_fract_x
_atom_site_fract_y
_atom_site_fract_z
Si Si1 0.336999 0.794751 0.990336
Si Si2 0.777324 0.800675 0.815506
Si Si3 0.337365 0.500000 0.344681
Si Si4 0.322018 0.500000 0.571783
Si Si5 0.925319 0.301403 0.193252
Si Si6 0.871921 0.804031 0.401276
O O1 0.230755 0.704598 0.890234
O O2 0.323441 0.000000 0.973043
O O3 0.500000 0.729115 0.000000
O O4 0.291461 0.737626 0.093128
O O5 0.718690 0.676895 0.716622
O O6 0.952459 0.783992 0.854878
O O7 0.732084 0.000000 0.783694
O O8 0.279170 0.500000 0.446696
O O9 0.509047 0.500000 0.375286
O O10 0.261759 0.673069 0.613070
O O11 0.967971 0.500000 0.224384
O O12 0.926256 0.196892 0.297488
O O13 0.000000 0.742502 0.500000
O O14 0.821300 0.000000 0.418969
#
# Coordination Sequence:
#
# PCOD8067349 Si02
#       6
#     4   4   2   2   4   4
#     4  10  24  43  65  96 133 173 221 272 327 395
#     4  11  24  44  69  95 133 177 221 271 328 393
#     4  11  26  44  67  97 134 174 223 269 334 399
#     4  11  25  44  65  98 136 173 218 281 331 384
#     4  12  24  40  68  99 134 174 221 274 330 392
#     4  11  24  42  69  99 132 175 225 272 327 390
#
# _framework density 21.294412999999999
#
# number of rings (size 3 to 8) (size 9 to 14) (size 15 to 20)
#    0.000    1.000    2.000    3.900    4.200    6.000 
#    0.000    2.000    0.000    0.000    0.000    0.000 
#    0.000    0.000    0.000    0.000    0.000    0.000 
#
# Total GULP energy -248139.360396 kJ/mol
# GULP energy per Si atom -12406.968020 kJ/mol
# Density = 2.124595 g / cm^3
# Si number density = 21.294413 Si / 1000 Ang^3
#
#
#
# Elastic Constant Matrix: (Units=GPa)
#
#
# Indices 1 2 3 4 5 6 
#
# 1 139.3050 28.9160 64.0073 0.0000 -15.6540 0.0000
# 2 28.9160 103.2657 26.4169 0.0000 1.0575 0.0000
# 3 64.0073 26.4169 114.8250 0.0000 -3.3207 0.0000
# 4 0.0000 0.0000 0.0000 30.1838 0.0000 -0.5611
# 5 -15.6540 1.0575 -3.3207 0.0000 34.0657 0.0000
# 6 0.0000 0.0000 0.0000 -0.5611 0.0000 17.6803
#
#
#
# Elastic Compliance Matrix: (Units=1/GPa)
#
#
# Indices 1 2 3 4 5 6 
#
# 1 0.010447 -0.001607 -0.005329 0.000000 0.004331 0.000000
# 2 -0.001607 0.010547 -0.001566 0.000000 -0.001218 0.000000
# 3 -0.005329 -0.001566 0.012004 0.000000 -0.001230 0.000000
# 4 0.000000 0.000000 0.000000 0.033150 0.000000 0.001052
# 5 0.004331 -0.001218 -0.001230 0.000000 0.031263 0.000000
# 6 0.000000 0.000000 0.000000 0.001052 0.000000 0.056594
#
#
# Mechanical properties :
#
#
# Convention : Reuss Voigt Hill
#
# Bulk Modulus (GPa) = 62.51887 66.23067 64.37477
# Shear Modulus (GPa) = 28.35449 32.25632 30.30541
#
# Velocity S-wave (km/s) = 3.65299 3.89624 3.77657
# Velocity P-wave (km/s) = 6.87135 7.17013 7.02233
#
# Compressibility (1/GPa) = 0.01599517
#
# Stress axis : x y z
#
# Youngs Moduli (GPa) = 95.72064 94.81622 83.30542
#
# Poissons Ratio (x) = 0.15233 0.44391
# Poissons Ratio (y) = 0.15378 0.13046
# Poissons Ratio (z) = 0.51007 0.14849
#
# Static dielectric constant tensor:
#      x y z
#    x 3.955630 0.000000 -0.133260 
#    y 0.000000 3.802190 0.000000 
#    z -0.133260 0.000000 3.824950 
# 
# 
# High freq. dielectric constant tensor:
#      x y z
#    x 1.840560 0.000000 -0.006050 
#    y 0.000000 1.845940 0.000000 
#    z -0.006050 0.000000 1.838370 
# 
# From -- ./inp_files/40900.got.cif
#   From: 2010.06.25/outbox.cif.g09.slc.cpg/sg10_21_cif.got.tgz:40900.got - 2010.06.27 22:07:45.
