data_PCOD8067291
_publ_section_title
;
Structure prediction by ZEFSAII (Michael W. Deem and Ramdas Pophale) SiO2 
 PCOD8067291
Probable space group: P 2/M
;
_chemical_formula_sum "Si O2"
_cell_formula_units_Z 28
_cell_length_a 12.889719
_cell_length_b 12.925013
_cell_length_c 9.723554
_cell_angle_alpha 90.000000
_cell_angle_beta 119.667280
_cell_angle_gamma 90.000000
_cell_volume 1407.590804
_symmetry_space_group_name_H-M "P 2/M"
_symmetry_group_IT_number 10
_symmetry_cell_setting 'monoclinic'
loop_
_space_group_symop_operation_xyz
x,y,z
-x,y,-z
-x,-y,-z
x,-y,z
loop_
_atom_site_type_symbol
_atom_site_label
_atom_site_fract_x
_atom_site_fract_y
_atom_site_fract_z
Si Si1 0.631481 0.109126 0.549232
Si Si2 0.103169 0.610836 0.174304
Si Si3 0.704899 0.211373 0.342510
Si Si4 0.299349 0.742591 0.165624
Si Si5 0.187246 0.876934 0.851547
Si Si6 0.040706 0.752609 0.381265
Si Si7 0.480517 0.380077 0.825359
O O1 0.500000 0.080704 0.500000
O O2 0.618933 0.145457 0.382698
O O3 0.680238 0.195884 0.681343
O O4 0.705085 0.000000 0.608115
O O5 0.145361 0.500000 0.260263
O O6 0.211382 0.654889 0.158063
O O7 0.047062 0.671317 0.264616
O O8 0.000000 0.595764 0.000000
O O9 0.720229 0.156001 0.206474
O O10 0.827307 0.204778 0.509308
O O11 0.648370 0.326572 0.288859
O O12 0.416258 0.686488 0.181260
O O13 0.234061 0.819510 0.017453
O O14 0.052550 0.842671 0.723274
O O15 0.188934 0.000000 0.875732
O O16 0.000000 0.701171 0.500000
O O17 0.478433 0.500000 0.772236
O O18 0.500000 0.377118 0.000000
#
# Coordination Sequence:
#
# PCOD8067291 Si02
#       7
#     4   4   4   4   4   4   4
#     4  11  23  38  60  91 131 169 203 257 322 372
#     4  11  23  41  64  91 126 170 209 257 323 375
#     4  11  22  43  64  93 127 165 212 264 316 385
#     4  12  22  43  65  97 131 166 216 269 311 385
#     4  11  24  42  67  94 127 171 220 264 315 381
#     4  10  23  42  64  92 128 161 210 270 314 380
#     4  11  24  43  68  95 128 172 215 264 321 378
#
# _framework density 19.892143999999998
#
# number of rings (size 3 to 8) (size 9 to 14) (size 15 to 20)
#    0.000    1.000    5.714    1.286    0.000    4.000 
#    0.000    4.286    0.000    0.000    0.000    0.000 
#    0.000    0.000    0.000    0.000    0.000    0.000 
#
# Total GULP energy -346933.662213 kJ/mol
# GULP energy per Si atom -12390.487936 kJ/mol
# Density = 1.984687 g / cm^3
# Si number density = 19.892144 Si / 1000 Ang^3
#
#
#
# Elastic Constant Matrix: (Units=GPa)
#
#
# Indices 1 2 3 4 5 6 
#
# 1 92.0836 51.2206 27.4062 0.0000 -8.3600 0.0000
# 2 51.2206 146.2341 37.0592 0.0000 -7.5557 0.0000
# 3 27.4062 37.0592 71.1035 0.0000 -10.7799 0.0000
# 4 0.0000 0.0000 0.0000 9.0004 0.0000 1.0379
# 5 -8.3600 -7.5557 -10.7799 0.0000 40.1672 0.0000
# 6 0.0000 0.0000 0.0000 1.0379 0.0000 32.9322
#
#
#
# Elastic Compliance Matrix: (Units=1/GPa)
#
#
# Indices 1 2 3 4 5 6 
#
# 1 0.014199 -0.004112 -0.003126 0.000000 0.001343 0.000000
# 2 -0.004112 0.009076 -0.003144 0.000000 0.000008 0.000000
# 3 -0.003126 -0.003144 0.017429 0.000000 0.003435 0.000000
# 4 0.000000 0.000000 0.000000 0.111511 0.000000 -0.003514
# 5 0.001343 0.000008 0.003435 0.000000 0.026099 0.000000
# 6 0.000000 0.000000 0.000000 -0.003514 0.000000 0.030476
#
#
# Mechanical properties :
#
#
# Convention : Reuss Voigt Hill
#
# Bulk Modulus (GPa) = 50.15344 60.08813 55.12079
# Shear Modulus (GPa) = 21.16841 29.33564 25.25203
#
# Velocity S-wave (km/s) = 3.26568 3.84439 3.56680
# Velocity P-wave (km/s) = 6.28387 7.06954 6.68825
#
# Compressibility (1/GPa) = 0.01993881
#
# Stress axis : x y z
#
# Youngs Moduli (GPa) = 70.42632 110.18301 57.37683
#
# Poissons Ratio (x) = 0.45305 0.17938
# Poissons Ratio (y) = 0.28958 0.18041
# Poissons Ratio (z) = 0.22017 0.34645
#
# Static dielectric constant tensor:
#      x y z
#    x 3.822100 0.000000 -0.162100 
#    y 0.000000 3.875580 0.000000 
#    z -0.162100 0.000000 3.688380 
# 
# 
# High freq. dielectric constant tensor:
#      x y z
#    x 1.790600 0.000000 -0.011270 
#    y 0.000000 1.778560 0.000000 
#    z -0.011270 0.000000 1.782680 
# 
# From -- ./inp_files/28683.got.cif
#   From: 2010.06.25/outbox.cif.g09.slc.cpg/sg10_15_cif.got.tgz:28683.got - 2010.06.27 22:07:45.
