data_PCOD8067306
_publ_section_title
;
Structure prediction by ZEFSAII (Michael W. Deem and Ramdas Pophale) SiO2 
 PCOD8067306
Probable space group: P 2/M
;
_chemical_formula_sum "Si O2"
_cell_formula_units_Z 24
_cell_length_a 14.977621
_cell_length_b 15.448315
_cell_length_c 8.736982
_cell_angle_alpha 90.000000
_cell_angle_beta 34.319669
_cell_angle_gamma 90.000000
_cell_volume 1139.771689
_symmetry_space_group_name_H-M "P 2/M"
_symmetry_group_IT_number 10
_symmetry_cell_setting 'monoclinic'
loop_
_space_group_symop_operation_xyz
x,y,z
-x,y,-z
-x,-y,-z
x,-y,z
loop_
_atom_site_type_symbol
_atom_site_label
_atom_site_fract_x
_atom_site_fract_y
_atom_site_fract_z
Si Si1 0.141968 0.597190 0.083923
Si Si2 0.661926 0.233476 0.709033
Si Si3 0.330265 0.260219 0.659433
Si Si4 0.832882 0.902412 0.657027
Si Si5 0.321366 0.906853 0.814542
Si Si6 0.785132 0.401860 0.671987
O O1 0.185057 0.500000 0.973970
O O2 0.210194 0.617583 0.154455
O O3 0.954539 0.609943 0.352269
O O4 0.219396 0.657764 0.846409
O O5 0.652967 0.242268 0.541559
O O6 0.800810 0.168325 0.569361
O O7 0.671733 0.330702 0.760778
O O8 0.500000 0.192054 0.000000
O O9 0.500000 0.274848 0.500000
O O10 0.237302 0.176055 0.858230
O O11 0.000000 0.879574 0.500000
O O12 0.838523 0.000000 0.579389
O O13 0.692749 0.896771 0.982080
O O14 0.500000 0.904661 0.500000
O O15 0.244152 0.000000 0.876907
O O16 0.723171 0.500000 0.730844
#
# Coordination Sequence:
#
# PCOD8067306 Si02
#       6
#     4   4   4   4   4   4
#     4   9  19  38  63  87 119 163 205 251 313 373
#     4  12  25  39  63  94 124 167 209 255 310 371
#     4  11  23  38  58  89 127 163 206 255 310 368
#     4  10  23  43  67  95 126 165 210 260 315 373
#     4   9  18  36  61  85 117 160 200 247 305 363
#     4   9  20  39  63  90 120 161 208 255 310 373
#
# _framework density 21.056850000000001
#
# number of rings (size 3 to 8) (size 9 to 14) (size 15 to 20)
#    0.000    2.000    0.000    5.000    4.667    3.000 
#    0.000    1.667    0.000    3.000    0.000    0.000 
#    0.000    0.000    0.000    0.000    0.000    0.000 
#
# Total GULP energy -297445.894434 kJ/mol
# GULP energy per Si atom -12393.578935 kJ/mol
# Density = 2.100892 g / cm^3
# Si number density = 21.056850 Si / 1000 Ang^3
#
#
#
# Elastic Constant Matrix: (Units=GPa)
#
#
# Indices 1 2 3 4 5 6 
#
# 1 98.8462 49.9373 36.1016 0.0000 9.6920 0.0000
# 2 49.9373 138.2159 36.0293 0.0000 6.4358 0.0000
# 3 36.1016 36.0293 89.6920 0.0000 17.8944 0.0000
# 4 0.0000 0.0000 0.0000 31.5691 0.0000 3.9265
# 5 9.6920 6.4358 17.8944 0.0000 26.1409 0.0000
# 6 0.0000 0.0000 0.0000 3.9265 0.0000 16.7422
#
#
#
# Elastic Compliance Matrix: (Units=1/GPa)
#
#
# Indices 1 2 3 4 5 6 
#
# 1 0.013542 -0.003888 -0.003565 0.000000 -0.001623 0.000000
# 2 -0.003888 0.009199 -0.002277 0.000000 0.000735 0.000000
# 3 -0.003565 -0.002277 0.015199 0.000000 -0.008522 0.000000
# 4 0.000000 0.000000 0.000000 0.032628 0.000000 -0.007652
# 5 -0.001623 0.000735 -0.008522 0.000000 0.044509 0.000000
# 6 0.000000 0.000000 0.000000 -0.007652 0.000000 0.061524
#
#
# Mechanical properties :
#
#
# Convention : Reuss Voigt Hill
#
# Bulk Modulus (GPa) = 54.11223 63.43227 58.77225
# Shear Modulus (GPa) = 24.72534 28.53617 26.63076
#
# Velocity S-wave (km/s) = 3.43040 3.68529 3.56013
# Velocity P-wave (km/s) = 6.43772 6.94969 6.69860
#
# Compressibility (1/GPa) = 0.01848011
#
# Stress axis : x y z
#
# Youngs Moduli (GPa) = 73.84358 108.70671 65.79288
#
# Poissons Ratio (x) = 0.42263 0.23457
# Poissons Ratio (y) = 0.28709 0.14982
# Poissons Ratio (z) = 0.26327 0.24754
#
# Static dielectric constant tensor:
#      x y z
#    x 3.471790 0.000000 0.040280 
#    y 0.000000 4.331770 0.000000 
#    z 0.040280 0.000000 3.744510 
# 
# 
# High freq. dielectric constant tensor:
#      x y z
#    x 1.790380 0.000000 0.007960 
#    y 0.000000 1.849680 0.000000 
#    z 0.007960 0.000000 1.824290 
# 
# From -- ./inp_files/29316.got.cif
#   From: 2010.06.25/outbox.cif.g09.slc.cpg/sg10_15_cif.got.tgz:29316.got - 2010.06.27 22:07:45.
