data_PCOD8067411
_publ_section_title
;
Structure prediction by ZEFSAII (Michael W. Deem and Ramdas Pophale) SiO2 
 PCOD8067411
Probable space group: P 2/M
;
_chemical_formula_sum "Si O2"
_cell_formula_units_Z 32
_cell_length_a 10.502765
_cell_length_b 18.187818
_cell_length_c 13.484584
_cell_angle_alpha 90.000000
_cell_angle_beta 144.988939
_cell_angle_gamma 90.000000
_cell_volume 1477.858368
_symmetry_space_group_name_H-M "P 2/M"
_symmetry_group_IT_number 10
_symmetry_cell_setting 'monoclinic'
loop_
_space_group_symop_operation_xyz
x,y,z
-x,y,-z
-x,-y,-z
x,-y,z
loop_
_atom_site_type_symbol
_atom_site_label
_atom_site_fract_x
_atom_site_fract_y
_atom_site_fract_z
Si Si1 0.805061 0.625359 0.943938
Si Si2 0.830452 0.714782 0.303361
Si Si3 0.486913 0.837521 0.105011
Si Si4 0.094519 0.582748 0.773343
Si Si5 0.940307 0.791461 0.065985
Si Si6 0.794369 0.915783 0.434563
Si Si7 0.595506 0.358469 0.451892
Si Si8 0.812275 0.788874 0.591660
O O1 0.569921 0.610764 0.738388
O O2 0.810441 0.587439 0.054537
O O3 0.849127 0.711070 0.985419
O O4 0.000000 0.591102 0.000000
O O5 0.613086 0.758717 0.202831
O O6 0.766859 0.636981 0.211364
O O7 0.000000 0.699377 0.500000
O O8 0.945630 0.764251 0.292976
O O9 0.587017 0.904754 0.230865
O O10 0.500000 0.861106 0.000000
O O11 0.237897 0.835887 0.984667
O O12 0.129694 0.500000 0.757563
O O13 0.834004 0.602570 0.599534
O O14 0.166106 0.791790 0.275227
O O15 0.000000 0.830798 0.000000
O O16 0.755242 0.867534 0.508126
O O17 0.000000 0.886215 0.500000
O O18 0.824496 0.000000 0.486183
O O19 0.500000 0.372938 0.500000
O O20 0.624577 0.271425 0.447216
#
# Coordination Sequence:
#
# PCOD8067411 Si02
#       8
#     4   4   4   4   4   4   4   4
#     4  11  20  38  61  91 126 166 219 278 326 387
#     4  11  21  40  64  92 118 164 224 267 327 390
#     4  12  20  37  68  95 127 173 217 272 329 393
#     4  11  25  42  59  90 135 170 215 279 339 404
#     4  11  22  37  65 102 129 161 224 282 324 381
#     4  11  22  37  61  98 134 170 220 275 335 395
#     4  11  21  38  65  93 122 171 228 269 324 399
#     4  11  19  40  62  93 129 166 210 275 331 383
#
# _framework density 21.652954000000001
#
# number of rings (size 3 to 8) (size 9 to 14) (size 15 to 20)
#    0.000    0.875    7.500    1.500    1.750    1.500 
#    0.000    0.625    0.000    5.250    0.000    0.000 
#    0.000    0.000    0.000    0.000    0.000    0.000 
#
# Total GULP energy -396741.680104 kJ/mol
# GULP energy per Si atom -12398.177503 kJ/mol
# Density = 2.160367 g / cm^3
# Si number density = 21.652954 Si / 1000 Ang^3
#
#
#
# Elastic Constant Matrix: (Units=GPa)
#
#
# Indices 1 2 3 4 5 6 
#
# 1 74.9998 10.7428 24.9927 0.0000 -18.6396 0.0000
# 2 10.7428 69.8006 21.4448 0.0000 -12.6967 0.0000
# 3 24.9927 21.4448 132.2056 0.0000 -26.2862 0.0000
# 4 0.0000 0.0000 0.0000 16.2375 0.0000 -4.4145
# 5 -18.6396 -12.6967 -26.2862 0.0000 41.0929 0.0000
# 6 0.0000 0.0000 0.0000 -4.4145 0.0000 10.2672
#
#
#
# Elastic Compliance Matrix: (Units=1/GPa)
#
#
# Indices 1 2 3 4 5 6 
#
# 1 0.015414 -0.000832 -0.001650 0.000000 0.005679 0.000000
# 2 -0.000832 0.015588 -0.001705 0.000000 0.003348 0.000000
# 3 -0.001650 -0.001705 0.009050 0.000000 0.004514 0.000000
# 4 0.000000 0.000000 0.000000 0.069738 0.000000 0.029984
# 5 0.005679 0.003348 0.004514 0.000000 0.030833 0.000000
# 6 0.000000 0.000000 0.000000 0.029984 0.000000 0.110289
#
#
# Mechanical properties :
#
#
# Convention : Reuss Voigt Hill
#
# Bulk Modulus (GPa) = 31.56946 43.48518 37.52732
# Shear Modulus (GPa) = 18.52915 28.17457 23.35186
#
# Velocity S-wave (km/s) = 2.92847 3.61111 3.28756
# Velocity P-wave (km/s) = 5.10352 6.12480 5.63734
#
# Compressibility (1/GPa) = 0.03167618
#
# Stress axis : x y z
#
# Youngs Moduli (GPa) = 64.87701 64.15374 110.49787
#
# Poissons Ratio (x) = 0.05340 0.18229
# Poissons Ratio (y) = 0.05401 0.18845
# Poissons Ratio (z) = 0.10703 0.10941
#
# Static dielectric constant tensor:
#      x y z
#    x 4.226120 0.000000 -0.140570 
#    y 0.000000 3.516530 0.000000 
#    z -0.140570 0.000000 4.023200 
# 
# 
# High freq. dielectric constant tensor:
#      x y z
#    x 1.846670 0.000000 -0.015380 
#    y 0.000000 1.808520 0.000000 
#    z -0.015380 0.000000 1.864270 
# 
# From -- ./inp_files/65404.got.cif
#   From: 2010.06.25/outbox.cif.g09.slc.cpg/sg10_33_cif.got.tgz:65404.got - 2010.06.27 22:07:45.
