data_PCOD8067669
_publ_section_title
;
Structure prediction by ZEFSAII (Michael W. Deem and Ramdas Pophale) SiO2 
 PCOD8067669
Probable space group: P 2/M
;
_chemical_formula_sum "Si O2"
_cell_formula_units_Z 28
_cell_length_a 20.647984
_cell_length_b 8.697204
_cell_length_c 29.197447
_cell_angle_alpha 90.000000
_cell_angle_beta 19.105975
_cell_angle_gamma 90.000000
_cell_volume 1716.208345
_symmetry_space_group_name_H-M "P 2/M"
_symmetry_group_IT_number 10
_symmetry_cell_setting 'monoclinic'
loop_
_space_group_symop_operation_xyz
x,y,z
-x,y,-z
-x,-y,-z
x,-y,z
loop_
_atom_site_type_symbol
_atom_site_label
_atom_site_fract_x
_atom_site_fract_y
_atom_site_fract_z
Si Si1 0.344421 0.176010 0.568204
Si Si2 0.911307 0.174229 0.850150
Si Si3 0.195117 0.178849 0.397709
Si Si4 0.518561 0.678753 0.121066
Si Si5 0.640156 0.179204 0.864049
Si Si6 0.154429 0.321923 0.616857
Si Si7 0.936336 0.321963 0.422948
O O1 0.500000 0.250258 0.500000
O O2 0.347215 0.265780 0.517348
O O3 0.119711 0.187290 0.739043
O O4 0.403958 0.000000 0.518636
O O5 0.960087 0.231122 0.765536
O O6 0.833722 0.000000 0.900050
O O7 0.743639 0.280273 0.985235
O O8 0.376647 0.278219 0.257797
O O9 0.000000 0.225063 0.500000
O O10 0.163639 0.217750 0.471728
O O11 0.244117 0.000000 0.359269
O O12 0.496923 0.500000 0.124269
O O13 0.470325 0.779820 0.108946
O O14 0.836156 0.280234 0.736846
O O15 0.697425 0.000000 0.825033
O O16 0.500000 0.221140 0.000000
O O17 0.116627 0.500000 0.651180
O O18 0.183761 0.288304 0.543599
O O19 0.922767 0.500000 0.446346
#
# Coordination Sequence:
#
# PCOD8067669 Si02
#       7
#     4   4   4   4   4   4   4
#     4   8  16  31  52  78 107 138 167 198 244 304
#     4   9  18  32  51  74 106 136 166 203 245 297
#     4  11  23  38  55  71  92 129 179 221 257 302
#     4  12  23  35  52  72  99 131 171 215 258 301
#     4  11  23  35  50  70  96 132 173 209 253 301
#     4   9  18  31  49  77 108 134 164 203 251 301
#     4  11  22  35  51  72 100 132 171 215 257 299
#
# _framework density 16.315035999999999
#
# number of rings (size 3 to 8) (size 9 to 14) (size 15 to 20)
#    0.857    1.000    1.429    3.857    0.000    6.571 
#    0.000    0.000    0.000    0.000    0.000    1.000 
#    0.000    8.000    0.000    0.000    0.000    0.000 
#
# Total GULP energy -347070.770471 kJ/mol
# GULP energy per Si atom -12395.384660 kJ/mol
# Density = 1.627790 g / cm^3
# Si number density = 16.315036 Si / 1000 Ang^3
#
#
#
# Elastic Constant Matrix: (Units=GPa)
#
#
# Indices 1 2 3 4 5 6 
#
# 1 95.4534 26.9653 44.1048 0.0000 -3.2187 0.0000
# 2 26.9653 52.7007 21.8573 0.0000 1.1570 0.0000
# 3 44.1048 21.8573 70.7710 0.0000 10.5725 0.0000
# 4 0.0000 0.0000 0.0000 26.1007 0.0000 2.7442
# 5 -3.2187 1.1570 10.5725 0.0000 20.4814 0.0000
# 6 0.0000 0.0000 0.0000 2.7442 0.0000 21.1265
#
#
#
# Elastic Compliance Matrix: (Units=1/GPa)
#
#
# Indices 1 2 3 4 5 6 
#
# 1 0.016780 -0.004496 -0.010294 0.000000 0.008205 0.000000
# 2 -0.004496 0.023080 -0.004362 0.000000 0.000241 0.000000
# 3 -0.010294 -0.004362 0.023944 0.000000 -0.013731 0.000000
# 4 0.000000 0.000000 0.000000 0.038844 0.000000 -0.005046
# 5 0.008205 0.000241 -0.013731 0.000000 0.057189 0.000000
# 6 0.000000 0.000000 0.000000 -0.005046 0.000000 0.047989
#
#
# Mechanical properties :
#
#
# Convention : Reuss Voigt Hill
#
# Bulk Modulus (GPa) = 39.21842 44.97554 42.09698
# Shear Modulus (GPa) = 19.63640 21.94156 20.78898
#
# Velocity S-wave (km/s) = 3.47302 3.67122 3.57350
# Velocity P-wave (km/s) = 6.33821 6.75257 6.54867
#
# Compressibility (1/GPa) = 0.02549823
#
# Stress axis : x y z
#
# Youngs Moduli (GPa) = 59.59588 43.32848 41.76415
#
# Poissons Ratio (x) = 0.19482 0.42993
# Poissons Ratio (y) = 0.26796 0.18217
# Poissons Ratio (z) = 0.61349 0.18900
#
# Static dielectric constant tensor:
#      x y z
#    x 3.032250 0.000000 -0.038770 
#    y 0.000000 3.118610 0.000000 
#    z -0.038770 0.000000 2.950180 
# 
# 
# High freq. dielectric constant tensor:
#      x y z
#    x 1.606120 0.000000 0.001160 
#    y 0.000000 1.643050 0.000000 
#    z 0.001160 0.000000 1.606810 
# 
# From -- ./inp_files/93525.got.cif
#   From: 2010.06.25/outbox.cif.g09.slc.cpg/sg10_47_cif.got.tgz:93525.got - 2010.06.27 22:07:45.
