data_PCOD8067683
_publ_section_title
;
Structure prediction by ZEFSAII (Michael W. Deem and Ramdas Pophale) SiO2 
 PCOD8067683
Probable space group: P 2/M
;
_chemical_formula_sum "Si O2"
_cell_formula_units_Z 24
_cell_length_a 22.195756
_cell_length_b 11.107115
_cell_length_c 22.195708
_cell_angle_alpha 90.000000
_cell_angle_beta 166.593643
_cell_angle_gamma 90.000000
_cell_volume 1268.697949
_symmetry_space_group_name_H-M "P 2/M"
_symmetry_group_IT_number 10
_symmetry_cell_setting 'monoclinic'
loop_
_space_group_symop_operation_xyz
x,y,z
-x,y,-z
-x,-y,-z
x,-y,z
loop_
_atom_site_type_symbol
_atom_site_label
_atom_site_fract_x
_atom_site_fract_y
_atom_site_fract_z
Si Si1 0.232652 0.856602 0.267345
Si Si2 0.564411 0.141077 0.935634
Si Si3 0.612038 0.500000 0.887961
Si Si4 0.836032 0.142689 0.663971
Si Si5 0.070520 0.500000 0.429474
Si Si6 0.368753 0.241649 0.131252
Si Si7 0.964278 0.748954 0.535663
O O1 0.500000 0.805892 0.500000
O O2 0.198307 0.808145 0.301685
O O3 0.232863 0.000000 0.267159
O O4 0.000000 0.805888 0.000000
O O5 0.595976 0.210544 0.904009
O O6 0.294869 0.176424 0.703868
O O7 0.571098 0.000000 0.928899
O O8 0.796266 0.176396 0.205244
O O9 0.634306 0.385495 0.865686
O O10 0.341241 0.500000 0.658857
O O11 0.841126 0.500000 0.158745
O O12 0.602766 0.188460 0.396744
O O13 0.836604 0.000000 0.663395
O O14 0.103258 0.188457 0.897233
O O15 0.049605 0.616604 0.450428
O O16 0.000000 0.733355 0.500000
#
# Coordination Sequence:
#
# PCOD8067683 Si02
#       7
#     4   4   2   4   2   4   4
#     4   9  17  31  52  83 123 161 194 231 282 339
#     4  12  25  42  62  87 124 160 191 237 302 367
#     4  12  24  42  67  82 116 155 198 249 298 349
#     4  11  22  36  60  93 127 158 194 242 292 354
#     4  12  21  46  64  88 112 147 200 255 298 349
#     4  12  23  41  60  88 118 156 202 244 297 352
#     4  12  25  42  65  90 115 153 200 245 300 356
#
# _framework density 18.917033
#
# number of rings (size 3 to 8) (size 9 to 14) (size 15 to 20)
#    0.000    0.667    3.333    5.750    0.000    4.667 
#    0.000    2.500    0.000    0.000    0.000   11.667 
#    0.000    0.000    0.000    0.000    0.000    0.000 
#
# Total GULP energy -297733.089294 kJ/mol
# GULP energy per Si atom -12405.545387 kJ/mol
# Density = 1.887398 g / cm^3
# Si number density = 18.917033 Si / 1000 Ang^3
#
#
#
# Elastic Constant Matrix: (Units=GPa)
#
#
# Indices 1 2 3 4 5 6 
#
# 1 116.7148 16.8793 61.2462 0.0000 7.1731 0.0000
# 2 16.8793 102.0687 27.0061 0.0000 0.8799 0.0000
# 3 61.2462 27.0061 184.6479 0.0000 -1.1917 0.0000
# 4 0.0000 0.0000 0.0000 56.3725 0.0000 -0.2298
# 5 7.1731 0.8799 -1.1917 0.0000 67.5303 0.0000
# 6 0.0000 0.0000 0.0000 -0.2298 0.0000 59.0233
#
#
#
# Elastic Compliance Matrix: (Units=1/GPa)
#
#
# Indices 1 2 3 4 5 6 
#
# 1 0.010534 -0.000838 -0.003379 0.000000 -0.001168 0.000000
# 2 -0.000838 0.010260 -0.001223 0.000000 -0.000066 0.000000
# 3 -0.003379 -0.001223 0.006719 0.000000 0.000493 0.000000
# 4 0.000000 0.000000 0.000000 0.017739 0.000000 0.000069
# 5 -0.001168 -0.000066 0.000493 0.000000 0.014942 0.000000
# 6 0.000000 0.000000 0.000000 0.000069 0.000000 0.016943
#
#
# Mechanical properties :
#
#
# Convention : Reuss Voigt Hill
#
# Bulk Modulus (GPa) = 60.12308 68.18831 64.15570
# Shear Modulus (GPa) = 53.44115 56.47185 54.95650
#
# Velocity S-wave (km/s) = 5.32087 5.46966 5.39578
# Velocity P-wave (km/s) = 8.34268 8.71859 8.53271
#
# Compressibility (1/GPa) = 0.01663255
#
# Stress axis : x y z
#
# Youngs Moduli (GPa) = 94.93088 97.46516 148.84094
#
# Poissons Ratio (x) = 0.08167 0.50294
# Poissons Ratio (y) = 0.07954 0.18205
# Poissons Ratio (z) = 0.32077 0.11921
#
# Static dielectric constant tensor:
#      x y z
#    x 3.637030 0.000000 0.008550 
#    y 0.000000 3.577820 0.000000 
#    z 0.008550 0.000000 3.732160 
# 
# 
# High freq. dielectric constant tensor:
#      x y z
#    x 1.742830 0.000000 0.001760 
#    y 0.000000 1.725310 0.000000 
#    z 0.001760 0.000000 1.762740 
# 
# From -- ./inp_files/90845.got.cif
#   From: 2010.06.25/outbox.cif.g09.slc.cpg/sg10_46_cif.got.tgz:90845.got - 2010.06.27 22:07:45.
