data_PCOD8067365
_publ_section_title
;
Structure prediction by ZEFSAII (Michael W. Deem and Ramdas Pophale) SiO2 
 PCOD8067365
Probable space group: P 2/M
;
_chemical_formula_sum "Si O2"
_cell_formula_units_Z 14
_cell_length_a 5.000138
_cell_length_b 16.830349
_cell_length_c 8.030312
_cell_angle_alpha 90.000000
_cell_angle_beta 55.705676
_cell_angle_gamma 90.000000
_cell_volume 558.301253
_symmetry_space_group_name_H-M "P 2/M"
_symmetry_group_IT_number 10
_symmetry_cell_setting 'monoclinic'
loop_
_space_group_symop_operation_xyz
x,y,z
-x,y,-z
-x,-y,-z
x,-y,z
loop_
_atom_site_type_symbol
_atom_site_label
_atom_site_fract_x
_atom_site_fract_y
_atom_site_fract_z
Si Si1 0.500000 0.813728 0.000000
Si Si2 0.092061 0.312179 0.292252
Si Si3 0.617601 0.909346 0.634399
Si Si4 0.675617 0.589074 0.220238
O O1 0.183414 0.757478 0.130735
O O2 0.545096 0.865224 0.151106
O O3 0.393727 0.371504 0.211281
O O4 0.000000 0.270872 0.500000
O O5 0.772295 0.361169 0.351225
O O6 0.500000 0.871605 0.500000
O O7 0.000000 0.904271 0.500000
O O8 0.495394 0.000000 0.689914
O O9 0.569143 0.500000 0.306435
O O10 0.000000 0.588667 0.000000
#
# Coordination Sequence:
#
# PCOD8067365 Si02
#       4
#     2   4   4   4
#     4  12  25  46  69 102 146 186 218 288 349 406
#     4  12  26  42  66 100 134 178 231 280 345 413
#     4  10  24  46  73 105 137 179 233 278 332 411
#     4  11  23  45  69  93 130 179 232 288 343 404
#
# _framework density 25.076069
#
# number of rings (size 3 to 8) (size 9 to 14) (size 15 to 20)
#    0.000    0.857    2.857    3.000    0.000   13.714 
#    0.000    4.286    0.000    0.000    0.000    0.000 
#    0.000    0.000    0.000    0.000    0.000    0.000 
#
# Total GULP energy -173619.258811 kJ/mol
# GULP energy per Si atom -12401.375629 kJ/mol
# Density = 2.501899 g / cm^3
# Si number density = 25.076069 Si / 1000 Ang^3
#
#
#
# Elastic Constant Matrix: (Units=GPa)
#
#
# Indices 1 2 3 4 5 6 
#
# 1 145.8813 47.2010 42.9941 0.0000 19.5390 0.0000
# 2 47.2010 137.0660 68.1371 0.0000 21.3919 0.0000
# 3 42.9941 68.1371 153.5506 0.0000 32.3723 0.0000
# 4 0.0000 0.0000 0.0000 5.9507 0.0000 24.3577
# 5 19.5390 21.3919 32.3723 0.0000 49.9722 0.0000
# 6 0.0000 0.0000 0.0000 24.3577 0.0000 26.4315
#
#
#
# Elastic Compliance Matrix: (Units=1/GPa)
#
#
# Indices 1 2 3 4 5 6 
#
# 1 0.008019 -0.002004 -0.001014 0.000000 -0.001620 0.000000
# 2 -0.002004 0.009963 -0.003620 0.000000 -0.001136 0.000000
# 3 -0.001014 -0.003620 0.009257 0.000000 -0.004050 0.000000
# 4 0.000000 0.000000 0.000000 -0.060621 0.000000 0.055865
# 5 -0.001620 -0.001136 -0.004050 0.000000 0.023755 0.000000
# 6 0.000000 0.000000 0.000000 0.055865 0.000000 -0.013648
#
#
# Mechanical properties :
#
#
# Convention : Reuss Voigt Hill
#
# Bulk Modulus (GPa) = 71.62741 83.68471 77.65606
# Shear Modulus (GPa) = -935.73416 35.01528 -450.35944
#
# Velocity S-wave (km/s) = -19.33826 3.74085 -13.41593
# Velocity P-wave (km/s) = 21.67945 7.21827 14.45502
#
# Compressibility (1/GPa) = 0.01396114
#
# Stress axis : x y z
#
# Youngs Moduli (GPa) = 124.69711 100.37140 108.02744
#
# Poissons Ratio (x) = 0.20119 0.10958
# Poissons Ratio (y) = 0.24995 0.39109
# Poissons Ratio (z) = 0.12648 0.36337
#
# Static dielectric constant tensor:
#      x y z
#    x 4.529060 0.000000 0.158960 
#    y 0.000000 4.814540 0.000000 
#    z 0.158960 0.000000 4.703830 
# 
# 
# High freq. dielectric constant tensor:
#      x y z
#    x 1.992430 0.000000 0.003740 
#    y 0.000000 2.001740 0.000000 
#    z 0.003740 0.000000 2.024040 
# 
# From -- ./inp_files/14290.got.cif
#   From: 2010.06.25/outbox.cif.g09.slc.cpg/sg10_8_cif.got.tgz:14290.got - 2010.06.27 22:07:45.
