data_PCOD8067203
_publ_section_title
;
Structure prediction by ZEFSAII (Michael W. Deem and Ramdas Pophale) SiO2 
 PCOD8067203
Probable space group: P 2/M
;
_chemical_formula_sum "Si O2"
_cell_formula_units_Z 32
_cell_length_a 12.581958
_cell_length_b 13.271610
_cell_length_c 14.802243
_cell_angle_alpha 90.000000
_cell_angle_beta 38.771705
_cell_angle_gamma 90.000000
_cell_volume 1547.838052
_symmetry_space_group_name_H-M "P 2/M"
_symmetry_group_IT_number 10
_symmetry_cell_setting 'monoclinic'
loop_
_space_group_symop_operation_xyz
x,y,z
-x,y,-z
-x,-y,-z
x,-y,z
loop_
_atom_site_type_symbol
_atom_site_label
_atom_site_fract_x
_atom_site_fract_y
_atom_site_fract_z
Si Si1 0.255750 0.285788 0.482412
Si Si2 0.611709 0.887864 0.012696
Si Si3 0.809056 0.254680 0.118489
Si Si4 0.599027 0.383133 0.777365
Si Si5 0.243657 0.306188 0.043259
Si Si6 0.496930 0.115304 0.286677
Si Si7 0.077185 0.384428 0.320195
Si Si8 0.700133 0.615455 0.359971
O O1 0.392915 0.348350 0.332685
O O2 0.326365 0.171178 0.436832
O O3 0.227167 0.327849 0.601230
O O4 0.073076 0.305727 0.556181
O O5 0.770987 0.811180 0.915294
O O6 0.493890 0.877414 0.180083
O O7 0.689255 0.000000 0.955085
O O8 0.500000 0.862742 0.000000
O O9 0.805222 0.319964 0.028740
O O10 0.670367 0.165104 0.210258
O O11 0.770055 0.330853 0.224989
O O12 0.000000 0.209354 0.000000
O O13 0.564827 0.500000 0.802655
O O14 0.440646 0.331324 0.930333
O O15 0.766407 0.352174 0.721139
O O16 0.126669 0.376973 0.181763
O O17 0.490083 0.000000 0.325084
O O18 0.019064 0.500000 0.378475
O O19 0.500000 0.623530 0.500000
O O20 0.761610 0.500000 0.318934
#
# Coordination Sequence:
#
# PCOD8067203 Si02
#       8
#     4   4   4   4   4   4   4   4
#     4  12  22  41  60  86 122 168 204 253 304 366
#     4   9  17  33  60  89 116 153 201 250 304 363
#     4  11  23  41  63  92 123 157 207 267 320 366
#     4  11  21  37  61  89 123 165 206 243 304 377
#     4  11  21  38  60  90 124 165 203 259 311 367
#     4  10  22  42  66  92 121 161 208 260 318 376
#     4  11  24  37  58  93 131 164 203 250 303 374
#     4  11  22  38  61  88 123 167 213 249 302 373
#
# _framework density 20.673998999999998
#
# number of rings (size 3 to 8) (size 9 to 14) (size 15 to 20)
#    0.000    1.250    3.750    3.750    0.000    4.500 
#    0.000    1.875    0.000    3.750    0.000    0.000 
#    0.000    0.000    0.000    0.000    0.000    0.000 
#
# Total GULP energy -396732.442434 kJ/mol
# GULP energy per Si atom -12397.888826 kJ/mol
# Density = 2.062694 g / cm^3
# Si number density = 20.673999 Si / 1000 Ang^3
#
#
#
# Elastic Constant Matrix: (Units=GPa)
#
#
# Indices 1 2 3 4 5 6 
#
# 1 78.1038 47.5906 40.0057 0.0000 0.9949 0.0000
# 2 47.5906 115.9789 47.2704 0.0000 -6.7118 0.0000
# 3 40.0057 47.2704 91.4053 0.0000 1.0965 0.0000
# 4 0.0000 0.0000 0.0000 21.7422 0.0000 -0.1085
# 5 0.9949 -6.7118 1.0965 0.0000 41.0707 0.0000
# 6 0.0000 0.0000 0.0000 -0.1085 0.0000 7.8050
#
#
#
# Elastic Compliance Matrix: (Units=1/GPa)
#
#
# Indices 1 2 3 4 5 6 
#
# 1 0.019043 -0.005696 -0.005374 0.000000 -0.001249 0.000000
# 2 -0.005696 0.012785 -0.004147 0.000000 0.002338 0.000000
# 3 -0.005374 -0.004147 0.015448 0.000000 -0.000960 0.000000
# 4 0.000000 0.000000 0.000000 0.045997 0.000000 0.000640
# 5 -0.001249 0.002338 -0.000960 0.000000 0.024786 0.000000
# 6 0.000000 0.000000 0.000000 0.000640 0.000000 0.128132
#
#
# Mechanical properties :
#
#
# Convention : Reuss Voigt Hill
#
# Bulk Modulus (GPa) = 59.37285 61.69126 60.53206
# Shear Modulus (GPa) = 17.71551 24.16499 20.94025
#
# Velocity S-wave (km/s) = 2.93046 3.42257 3.18603
# Velocity P-wave (km/s) = 6.34280 6.74710 6.54807
#
# Compressibility (1/GPa) = 0.01684272
#
# Stress axis : x y z
#
# Youngs Moduli (GPa) = 52.51390 78.21667 64.73190
#
# Poissons Ratio (x) = 0.44552 0.34786
# Poissons Ratio (y) = 0.29912 0.26844
# Poissons Ratio (z) = 0.28220 0.32435
#
# Static dielectric constant tensor:
#      x y z
#    x 3.919980 0.000000 0.022590 
#    y 0.000000 3.829790 0.000000 
#    z 0.022590 0.000000 3.796350 
# 
# 
# High freq. dielectric constant tensor:
#      x y z
#    x 1.815620 0.000000 0.009580 
#    y 0.000000 1.796540 0.000000 
#    z 0.009580 0.000000 1.804120 
# 
# From -- ./inp_files/65069.got.cif
#   From: 2010.06.25/outbox.cif.g09.slc.cpg/sg10_33_cif.got.tgz:65069.got - 2010.06.27 22:07:45.
