data_PCOD8067453
_publ_section_title
;
Structure prediction by ZEFSAII (Michael W. Deem and Ramdas Pophale) SiO2 
 PCOD8067453
Probable space group: P 2/M
;
_chemical_formula_sum "Si O2"
_cell_formula_units_Z 28
_cell_length_a 12.123136
_cell_length_b 13.663709
_cell_length_c 10.044073
_cell_angle_alpha 90.000000
_cell_angle_beta 113.120518
_cell_angle_gamma 90.000000
_cell_volume 1530.138095
_symmetry_space_group_name_H-M "P 2/M"
_symmetry_group_IT_number 10
_symmetry_cell_setting 'monoclinic'
loop_
_space_group_symop_operation_xyz
x,y,z
-x,y,-z
-x,-y,-z
x,-y,z
loop_
_atom_site_type_symbol
_atom_site_label
_atom_site_fract_x
_atom_site_fract_y
_atom_site_fract_z
Si Si1 0.348181 0.889814 0.567739
Si Si2 0.513059 0.614697 0.358107
Si Si3 0.279698 0.698852 0.122728
Si Si4 0.623667 0.889699 0.729375
Si Si5 0.842742 0.386858 0.182041
Si Si6 0.881593 0.387514 0.729344
Si Si7 0.235803 0.301423 0.585495
O O1 0.483163 0.864135 0.677591
O O2 0.337180 0.878302 0.404438
O O3 0.255032 0.815957 0.593364
O O4 0.314603 0.000000 0.595272
O O5 0.500000 0.662035 0.500000
O O6 0.513884 0.500000 0.371634
O O7 0.403289 0.646263 0.215500
O O8 0.635123 0.648119 0.348280
O O9 0.297753 0.815908 0.143979
O O10 0.174157 0.662582 0.168153
O O11 0.246904 0.671261 0.956885
O O12 0.648769 0.000000 0.791277
O O13 0.802793 0.500000 0.175739
O O14 0.839543 0.334123 0.322781
O O15 0.976265 0.379905 0.188382
O O16 0.838699 0.500000 0.701551
O O17 0.838458 0.332821 0.577855
#
# Coordination Sequence:
#
# PCOD8067453 Si02
#       7
#     4   4   4   4   4   4   4
#     4   9  17  33  59  89 114 142 187 238 288 343
#     4  11  20  31  54  86 113 142 185 238 289 339
#     4  12  21  37  60  85 117 149 189 242 289 340
#     4   9  17  33  59  89 114 142 187 238 288 343
#     4  11  26  41  54  81 120 161 199 230 280 344
#     4  11  22  39  62  81 108 157 207 240 272 336
#     4  12  21  37  60  85 117 149 189 242 289 340
#
# _framework density 18.299001000000001
#
# number of rings (size 3 to 8) (size 9 to 14) (size 15 to 20)
#    0.000    1.286    4.286    4.286    0.000    2.857 
#    0.000    2.143    0.000    6.857    0.000    0.000 
#    0.000    0.000    0.000    0.000    0.000    0.000 
#
# Total GULP energy -347280.143928 kJ/mol
# GULP energy per Si atom -12402.862283 kJ/mol
# Density = 1.825735 g / cm^3
# Si number density = 18.299001 Si / 1000 Ang^3
#
#
#
# Elastic Constant Matrix: (Units=GPa)
#
#
# Indices 1 2 3 4 5 6 
#
# 1 37.4754 21.6225 10.9233 0.0000 9.5795 0.0000
# 2 21.6225 130.8605 25.4328 0.0000 4.4751 0.0000
# 3 10.9233 25.4328 53.5240 0.0000 1.2722 0.0000
# 4 0.0000 0.0000 0.0000 17.1971 0.0000 -10.2246
# 5 9.5795 4.4751 1.2722 0.0000 23.9267 0.0000
# 6 0.0000 0.0000 0.0000 -10.2246 0.0000 18.5573
#
#
#
# Elastic Compliance Matrix: (Units=1/GPa)
#
#
# Indices 1 2 3 4 5 6 
#
# 1 0.033640 -0.004249 -0.004551 0.000000 -0.012432 0.000000
# 2 -0.004249 0.009001 -0.003414 0.000000 0.000199 0.000000
# 3 -0.004551 -0.003414 0.021203 0.000000 0.001333 0.000000
# 4 0.000000 0.000000 0.000000 0.086478 0.000000 0.047647
# 5 -0.012432 0.000199 0.001333 0.000000 0.046663 0.000000
# 6 0.000000 0.000000 0.000000 0.047647 0.000000 0.080140
#
#
# Mechanical properties :
#
#
# Convention : Reuss Voigt Hill
#
# Bulk Modulus (GPa) = 25.37110 37.53524 31.45317
# Shear Modulus (GPa) = 15.88858 22.86162 19.37510
#
# Velocity S-wave (km/s) = 2.94985 3.53843 3.25746
# Velocity P-wave (km/s) = 5.04945 6.10334 5.60124
#
# Compressibility (1/GPa) = 0.03941493
#
# Stress axis : x y z
#
# Youngs Moduli (GPa) = 29.72650 111.10433 47.16379
#
# Poissons Ratio (x) = 0.47206 0.21464
# Poissons Ratio (y) = 0.12630 0.16104
# Poissons Ratio (z) = 0.13528 0.37935
#
# Static dielectric constant tensor:
#      x y z
#    x 3.433740 0.000000 0.024640 
#    y 0.000000 3.612320 0.000000 
#    z 0.024640 0.000000 3.220780 
# 
# 
# High freq. dielectric constant tensor:
#      x y z
#    x 1.697830 0.000000 0.006670 
#    y 0.000000 1.719540 0.000000 
#    z 0.006670 0.000000 1.691890 
# 
# From -- ./inp_files/25033.got.cif
#   From: 2010.06.25/outbox.cif.g09.slc.cpg/sg10_13_cif.got.tgz:25033.got - 2010.06.27 22:07:45.
