data_PCOD8067852
_publ_section_title
;
Structure prediction by ZEFSAII (Michael W. Deem and Ramdas Pophale) SiO2 
 PCOD8067852
Probable space group: P 2/M
;
_chemical_formula_sum "Si O2"
_cell_formula_units_Z 24
_cell_length_a 11.265787
_cell_length_b 15.294945
_cell_length_c 19.139992
_cell_angle_alpha 90.000000
_cell_angle_beta 156.901925
_cell_angle_gamma 90.000000
_cell_volume 1293.827546
_symmetry_space_group_name_H-M "P 2/M"
_symmetry_group_IT_number 10
_symmetry_cell_setting 'monoclinic'
loop_
_space_group_symop_operation_xyz
x,y,z
-x,y,-z
-x,-y,-z
x,-y,z
loop_
_atom_site_type_symbol
_atom_site_label
_atom_site_fract_x
_atom_site_fract_y
_atom_site_fract_z
Si Si1 0.463838 0.847941 0.290026
Si Si2 0.825286 0.651876 0.011890
Si Si3 0.086573 0.000000 0.467362
Si Si4 0.020408 0.500000 0.206690
Si Si5 0.529113 0.348164 0.712096
Si Si6 0.668006 0.500000 0.483325
Si Si7 0.159971 0.151835 0.978107
Si Si8 0.447492 0.000000 0.052102
O O1 0.600964 0.749910 0.365378
O O2 0.338711 0.870672 0.145663
O O3 0.727985 0.913841 0.453374
O O4 0.197652 0.858444 0.202494
O O5 0.828476 0.584942 0.078668
O O6 0.144319 0.649206 0.146042
O O7 0.569420 0.625943 0.815842
O O8 0.765105 0.749816 0.007069
O O9 0.000000 0.000000 0.500000
O O10 0.780486 0.000000 0.260964
O O11 0.346644 0.500000 0.347499
O O12 0.062507 0.500000 0.313502
O O13 0.303127 0.414721 0.550587
O O14 0.260962 0.085691 0.973043
O O15 0.500000 0.000000 0.000000
#
# Coordination Sequence:
#
# PCOD8067852 Si02
#       8
#     4   4   2   2   4   2   4   2
#     4   9  17  32  58  83  99 131 180 223 256 297
#     4   8  14  25  45  68  94 131 170 202 243 300
#     4  12  21  35  57  81 102 130 177 222 258 307
#     4   9  15  23  37  65 101 137 165 192 243 306
#     4   8  14  25  43  70  99 125 162 211 255 288
#     4   9  15  23  37  65 105 133 155 203 257 293
#     4   9  17  34  56  78 105 137 174 216 259 304
#     4  12  25  39  51  75 110 141 169 210 267 320
#
# _framework density 18.549613000000001
#
# number of rings (size 3 to 8) (size 9 to 14) (size 15 to 20)
#    0.000    2.833    1.667    3.000    0.000    3.333 
#    3.000    1.667    0.000    0.000    0.000    2.333 
#    0.000    0.000    0.000    0.000    0.000    0.000 
#
# Total GULP energy -297489.326418 kJ/mol
# GULP energy per Si atom -12395.388601 kJ/mol
# Density = 1.850739 g / cm^3
# Si number density = 18.549613 Si / 1000 Ang^3
#
#
#
# Elastic Constant Matrix: (Units=GPa)
#
#
# Indices 1 2 3 4 5 6 
#
# 1 88.6787 65.4240 40.3945 0.0000 -21.9857 0.0000
# 2 65.4240 160.9978 56.7377 0.0000 -21.3325 0.0000
# 3 40.3945 56.7377 71.6989 0.0000 -18.6421 0.0000
# 4 0.0000 0.0000 0.0000 6.8626 0.0000 -9.6652
# 5 -21.9857 -21.3325 -18.6421 0.0000 25.9652 0.0000
# 6 0.0000 0.0000 0.0000 -9.6652 0.0000 10.5132
#
#
#
# Elastic Compliance Matrix: (Units=1/GPa)
#
#
# Indices 1 2 3 4 5 6 
#
# 1 0.019287 -0.005053 -0.004550 0.000000 0.008913 0.000000
# 2 -0.005053 0.010092 -0.005036 0.000000 0.000397 0.000000
# 3 -0.004550 -0.005036 0.022646 0.000000 0.008269 0.000000
# 4 0.000000 0.000000 0.000000 -0.494282 0.000000 -0.454417
# 5 0.008913 0.000397 0.008269 0.000000 0.052322 0.000000
# 6 0.000000 0.000000 0.000000 -0.454417 0.000000 -0.322648
#
#
# Mechanical properties :
#
#
# Convention : Reuss Voigt Hill
#
# Bulk Modulus (GPa) = 43.96320 71.83197 57.89759
# Shear Modulus (GPa) = -7.39950 19.25614 5.92832
#
# Velocity S-wave (km/s) = -1.99942 3.22543 1.78966
# Velocity P-wave (km/s) = 4.29203 7.25807 5.96243
#
# Compressibility (1/GPa) = 0.02274630
#
# Stress axis : x y z
#
# Youngs Moduli (GPa) = 51.84848 99.08769 44.15836
#
# Poissons Ratio (x) = 0.50070 0.20092
# Poissons Ratio (y) = 0.26200 0.22238
# Poissons Ratio (z) = 0.23591 0.49901
#
# Static dielectric constant tensor:
#      x y z
#    x 3.127630 0.000000 -0.178740 
#    y 0.000000 3.706660 0.000000 
#    z -0.178740 0.000000 3.184600 
# 
# 
# High freq. dielectric constant tensor:
#      x y z
#    x 1.680420 0.000000 -0.013310 
#    y 0.000000 1.736370 0.000000 
#    z -0.013310 0.000000 1.688590 
# 
# From -- ./inp_files/84178.got.cif
#   From: 2010.06.25/outbox.cif.g09.slc.cpg/sg10_43_cif.got.tgz:84178.got - 2010.06.27 22:07:45.
