data_PCOD8067744
_publ_section_title
;
Structure prediction by ZEFSAII (Michael W. Deem and Ramdas Pophale) SiO2 
 PCOD8067744
Probable space group: P 2/M
;
_chemical_formula_sum "Si O2"
_cell_formula_units_Z 26
_cell_length_a 9.398892
_cell_length_b 19.710294
_cell_length_c 9.396296
_cell_angle_alpha 90.000000
_cell_angle_beta 46.382219
_cell_angle_gamma 90.000000
_cell_volume 1260.200681
_symmetry_space_group_name_H-M "P 2/M"
_symmetry_group_IT_number 10
_symmetry_cell_setting 'monoclinic'
loop_
_space_group_symop_operation_xyz
x,y,z
-x,y,-z
-x,-y,-z
x,-y,z
loop_
_atom_site_type_symbol
_atom_site_label
_atom_site_fract_x
_atom_site_fract_y
_atom_site_fract_z
Si Si1 0.429677 0.923579 0.701454
Si Si2 0.334537 0.185391 0.296553
Si Si3 0.080870 0.341257 0.095673
Si Si4 0.000000 0.119578 0.000000
Si Si5 0.853873 0.576915 0.470223
Si Si6 0.047975 0.799201 0.252140
Si Si7 0.511320 0.665217 0.827505
O O1 0.500000 0.896004 0.500000
O O2 0.518259 0.875521 0.763374
O O3 0.506787 0.000000 0.675991
O O4 0.193378 0.926426 0.858954
O O5 0.240558 0.173463 0.204482
O O6 0.458937 0.254427 0.215599
O O7 0.153210 0.187116 0.528395
O O8 0.074267 0.281153 0.216459
O O9 0.961007 0.403140 0.248558
O O10 0.305170 0.359724 0.906602
O O11 0.000000 0.318330 0.000000
O O12 0.969292 0.166709 0.886687
O O13 0.779275 0.500000 0.505822
O O14 0.671800 0.625397 0.626560
O O15 0.000000 0.584837 0.500000
O O16 0.500000 0.644808 0.000000
#
# Coordination Sequence:
#
# PCOD8067744 Si02
#       7
#     4   4   4   2   4   4   4
#     4  11  25  45  66  97 137 176 216 270 336 397
#     4  11  23  42  68  97 132 172 221 281 325 393
#     4  12  25  42  64 101 136 173 219 280 336 387
#     4  12  23  42  68 100 129 174 222 274 327 396
#     4  11  24  44  69  99 137 176 222 274 327 394
#     4  11  22  40  68  99 131 169 222 279 335 380
#     4  12  23  40  72  98 129 174 227 273 329 393
#
# _framework density 20.631633000000001
#
# number of rings (size 3 to 8) (size 9 to 14) (size 15 to 20)
#    0.000    0.615    6.923    1.154    0.000    1.846 
#    0.000    4.615    0.000    0.000    0.000    0.000 
#    0.000    0.000    0.000    0.000    0.000    0.000 
#
# Total GULP energy -322444.992748 kJ/mol
# GULP energy per Si atom -12401.730490 kJ/mol
# Density = 2.058467 g / cm^3
# Si number density = 20.631633 Si / 1000 Ang^3
#
#
#
# Elastic Constant Matrix: (Units=GPa)
#
#
# Indices 1 2 3 4 5 6 
#
# 1 135.6019 44.7146 59.3021 0.0000 -4.2505 0.0000
# 2 44.7146 102.1024 44.1962 0.0000 -1.7109 0.0000
# 3 59.3021 44.1962 94.9298 0.0000 -5.2192 0.0000
# 4 0.0000 0.0000 0.0000 22.9908 0.0000 14.8208
# 5 -4.2505 -1.7109 -5.2192 0.0000 42.5461 0.0000
# 6 0.0000 0.0000 0.0000 14.8208 0.0000 49.0709
#
#
#
# Elastic Compliance Matrix: (Units=1/GPa)
#
#
# Indices 1 2 3 4 5 6 
#
# 1 0.010533 -0.002213 -0.005534 0.000000 0.000284 0.000000
# 2 -0.002213 0.012733 -0.004560 0.000000 -0.000268 0.000000
# 3 -0.005534 -0.004560 0.016183 0.000000 0.001249 0.000000
# 4 0.000000 0.000000 0.000000 0.054012 0.000000 -0.016313
# 5 0.000284 -0.000268 0.001249 0.000000 0.023675 0.000000
# 6 0.000000 0.000000 0.000000 -0.016313 0.000000 0.025306
#
#
# Mechanical properties :
#
#
# Convention : Reuss Voigt Hill
#
# Bulk Modulus (GPa) = 67.41095 69.89555 68.65325
# Shear Modulus (GPa) = 29.06960 35.21631 32.14295
#
# Velocity S-wave (km/s) = 3.75771 4.13596 3.95136
# Velocity P-wave (km/s) = 7.18135 7.53390 7.35973
#
# Compressibility (1/GPa) = 0.01483439
#
# Stress axis : x y z
#
# Youngs Moduli (GPa) = 94.93641 78.53840 61.79217
#
# Poissons Ratio (x) = 0.17377 0.34198
# Poissons Ratio (y) = 0.21005 0.28180
# Poissons Ratio (z) = 0.52542 0.35817
#
# Static dielectric constant tensor:
#      x y z
#    x 3.325480 0.000000 -0.138470 
#    y 0.000000 3.580050 0.000000 
#    z -0.138470 0.000000 3.982920 
# 
# 
# High freq. dielectric constant tensor:
#      x y z
#    x 1.811460 0.000000 -0.008890 
#    y 0.000000 1.790890 0.000000 
#    z -0.008890 0.000000 1.826410 
# 
# From -- ./inp_files/20425.got.cif
#   From: 2010.06.25/outbox.cif.g09.slc.cpg/sg10_11_cif.got.tgz:20425.got - 2010.06.27 22:07:45.
