data_PCOD8067837
_publ_section_title
;
Structure prediction by ZEFSAII (Michael W. Deem and Ramdas Pophale) SiO2 
 PCOD8067837
Probable space group: P 2/M
;
_chemical_formula_sum "Si O2"
_cell_formula_units_Z 14
_cell_length_a 9.037160
_cell_length_b 16.302604
_cell_length_c 5.034703
_cell_angle_alpha 90.000000
_cell_angle_beta 59.088295
_cell_angle_gamma 90.000000
_cell_volume 636.399509
_symmetry_space_group_name_H-M "P 2/M"
_symmetry_group_IT_number 10
_symmetry_cell_setting 'monoclinic'
loop_
_space_group_symop_operation_xyz
x,y,z
-x,y,-z
-x,-y,-z
x,-y,z
loop_
_atom_site_type_symbol
_atom_site_label
_atom_site_fract_x
_atom_site_fract_y
_atom_site_fract_z
Si Si1 0.614956 0.354851 0.152177
Si Si2 0.193167 0.189049 0.889358
Si Si3 0.304528 0.906035 0.272975
Si Si4 0.121709 0.500000 0.138998
O O1 0.500000 0.389077 0.500000
O O2 0.696794 0.269283 0.158558
O O3 0.500000 0.340712 0.000000
O O4 0.762522 0.419503 0.953936
O O5 0.283654 0.140380 0.568755
O O6 0.182484 0.132270 0.159894
O O7 0.000000 0.216081 0.000000
O O8 0.250815 0.000000 0.365556
O O9 0.500000 0.897091 0.000000
O O10 0.000000 0.500000 0.500000
O O11 0.000000 0.500000 0.000000
#
# Coordination Sequence:
#
# PCOD8067837 Si02
#       4
#     4   4   4   2
#     4  12  25  45  70  97 133 176 221 262 319 392
#     4  12  25  41  65  97 132 171 218 274 330 381
#     4  11  24  43  66  93 129 174 222 271 327 392
#     4  12  26  46  72 104 138 168 212 270 328 382
#
# _framework density 21.998757999999999
#
# number of rings (size 3 to 8) (size 9 to 14) (size 15 to 20)
#    0.000    0.286    0.000   10.286    0.000    8.000 
#    0.000    0.000    0.000    0.000    0.000    0.000 
#    0.000    0.000    0.000    0.000    0.000    0.000 
#
# Total GULP energy -173734.297452 kJ/mol
# GULP energy per Si atom -12409.592675 kJ/mol
# Density = 2.194869 g / cm^3
# Si number density = 21.998758 Si / 1000 Ang^3
#
#
#
# Elastic Constant Matrix: (Units=GPa)
#
#
# Indices 1 2 3 4 5 6 
#
# 1 149.9289 70.9704 42.6051 0.0000 8.6901 0.0000
# 2 70.9704 173.9794 82.4806 0.0000 7.0935 0.0000
# 3 42.6051 82.4806 150.5582 0.0000 13.2579 0.0000
# 4 0.0000 0.0000 0.0000 59.9528 0.0000 21.9413
# 5 8.6901 7.0935 13.2579 0.0000 43.3131 0.0000
# 6 0.0000 0.0000 0.0000 21.9413 0.0000 -15.9205
#
#
#
# Elastic Compliance Matrix: (Units=1/GPa)
#
#
# Indices 1 2 3 4 5 6 
#
# 1 0.008357 -0.003092 -0.000584 0.000000 -0.000992 0.000000
# 2 -0.003092 0.008908 -0.004040 0.000000 0.000398 0.000000
# 3 -0.000584 -0.004040 0.009200 0.000000 -0.002037 0.000000
# 4 0.000000 0.000000 0.000000 0.011087 0.000000 0.015281
# 5 -0.000992 0.000398 -0.002037 0.000000 0.023845 0.000000
# 6 0.000000 0.000000 0.000000 0.015281 0.000000 -0.041753
#
#
# Mechanical properties :
#
#
# Convention : Reuss Voigt Hill
#
# Bulk Modulus (GPa) = 90.63510 96.28653 93.46081
# Shear Modulus (GPa) = 129.01931 36.02979 82.52455
#
# Velocity S-wave (km/s) = 7.66654 4.05138 6.13145
# Velocity P-wave (km/s) = 10.93879 8.10857 9.62824
#
# Compressibility (1/GPa) = 0.01103325
#
# Stress axis : x y z
#
# Youngs Moduli (GPa) = 119.66474 112.25561 108.69606
#
# Poissons Ratio (x) = 0.34706 0.06345
# Poissons Ratio (y) = 0.36997 0.43917
# Poissons Ratio (z) = 0.06985 0.45355
#
# Static dielectric constant tensor:
#      x y z
#    x 4.205960 0.000000 0.066870 
#    y 0.000000 4.107750 0.000000 
#    z 0.066870 0.000000 4.201360 
# 
# 
# High freq. dielectric constant tensor:
#      x y z
#    x 1.887630 0.000000 0.003390 
#    y 0.000000 1.879740 0.000000 
#    z 0.003390 0.000000 1.883340 
# 
# From -- ./inp_files/3335.got.cif
#   From: 2010.06.25/outbox.cif.g09.slc.cpg/sg10_2_cif.got.tgz:3335.got - 2010.06.27 22:07:45.
