data_PCOD8067236
_publ_section_title
;
Structure prediction by ZEFSAII (Michael W. Deem and Ramdas Pophale) SiO2 
 PCOD8067236
Probable space group: P 2/M
;
_chemical_formula_sum "Si O2"
_cell_formula_units_Z 16
_cell_length_a 6.402697
_cell_length_b 11.133680
_cell_length_c 10.259571
_cell_angle_alpha 90.000000
_cell_angle_beta 99.155864
_cell_angle_gamma 90.000000
_cell_volume 722.041310
_symmetry_space_group_name_H-M "P 2/M"
_symmetry_group_IT_number 10
_symmetry_cell_setting 'monoclinic'
loop_
_space_group_symop_operation_xyz
x,y,z
-x,y,-z
-x,-y,-z
x,-y,z
loop_
_atom_site_type_symbol
_atom_site_label
_atom_site_fract_x
_atom_site_fract_y
_atom_site_fract_z
Si Si1 0.148546 0.361060 0.126248
Si Si2 0.880537 0.361339 0.355691
Si Si3 0.226731 0.000000 0.206522
Si Si4 0.234850 0.000000 0.895649
Si Si5 0.518712 0.796652 0.218652
O O1 0.181716 0.500000 0.101834
O O2 0.379126 0.303580 0.132673
O O3 0.042431 0.335552 0.254807
O O4 0.000000 0.303365 0.000000
O O5 0.802816 0.500000 0.344719
O O6 0.678437 0.273076 0.330402
O O7 0.000000 0.331441 0.500000
O O8 0.218938 0.000000 0.048306
O O9 0.348896 0.883390 0.276307
O O10 0.978623 0.000000 0.214586
O O11 0.358116 0.879053 0.871358
#
# Coordination Sequence:
#
# PCOD8067236 Si02
#       5
#     4   4   2   2   4
#     4  10  23  38  60  96 128 157 203 261 310 366
#     4  10  23  42  63  91 128 168 208 250 304 372
#     4  10  23  37  58  91 126 162 210 255 310 373
#     4  10  23  39  57  91 126 163 206 257 312 372
#     4  11  21  37  64  88 121 166 206 252 311 368
#
# _framework density 22.159399000000001
#
# number of rings (size 3 to 8) (size 9 to 14) (size 15 to 20)
#    0.000    1.750    0.000    3.750   10.500    1.000 
#    0.000   10.000    0.000    7.500    0.000    0.000 
#    0.000    0.000    0.000    0.000    0.000    0.000 
#
# Total GULP energy -198315.428910 kJ/mol
# GULP energy per Si atom -12394.714307 kJ/mol
# Density = 2.210896 g / cm^3
# Si number density = 22.159399 Si / 1000 Ang^3
#
#
#
# Elastic Constant Matrix: (Units=GPa)
#
#
# Indices 1 2 3 4 5 6 
#
# 1 151.0316 78.1144 49.7052 0.0000 36.7462 0.0000
# 2 78.1144 120.1896 48.7183 0.0000 30.8637 0.0000
# 3 49.7052 48.7183 122.8856 0.0000 18.8827 0.0000
# 4 0.0000 0.0000 0.0000 15.1988 0.0000 23.3957
# 5 36.7462 30.8637 18.8827 0.0000 34.1917 0.0000
# 6 0.0000 0.0000 0.0000 23.3957 0.0000 48.7197
#
#
#
# Elastic Compliance Matrix: (Units=1/GPa)
#
#
# Indices 1 2 3 4 5 6 
#
# 1 0.011398 -0.005010 -0.001570 0.000000 -0.006860 0.000000
# 2 -0.005010 0.014191 -0.002687 0.000000 -0.005942 0.000000
# 3 -0.001570 -0.002687 0.010060 0.000000 -0.001443 0.000000
# 4 0.000000 0.000000 0.000000 0.252275 0.000000 -0.121145
# 5 -0.006860 -0.005942 -0.001443 0.000000 0.042780 0.000000
# 6 0.000000 0.000000 0.000000 -0.121145 0.000000 0.078701
#
#
# Mechanical properties :
#
#
# Convention : Reuss Voigt Hill
#
# Bulk Modulus (GPa) = 58.42568 83.02029 70.72298
# Shear Modulus (GPa) = 11.53021 34.12661 22.82841
#
# Velocity S-wave (km/s) = 2.28355 3.92861 3.21314
# Velocity P-wave (km/s) = 5.77721 7.62397 6.76392
#
# Compressibility (1/GPa) = 0.01711576
#
# Stress axis : x y z
#
# Youngs Moduli (GPa) = 87.73392 70.46678 99.40792
#
# Poissons Ratio (x) = 0.35303 0.15607
# Poissons Ratio (y) = 0.43953 0.26707
# Poissons Ratio (z) = 0.13774 0.18932
#
# Static dielectric constant tensor:
#      x y z
#    x 4.573380 0.000000 0.312540 
#    y 0.000000 4.341280 0.000000 
#    z 0.312540 0.000000 3.573420 
# 
# 
# High freq. dielectric constant tensor:
#      x y z
#    x 1.886210 0.000000 0.025270 
#    y 0.000000 1.893270 0.000000 
#    z 0.025270 0.000000 1.828730 
# 
# From -- ./inp_files/38796.got.cif
#   From: 2010.06.25/outbox.cif.g09.slc.cpg/sg10_20_cif.got.tgz:38796.got - 2010.06.27 22:07:45.
