data_PCOD8067416
_publ_section_title
;
Structure prediction by ZEFSAII (Michael W. Deem and Ramdas Pophale) SiO2 
 PCOD8067416
Probable space group: P 2/M
;
_chemical_formula_sum "Si O2"
_cell_formula_units_Z 32
_cell_length_a 23.726151
_cell_length_b 9.013697
_cell_length_c 11.542483
_cell_angle_alpha 90.000000
_cell_angle_beta 127.411192
_cell_angle_gamma 90.000000
_cell_volume 1960.703136
_symmetry_space_group_name_H-M "P 2/M"
_symmetry_group_IT_number 10
_symmetry_cell_setting 'monoclinic'
loop_
_space_group_symop_operation_xyz
x,y,z
-x,y,-z
-x,-y,-z
x,-y,z
loop_
_atom_site_type_symbol
_atom_site_label
_atom_site_fract_x
_atom_site_fract_y
_atom_site_fract_z
Si Si1 0.609459 0.675696 0.196524
Si Si2 0.703821 0.323947 0.694902
Si Si3 0.728816 0.823695 0.483903
Si Si4 0.142985 0.336222 0.065183
Si Si5 0.535825 0.324729 0.873273
Si Si6 0.128134 0.665911 0.320724
Si Si7 0.565541 0.676618 0.657169
Si Si8 0.008386 0.165977 0.872774
O O1 0.623724 0.500000 0.226892
O O2 0.678051 0.768577 0.318006
O O3 0.543513 0.727749 0.194004
O O4 0.591983 0.720972 0.042201
O O5 0.701650 0.500000 0.666624
O O6 0.699496 0.241118 0.567491
O O7 0.776113 0.281640 0.854397
O O8 0.638781 0.268611 0.691976
O O9 0.807312 0.764866 0.551587
O O10 0.730698 0.000000 0.493028
O O11 0.131814 0.500000 0.998461
O O12 0.131039 0.341075 0.186820
O O13 0.085765 0.228852 0.933792
O O14 0.533627 0.500000 0.862865
O O15 0.559352 0.256726 0.779157
O O16 0.133014 0.500000 0.379022
O O17 0.053390 0.738404 0.265223
O O18 0.500000 0.737762 0.500000
O O19 0.563868 0.500000 0.658577
O O20 0.003068 0.000000 0.817899
O O21 0.000000 0.169334 0.000000
#
# Coordination Sequence:
#
# PCOD8067416 Si02
#       8
#     4   4   4   4   4   4   4   4
#     4   9  16  29  47  64  84 110 142 178 216 256
#     4   9  17  28  42  60  84 114 146 179 214 254
#     4  11  20  28  40  60  86 114 145 178 213 253
#     4   8  14  23  34  50  74 107 142 171 203 245
#     4   8  15  27  46  69  86 106 141 181 215 252
#     4   9  16  26  39  55  78 108 140 173 209 250
#     4   9  15  24  43  69  90 108 138 180 218 250
#     4   9  15  22  34  53  77 106 138 171 206 244
#
# _framework density 16.320675999999999
#
# number of rings (size 3 to 8) (size 9 to 14) (size 15 to 20)
#    0.000    3.000    0.000    4.125    0.000    6.500 
#    0.000    1.250    0.000    4.125    0.000    0.000 
#    0.000    1.000    0.000   11.750    0.000    5.000 
#
# Total GULP energy -396640.387039 kJ/mol
# GULP energy per Si atom -12395.012095 kJ/mol
# Density = 1.628353 g / cm^3
# Si number density = 16.320676 Si / 1000 Ang^3
#
#
#
# Elastic Constant Matrix: (Units=GPa)
#
#
# Indices 1 2 3 4 5 6 
#
# 1 89.3501 32.0690 64.5053 0.0000 23.6835 0.0000
# 2 32.0690 78.8152 43.1230 0.0000 14.1676 0.0000
# 3 64.5053 43.1230 104.0204 0.0000 20.9614 0.0000
# 4 0.0000 0.0000 0.0000 12.6124 0.0000 2.8781
# 5 23.6835 14.1676 20.9614 0.0000 29.7038 0.0000
# 6 0.0000 0.0000 0.0000 2.8781 0.0000 6.8407
#
#
#
# Elastic Compliance Matrix: (Units=1/GPa)
#
#
# Indices 1 2 3 4 5 6 
#
# 1 0.022364 -0.001134 -0.011558 0.000000 -0.009135 0.000000
# 2 -0.001134 0.016791 -0.005626 0.000000 -0.003134 0.000000
# 3 -0.011558 -0.005626 0.019486 0.000000 -0.001853 0.000000
# 4 0.000000 0.000000 0.000000 0.087708 0.000000 -0.036901
# 5 -0.009135 -0.003134 -0.001853 0.000000 0.043751 0.000000
# 6 0.000000 0.000000 0.000000 -0.036901 0.000000 0.161710
#
#
# Mechanical properties :
#
#
# Convention : Reuss Voigt Hill
#
# Bulk Modulus (GPa) = 45.44232 61.28669 53.36451
# Shear Modulus (GPa) = 12.63325 18.66393 15.64859
#
# Velocity S-wave (km/s) = 2.78522 3.38535 3.09984
# Velocity P-wave (km/s) = 6.18442 7.27419 6.75133
#
# Compressibility (1/GPa) = 0.02200592
#
# Stress axis : x y z
#
# Youngs Moduli (GPa) = 44.71459 59.55569 51.31811
#
# Poissons Ratio (x) = 0.06754 0.59311
# Poissons Ratio (y) = 0.05071 0.28872
# Poissons Ratio (z) = 0.51679 0.33507
#
# Static dielectric constant tensor:
#      x y z
#    x 3.135150 0.000000 0.256400 
#    y 0.000000 2.911690 0.000000 
#    z 0.256400 0.000000 3.065770 
# 
# 
# High freq. dielectric constant tensor:
#      x y z
#    x 1.600280 0.000000 0.038560 
#    y 0.000000 1.606420 0.000000 
#    z 0.038560 0.000000 1.610890 
# 
# From -- ./inp_files/56447.got.cif
#   From: 2010.06.25/outbox.cif.g09.slc.cpg/sg10_29_cif.got.tgz:56447.got - 2010.06.27 22:07:45.
