data_PCOD8067131
_publ_section_title
;
Structure prediction by ZEFSAII (Michael W. Deem and Ramdas Pophale) SiO2 
 PCOD8067131
Probable space group: P 2/M
;
_chemical_formula_sum "Si O2"
_cell_formula_units_Z 32
_cell_length_a 6.597838
_cell_length_b 17.895284
_cell_length_c 19.091016
_cell_angle_alpha 90.000000
_cell_angle_beta 46.276173
_cell_angle_gamma 90.000000
_cell_volume 1628.977870
_symmetry_space_group_name_H-M "P 2/M"
_symmetry_group_IT_number 10
_symmetry_cell_setting 'monoclinic'
loop_
_space_group_symop_operation_xyz
x,y,z
-x,y,-z
-x,-y,-z
x,-y,z
loop_
_atom_site_type_symbol
_atom_site_label
_atom_site_fract_x
_atom_site_fract_y
_atom_site_fract_z
Si Si1 0.170145 0.412504 0.394427
Si Si2 0.255879 0.828644 0.740479
Si Si3 0.752165 0.912504 0.394430
Si Si4 0.609399 0.180306 0.897395
Si Si5 0.381873 0.912071 0.236878
Si Si6 0.282186 0.328638 0.740478
Si Si7 0.301018 0.680311 0.897395
Si Si8 0.829362 0.412072 0.763129
O O1 0.140722 0.500000 0.407109
O O2 0.492245 0.392169 0.327679
O O3 0.072065 0.388237 0.339556
O O4 0.000000 0.375180 0.500000
O O5 0.302922 0.892181 0.672329
O O6 0.392172 0.861965 0.777495
O O7 0.387282 0.750003 0.681348
O O8 0.936296 0.803072 0.829385
O O9 0.500000 0.875179 0.500000
O O10 0.069718 0.888229 0.339561
O O11 0.730899 0.000000 0.407119
O O12 0.581593 0.108032 0.853679
O O13 0.442544 0.249998 0.903728
O O14 0.500000 0.158795 0.000000
O O15 0.436703 0.000000 0.233874
O O16 0.246167 0.303067 0.829381
O O17 0.997835 0.361964 0.777497
O O18 0.503676 0.608036 0.853683
O O19 0.000000 0.658803 0.000000
O O20 0.872157 0.500000 0.766143
#
# Coordination Sequence:
#
# PCOD8067131 Si02
#       8
#     4   4   4   4   4   4   4   4
#     4   9  20  39  60  86 121 160 202 244 295 359
#     4  11  21  38  59  87 121 159 201 251 300 357
#     4   9  20  39  60  86 121 160 202 244 295 359
#     4  11  23  39  63  88 119 160 205 247 303 370
#     4  10  22  40  63  91 123 159 200 251 303 356
#     4  11  21  38  59  87 121 159 201 251 300 357
#     4  11  23  39  63  88 119 160 205 247 303 370
#     4  10  22  40  63  91 123 159 200 251 303 356
#
# _framework density 19.644220000000001
#
# number of rings (size 3 to 8) (size 9 to 14) (size 15 to 20)
#    0.000    1.750    2.500    1.500    0.000    2.500 
#    4.500    5.000    0.000    0.000    0.000    0.000 
#    0.000    0.000    0.000    0.000    0.000    0.000 
#
# Total GULP energy -396534.287187 kJ/mol
# GULP energy per Si atom -12391.696475 kJ/mol
# Density = 1.959951 g / cm^3
# Si number density = 19.644220 Si / 1000 Ang^3
#
#
#
# Elastic Constant Matrix: (Units=GPa)
#
#
# Indices 1 2 3 4 5 6 
#
# 1 133.6233 49.1569 56.5152 0.0000 1.0264 0.0000
# 2 49.1569 63.5614 25.6003 0.0000 0.3901 0.0000
# 3 56.5152 25.6003 131.8219 0.0000 -1.0089 0.0000
# 4 0.0000 0.0000 0.0000 15.3956 0.0000 0.2922
# 5 1.0264 0.3901 -1.0089 0.0000 6.8832 0.0000
# 6 0.0000 0.0000 0.0000 0.2922 0.0000 33.3958
#
#
#
# Elastic Compliance Matrix: (Units=1/GPa)
#
#
# Indices 1 2 3 4 5 6 
#
# 1 0.011856 -0.007708 -0.003600 0.000000 -0.001859 0.000000
# 2 -0.007708 0.022093 -0.000988 0.000000 -0.000248 0.000000
# 3 -0.003600 -0.000988 0.009336 0.000000 0.001961 0.000000
# 4 0.000000 0.000000 0.000000 0.064964 0.000000 -0.000569
# 5 -0.001859 -0.000248 0.001961 0.000000 0.145859 0.000000
# 6 0.000000 0.000000 0.000000 -0.000569 0.000000 0.029949
#
#
# Mechanical properties :
#
#
# Convention : Reuss Voigt Hill
#
# Bulk Modulus (GPa) = 53.49417 65.72792 59.61104
# Shear Modulus (GPa) = 15.87895 24.31721 20.09808
#
# Velocity S-wave (km/s) = 2.84619 3.52217 3.20207
# Velocity P-wave (km/s) = 6.17185 7.07621 6.63944
#
# Compressibility (1/GPa) = 0.01869363
#
# Stress axis : x y z
#
# Youngs Moduli (GPa) = 84.34315 45.26255 107.10699
#
# Poissons Ratio (x) = 0.34888 0.38563
# Poissons Ratio (y) = 0.65011 0.10582
# Poissons Ratio (z) = 0.30367 0.04472
#
# Static dielectric constant tensor:
#      x y z
#    x 3.777330 0.000000 0.000370 
#    y 0.000000 3.483840 0.000000 
#    z 0.000370 0.000000 3.749670 
# 
# 
# High freq. dielectric constant tensor:
#      x y z
#    x 1.778710 0.000000 0.000360 
#    y 0.000000 1.764140 0.000000 
#    z 0.000360 0.000000 1.756210 
# 
# From -- ./inp_files/73794.got.cif
#   From: 2010.06.25/outbox.cif.g09.slc.cpg/sg10_37_cif.got.tgz:73794.got - 2010.06.27 22:07:45.
