data_PCOD8067391
_publ_section_title
;
Structure prediction by ZEFSAII (Michael W. Deem and Ramdas Pophale) SiO2 
 PCOD8067391
Probable space group: P 2/M
;
_chemical_formula_sum "Si O2"
_cell_formula_units_Z 24
_cell_length_a 20.108705
_cell_length_b 11.893565
_cell_length_c 13.776198
_cell_angle_alpha 90.000000
_cell_angle_beta 158.338431
_cell_angle_gamma 90.000000
_cell_volume 1216.178099
_symmetry_space_group_name_H-M "P 2/M"
_symmetry_group_IT_number 10
_symmetry_cell_setting 'monoclinic'
loop_
_space_group_symop_operation_xyz
x,y,z
-x,y,-z
-x,-y,-z
x,-y,z
loop_
_atom_site_type_symbol
_atom_site_label
_atom_site_fract_x
_atom_site_fract_y
_atom_site_fract_z
Si Si1 0.245950 0.629358 0.424067
Si Si2 0.168696 0.371107 0.100879
Si Si3 0.821070 0.731774 0.076144
Si Si4 0.655075 0.500000 0.131164
Si Si5 0.118945 0.127784 0.565028
Si Si6 0.966487 0.500000 0.340944
Si Si7 0.598910 0.729290 0.955151
O O1 0.308665 0.500000 0.528706
O O2 0.380372 0.719056 0.658656
O O3 0.045823 0.648590 0.189630
O O4 0.256691 0.654265 0.323606
O O5 0.208534 0.500000 0.125040
O O6 0.247283 0.282664 0.128002
O O7 0.999641 0.810378 0.321046
O O8 0.861971 0.607786 0.166101
O O9 0.663923 0.771910 0.936451
O O10 0.665970 0.605896 0.074229
O O11 0.500000 0.500000 0.000000
O O12 0.835967 0.500000 0.441792
O O13 0.000000 0.138019 0.500000
O O14 0.152871 0.000000 0.579048
O O15 0.315671 0.184978 0.849491
O O16 0.000000 0.500000 0.500000
#
# Coordination Sequence:
#
# PCOD8067391 Si02
#       7
#     4   4   4   2   4   2   4
#     4   9  19  33  48  71 107 138 172 200 246 311
#     4   9  19  33  49  72 102 143 169 201 251 306
#     4  11  19  30  53  75 103 133 167 210 258 302
#     4  12  24  30  45  76 109 139 166 202 254 315
#     4   9  19  35  53  75 103 135 170 213 263 305
#     4  12  18  32  45  74 109 129 164 208 256 309
#     4  11  20  32  50  77 103 132 169 213 252 304
#
# _framework density 19.733951999999999
#
# number of rings (size 3 to 8) (size 9 to 14) (size 15 to 20)
#    0.000    1.833    5.000    1.500    2.333    0.667 
#    0.000    1.667    0.000    5.500    0.000    7.000 
#    0.000    0.000    0.000    0.000    0.000    0.000 
#
# Total GULP energy -297334.288164 kJ/mol
# GULP energy per Si atom -12388.928673 kJ/mol
# Density = 1.968904 g / cm^3
# Si number density = 19.733952 Si / 1000 Ang^3
#
#
#
# Elastic Constant Matrix: (Units=GPa)
#
#
# Indices 1 2 3 4 5 6 
#
# 1 47.4030 -1.5472 -21.3332 0.0000 -3.4949 0.0000
# 2 -1.5472 88.2793 13.2654 0.0000 -9.5349 0.0000
# 3 -21.3332 13.2654 59.4413 0.0000 5.5817 0.0000
# 4 0.0000 0.0000 0.0000 6.7153 0.0000 10.5020
# 5 -3.4949 -9.5349 5.5817 0.0000 21.8245 0.0000
# 6 0.0000 0.0000 0.0000 10.5020 0.0000 -0.1834
#
#
#
# Elastic Compliance Matrix: (Units=1/GPa)
#
#
# Indices 1 2 3 4 5 6 
#
# 1 0.025274 -0.000778 0.009115 0.000000 0.001376 0.000000
# 2 -0.000778 0.012545 -0.003670 0.000000 0.006295 0.000000
# 3 0.009115 -0.003670 0.021442 0.000000 -0.005628 0.000000
# 4 0.000000 0.000000 0.000000 0.001644 0.000000 0.094168
# 5 0.001376 0.006295 -0.005628 0.000000 0.050230 0.000000
# 6 0.000000 0.000000 0.000000 0.094168 0.000000 -0.060214
#
#
# Mechanical properties :
#
#
# Convention : Reuss Voigt Hill
#
# Bulk Modulus (GPa) = 14.57822 19.54372 17.06097
# Shear Modulus (GPa) = 77.57575 19.32053 48.44814
#
# Velocity S-wave (km/s) = 6.27663 3.13237 4.96024
# Velocity P-wave (km/s) = 7.74155 4.79661 6.43968
#
# Compressibility (1/GPa) = 0.06859547
#
# Stress axis : x y z
#
# Youngs Moduli (GPa) = 39.56643 79.71017 46.63696
#
# Poissons Ratio (x) = 0.06202 -0.42510
# Poissons Ratio (y) = 0.03079 0.17116
# Poissons Ratio (z) = -0.36065 0.29255
#
# Static dielectric constant tensor:
#      x y z
#    x 3.936560 0.000000 -0.149890 
#    y 0.000000 3.267290 0.000000 
#    z -0.149890 0.000000 3.759830 
# 
# 
# High freq. dielectric constant tensor:
#      x y z
#    x 1.763470 0.000000 -0.004840 
#    y 0.000000 1.715040 0.000000 
#    z -0.004840 0.000000 1.767000 
# 
# From -- ./inp_files/24111.got.cif
#   From: 2010.06.25/outbox.cif.g09.slc.cpg/sg10_13_cif.got.tgz:24111.got - 2010.06.27 22:07:45.
