data_PCOD8067711
_publ_section_title
;
Structure prediction by ZEFSAII (Michael W. Deem and Ramdas Pophale) SiO2 
 PCOD8067711
Probable space group: P 2/M
;
_chemical_formula_sum "Si O2"
_cell_formula_units_Z 32
_cell_length_a 29.042866
_cell_length_b 8.859675
_cell_length_c 11.961712
_cell_angle_alpha 90.000000
_cell_angle_beta 31.564805
_cell_angle_gamma 90.000000
_cell_volume 1611.151117
_symmetry_space_group_name_H-M "P 2/M"
_symmetry_group_IT_number 10
_symmetry_cell_setting 'monoclinic'
loop_
_space_group_symop_operation_xyz
x,y,z
-x,y,-z
-x,-y,-z
x,-y,z
loop_
_atom_site_type_symbol
_atom_site_label
_atom_site_fract_x
_atom_site_fract_y
_atom_site_fract_z
Si Si1 0.637650 0.174807 0.676979
Si Si2 0.757996 0.821408 0.896772
Si Si3 0.911144 0.176459 0.735529
Si Si4 0.816046 0.671744 0.324201
Si Si5 0.855159 0.327348 0.497859
Si Si6 0.957053 0.175855 0.886668
Si Si7 0.468869 0.174854 0.885160
Si Si8 0.573739 0.322379 0.259871
O O1 0.722785 0.272420 0.470323
O O2 0.567658 0.203961 0.723609
O O3 0.664526 0.000000 0.625218
O O4 0.598088 0.224014 0.878460
O O5 0.825155 0.757304 0.851958
O O6 0.793213 0.773946 0.702920
O O7 0.748919 0.000000 0.919442
O O8 0.663598 0.751309 0.116004
O O9 0.905316 0.210366 0.878875
O O10 0.000000 0.249915 0.500000
O O11 0.913721 0.000000 0.703930
O O12 0.831771 0.500000 0.253208
O O13 0.814538 0.687876 0.459773
O O14 0.895083 0.774090 0.115635
O O15 0.853807 0.500000 0.541932
O O16 0.954282 0.269860 0.294490
O O17 0.980497 0.000000 0.849633
O O18 0.451771 0.273358 0.811832
O O19 0.454960 0.000000 0.883698
O O20 0.500000 0.269366 0.500000
O O21 0.586059 0.500000 0.234578
#
# Coordination Sequence:
#
# PCOD8067711 Si02
#       8
#     4   4   4   4   4   4   4   4
#     4   9  19  37  61  89 116 145 189 245 294 346
#     4  11  22  39  66  91 114 152 200 247 293 349
#     4   9  18  37  61  87 116 144 188 246 295 340
#     4  11  24  38  53  81 122 159 192 235 291 353
#     4  11  23  39  58  84 121 157 192 238 292 350
#     4  11  22  38  61  85 113 153 198 245 292 343
#     4   9  19  38  64  89 114 147 193 244 293 348
#     4  11  25  42  58  84 124 161 195 242 296 351
#
# _framework density 19.861574000000001
#
# number of rings (size 3 to 8) (size 9 to 14) (size 15 to 20)
#    0.000    1.750    1.250    3.750    0.000    8.500 
#    0.000    8.125    0.000    0.000    0.000    0.000 
#    0.000    0.000    0.000    0.000    0.000    0.000 
#
# Total GULP energy -396917.840287 kJ/mol
# GULP energy per Si atom -12403.682509 kJ/mol
# Density = 1.981637 g / cm^3
# Si number density = 19.861574 Si / 1000 Ang^3
#
#
#
# Elastic Constant Matrix: (Units=GPa)
#
#
# Indices 1 2 3 4 5 6 
#
# 1 91.8215 32.5214 32.2134 0.0000 -20.7483 0.0000
# 2 32.5214 46.7189 23.7128 0.0000 -12.7962 0.0000
# 3 32.2134 23.7128 102.7788 0.0000 -28.6513 0.0000
# 4 0.0000 0.0000 0.0000 31.2261 0.0000 -14.9131
# 5 -20.7483 -12.7962 -28.6513 0.0000 27.2254 0.0000
# 6 0.0000 0.0000 0.0000 -14.9131 0.0000 -37.2419
#
#
#
# Elastic Compliance Matrix: (Units=1/GPa)
#
#
# Indices 1 2 3 4 5 6 
#
# 1 0.015882 -0.008619 -0.001054 0.000000 0.006944 0.000000
# 2 -0.008619 0.030149 -0.003022 0.000000 0.004422 0.000000
# 3 -0.001054 -0.003022 0.014346 0.000000 0.012874 0.000000
# 4 0.000000 0.000000 0.000000 0.026883 0.000000 -0.010765
# 5 0.006944 0.004422 0.012874 0.000000 0.057649 0.000000
# 6 0.000000 0.000000 0.000000 -0.010765 0.000000 -0.022541
#
#
# Mechanical properties :
#
#
# Convention : Reuss Voigt Hill
#
# Bulk Modulus (GPa) = 28.58090 46.46826 37.52458
# Shear Modulus (GPa) = 31.36367 14.43336 22.89852
#
# Velocity S-wave (km/s) = 3.97812 2.69866 3.39913
# Velocity P-wave (km/s) = 5.96002 5.75823 5.85999
#
# Compressibility (1/GPa) = 0.03498840
#
# Stress axis : x y z
#
# Youngs Moduli (GPa) = 62.96426 33.16825 69.70649
#
# Poissons Ratio (x) = 0.28588 0.07344
# Poissons Ratio (y) = 0.54269 0.21065
# Poissons Ratio (z) = 0.06634 0.10023
#
# Static dielectric constant tensor:
#      x y z
#    x 3.742270 0.000000 -0.088210 
#    y 0.000000 3.530580 0.000000 
#    z -0.088210 0.000000 3.725310 
# 
# 
# High freq. dielectric constant tensor:
#      x y z
#    x 1.784660 0.000000 -0.007680 
#    y 0.000000 1.766720 0.000000 
#    z -0.007680 0.000000 1.777270 
# 
# From -- ./inp_files/58186.got.cif
#   From: 2010.06.25/outbox.cif.g09.slc.cpg/sg10_30_cif.got.tgz:58186.got - 2010.06.27 22:07:45.
