data_PCOD8067834
_publ_section_title
;
Structure prediction by ZEFSAII (Michael W. Deem and Ramdas Pophale) SiO2 
 PCOD8067834
Probable space group: P 2/M
;
_chemical_formula_sum "Si O2"
_cell_formula_units_Z 24
_cell_length_a 17.209392
_cell_length_b 7.780006
_cell_length_c 23.133699
_cell_angle_alpha 90.000000
_cell_angle_beta 20.996233
_cell_angle_gamma 90.000000
_cell_volume 1109.801507
_symmetry_space_group_name_H-M "P 2/M"
_symmetry_group_IT_number 10
_symmetry_cell_setting 'monoclinic'
loop_
_space_group_symop_operation_xyz
x,y,z
-x,y,-z
-x,-y,-z
x,-y,z
loop_
_atom_site_type_symbol
_atom_site_label
_atom_site_fract_x
_atom_site_fract_y
_atom_site_fract_z
Si Si1 0.956714 0.300933 0.465818
Si Si2 0.591415 0.000000 0.345606
Si Si3 0.531432 0.203451 0.201066
Si Si4 0.145887 0.307752 0.111818
Si Si5 0.261580 0.195948 0.153279
Si Si6 0.248341 0.695278 0.838353
Si Si7 0.152434 0.000000 0.718953
O O1 0.017152 0.500000 0.420985
O O2 0.111474 0.203235 0.313906
O O3 0.000000 0.226794 0.500000
O O4 0.708820 0.271500 0.620461
O O5 0.601912 0.172614 0.300542
O O6 0.357662 0.000000 0.535656
O O7 0.783314 0.000000 0.258798
O O8 0.615368 0.266545 0.080093
O O9 0.695386 0.286375 0.133382
O O10 0.537034 0.000000 0.201812
O O11 0.070673 0.500000 0.147148
O O12 0.154287 0.299559 0.175315
O O13 0.979760 0.172660 0.200491
O O14 0.283491 0.000000 0.117462
O O15 0.500000 0.273095 0.000000
O O16 0.293898 0.500000 0.785934
O O17 0.000000 0.745773 0.000000
#
# Coordination Sequence:
#
# PCOD8067834 Si02
#       7
#     4   2   4   4   4   4   2
#     4  11  25  43  66 100 138 176 226 282 336 398
#     4  11  25  44  70  96 137 178 221 285 336 407
#     4  12  24  42  69  98 135 177 227 282 337 400
#     4  12  25  44  69  97 137 179 225 278 334 402
#     4  11  24  43  68  97 135 181 227 274 335 402
#     4  11  24  42  69 102 136 177 229 283 340 400
#     4  11  26  46  67 100 133 179 229 271 346 402
#
# _framework density 21.625489000000002
#
# number of rings (size 3 to 8) (size 9 to 14) (size 15 to 20)
#    0.000    0.667    2.500    4.750    2.333    8.000 
#    0.000    1.667    0.000    0.000    0.000    0.000 
#    0.000    0.000    0.000    0.000    0.000    0.000 
#
# Total GULP energy -297768.384302 kJ/mol
# GULP energy per Si atom -12407.016013 kJ/mol
# Density = 2.157627 g / cm^3
# Si number density = 21.625489 Si / 1000 Ang^3
#
#
#
# Elastic Constant Matrix: (Units=GPa)
#
#
# Indices 1 2 3 4 5 6 
#
# 1 92.4359 11.7662 52.4129 0.0000 9.4178 0.0000
# 2 11.7662 124.5256 24.6406 0.0000 2.4249 0.0000
# 3 52.4129 24.6406 114.1910 0.0000 3.7068 0.0000
# 4 0.0000 0.0000 0.0000 12.5447 0.0000 8.8984
# 5 9.4178 2.4249 3.7068 0.0000 36.1610 0.0000
# 6 0.0000 0.0000 0.0000 8.8984 0.0000 24.8152
#
#
#
# Elastic Compliance Matrix: (Units=1/GPa)
#
#
# Indices 1 2 3 4 5 6 
#
# 1 0.014987 -0.000014 -0.006772 0.000000 -0.003208 0.000000
# 2 -0.000014 0.008394 -0.001793 0.000000 -0.000376 0.000000
# 3 -0.006772 -0.001793 0.012232 0.000000 0.000630 0.000000
# 4 0.000000 0.000000 0.000000 0.106907 0.000000 -0.038335
# 5 -0.003208 -0.000376 0.000630 0.000000 0.028450 0.000000
# 6 0.000000 0.000000 0.000000 -0.038335 0.000000 0.054044
#
#
# Mechanical properties :
#
#
# Convention : Reuss Voigt Hill
#
# Bulk Modulus (GPa) = 54.18288 56.53243 55.35765
# Shear Modulus (GPa) = 20.13513 30.85969 25.49741
#
# Velocity S-wave (km/s) = 3.05468 3.78167 3.43745
# Velocity P-wave (km/s) = 6.12788 6.72803 6.43495
#
# Compressibility (1/GPa) = 0.01845601
#
# Stress axis : x y z
#
# Youngs Moduli (GPa) = 66.72654 119.13505 81.75402
#
# Poissons Ratio (x) = 0.00162 0.55361
# Poissons Ratio (y) = 0.00091 0.14657
# Poissons Ratio (z) = 0.45185 0.21359
#
# Static dielectric constant tensor:
#      x y z
#    x 4.034540 0.000000 0.034440 
#    y 0.000000 3.941240 0.000000 
#    z 0.034440 0.000000 3.871600 
# 
# 
# High freq. dielectric constant tensor:
#      x y z
#    x 1.857340 0.000000 0.003670 
#    y 0.000000 1.863090 0.000000 
#    z 0.003670 0.000000 1.850560 
# 
# From -- ./inp_files/90019.got.cif
#   From: 2010.06.25/outbox.cif.g09.slc.cpg/sg10_46_cif.got.tgz:90019.got - 2010.06.27 22:07:45.
