data_PCOD8067375
_publ_section_title
;
Structure prediction by ZEFSAII (Michael W. Deem and Ramdas Pophale) SiO2 
 PCOD8067375
Probable space group: P 2/M
;
_chemical_formula_sum "Si O2"
_cell_formula_units_Z 20
_cell_length_a 9.844047
_cell_length_b 11.534213
_cell_length_c 18.897758
_cell_angle_alpha 90.000000
_cell_angle_beta 29.014474
_cell_angle_gamma 90.000000
_cell_volume 1040.737068
_symmetry_space_group_name_H-M "P 2/M"
_symmetry_group_IT_number 10
_symmetry_cell_setting 'monoclinic'
loop_
_space_group_symop_operation_xyz
x,y,z
-x,y,-z
-x,-y,-z
x,-y,z
loop_
_atom_site_type_symbol
_atom_site_label
_atom_site_fract_x
_atom_site_fract_y
_atom_site_fract_z
Si Si1 0.038111 0.863726 0.063411
Si Si2 0.712914 0.500000 0.037854
Si Si3 0.649071 0.500000 0.220250
Si Si4 0.508716 0.271869 0.916391
Si Si5 0.892360 0.636493 0.354900
Si Si6 0.644365 0.302569 0.325798
O O1 0.795656 0.810135 0.224045
O O2 0.010666 0.000000 0.084515
O O3 0.000000 0.822964 0.000000
O O4 0.353863 0.824934 0.939863
O O5 0.019342 0.500000 0.928299
O O6 0.528195 0.500000 0.194831
O O7 0.666267 0.389868 0.009878
O O8 0.548841 0.385483 0.305688
O O9 0.824385 0.300492 0.748567
O O10 0.500000 0.225945 0.000000
O O11 0.883213 0.500000 0.381865
O O12 0.650310 0.716846 0.499735
O O13 0.859048 0.640207 0.284668
#
# Coordination Sequence:
#
# PCOD8067375 Si02
#       6
#     4   2   2   4   4   4
#     4  11  25  45  65  85 116 162 212 255 297 349
#     4  11  21  29  55  90 121 154 196 243 304 353
#     4  11  18  32  55  85 120 161 197 238 290 379
#     4  12  22  37  61  91 124 154 200 252 303 358
#     4  11  21  36  59  96 132 157 190 242 310 367
#     4  11  20  38  60  88 124 164 198 242 300 361
#
# _framework density 19.21715
#
# number of rings (size 3 to 8) (size 9 to 14) (size 15 to 20)
#    0.000    0.800    7.000    2.100    0.000    0.400 
#    0.000    8.000    0.000    2.400    0.000    0.000 
#    0.000    0.000    0.000    0.000    0.000    0.000 
#
# Total GULP energy -247856.551061 kJ/mol
# GULP energy per Si atom -12392.827553 kJ/mol
# Density = 1.917341 g / cm^3
# Si number density = 19.217150 Si / 1000 Ang^3
#
#
#
# Elastic Constant Matrix: (Units=GPa)
#
#
# Indices 1 2 3 4 5 6 
#
# 1 107.2794 33.1600 43.6582 0.0000 -0.5017 0.0000
# 2 33.1600 74.0443 42.4098 0.0000 1.1711 0.0000
# 3 43.6582 42.4098 119.2935 0.0000 -9.6589 0.0000
# 4 0.0000 0.0000 0.0000 19.8438 0.0000 7.0926
# 5 -0.5017 1.1711 -9.6589 0.0000 28.5267 0.0000
# 6 0.0000 0.0000 0.0000 7.0926 0.0000 27.8571
#
#
#
# Elastic Compliance Matrix: (Units=1/GPa)
#
#
# Indices 1 2 3 4 5 6 
#
# 1 0.011638 -0.003426 -0.003098 0.000000 -0.000704 0.000000
# 2 -0.003426 0.018190 -0.005427 0.000000 -0.002644 0.000000
# 3 -0.003098 -0.005427 0.011782 0.000000 0.004158 0.000000
# 4 0.000000 0.000000 0.000000 0.055439 0.000000 -0.014115
# 5 -0.000704 -0.002644 0.004158 0.000000 0.036559 0.000000
# 6 0.000000 0.000000 0.000000 -0.014115 0.000000 0.039491
#
#
# Mechanical properties :
#
#
# Convention : Reuss Voigt Hill
#
# Bulk Modulus (GPa) = 56.47209 59.89703 58.18456
# Shear Modulus (GPa) = 24.64213 27.33812 25.99013
#
# Velocity S-wave (km/s) = 3.58481 3.77582 3.68155
# Velocity P-wave (km/s) = 6.82529 7.08839 6.95808
#
# Compressibility (1/GPa) = 0.01770786
#
# Stress axis : x y z
#
# Youngs Moduli (GPa) = 85.92504 54.97519 84.87215
#
# Poissons Ratio (x) = 0.18837 0.26294
# Poissons Ratio (y) = 0.29441 0.46059
# Poissons Ratio (z) = 0.26620 0.29834
#
# Static dielectric constant tensor:
#      x y z
#    x 3.942850 0.000000 0.156100 
#    y 0.000000 3.178260 0.000000 
#    z 0.156100 0.000000 3.636130 
# 
# 
# High freq. dielectric constant tensor:
#      x y z
#    x 1.758410 0.000000 0.005530 
#    y 0.000000 1.710830 0.000000 
#    z 0.005530 0.000000 1.750040 
# 
# From -- ./inp_files/74964.got.cif
#   From: 2010.06.25/outbox.cif.g09.slc.cpg/sg10_38_cif.got.tgz:74964.got - 2010.06.27 22:07:45.
