data_PCOD8067353
_publ_section_title
;
Structure prediction by ZEFSAII (Michael W. Deem and Ramdas Pophale) SiO2 
 PCOD8067353
Probable space group: P 2/M
;
_chemical_formula_sum "Si O2"
_cell_formula_units_Z 24
_cell_length_a 13.362033
_cell_length_b 10.995253
_cell_length_c 19.723560
_cell_angle_alpha 90.000000
_cell_angle_beta 24.420459
_cell_angle_gamma 90.000000
_cell_volume 1198.021540
_symmetry_space_group_name_H-M "P 2/M"
_symmetry_group_IT_number 10
_symmetry_cell_setting 'monoclinic'
loop_
_space_group_symop_operation_xyz
x,y,z
-x,y,-z
-x,-y,-z
x,-y,z
loop_
_atom_site_type_symbol
_atom_site_label
_atom_site_fract_x
_atom_site_fract_y
_atom_site_fract_z
Si Si1 0.860963 0.500000 0.735743
Si Si2 0.549065 0.861006 0.896781
Si Si3 0.505832 0.141488 0.287411
Si Si4 0.013366 0.723703 0.566855
Si Si5 0.686159 0.859985 0.326097
Si Si6 0.799671 0.247573 0.987898
Si Si7 0.666947 0.500000 0.003515
O O1 0.020401 0.617146 0.617930
O O2 0.827373 0.500000 0.836856
O O3 0.613363 0.500000 0.845166
O O4 0.772347 0.801461 0.722092
O O5 0.613270 0.000000 0.869444
O O6 0.500000 0.797018 0.000000
O O7 0.312901 0.846453 0.996433
O O8 0.555985 0.162148 0.335231
O O9 0.238195 0.187570 0.437286
O O10 0.524422 0.000000 0.255633
O O11 0.701094 0.217534 0.123706
O O12 0.000000 0.666294 0.500000
O O13 0.500000 0.824977 0.500000
O O14 0.913071 0.769852 0.191383
O O15 0.771964 0.000000 0.279982
O O16 0.726895 0.384009 0.012536
#
# Coordination Sequence:
#
# PCOD8067353 Si02
#       7
#     2   4   4   4   4   4   2
#     4  11  23  42  63  92 135 181 213 266 317 387
#     4  11  23  36  60  94 129 167 209 267 328 385
#     4  11  24  42  67  99 135 171 210 269 333 394
#     4  12  23  39  64  97 135 169 217 260 326 389
#     4  10  24  44  69  96 128 170 217 272 334 391
#     4  12  23  43  67  92 129 173 224 266 321 385
#     4  11  24  42  67  95 126 177 227 262 321 373
#
# _framework density 20.033028000000002
#
# number of rings (size 3 to 8) (size 9 to 14) (size 15 to 20)
#    0.000    0.833    3.333    3.750    4.667    2.667 
#    0.000    2.917    0.000    0.000    0.000    0.000 
#    0.000    0.000    0.000    0.000    0.000    0.000 
#
# Total GULP energy -297718.040874 kJ/mol
# GULP energy per Si atom -12404.918370 kJ/mol
# Density = 1.998743 g / cm^3
# Si number density = 20.033028 Si / 1000 Ang^3
#
#
#
# Elastic Constant Matrix: (Units=GPa)
#
#
# Indices 1 2 3 4 5 6 
#
# 1 105.5793 36.1014 54.6933 0.0000 19.5059 0.0000
# 2 36.1014 105.8360 43.5860 0.0000 11.8870 0.0000
# 3 54.6933 43.5860 117.8318 0.0000 16.7312 0.0000
# 4 0.0000 0.0000 0.0000 31.5638 0.0000 4.7654
# 5 19.5059 11.8870 16.7312 0.0000 42.9031 0.0000
# 6 0.0000 0.0000 0.0000 4.7654 0.0000 13.9467
#
#
#
# Elastic Compliance Matrix: (Units=1/GPa)
#
#
# Indices 1 2 3 4 5 6 
#
# 1 0.013420 -0.002146 -0.004926 0.000000 -0.003586 0.000000
# 2 -0.002146 0.011590 -0.003148 0.000000 -0.001008 0.000000
# 3 -0.004926 -0.003148 0.012170 0.000000 -0.001634 0.000000
# 4 0.000000 0.000000 0.000000 0.033405 0.000000 -0.011414
# 5 -0.003586 -0.001008 -0.001634 0.000000 0.025855 0.000000
# 6 0.000000 0.000000 0.000000 -0.011414 0.000000 0.075601
#
#
# Mechanical properties :
#
#
# Convention : Reuss Voigt Hill
#
# Bulk Modulus (GPa) = 59.73945 66.44538 63.09241
# Shear Modulus (GPa) = 25.24476 30.67381 27.95928
#
# Velocity S-wave (km/s) = 3.55372 3.91725 3.73991
# Velocity P-wave (km/s) = 6.83548 7.32801 7.08603
#
# Compressibility (1/GPa) = 0.01673936
#
# Stress axis : x y z
#
# Youngs Moduli (GPa) = 74.51765 86.27931 82.17224
#
# Poissons Ratio (x) = 0.18517 0.40477
# Poissons Ratio (y) = 0.15993 0.25867
# Poissons Ratio (z) = 0.36707 0.27160
#
# Static dielectric constant tensor:
#      x y z
#    x 3.750240 0.000000 0.235610 
#    y 0.000000 3.659040 0.000000 
#    z 0.235610 0.000000 3.757510 
# 
# 
# High freq. dielectric constant tensor:
#      x y z
#    x 1.785140 0.000000 0.016020 
#    y 0.000000 1.778000 0.000000 
#    z 0.016020 0.000000 1.792980 
# 
# From -- ./inp_files/53737.got.cif
#   From: 2010.06.25/outbox.cif.g09.slc.cpg/sg10_27_cif.got.tgz:53737.got - 2010.06.27 22:07:45.
