data_PCOD8067772
_publ_section_title
;
Structure prediction by ZEFSAII (Michael W. Deem and Ramdas Pophale) SiO2 
 PCOD8067772
Probable space group: P 2/M
;
_chemical_formula_sum "Si O2"
_cell_formula_units_Z 32
_cell_length_a 22.299674
_cell_length_b 13.799458
_cell_length_c 15.707296
_cell_angle_alpha 90.000000
_cell_angle_beta 160.432316
_cell_angle_gamma 90.000000
_cell_volume 1618.837599
_symmetry_space_group_name_H-M "P 2/M"
_symmetry_group_IT_number 10
_symmetry_cell_setting 'monoclinic'
loop_
_space_group_symop_operation_xyz
x,y,z
-x,y,-z
-x,-y,-z
x,-y,z
loop_
_atom_site_type_symbol
_atom_site_label
_atom_site_fract_x
_atom_site_fract_y
_atom_site_fract_z
Si Si1 0.476830 0.297213 0.785502
Si Si2 0.829713 0.611887 0.331748
Si Si3 0.459807 0.614587 0.579881
Si Si4 0.783081 0.385387 0.897217
Si Si5 0.864606 0.699988 0.561786
Si Si6 0.663782 0.115230 0.664115
Si Si7 0.033052 0.108475 0.235066
Si Si8 0.365131 0.891639 0.565288
O O1 0.426946 0.345336 0.629524
O O2 0.326324 0.327143 0.652649
O O3 0.482672 0.180470 0.780884
O O4 0.667457 0.329964 0.073998
O O5 0.774879 0.500000 0.268292
O O6 0.879467 0.655573 0.488908
O O7 0.000000 0.624159 0.500000
O O8 0.441988 0.500000 0.559887
O O9 0.309001 0.655689 0.312660
O O10 0.657507 0.642643 0.809793
O O11 0.800681 0.500000 0.914296
O O12 0.980137 0.342193 0.170721
O O13 0.889610 0.817145 0.590933
O O14 0.500000 0.156123 0.500000
O O15 0.639126 0.152872 0.535217
O O16 0.668814 0.000000 0.667800
O O17 0.844648 0.151453 0.950660
O O18 0.161604 0.105621 0.325322
O O19 0.016004 0.000000 0.252128
O O20 0.449760 0.000000 0.682181
#
# Coordination Sequence:
#
# PCOD8067772 Si02
#       8
#     4   4   4   4   4   4   4   4
#     4  11  23  37  59  88 114 145 192 242 287 332
#     4  11  25  45  66  85 110 148 189 231 290 359
#     4   9  19  36  56  80 114 154 189 225 282 352
#     4   9  19  36  56  80 114 154 189 225 282 352
#     4  11  23  37  59  88 114 145 192 242 287 332
#     4   9  17  29  49  79 112 149 194 239 277 318
#     4   9  19  36  55  78 115 158 193 228 278 340
#     4   9  19  36  55  78 115 158 193 228 278 340
#
# _framework density 19.767268999999999
#
# number of rings (size 3 to 8) (size 9 to 14) (size 15 to 20)
#    0.000    2.250    0.000    3.000    1.750    8.500 
#    0.000    1.875    0.000    3.750    0.000    0.000 
#    0.000    0.000    0.000    0.000    0.000    0.000 
#
# Total GULP energy -396789.329110 kJ/mol
# GULP energy per Si atom -12399.666535 kJ/mol
# Density = 1.972228 g / cm^3
# Si number density = 19.767269 Si / 1000 Ang^3
#
#
#
# Elastic Constant Matrix: (Units=GPa)
#
#
# Indices 1 2 3 4 5 6 
#
# 1 65.5761 18.4758 39.7072 0.0000 12.2674 0.0000
# 2 18.4758 57.2690 55.4692 0.0000 8.0506 0.0000
# 3 39.7072 55.4692 120.2249 0.0000 -1.0812 0.0000
# 4 0.0000 0.0000 0.0000 27.0184 0.0000 -3.3830
# 5 12.2674 8.0506 -1.0812 0.0000 18.1703 0.0000
# 6 0.0000 0.0000 0.0000 -3.3830 0.0000 24.5475
#
#
#
# Elastic Compliance Matrix: (Units=1/GPa)
#
#
# Indices 1 2 3 4 5 6 
#
# 1 0.023544 0.004928 -0.010217 0.000000 -0.018686 0.000000
# 2 0.004928 0.037195 -0.018977 0.000000 -0.020936 0.000000
# 3 -0.010217 -0.018977 0.020596 0.000000 0.016532 0.000000
# 4 0.000000 0.000000 0.000000 0.037662 0.000000 0.005190
# 5 -0.018686 -0.020936 0.016532 0.000000 0.077910 0.000000
# 6 0.000000 0.000000 0.000000 0.005190 0.000000 0.041453
#
#
# Mechanical properties :
#
#
# Convention : Reuss Voigt Hill
#
# Bulk Modulus (GPa) = 30.48590 52.26380 41.37485
# Shear Modulus (GPa) = 16.78829 22.57511 19.68170
#
# Velocity S-wave (km/s) = 2.91743 3.38308 3.15885
# Velocity P-wave (km/s) = 5.17730 6.46199 5.85499
#
# Compressibility (1/GPa) = 0.03280204
#
# Stress axis : x y z
#
# Youngs Moduli (GPa) = 42.47449 26.88521 48.55211
#
# Poissons Ratio (x) = -0.13248 0.49607
# Poissons Ratio (y) = -0.20930 0.92136
# Poissons Ratio (z) = 0.43398 0.51019
#
# Static dielectric constant tensor:
#      x y z
#    x 3.593520 0.000000 0.098220 
#    y 0.000000 3.821190 0.000000 
#    z 0.098220 0.000000 3.523620 
# 
# 
# High freq. dielectric constant tensor:
#      x y z
#    x 1.763650 0.000000 0.012170 
#    y 0.000000 1.787200 0.000000 
#    z 0.012170 0.000000 1.758070 
# 
# From -- ./inp_files/25355.got.cif
#   From: 2010.06.25/outbox.cif.g09.slc.cpg/sg10_13_cif.got.tgz:25355.got - 2010.06.27 22:07:45.
