data_PCOD8067440
_publ_section_title
;
Structure prediction by ZEFSAII (Michael W. Deem and Ramdas Pophale) SiO2 
 PCOD8067440
Probable space group: P 2/M
;
_chemical_formula_sum "Si O2"
_cell_formula_units_Z 28
_cell_length_a 13.565849
_cell_length_b 8.696978
_cell_length_c 27.727189
_cell_angle_alpha 90.000000
_cell_angle_beta 149.582594
_cell_angle_gamma 90.000000
_cell_volume 1656.248462
_symmetry_space_group_name_H-M "P 2/M"
_symmetry_group_IT_number 10
_symmetry_cell_setting 'monoclinic'
loop_
_space_group_symop_operation_xyz
x,y,z
-x,y,-z
-x,-y,-z
x,-y,z
loop_
_atom_site_type_symbol
_atom_site_label
_atom_site_fract_x
_atom_site_fract_y
_atom_site_fract_z
Si Si1 0.925822 0.678738 0.574451
Si Si2 0.292480 0.328458 0.613106
Si Si3 0.315609 0.822422 0.722142
Si Si4 0.720420 0.681104 0.903803
Si Si5 0.543174 0.316429 0.465079
Si Si6 0.688900 0.326011 0.722039
Si Si7 0.924282 0.819974 0.899028
O O1 0.958516 0.500000 0.599215
O O2 0.876404 0.704492 0.497068
O O3 0.752211 0.745328 0.534741
O O4 0.122908 0.770304 0.669798
O O5 0.266157 0.500000 0.624109
O O6 0.283816 0.205292 0.651909
O O7 0.497562 0.317926 0.673470
O O8 0.497662 0.726260 0.819217
O O9 0.356780 0.000000 0.748895
O O10 0.747574 0.500000 0.919929
O O11 0.783254 0.732826 0.876858
O O12 0.854437 0.764307 0.000244
O O13 0.500000 0.250516 0.500000
O O14 0.550308 0.500000 0.467213
O O15 0.369220 0.263439 0.355734
O O16 0.768277 0.500000 0.752648
O O17 0.856372 0.220022 0.816078
O O18 0.908852 0.000000 0.902270
#
# Coordination Sequence:
#
# PCOD8067440 Si02
#       7
#     4   4   4   4   4   4   4
#     4   9  18  31  47  67  92 126 161 195 236 284
#     4   9  17  29  44  62  90 128 165 194 225 276
#     4  12  22  30  42  65  95 128 162 199 235 276
#     4  11  21  33  48  64  90 129 167 200 234 278
#     4   8  15  30  53  78  98 120 159 205 239 275
#     4   9  16  28  48  71  96 129 162 195 237 282
#     4  11  20  31  46  69  97 125 160 200 237 278
#
# _framework density 16.905677000000001
#
# number of rings (size 3 to 8) (size 9 to 14) (size 15 to 20)
#    0.000    2.143    1.429    6.857    0.000    2.286 
#    0.000    2.143    0.000    1.714    0.000    1.000 
#    0.000    8.000    0.000    0.000    0.000    0.000 
#
# Total GULP energy -347164.223880 kJ/mol
# GULP energy per Si atom -12398.722281 kJ/mol
# Density = 1.686720 g / cm^3
# Si number density = 16.905677 Si / 1000 Ang^3
#
#
#
# Elastic Constant Matrix: (Units=GPa)
#
#
# Indices 1 2 3 4 5 6 
#
# 1 58.5738 13.1048 39.9457 0.0000 -8.0276 0.0000
# 2 13.1048 64.0402 25.2843 0.0000 -1.1969 0.0000
# 3 39.9457 25.2843 119.3145 0.0000 -0.0548 0.0000
# 4 0.0000 0.0000 0.0000 18.2893 0.0000 3.8996
# 5 -8.0276 -1.1969 -0.0548 0.0000 20.3748 0.0000
# 6 0.0000 0.0000 0.0000 3.8996 0.0000 5.4687
#
#
#
# Elastic Compliance Matrix: (Units=1/GPa)
#
#
# Indices 1 2 3 4 5 6 
#
# 1 0.023949 -0.001705 -0.007652 0.000000 0.009315 0.000000
# 2 -0.001705 0.017182 -0.003070 0.000000 0.000329 0.000000
# 3 -0.007652 -0.003070 0.011592 0.000000 -0.003164 0.000000
# 4 0.000000 0.000000 0.000000 0.064481 0.000000 -0.045980
# 5 0.009315 0.000329 -0.003164 0.000000 0.052761 0.000000
# 6 0.000000 0.000000 0.000000 -0.045980 0.000000 0.215646
#
#
# Mechanical properties :
#
#
# Convention : Reuss Voigt Hill
#
# Bulk Modulus (GPa) = 35.88296 44.28866 40.08581
# Shear Modulus (GPa) = 11.91165 19.73280 15.82223
#
# Velocity S-wave (km/s) = 2.65730 3.42018 3.06259
# Velocity P-wave (km/s) = 5.53954 6.46925 6.02236
#
# Compressibility (1/GPa) = 0.02786838
#
# Stress axis : x y z
#
# Youngs Moduli (GPa) = 41.75460 58.19891 86.26394
#
# Poissons Ratio (x) = 0.09925 0.66013
# Poissons Ratio (y) = 0.07121 0.26484
# Poissons Ratio (z) = 0.31952 0.17867
#
# Static dielectric constant tensor:
#      x y z
#    x 2.977550 0.000000 -0.010760 
#    y 0.000000 2.993970 0.000000 
#    z -0.010760 0.000000 3.420830 
# 
# 
# High freq. dielectric constant tensor:
#      x y z
#    x 1.601540 0.000000 0.010730 
#    y 0.000000 1.639480 0.000000 
#    z 0.010730 0.000000 1.659520 
# 
# From -- ./inp_files/95184.got.cif
#   From: 2010.06.25/outbox.cif.g09.slc.cpg/sg10_48_cif.got.tgz:95184.got - 2010.06.27 22:07:45.
