data_PCOD8067216
_publ_section_title
;
Structure prediction by ZEFSAII (Michael W. Deem and Ramdas Pophale) SiO2 
 PCOD8067216
Probable space group: P 2/M
;
_chemical_formula_sum "Si O2"
_cell_formula_units_Z 28
_cell_length_a 22.232607
_cell_length_b 15.400510
_cell_length_c 9.475817
_cell_angle_alpha 90.000000
_cell_angle_beta 153.009746
_cell_angle_gamma 90.000000
_cell_volume 1472.461366
_symmetry_space_group_name_H-M "P 2/M"
_symmetry_group_IT_number 10
_symmetry_cell_setting 'monoclinic'
loop_
_space_group_symop_operation_xyz
x,y,z
-x,y,-z
-x,-y,-z
x,-y,z
loop_
_atom_site_type_symbol
_atom_site_label
_atom_site_fract_x
_atom_site_fract_y
_atom_site_fract_z
Si Si1 0.153047 0.785665 0.844431
Si Si2 0.144649 0.500000 0.873746
Si Si3 0.392983 0.898677 0.395647
Si Si4 0.149505 0.595334 0.343299
Si Si5 0.721741 0.677370 0.145257
Si Si6 0.236931 0.335915 0.242425
Si Si7 0.510025 0.762829 0.190063
Si Si8 0.373442 0.500000 0.140134
O O1 0.214467 0.713040 0.865937
O O2 0.000000 0.811536 0.500000
O O3 0.247117 0.870053 0.034807
O O4 0.158530 0.745618 0.012747
O O5 0.000000 0.500000 0.500000
O O6 0.179590 0.419341 0.044598
O O7 0.234881 0.500000 0.928291
O O8 0.500000 0.874035 0.500000
O O9 0.430767 0.851509 0.620979
O O10 0.389812 0.000000 0.420808
O O11 0.220541 0.500000 0.502754
O O12 0.155632 0.649235 0.500730
O O13 0.214427 0.655624 0.361121
O O14 0.000000 0.576526 0.000000
O O15 0.633816 0.749346 0.040842
O O16 0.626814 0.592086 0.940352
O O17 0.394660 0.316965 0.560475
O O18 0.500000 0.771451 0.000000
O O19 0.500000 0.500000 0.500000
#
# Coordination Sequence:
#
# PCOD8067216 Si02
#       8
#     4   2   4   4   4   4   4   2
#     4  11  23  39  65  91 121 155 198 250 303 357
#     4  12  24  35  56  79 114 157 210 257 299 341
#     4  10  22  42  69  96 121 152 191 241 302 372
#     4  11  23  36  53  77 117 163 211 255 295 340
#     4  12  23  39  57  88 118 161 207 251 293 353
#     4  11  22  37  55  83 116 156 209 250 294 350
#     4  11  23  40  62  89 120 157 197 243 303 365
#     4  12  26  37  54  81 120 163 202 257 300 334
#
# _framework density 19.015779999999999
#
# number of rings (size 3 to 8) (size 9 to 14) (size 15 to 20)
#    0.000    0.857    5.714    2.143    4.000    0.571 
#    0.000    1.429    0.000    0.000    0.000    1.000 
#    0.000    0.000    0.000    0.000    0.000    0.000 
#
# Total GULP energy -346964.329497 kJ/mol
# GULP energy per Si atom -12391.583196 kJ/mol
# Density = 1.897250 g / cm^3
# Si number density = 19.015780 Si / 1000 Ang^3
#
#
#
# Elastic Constant Matrix: (Units=GPa)
#
#
# Indices 1 2 3 4 5 6 
#
# 1 70.8499 31.9261 29.4985 0.0000 -1.3490 0.0000
# 2 31.9261 91.6751 49.4904 0.0000 -0.6680 0.0000
# 3 29.4985 49.4904 127.9583 0.0000 1.1898 0.0000
# 4 0.0000 0.0000 0.0000 1.0276 0.0000 6.6387
# 5 -1.3490 -0.6680 1.1898 0.0000 34.1764 0.0000
# 6 0.0000 0.0000 0.0000 6.6387 0.0000 20.3936
#
#
#
# Elastic Compliance Matrix: (Units=1/GPa)
#
#
# Indices 1 2 3 4 5 6 
#
# 1 0.017183 -0.004850 -0.002091 0.000000 0.000656 0.000000
# 2 -0.004850 0.015163 -0.004749 0.000000 0.000270 0.000000
# 3 -0.002091 -0.004749 0.010139 0.000000 -0.000528 0.000000
# 4 0.000000 0.000000 0.000000 -0.882257 0.000000 0.287201
# 5 0.000656 0.000270 -0.000528 0.000000 0.029310 0.000000
# 6 0.000000 0.000000 0.000000 0.287201 0.000000 -0.044457
#
#
# Mechanical properties :
#
#
# Convention : Reuss Voigt Hill
#
# Bulk Modulus (GPa) = 52.34593 56.92369 54.63481
# Shear Modulus (GPa) = -6.05936 23.09074 8.51569
#
# Velocity S-wave (km/s) = -1.78701 3.48845 2.11848
# Velocity P-wave (km/s) = 4.83006 6.79895 5.89725
#
# Compressibility (1/GPa) = 0.01910368
#
# Stress axis : x y z
#
# Youngs Moduli (GPa) = 58.19626 65.95065 98.63063
#
# Poissons Ratio (x) = 0.31988 0.20628
# Poissons Ratio (y) = 0.28227 0.46839
# Poissons Ratio (z) = 0.12171 0.31319
#
# Static dielectric constant tensor:
#      x y z
#    x 3.846800 0.000000 0.001570 
#    y 0.000000 3.271810 0.000000 
#    z 0.001570 0.000000 3.619000 
# 
# 
# High freq. dielectric constant tensor:
#      x y z
#    x 1.738090 0.000000 -0.006100 
#    y 0.000000 1.717050 0.000000 
#    z -0.006100 0.000000 1.753710 
# 
# From -- ./inp_files/25458.got.cif
#   From: 2010.06.25/outbox.cif.g09.slc.cpg/sg10_13_cif.got.tgz:25458.got - 2010.06.27 22:07:45.
