data_PCOD8067209
_publ_section_title
;
Structure prediction by ZEFSAII (Michael W. Deem and Ramdas Pophale) SiO2 
 PCOD8067209
Probable space group: P 2/M
;
_chemical_formula_sum "Si O2"
_cell_formula_units_Z 28
_cell_length_a 10.961895
_cell_length_b 8.754906
_cell_length_c 14.645147
_cell_angle_alpha 90.000000
_cell_angle_beta 112.867992
_cell_angle_gamma 90.000000
_cell_volume 1295.031448
_symmetry_space_group_name_H-M "P 2/M"
_symmetry_group_IT_number 10
_symmetry_cell_setting 'monoclinic'
loop_
_space_group_symop_operation_xyz
x,y,z
-x,y,-z
-x,-y,-z
x,-y,z
loop_
_atom_site_type_symbol
_atom_site_label
_atom_site_fract_x
_atom_site_fract_y
_atom_site_fract_z
Si Si1 0.407577 0.821608 0.144205
Si Si2 0.286108 0.327403 0.944989
Si Si3 0.664083 0.672057 0.251743
Si Si4 0.018538 0.176478 0.901188
Si Si5 0.226722 0.322741 0.235043
Si Si6 0.343816 0.822717 0.445218
Si Si7 0.848571 0.820825 0.441967
O O1 0.535457 0.771659 0.241127
O O2 0.281379 0.780803 0.168638
O O3 0.411387 0.000000 0.124554
O O4 0.401536 0.729504 0.046863
O O5 0.244500 0.500000 0.959899
O O6 0.333439 0.321726 0.855879
O O7 0.168424 0.207577 0.918749
O O8 0.646067 0.500000 0.282445
O O9 0.795841 0.741754 0.334674
O O10 0.928500 0.280822 0.808437
O O11 0.984534 0.000000 0.874492
O O12 0.000000 0.225826 0.000000
O O13 0.249962 0.500000 0.220817
O O14 0.292474 0.282845 0.349720
O O15 0.500000 0.787506 0.500000
O O16 0.254706 0.778075 0.507308
O O17 0.322066 0.000000 0.414492
O O18 0.000000 0.762022 0.500000
O O19 0.850852 0.000000 0.425940
#
# Coordination Sequence:
#
# PCOD8067209 Si02
#       7
#     4   4   4   4   4   4   4
#     4  12  24  41  65  95 129 170 215 259 312 379
#     4  11  24  41  63  94 131 169 211 260 318 380
#     4  11  25  43  65  94 129 168 210 263 323 380
#     4  11  23  40  63  92 126 169 216 262 313 377
#     4  12  25  40  65  96 130 168 208 262 326 383
#     4  10  22  42  67  95 128 168 217 272 324 387
#     4  10  23  43  66  95 128 170 219 271 327 386
#
# _framework density 21.621096999999999
#
# number of rings (size 3 to 8) (size 9 to 14) (size 15 to 20)
#    0.000    1.000    1.429    5.143    2.000    6.857 
#    0.000    0.000    0.000    0.000    0.000    0.000 
#    0.000    0.000    0.000    0.000    0.000    0.000 
#
# Total GULP energy -347284.829017 kJ/mol
# GULP energy per Si atom -12403.029608 kJ/mol
# Density = 2.157189 g / cm^3
# Si number density = 21.621097 Si / 1000 Ang^3
#
#
#
# Elastic Constant Matrix: (Units=GPa)
#
#
# Indices 1 2 3 4 5 6 
#
# 1 101.9540 27.6812 36.6460 0.0000 20.9338 0.0000
# 2 27.6812 99.8233 53.7858 0.0000 6.1228 0.0000
# 3 36.6460 53.7858 122.5722 0.0000 23.4753 0.0000
# 4 0.0000 0.0000 0.0000 30.7390 0.0000 2.3612
# 5 20.9338 6.1228 23.4753 0.0000 36.9655 0.0000
# 6 0.0000 0.0000 0.0000 2.3612 0.0000 21.8239
#
#
#
# Elastic Compliance Matrix: (Units=1/GPa)
#
#
# Indices 1 2 3 4 5 6 
#
# 1 0.012097 -0.002140 -0.001632 0.000000 -0.005460 0.000000
# 2 -0.002140 0.013592 -0.005835 0.000000 0.002666 0.000000
# 3 -0.001632 -0.005835 0.012346 0.000000 -0.005950 0.000000
# 4 0.000000 0.000000 0.000000 0.032805 0.000000 -0.003549
# 5 -0.005460 0.002666 -0.005950 0.000000 0.033481 0.000000
# 6 0.000000 0.000000 0.000000 -0.003549 0.000000 0.046205
#
#
# Mechanical properties :
#
#
# Convention : Reuss Voigt Hill
#
# Bulk Modulus (GPa) = 53.13280 62.28618 57.70949
# Shear Modulus (GPa) = 28.40688 31.65478 30.03083
#
# Velocity S-wave (km/s) = 3.62864 3.83047 3.73092
# Velocity P-wave (km/s) = 6.49491 6.95945 6.73119
#
# Compressibility (1/GPa) = 0.01882077
#
# Stress axis : x y z
#
# Youngs Moduli (GPa) = 82.66475 73.57506 80.99610
#
# Poissons Ratio (x) = 0.15748 0.13217
# Poissons Ratio (y) = 0.17694 0.47260
# Poissons Ratio (z) = 0.13489 0.42930
#
# Static dielectric constant tensor:
#      x y z
#    x 4.047900 0.000000 0.131140 
#    y 0.000000 3.808160 0.000000 
#    z 0.131140 0.000000 3.910220 
# 
# 
# High freq. dielectric constant tensor:
#      x y z
#    x 1.853480 0.000000 0.013450 
#    y 0.000000 1.849430 0.000000 
#    z 0.013450 0.000000 1.855730 
# 
# From -- ./inp_files/63918.got.cif
#   From: 2010.06.25/outbox.cif.g09.slc.cpg/sg10_32_cif.got.tgz:63918.got - 2010.06.27 22:07:45.
