data_PCOD8067094
_publ_section_title
;
Structure prediction by ZEFSAII (Michael W. Deem and Ramdas Pophale) SiO2 
 PCOD8067094
Probable space group: P 2/M
;
_chemical_formula_sum "Si O2"
_cell_formula_units_Z 24
_cell_length_a 9.265765
_cell_length_b 19.219875
_cell_length_c 9.874796
_cell_angle_alpha 90.000000
_cell_angle_beta 43.451690
_cell_angle_gamma 90.000000
_cell_volume 1209.444582
_symmetry_space_group_name_H-M "P 2/M"
_symmetry_group_IT_number 10
_symmetry_cell_setting 'monoclinic'
loop_
_space_group_symop_operation_xyz
x,y,z
-x,y,-z
-x,-y,-z
x,-y,z
loop_
_atom_site_type_symbol
_atom_site_label
_atom_site_fract_x
_atom_site_fract_y
_atom_site_fract_z
Si Si1 0.824299 0.136076 0.010019
Si Si2 0.333268 0.000000 0.989121
Si Si3 0.100099 0.000000 0.576768
Si Si4 0.885919 0.146875 0.437178
Si Si5 0.359678 0.500000 0.959073
Si Si6 0.506957 0.238058 0.651319
Si Si7 0.554643 0.400350 0.616918
Si Si8 0.924661 0.500000 0.399794
O O1 0.654963 0.072472 0.103990
O O2 0.697538 0.204802 0.141180
O O3 0.000000 0.114683 0.000000
O O4 0.939314 0.160691 0.795282
O O5 0.500000 0.000000 0.000000
O O6 0.091680 0.000000 0.191243
O O7 0.230127 0.928619 0.511335
O O8 0.000000 0.000000 0.500000
O O9 0.719176 0.207044 0.566116
O O10 0.000000 0.141511 0.500000
O O11 0.404927 0.433950 0.832616
O O12 0.500000 0.500000 0.000000
O O13 0.115536 0.500000 0.164145
O O14 0.500000 0.218633 0.500000
O O15 0.525930 0.319435 0.664923
O O16 0.500000 0.420073 0.500000
O O17 0.790077 0.429391 0.473601
O O18 0.000000 0.500000 0.500000
#
# Coordination Sequence:
#
# PCOD8067094 Si02
#       8
#     4   2   2   4   2   4   4   2
#     4  11  23  42  64  89 128 171 218 265 325 383
#     4  10  23  37  62  93 121 159 218 284 326 369
#     4   8  18  35  56  80 119 151 206 263 315 370
#     4  10  22  40  60  92 123 163 216 272 321 377
#     4  11  21  43  70 101 128 161 207 254 309 369
#     4  11  24  43  64  90 132 171 209 259 316 382
#     4  10  24  43  64  99 131 165 214 255 303 384
#     4  11  21  41  72  95 132 165 199 264 313 355
#
# _framework density 19.843819
#
# number of rings (size 3 to 8) (size 9 to 14) (size 15 to 20)
#    0.000    1.667    3.333    1.250    7.000    3.333 
#    3.000    0.833    0.000    0.000    0.000    0.000 
#    0.000    0.000    0.000    0.000    0.000    0.000 
#
# Total GULP energy -297348.881264 kJ/mol
# GULP energy per Si atom -12389.536719 kJ/mol
# Density = 1.979865 g / cm^3
# Si number density = 19.843819 Si / 1000 Ang^3
#
#
#
# Elastic Constant Matrix: (Units=GPa)
#
#
# Indices 1 2 3 4 5 6 
#
# 1 117.1844 67.2215 49.5308 0.0000 3.4955 0.0000
# 2 67.2215 145.8924 55.2338 0.0000 0.7693 0.0000
# 3 49.5308 55.2338 142.6769 0.0000 2.9412 0.0000
# 4 0.0000 0.0000 0.0000 24.1018 0.0000 0.3506
# 5 3.4955 0.7693 2.9412 0.0000 35.3400 0.0000
# 6 0.0000 0.0000 0.0000 0.3506 0.0000 27.2895
#
#
#
# Elastic Compliance Matrix: (Units=1/GPa)
#
#
# Indices 1 2 3 4 5 6 
#
# 1 0.012307 -0.004752 -0.002414 0.000000 -0.000913 0.000000
# 2 -0.004752 0.009866 -0.002179 0.000000 0.000437 0.000000
# 3 -0.002414 -0.002179 0.008699 0.000000 -0.000438 0.000000
# 4 0.000000 0.000000 0.000000 0.041498 0.000000 -0.000533
# 5 -0.000913 0.000437 -0.000438 0.000000 0.028414 0.000000
# 6 0.000000 0.000000 0.000000 -0.000533 0.000000 0.036651
#
#
# Mechanical properties :
#
#
# Convention : Reuss Voigt Hill
#
# Bulk Modulus (GPa) = 82.07986 83.30288 82.69137
# Shear Modulus (GPa) = 31.21356 32.93076 32.07216
#
# Velocity S-wave (km/s) = 3.97036 4.07811 4.02460
# Velocity P-wave (km/s) = 7.90387 8.01530 7.95978
#
# Compressibility (1/GPa) = 0.01218326
#
# Stress axis : x y z
#
# Youngs Moduli (GPa) = 81.25481 101.35360 114.94998
#
# Poissons Ratio (x) = 0.48161 0.27749
# Poissons Ratio (y) = 0.38611 0.25047
# Poissons Ratio (z) = 0.19615 0.22084
#
# Static dielectric constant tensor:
#      x y z
#    x 3.273660 0.000000 0.316820 
#    y 0.000000 3.863780 0.000000 
#    z 0.316820 0.000000 3.588380 
# 
# 
# High freq. dielectric constant tensor:
#      x y z
#    x 1.770820 0.000000 0.010390 
#    y 0.000000 1.777970 0.000000 
#    z 0.010390 0.000000 1.785240 
# 
# From -- ./inp_files/20195.got.cif
#   From: 2010.06.25/outbox.cif.g09.slc.cpg/sg10_11_cif.got.tgz:20195.got - 2010.06.27 22:07:45.
