data_PCOD8067256
_publ_section_title
;
Structure prediction by ZEFSAII (Michael W. Deem and Ramdas Pophale) SiO2 
 PCOD8067256
Probable space group: P 2/M
;
_chemical_formula_sum "Si O2"
_cell_formula_units_Z 28
_cell_length_a 9.575634
_cell_length_b 17.668859
_cell_length_c 16.075012
_cell_angle_alpha 90.000000
_cell_angle_beta 29.393099
_cell_angle_gamma 90.000000
_cell_volume 1334.845051
_symmetry_space_group_name_H-M "P 2/M"
_symmetry_group_IT_number 10
_symmetry_cell_setting 'monoclinic'
loop_
_space_group_symop_operation_xyz
x,y,z
-x,y,-z
-x,-y,-z
x,-y,z
loop_
_atom_site_type_symbol
_atom_site_label
_atom_site_fract_x
_atom_site_fract_y
_atom_site_fract_z
Si Si1 0.703104 0.829634 0.115401
Si Si2 0.755407 0.915367 0.930385
Si Si3 0.743627 0.083356 0.570434
Si Si4 0.680790 0.341393 0.139302
Si Si5 0.795171 0.828422 0.392820
Si Si6 0.360709 0.588172 0.158597
Si Si7 0.864925 0.309829 0.481211
O O1 0.472615 0.846742 0.305965
O O2 0.688017 0.742567 0.095810
O O3 0.619237 0.888799 0.087607
O O4 0.000000 0.851936 0.000000
O O5 0.976701 0.847309 0.797095
O O6 0.889539 0.000000 0.869032
O O7 0.500000 0.917381 0.000000
O O8 0.826929 0.094701 0.430962
O O9 0.000000 0.093643 0.500000
O O10 0.607950 0.000000 0.651177
O O11 0.583190 0.398047 0.117866
O O12 0.456215 0.341471 0.333741
O O13 0.000000 0.365710 0.000000
O O14 0.500000 0.814232 0.500000
O O15 0.871055 0.757505 0.411420
O O16 0.296826 0.500000 0.183521
O O17 0.058636 0.626119 0.337626
O O18 0.500000 0.618743 0.000000
O O19 0.000000 0.284066 0.500000
#
# Coordination Sequence:
#
# PCOD8067256 Si02
#       7
#     4   4   4   4   4   4   4
#     4  11  23  39  61  88 121 163 214 262 313 378
#     4  11  26  41  57  86 122 166 216 270 328 379
#     4  11  23  40  62  84 119 167 216 266 316 375
#     4  10  23  40  67 100 133 170 214 264 313 378
#     4  12  25  38  60  91 126 163 212 269 326 378
#     4  10  24  45  71 103 133 168 207 250 310 382
#     4  10  23  42  67  96 128 171 216 261 309 385
#
# _framework density 20.976216000000001
#
# number of rings (size 3 to 8) (size 9 to 14) (size 15 to 20)
#    0.000    1.286    1.429    3.000   10.000    8.571 
#    0.000    0.000    0.000    2.143    0.000    0.000 
#    0.000    0.000    0.000    0.000    0.000    0.000 
#
# Total GULP energy -347083.496051 kJ/mol
# GULP energy per Si atom -12395.839145 kJ/mol
# Density = 2.092847 g / cm^3
# Si number density = 20.976216 Si / 1000 Ang^3
#
#
#
# Elastic Constant Matrix: (Units=GPa)
#
#
# Indices 1 2 3 4 5 6 
#
# 1 77.8175 40.5449 30.3876 0.0000 -1.5351 0.0000
# 2 40.5449 84.2765 39.0632 0.0000 0.2374 0.0000
# 3 30.3876 39.0632 117.9516 0.0000 -11.8247 0.0000
# 4 0.0000 0.0000 0.0000 34.8953 0.0000 7.6728
# 5 -1.5351 0.2374 -11.8247 0.0000 32.4485 0.0000
# 6 0.0000 0.0000 0.0000 7.6728 0.0000 18.3256
#
#
#
# Elastic Compliance Matrix: (Units=1/GPa)
#
#
# Indices 1 2 3 4 5 6 
#
# 1 0.017555 -0.007510 -0.002021 0.000000 0.000149 0.000000
# 2 -0.007510 0.017339 -0.004002 0.000000 -0.001941 0.000000
# 3 -0.002021 -0.004002 0.010709 0.000000 0.003836 0.000000
# 4 0.000000 0.000000 0.000000 0.031563 0.000000 -0.013215
# 5 0.000149 -0.001941 0.003836 0.000000 0.032237 0.000000
# 6 0.000000 0.000000 0.000000 -0.013215 0.000000 0.060101
#
#
# Mechanical properties :
#
#
# Convention : Reuss Voigt Hill
#
# Bulk Modulus (GPa) = 53.94332 55.55965 54.75149
# Shear Modulus (GPa) = 24.66105 28.47054 26.56579
#
# Velocity S-wave (km/s) = 3.43252 3.68812 3.56261
# Velocity P-wave (km/s) = 6.44064 6.68437 6.56364
#
# Compressibility (1/GPa) = 0.01853798
#
# Stress axis : x y z
#
# Youngs Moduli (GPa) = 56.96289 57.67335 93.38206
#
# Poissons Ratio (x) = 0.43310 0.18871
# Poissons Ratio (y) = 0.42776 0.37374
# Poissons Ratio (z) = 0.11511 0.23082
#
# Static dielectric constant tensor:
#      x y z
#    x 3.686420 0.000000 0.018640 
#    y 0.000000 3.625620 0.000000 
#    z 0.018640 0.000000 3.991340 
# 
# 
# High freq. dielectric constant tensor:
#      x y z
#    x 1.820210 0.000000 0.005830 
#    y 0.000000 1.811450 0.000000 
#    z 0.005830 0.000000 1.837850 
# 
# From -- ./inp_files/62545.got.cif
#   From: 2010.06.25/outbox.cif.g09.slc.cpg/sg10_32_cif.got.tgz:62545.got - 2010.06.27 22:07:45.
