data_PCOD8067982
_publ_section_title
;
Structure prediction by ZEFSAII (Michael W. Deem and Ramdas Pophale) SiO2 
 PCOD8067982
Probable space group: P 2/M
;
_chemical_formula_sum "Si O2"
_cell_formula_units_Z 28
_cell_length_a 15.225672
_cell_length_b 12.744605
_cell_length_c 17.824756
_cell_angle_alpha 90.000000
_cell_angle_beta 148.670010
_cell_angle_gamma 90.000000
_cell_volume 1798.463498
_symmetry_space_group_name_H-M "P 2/M"
_symmetry_group_IT_number 10
_symmetry_cell_setting 'monoclinic'
loop_
_space_group_symop_operation_xyz
x,y,z
-x,y,-z
-x,-y,-z
x,-y,z
loop_
_atom_site_type_symbol
_atom_site_label
_atom_site_fract_x
_atom_site_fract_y
_atom_site_fract_z
Si Si1 0.326658 0.621535 0.081798
Si Si2 0.663062 0.621535 0.418202
Si Si3 0.173483 0.000000 0.085582
Si Si4 0.329606 0.375193 0.912998
Si Si5 0.489873 0.772551 0.581523
Si Si6 0.173172 0.227449 0.081523
Si Si7 0.003609 0.624807 0.587002
Si Si8 0.502320 0.000000 0.414418
O O1 0.275709 0.500000 0.050731
O O2 0.514440 0.641434 0.250000
O O3 0.187659 0.686701 0.026679
O O4 0.321242 0.662192 0.992740
O O5 0.674246 0.500000 0.449268
O O6 0.634302 0.686702 0.473321
O O7 0.835763 0.662192 0.507260
O O8 0.186678 0.888689 0.051060
O O9 0.309082 0.000000 0.250000
O O10 0.000000 0.000000 0.000000
O O11 0.332629 0.500000 0.911425
O O12 0.167767 0.330852 0.750000
O O13 0.500000 0.329523 0.000000
O O14 0.500000 0.756406 0.500000
O O15 0.677713 0.756474 0.750000
O O16 0.415442 0.888689 0.551060
O O17 0.000000 0.243594 0.000000
O O18 0.009781 0.500000 0.588576
O O19 0.000000 0.670477 0.500000
O O20 0.500000 0.000000 0.500000
#
# Coordination Sequence:
#
# PCOD8067982 Si02
#       8
#     4   4   2   4   4   4   4   2
#     4   9  17  28  40  57  83 111 136 162 196 240
#     4   9  17  28  40  57  83 111 136 162 196 240
#     4   8  14  26  42  58  75  98 133 172 205 234
#     4   9  16  26  41  60  81 106 135 166 199 235
#     4   9  17  28  42  59  80 107 137 169 202 235
#     4   9  17  28  42  59  80 107 137 169 202 235
#     4   9  16  26  41  60  81 106 135 166 199 235
#     4   8  14  26  42  58  75  98 133 172 205 234
#
# _framework density 15.568845
#
# number of rings (size 3 to 8) (size 9 to 14) (size 15 to 20)
#    0.000    3.143    0.000    0.857    0.000    5.143 
#    0.000    0.000    0.000    0.000    0.000    1.000 
#    0.000    0.000    0.000    0.000    0.000    0.000 
#
# Total GULP energy -346920.143560 kJ/mol
# GULP energy per Si atom -12390.005127 kJ/mol
# Density = 1.553341 g / cm^3
# Si number density = 15.568845 Si / 1000 Ang^3
#
#
#
# Elastic Constant Matrix: (Units=GPa)
#
#
# Indices 1 2 3 4 5 6 
#
# 1 127.9370 59.9645 57.7655 0.0000 -0.3630 0.0000
# 2 59.9645 71.3285 33.5746 0.0000 -0.7939 0.0000
# 3 57.7655 33.5746 71.5917 0.0000 -1.3320 0.0000
# 4 0.0000 0.0000 0.0000 12.5131 0.0000 0.3162
# 5 -0.3630 -0.7939 -1.3320 0.0000 29.0233 0.0000
# 6 0.0000 0.0000 0.0000 0.3162 0.0000 2.0034
#
#
#
# Elastic Compliance Matrix: (Units=1/GPa)
#
#
# Indices 1 2 3 4 5 6 
#
# 1 0.016165 -0.009562 -0.008567 0.000000 -0.000453 0.000000
# 2 -0.009562 0.023648 -0.003368 0.000000 0.000373 0.000000
# 3 -0.008567 -0.003368 0.022476 0.000000 0.000832 0.000000
# 4 0.000000 0.000000 0.000000 0.080236 0.000000 -0.012662
# 5 -0.000453 0.000373 0.000832 0.000000 0.034498 0.000000
# 6 0.000000 0.000000 0.000000 -0.012662 0.000000 0.501139
#
#
# Mechanical properties :
#
#
# Convention : Reuss Voigt Hill
#
# Bulk Modulus (GPa) = 51.82907 63.71849 57.77378
# Shear Modulus (GPa) = 6.87204 16.67814 11.77509
#
# Velocity S-wave (km/s) = 2.10322 3.27655 2.75312
# Velocity P-wave (km/s) = 6.26583 7.43842 6.87716
#
# Compressibility (1/GPa) = 0.01929419
#
# Stress axis : x y z
#
# Youngs Moduli (GPa) = 61.86175 42.28742 44.49256
#
# Poissons Ratio (x) = 0.40436 0.38118
# Poissons Ratio (y) = 0.59153 0.14984
# Poissons Ratio (z) = 0.52998 0.14242
#
# Static dielectric constant tensor:
#      x y z
#    x 2.860880 0.000000 0.006010 
#    y 0.000000 3.329550 0.000000 
#    z 0.006010 0.000000 3.060810 
# 
# 
# High freq. dielectric constant tensor:
#      x y z
#    x 1.581170 0.000000 0.000690 
#    y 0.000000 1.569200 0.000000 
#    z 0.000690 0.000000 1.604270 
# 
# From -- ./inp_files/28837.got.cif
#   From: 2010.06.25/outbox.cif.g09.slc.cpg/sg10_15_cif.got.tgz:28837.got - 2010.06.27 22:07:45.
