data_PCOD8067436
_publ_section_title
;
Structure prediction by ZEFSAII (Michael W. Deem and Ramdas Pophale) SiO2 
 PCOD8067436
Probable space group: P 2/M
;
_chemical_formula_sum "Si O2"
_cell_formula_units_Z 32
_cell_length_a 14.867109
_cell_length_b 8.891382
_cell_length_c 21.597465
_cell_angle_alpha 90.000000
_cell_angle_beta 145.744730
_cell_angle_gamma 90.000000
_cell_volume 1606.997228
_symmetry_space_group_name_H-M "P 2/M"
_symmetry_group_IT_number 10
_symmetry_cell_setting 'monoclinic'
loop_
_space_group_symop_operation_xyz
x,y,z
-x,y,-z
-x,-y,-z
x,-y,z
loop_
_atom_site_type_symbol
_atom_site_label
_atom_site_fract_x
_atom_site_fract_y
_atom_site_fract_z
Si Si1 0.780694 0.327375 0.704930
Si Si2 0.430545 0.326894 0.833740
Si Si3 0.475789 0.824833 0.360169
Si Si4 0.387588 0.671337 0.185430
Si Si5 0.699405 0.824658 0.056647
Si Si6 0.868081 0.673204 0.265236
Si Si7 0.885611 0.670242 0.058992
Si Si8 0.175890 0.823416 0.400611
O O1 0.742472 0.500000 0.669840
O O2 0.621131 0.253102 0.639940
O O3 0.837773 0.252890 0.673881
O O4 0.922968 0.308645 0.836814
O O5 0.478748 0.500000 0.873737
O O6 0.485206 0.283091 0.795544
O O7 0.521069 0.223349 0.935440
O O8 0.239261 0.304095 0.733513
O O9 0.413780 0.779114 0.257869
O O10 0.660328 0.778386 0.472293
O O11 0.450374 0.000000 0.354584
O O12 0.415107 0.500000 0.222743
O O13 0.204831 0.694197 0.057856
O O14 0.702810 0.000000 0.075706
O O15 0.755823 0.726209 0.145980
O O16 0.819270 0.792700 0.068583
O O17 0.915042 0.500000 0.282356
O O18 0.031215 0.767919 0.361990
O O19 0.847256 0.500000 0.060747
O O20 0.160835 0.000000 0.382100
#
# Coordination Sequence:
#
# PCOD8067436 Si02
#       8
#     4   4   4   4   4   4   4   4
#     4  11  22  38  64  91 115 148 191 237 291 349
#     4   9  20  37  57  82 115 153 192 238 286 334
#     4  11  25  42  59  82 116 155 193 240 294 343
#     4   9  19  39  62  83 113 152 197 239 280 337
#     4  11  20  30  51  84 121 156 188 228 284 346
#     4  11  21  35  57  84 114 151 193 237 288 343
#     4   9  19  36  58  86 119 152 187 237 290 336
#     4  11  24  41  59  84 119 153 189 240 295 343
#
# _framework density 19.912915999999999
#
# number of rings (size 3 to 8) (size 9 to 14) (size 15 to 20)
#    0.000    1.750    1.250    4.125    0.000    9.000 
#    0.000    3.125    0.000    3.750    0.000    0.000 
#    0.000    0.000    0.000    0.000    0.000    0.000 
#
# Total GULP energy -396795.446065 kJ/mol
# GULP energy per Si atom -12399.857690 kJ/mol
# Density = 1.986759 g / cm^3
# Si number density = 19.912916 Si / 1000 Ang^3
#
#
#
# Elastic Constant Matrix: (Units=GPa)
#
#
# Indices 1 2 3 4 5 6 
#
# 1 34.7219 22.8280 20.8529 0.0000 12.0983 0.0000
# 2 22.8280 79.7941 44.5303 0.0000 10.9403 0.0000
# 3 20.8529 44.5303 82.4914 0.0000 11.1787 0.0000
# 4 0.0000 0.0000 0.0000 28.2247 0.0000 5.4165
# 5 12.0983 10.9403 11.1787 0.0000 32.1006 0.0000
# 6 0.0000 0.0000 0.0000 5.4165 0.0000 21.6450
#
#
#
# Elastic Compliance Matrix: (Units=1/GPa)
#
#
# Indices 1 2 3 4 5 6 
#
# 1 0.040340 -0.007400 -0.004706 0.000000 -0.011042 0.000000
# 2 -0.007400 0.019550 -0.008562 0.000000 -0.000892 0.000000
# 3 -0.004706 -0.008562 0.018155 0.000000 -0.001631 0.000000
# 4 0.000000 0.000000 0.000000 0.037217 0.000000 -0.009313
# 5 -0.011042 -0.000892 -0.001631 0.000000 0.036186 0.000000
# 6 0.000000 0.000000 0.000000 -0.009313 0.000000 0.048531
#
#
# Mechanical properties :
#
#
# Convention : Reuss Voigt Hill
#
# Bulk Modulus (GPa) = 27.24212 41.49221 34.36716
# Shear Modulus (GPa) = 19.71998 23.64712 21.68355
#
# Velocity S-wave (km/s) = 3.15034 3.44979 3.30346
# Velocity P-wave (km/s) = 5.19068 6.06219 5.64328
#
# Compressibility (1/GPa) = 0.03670786
#
# Stress axis : x y z
#
# Youngs Moduli (GPa) = 24.78958 51.15181 55.08170
#
# Poissons Ratio (x) = 0.37854 0.25923
# Poissons Ratio (y) = 0.18345 0.47159
# Poissons Ratio (z) = 0.11666 0.43794
#
# Static dielectric constant tensor:
#      x y z
#    x 3.563180 0.000000 0.250250 
#    y 0.000000 3.591820 0.000000 
#    z 0.250250 0.000000 3.689960 
# 
# 
# High freq. dielectric constant tensor:
#      x y z
#    x 1.765730 0.000000 0.019710 
#    y 0.000000 1.778690 0.000000 
#    z 0.019710 0.000000 1.771820 
# 
# From -- ./inp_files/89631.got.cif
#   From: 2010.06.25/outbox.cif.g09.slc.cpg/sg10_45_cif.got.tgz:89631.got - 2010.06.27 22:07:45.
