data_PCOD8067568
_publ_section_title
;
Structure prediction by ZEFSAII (Michael W. Deem and Ramdas Pophale) SiO2 
 PCOD8067568
Probable space group: P 2/M
;
_chemical_formula_sum "Si O2"
_cell_formula_units_Z 28
_cell_length_a 27.499101
_cell_length_b 13.423736
_cell_length_c 21.661653
_cell_angle_alpha 90.000000
_cell_angle_beta 11.353284
_cell_angle_gamma 90.000000
_cell_volume 1574.115479
_symmetry_space_group_name_H-M "P 2/M"
_symmetry_group_IT_number 10
_symmetry_cell_setting 'monoclinic'
loop_
_space_group_symop_operation_xyz
x,y,z
-x,y,-z
-x,-y,-z
x,-y,z
loop_
_atom_site_type_symbol
_atom_site_label
_atom_site_fract_x
_atom_site_fract_y
_atom_site_fract_z
Si Si1 0.988342 0.244459 0.167024
Si Si2 0.416337 0.113036 0.270077
Si Si3 0.609879 0.244432 0.234739
Si Si4 0.161770 0.113040 0.151857
Si Si5 0.796546 0.383406 0.305172
Si Si6 0.291133 0.109474 0.708867
Si Si7 0.191476 0.882645 0.308519
O O1 0.797185 0.191639 0.450720
O O2 0.876578 0.340542 0.272239
O O3 0.228348 0.278049 0.907476
O O4 0.055837 0.166393 0.029211
O O5 0.309252 0.000000 0.400686
O O6 0.626401 0.119292 0.060432
O O7 0.531174 0.144445 0.059760
O O8 0.471897 0.340497 0.379260
O O9 0.396107 0.166352 0.518825
O O10 0.788983 0.191612 0.963094
O O11 0.894746 0.144518 0.514370
O O12 0.148683 0.000000 0.141457
O O13 0.762921 0.500000 0.355585
O O14 0.000000 0.358138 0.000000
O O15 0.500000 0.100892 0.500000
O O16 0.204215 0.000000 0.795804
O O17 0.000000 0.829880 0.500000
O O18 0.162340 0.000000 0.337735
#
# Coordination Sequence:
#
# PCOD8067568 Si02
#       7
#     4   4   4   4   4   4   4
#     4  11  21  35  54  79 107 137 174 214 261 311
#     4   9  16  28  49  77 112 150 183 213 249 299
#     4  11  21  35  54  79 107 137 174 214 261 311
#     4   9  16  28  49  77 112 150 183 213 249 299
#     4  11  24  42  60  77  98 129 175 226 275 321
#     4   9  18  31  47  72 109 143 168 198 240 298
#     4   7  12  24  43  71 107 147 185 216 245 286
#
# _framework density 17.787766000000001
#
# number of rings (size 3 to 8) (size 9 to 14) (size 15 to 20)
#    0.000    2.429    2.857    2.571    0.000    2.286 
#    0.000    2.857    0.000    2.571    0.000    2.000 
#    0.000    2.286    0.000    0.000    0.000    0.000 
#
# Total GULP energy -346982.684742 kJ/mol
# GULP energy per Si atom -12392.238741 kJ/mol
# Density = 1.774728 g / cm^3
# Si number density = 17.787766 Si / 1000 Ang^3
#
#
#
# Elastic Constant Matrix: (Units=GPa)
#
#
# Indices 1 2 3 4 5 6 
#
# 1 63.9283 44.2158 57.2322 0.0000 4.9861 0.0000
# 2 44.2158 96.1461 47.0890 0.0000 5.3504 0.0000
# 3 57.2322 47.0890 79.8002 0.0000 24.2894 0.0000
# 4 0.0000 0.0000 0.0000 9.9450 0.0000 4.4069
# 5 4.9861 5.3504 24.2894 0.0000 39.7122 0.0000
# 6 0.0000 0.0000 0.0000 4.4069 0.0000 7.5159
#
#
#
# Elastic Compliance Matrix: (Units=1/GPa)
#
#
# Indices 1 2 3 4 5 6 
#
# 1 0.057616 -0.006113 -0.043944 0.000000 0.020468 0.000000
# 2 -0.006113 0.015832 -0.005581 0.000000 0.002048 0.000000
# 3 -0.043944 -0.005581 0.055826 0.000000 -0.027876 0.000000
# 4 0.000000 0.000000 0.000000 0.135852 0.000000 -0.079656
# 5 0.020468 0.002048 -0.027876 0.000000 0.039385 0.000000
# 6 0.000000 0.000000 0.000000 -0.079656 0.000000 0.179757
#
#
# Mechanical properties :
#
#
# Convention : Reuss Voigt Hill
#
# Bulk Modulus (GPa) = 55.56698 59.66097 57.61397
# Shear Modulus (GPa) = 8.31195 17.52378 12.91787
#
# Velocity S-wave (km/s) = 2.16402 3.14213 2.69777
# Velocity P-wave (km/s) = 6.12786 6.83939 6.49338
#
# Compressibility (1/GPa) = 0.01799630
#
# Stress axis : x y z
#
# Youngs Moduli (GPa) = 17.35638 63.16482 17.91272
#
# Poissons Ratio (x) = 0.38613 0.78716
# Poissons Ratio (y) = 0.10610 0.09998
# Poissons Ratio (z) = 0.76272 0.35254
#
# Static dielectric constant tensor:
#      x y z
#    x 3.335440 0.000000 0.305710 
#    y 0.000000 2.938810 0.000000 
#    z 0.305710 0.000000 3.503370 
# 
# 
# High freq. dielectric constant tensor:
#      x y z
#    x 1.688680 0.000000 0.008490 
#    y 0.000000 1.634550 0.000000 
#    z 0.008490 0.000000 1.693310 
# 
# From -- ./inp_files/91443.got.cif
#   From: 2010.06.25/outbox.cif.g09.slc.cpg/sg10_46_cif.got.tgz:91443.got - 2010.06.27 22:07:45.
