data_PCOD8067948
_publ_section_title
;
Structure prediction by ZEFSAII (Michael W. Deem and Ramdas Pophale) SiO2 
 PCOD8067948
Probable space group: P 2/M
;
_chemical_formula_sum "Si O2"
_cell_formula_units_Z 32
_cell_length_a 13.759662
_cell_length_b 9.537042
_cell_length_c 16.391654
_cell_angle_alpha 90.000000
_cell_angle_beta 95.237162
_cell_angle_gamma 90.000000
_cell_volume 2142.039331
_symmetry_space_group_name_H-M "P 2/M"
_symmetry_group_IT_number 10
_symmetry_cell_setting 'monoclinic'
loop_
_space_group_symop_operation_xyz
x,y,z
-x,y,-z
-x,-y,-z
x,-y,z
loop_
_atom_site_type_symbol
_atom_site_label
_atom_site_fract_x
_atom_site_fract_y
_atom_site_fract_z
Si Si1 0.969414 0.159041 0.591172
Si Si2 0.524950 0.335862 0.744573
Si Si3 0.579582 0.157909 0.891853
Si Si4 0.690725 0.662652 0.215618
Si Si5 0.792715 0.662527 0.535983
Si Si6 0.853666 0.661821 0.356788
Si Si7 0.421732 0.666452 0.430354
Si Si8 0.357827 0.157542 0.931576
O O1 0.868323 0.243077 0.592912
O O2 0.000000 0.158889 0.500000
O O3 0.052037 0.240390 0.648767
O O4 0.957886 0.000000 0.623107
O O5 0.545094 0.500000 0.754331
O O6 0.594471 0.260213 0.816170
O O7 0.411725 0.298828 0.749928
O O8 0.553815 0.277755 0.657996
O O9 0.468602 0.164259 0.911462
O O10 0.607308 0.000000 0.867833
O O11 0.647105 0.205869 0.973743
O O12 0.695597 0.500000 0.195163
O O13 0.775659 0.708253 0.283442
O O14 0.706432 0.742732 0.131164
O O15 0.809671 0.500000 0.560619
O O16 0.804414 0.685369 0.440604
O O17 0.685663 0.715779 0.552091
O O18 0.885406 0.500000 0.349140
O O19 0.500000 0.730200 0.500000
O O20 0.429225 0.500000 0.432519
O O21 0.317209 0.000000 0.920214
#
# Coordination Sequence:
#
# PCOD8067948 Si02
#       8
#     4   4   4   4   4   4   4   4
#     4   9  17  28  41  57  76  98 127 165 204 236
#     4   9  16  25  38  57  79 104 135 167 195 223
#     4   8  14  25  38  51  71 101 134 164 193 227
#     4   9  16  24  36  57  83 105 127 160 197 230
#     4   9  16  27  43  58  75 104 137 165 193 227
#     4   9  16  26  40  58  79 103 131 160 194 237
#     4   9  16  26  41  60  81 106 137 168 194 223
#     4   8  14  24  37  52  72 101 133 160 190 232
#
# _framework density 14.939036
#
# number of rings (size 3 to 8) (size 9 to 14) (size 15 to 20)
#    0.000    3.250    0.000    1.875    0.000    5.500 
#    0.000    3.125    0.000    3.000    0.000    0.000 
#    0.000    1.000    0.000   11.250    0.000    6.125 
#
# Total GULP energy -396657.565969 kJ/mol
# GULP energy per Si atom -12395.548937 kJ/mol
# Density = 1.490503 g / cm^3
# Si number density = 14.939036 Si / 1000 Ang^3
#
#
#
# Elastic Constant Matrix: (Units=GPa)
#
#
# Indices 1 2 3 4 5 6 
#
# 1 87.4235 46.2899 49.5642 0.0000 15.1648 0.0000
# 2 46.2899 66.8994 51.4245 0.0000 14.6422 0.0000
# 3 49.5642 51.4245 112.3108 0.0000 19.1238 0.0000
# 4 0.0000 0.0000 0.0000 18.5533 0.0000 3.6963
# 5 15.1648 14.6422 19.1238 0.0000 18.6603 0.0000
# 6 0.0000 0.0000 0.0000 3.6963 0.0000 12.1976
#
#
#
# Elastic Compliance Matrix: (Units=1/GPa)
#
#
# Indices 1 2 3 4 5 6 
#
# 1 0.019283 -0.009864 -0.003202 0.000000 -0.004650 0.000000
# 2 -0.009864 0.029374 -0.007919 0.000000 -0.006917 0.000000
# 3 -0.003202 -0.007919 0.015072 0.000000 -0.006630 0.000000
# 4 0.000000 0.000000 0.000000 0.057362 0.000000 -0.017382
# 5 -0.004650 -0.006917 -0.006630 0.000000 0.069591 0.000000
# 6 0.000000 0.000000 0.000000 -0.017382 0.000000 0.087251
#
#
# Mechanical properties :
#
#
# Convention : Reuss Voigt Hill
#
# Bulk Modulus (GPa) = 45.95563 62.35455 54.15509
# Shear Modulus (GPa) = 15.28329 17.83925 16.56127
#
# Velocity S-wave (km/s) = 3.20198 3.45938 3.33316
# Velocity P-wave (km/s) = 6.67076 7.60173 7.15141
#
# Compressibility (1/GPa) = 0.02176012
#
# Stress axis : x y z
#
# Youngs Moduli (GPa) = 51.85880 34.04383 66.34984
#
# Poissons Ratio (x) = 0.33580 0.21243
# Poissons Ratio (y) = 0.51152 0.52541
# Poissons Ratio (z) = 0.16604 0.26958
#
# Static dielectric constant tensor:
#      x y z
#    x 2.695140 0.000000 0.190900 
#    y 0.000000 2.880560 0.000000 
#    z 0.190900 0.000000 3.014400 
# 
# 
# High freq. dielectric constant tensor:
#      x y z
#    x 1.538210 0.000000 0.020900 
#    y 0.000000 1.562510 0.000000 
#    z 0.020900 0.000000 1.559790 
# 
# From -- ./inp_files/66131.got.cif
#   From: 2010.06.25/outbox.cif.g09.slc.cpg/sg10_34_cif.got.tgz:66131.got - 2010.06.27 22:07:45.
