data_PCOD8067673
_publ_section_title
;
Structure prediction by ZEFSAII (Michael W. Deem and Ramdas Pophale) SiO2 
 PCOD8067673
Probable space group: P 2/M
;
_chemical_formula_sum "Si O2"
_cell_formula_units_Z 32
_cell_length_a 22.284294
_cell_length_b 14.084735
_cell_length_c 15.783768
_cell_angle_alpha 90.000000
_cell_angle_beta 19.470801
_cell_angle_gamma 90.000000
_cell_volume 1651.307666
_symmetry_space_group_name_H-M "P 2/M"
_symmetry_group_IT_number 10
_symmetry_cell_setting 'monoclinic'
loop_
_space_group_symop_operation_xyz
x,y,z
-x,y,-z
-x,-y,-z
x,-y,z
loop_
_atom_site_type_symbol
_atom_site_label
_atom_site_fract_x
_atom_site_fract_y
_atom_site_fract_z
Si Si1 0.124479 0.217054 0.077020
Si Si2 0.450328 0.390735 0.274211
Si Si3 0.675003 0.893592 0.324977
Si Si4 0.328062 0.390798 0.171911
Si Si5 0.550926 0.111665 0.066347
Si Si6 0.899314 0.609281 0.376190
Si Si7 0.785531 0.888346 0.597202
Si Si8 0.472571 0.217060 0.728901
O O1 0.061522 0.322496 0.132578
O O2 0.972896 0.162904 0.331850
O O3 0.165217 0.159964 0.936751
O O4 0.299503 0.226985 0.901005
O O5 0.480192 0.500000 0.262455
O O6 0.264188 0.381856 0.471632
O O7 0.449647 0.322480 0.356300
O O8 0.618944 0.351107 0.991545
O O9 0.500000 0.897184 0.500000
O O10 0.630856 0.840069 0.471099
O O11 0.740357 0.000000 0.259636
O O12 0.286359 0.500000 0.213641
O O13 0.160120 0.351119 0.450335
O O14 0.500000 0.376127 0.000000
O O15 0.699420 0.147824 0.800592
O O16 0.573139 0.000000 0.050507
O O17 0.352502 0.135947 0.294967
O O18 0.582265 0.162860 0.113045
O O19 0.965400 0.500000 0.291999
O O20 0.820446 0.000000 0.555959
#
# Coordination Sequence:
#
# PCOD8067673 Si02
#       8
#     4   4   4   4   4   4   4   4
#     4  11  22  35  56  83 110 142 185 233 281 327
#     4   9  18  34  55  79 110 149 189 225 267 325
#     4   9  20  40  60  77 104 146 189 227 274 333
#     4   7  12  26  49  73  98 137 182 213 247 306
#     4   9  19  36  56  79 110 146 180 218 272 338
#     4   9  18  34  55  79 110 149 189 225 267 325
#     4   9  19  36  56  79 110 146 180 218 272 338
#     4  11  22  35  56  83 110 142 185 233 281 327
#
# _framework density 19.378581000000001
#
# number of rings (size 3 to 8) (size 9 to 14) (size 15 to 20)
#    0.000    2.750    0.000    3.750    1.750    2.500 
#    0.000    4.375    0.000   10.500    0.000    0.000 
#    0.000    0.000    0.000    0.000    0.000    0.000 
#
# Total GULP energy -396552.682292 kJ/mol
# GULP energy per Si atom -12392.271322 kJ/mol
# Density = 1.933447 g / cm^3
# Si number density = 19.378581 Si / 1000 Ang^3
#
#
#
# Elastic Constant Matrix: (Units=GPa)
#
#
# Indices 1 2 3 4 5 6 
#
# 1 70.2923 54.8106 40.5333 0.0000 13.7292 0.0000
# 2 54.8106 120.7321 66.6586 0.0000 17.8505 0.0000
# 3 40.5333 66.6586 89.9848 0.0000 16.0197 0.0000
# 4 0.0000 0.0000 0.0000 34.7338 0.0000 2.3584
# 5 13.7292 17.8505 16.0197 0.0000 22.8672 0.0000
# 6 0.0000 0.0000 0.0000 2.3584 0.0000 33.1685
#
#
#
# Elastic Compliance Matrix: (Units=1/GPa)
#
#
# Indices 1 2 3 4 5 6 
#
# 1 0.023575 -0.007740 -0.003932 0.000000 -0.005358 0.000000
# 2 -0.007740 0.016916 -0.008593 0.000000 -0.002538 0.000000
# 3 -0.003932 -0.008593 0.020148 0.000000 -0.005046 0.000000
# 4 0.000000 0.000000 0.000000 0.028930 0.000000 -0.002057
# 5 -0.005358 -0.002538 -0.005046 0.000000 0.052464 0.000000
# 6 0.000000 0.000000 0.000000 -0.002057 0.000000 0.030295
#
#
# Mechanical properties :
#
#
# Convention : Reuss Voigt Hill
#
# Bulk Modulus (GPa) = 49.72662 67.22383 58.47522
# Shear Modulus (GPa) = 22.77268 26.08769 24.43018
#
# Velocity S-wave (km/s) = 3.43176 3.67306 3.55446
# Velocity P-wave (km/s) = 6.43576 7.26316 6.86194
#
# Compressibility (1/GPa) = 0.02010995
#
# Stress axis : x y z
#
# Youngs Moduli (GPa) = 42.41748 59.11556 49.63280
#
# Poissons Ratio (x) = 0.45753 0.19517
# Poissons Ratio (y) = 0.32829 0.42649
# Poissons Ratio (z) = 0.16680 0.50797
#
# Static dielectric constant tensor:
#      x y z
#    x 3.319630 0.000000 0.265890 
#    y 0.000000 3.714510 0.000000 
#    z 0.265890 0.000000 3.496070 
# 
# 
# High freq. dielectric constant tensor:
#      x y z
#    x 1.726180 0.000000 0.014190 
#    y 0.000000 1.771130 0.000000 
#    z 0.014190 0.000000 1.735560 
# 
# From -- ./inp_files/70763.got.cif
#   From: 2010.06.25/outbox.cif.g09.slc.cpg/sg10_36_cif.got.tgz:70763.got - 2010.06.27 22:07:45.
