data_PCOD8067944
_publ_section_title
;
Structure prediction by ZEFSAII (Michael W. Deem and Ramdas Pophale) SiO2 
 PCOD8067944
Probable space group: P 2/M
;
_chemical_formula_sum "Si O2"
_cell_formula_units_Z 32
_cell_length_a 23.254576
_cell_length_b 9.612303
_cell_length_c 14.098695
_cell_angle_alpha 90.000000
_cell_angle_beta 44.437965
_cell_angle_gamma 90.000000
_cell_volume 2206.467721
_symmetry_space_group_name_H-M "P 2/M"
_symmetry_group_IT_number 10
_symmetry_cell_setting 'monoclinic'
loop_
_space_group_symop_operation_xyz
x,y,z
-x,y,-z
-x,-y,-z
x,-y,z
loop_
_atom_site_type_symbol
_atom_site_label
_atom_site_fract_x
_atom_site_fract_y
_atom_site_fract_z
Si Si1 0.833974 0.340948 0.272489
Si Si2 0.057176 0.665403 0.516396
Si Si3 0.619719 0.843090 0.926516
Si Si4 0.010361 0.660775 0.779068
Si Si5 0.687459 0.659823 0.578405
Si Si6 0.920722 0.158032 0.027429
Si Si7 0.241669 0.662283 0.300154
Si Si8 0.450857 0.156371 0.200592
O O1 0.835636 0.500000 0.233598
O O2 0.902904 0.321146 0.271194
O O3 0.746440 0.302947 0.421294
O O4 0.847543 0.237312 0.168409
O O5 0.059212 0.500000 0.513912
O O6 0.020997 0.715436 0.659416
O O7 0.149792 0.719638 0.391667
O O8 0.000000 0.725115 0.500000
O O9 0.697882 0.741832 0.843872
O O10 0.585215 0.835420 0.861672
O O11 0.647488 0.000000 0.917828
O O12 0.546584 0.795953 0.084311
O O13 0.981551 0.500000 0.817394
O O14 0.940722 0.757382 0.908167
O O15 0.661646 0.500000 0.607230
O O16 0.735433 0.695335 0.618418
O O17 0.603037 0.746093 0.667406
O O18 0.893847 0.000000 0.034938
O O19 0.000000 0.158606 0.000000
O O20 0.249157 0.500000 0.268301
O O21 0.445037 0.000000 0.246945
#
# Coordination Sequence:
#
# PCOD8067944 Si02
#       8
#     4   4   4   4   4   4   4   4
#     4   9  15  24  37  53  73  98 125 152 183 223
#     4   9  16  26  41  59  76  96 127 165 198 226
#     4   8  14  24  35  47  66  93 123 152 182 219
#     4   9  15  26  41  53  69  96 126 155 189 226
#     4   9  15  22  34  52  74  96 122 154 184 215
#     4   9  17  26  36  53  73  92 120 156 189 222
#     4   9  15  24  37  53  70  92 124 159 190 219
#     4   8  14  23  33  47  68  94 123 150 179 217
#
# _framework density 14.502818
#
# number of rings (size 3 to 8) (size 9 to 14) (size 15 to 20)
#    0.000    3.250    1.250    1.125    0.000    2.500 
#    0.000    3.125    0.000    1.500    0.000    0.000 
#    0.000    0.000    0.000    1.125    0.000   23.500 
#
# Total GULP energy -396616.085167 kJ/mol
# GULP energy per Si atom -12394.252661 kJ/mol
# Density = 1.446981 g / cm^3
# Si number density = 14.502818 Si / 1000 Ang^3
#
#
#
# Elastic Constant Matrix: (Units=GPa)
#
#
# Indices 1 2 3 4 5 6 
#
# 1 36.5919 25.0697 41.3798 0.0000 -5.0447 0.0000
# 2 25.0697 76.6609 71.5164 0.0000 -9.5774 0.0000
# 3 41.3798 71.5164 136.8694 0.0000 -16.5967 0.0000
# 4 0.0000 0.0000 0.0000 19.9672 0.0000 -3.7483
# 5 -5.0447 -9.5774 -16.5967 0.0000 15.1604 0.0000
# 6 0.0000 0.0000 0.0000 -3.7483 0.0000 7.4270
#
#
#
# Elastic Compliance Matrix: (Units=1/GPa)
#
#
# Indices 1 2 3 4 5 6 
#
# 1 0.042054 -0.003694 -0.010804 0.000000 -0.000168 0.000000
# 2 -0.003694 0.025815 -0.012157 0.000000 0.001770 0.000000
# 3 -0.010804 -0.012157 0.017939 0.000000 0.008363 0.000000
# 4 0.000000 0.000000 0.000000 0.055323 0.000000 0.027921
# 5 -0.000168 0.001770 0.008363 0.000000 0.076179 0.000000
# 6 0.000000 0.000000 0.000000 0.027921 0.000000 0.148735
#
#
# Mechanical properties :
#
#
# Convention : Reuss Voigt Hill
#
# Bulk Modulus (GPa) = 30.77224 58.45045 44.61134
# Shear Modulus (GPa) = 11.62275 15.98802 13.80539
#
# Velocity S-wave (km/s) = 2.83400 3.32385 3.08865
# Velocity P-wave (km/s) = 5.65446 7.42435 6.59901
#
# Compressibility (1/GPa) = 0.03249682
#
# Stress axis : x y z
#
# Youngs Moduli (GPa) = 23.77871 38.73699 55.74392
#
# Poissons Ratio (x) = 0.14311 0.60227
# Poissons Ratio (y) = 0.08785 0.67769
# Poissons Ratio (z) = 0.25691 0.47093
#
# Static dielectric constant tensor:
#      x y z
#    x 2.420100 0.000000 -0.181310 
#    y 0.000000 2.844790 0.000000 
#    z -0.181310 0.000000 3.058830 
# 
# 
# High freq. dielectric constant tensor:
#      x y z
#    x 1.484370 0.000000 -0.016410 
#    y 0.000000 1.546980 0.000000 
#    z -0.016410 0.000000 1.562340 
# 
# From -- ./inp_files/66099.got.cif
#   From: 2010.06.25/outbox.cif.g09.slc.cpg/sg10_34_cif.got.tgz:66099.got - 2010.06.27 22:07:45.
