data_PCOD8067859
_publ_section_title
;
Structure prediction by ZEFSAII (Michael W. Deem and Ramdas Pophale) SiO2 
 PCOD8067859
Probable space group: P 2/M
;
_chemical_formula_sum "Si O2"
_cell_formula_units_Z 32
_cell_length_a 26.279436
_cell_length_b 8.986911
_cell_length_c 14.716812
_cell_angle_alpha 90.000000
_cell_angle_beta 32.123095
_cell_angle_gamma 90.000000
_cell_volume 1848.159939
_symmetry_space_group_name_H-M "P 2/M"
_symmetry_group_IT_number 10
_symmetry_cell_setting 'monoclinic'
loop_
_space_group_symop_operation_xyz
x,y,z
-x,y,-z
-x,-y,-z
x,-y,z
loop_
_atom_site_type_symbol
_atom_site_label
_atom_site_fract_x
_atom_site_fract_y
_atom_site_fract_z
Si Si1 0.730861 0.177603 0.681684
Si Si2 0.661898 0.172289 0.399897
Si Si3 0.902233 0.823733 0.541137
Si Si4 0.648880 0.177062 0.620485
Si Si5 0.720545 0.324917 0.137833
Si Si6 0.562176 0.829650 0.267314
Si Si7 0.562863 0.825083 0.060483
Si Si8 0.116310 0.176246 0.226357
O O1 0.829551 0.240867 0.574942
O O2 0.720274 0.229970 0.592756
O O3 0.730242 0.000000 0.688548
O O4 0.641801 0.244213 0.873743
O O5 0.686264 0.230277 0.465225
O O6 0.724915 0.267632 0.234914
O O7 0.549980 0.196693 0.549007
O O8 0.689465 0.000000 0.346948
O O9 0.869037 0.771600 0.691517
O O10 0.010079 0.772475 0.355588
O O11 0.899935 0.000000 0.544714
O O12 0.542419 0.242027 0.801110
O O13 0.640155 0.000000 0.629926
O O14 0.729209 0.500000 0.123910
O O15 0.619773 0.276575 0.247208
O O16 0.808497 0.257973 0.950053
O O17 0.593074 0.790176 0.118038
O O18 0.589122 0.000000 0.249516
O O19 0.558337 0.000000 0.051445
O O20 0.130378 0.000000 0.195250
#
# Coordination Sequence:
#
# PCOD8067859 Si02
#       8
#     4   4   4   4   4   4   4   4
#     4   9  13  19  37  67  98 119 141 180 224 260
#     4   9  18  32  47  64  89 123 157 185 219 264
#     4   8  15  27  47  72  93 117 147 180 221 269
#     4   8  14  23  37  62  95 124 148 178 217 259
#     4  12  23  31  44  67  90 116 153 192 230 266
#     4   9  17  30  47  66  91 123 154 181 216 268
#     4   8  13  21  37  64  96 125 146 168 210 268
#     4   9  17  32  50  68  93 121 148 178 220 275
#
# _framework density 17.314519000000001
#
# number of rings (size 3 to 8) (size 9 to 14) (size 15 to 20)
#    0.000    3.000    0.000    4.875    0.000    5.500 
#    0.000    1.250    0.000    0.750    0.000    9.625 
#    0.000   10.000    0.000    0.000    0.000    0.000 
#
# Total GULP energy -396599.784516 kJ/mol
# GULP energy per Si atom -12393.743266 kJ/mol
# Density = 1.727511 g / cm^3
# Si number density = 17.314519 Si / 1000 Ang^3
#
#
#
# Elastic Constant Matrix: (Units=GPa)
#
#
# Indices 1 2 3 4 5 6 
#
# 1 138.6228 29.5622 65.4985 0.0000 4.3561 0.0000
# 2 29.5622 44.8672 34.7976 0.0000 6.0839 0.0000
# 3 65.4985 34.7976 95.7349 0.0000 14.9232 0.0000
# 4 0.0000 0.0000 0.0000 2.9439 0.0000 -1.4133
# 5 4.3561 6.0839 14.9232 0.0000 23.3763 0.0000
# 6 0.0000 0.0000 0.0000 -1.4133 0.0000 -0.1281
#
#
#
# Elastic Compliance Matrix: (Units=1/GPa)
#
#
# Indices 1 2 3 4 5 6 
#
# 1 0.010978 -0.002025 -0.007261 0.000000 0.003116 0.000000
# 2 -0.002025 0.031431 -0.009798 0.000000 -0.001548 0.000000
# 3 -0.007261 -0.009798 0.020396 0.000000 -0.009117 0.000000
# 4 0.000000 0.000000 0.000000 0.053948 0.000000 -0.595174
# 5 0.003116 -0.001548 -0.009117 0.000000 0.048421 0.000000
# 6 0.000000 0.000000 0.000000 -0.595174 0.000000 -1.239710
#
#
# Mechanical properties :
#
#
# Convention : Reuss Voigt Hill
#
# Bulk Modulus (GPa) = 40.58779 59.88240 50.23510
# Shear Modulus (GPa) = -4.86307 15.19620 5.16657
#
# Velocity S-wave (km/s) = -1.67773 2.96574 1.72929
# Velocity P-wave (km/s) = 4.44290 6.81085 5.75009
#
# Compressibility (1/GPa) = 0.02463795
#
# Stress axis : x y z
#
# Youngs Moduli (GPa) = 91.08797 31.81582 49.03001
#
# Poissons Ratio (x) = 0.06442 0.35600
# Poissons Ratio (y) = 0.18443 0.48039
# Poissons Ratio (z) = 0.66138 0.31173
#
# Static dielectric constant tensor:
#      x y z
#    x 3.570120 0.000000 0.024700 
#    y 0.000000 2.647240 0.000000 
#    z 0.024700 0.000000 3.350130 
# 
# 
# High freq. dielectric constant tensor:
#      x y z
#    x 1.670630 0.000000 0.010700 
#    y 0.000000 1.604930 0.000000 
#    z 0.010700 0.000000 1.660680 
# 
# From -- ./inp_files/72181.got.cif
#   From: 2010.06.25/outbox.cif.g09.slc.cpg/sg10_37_cif.got.tgz:72181.got - 2010.06.27 22:07:45.
