data_PCOD8067972
_publ_section_title
;
Structure prediction by ZEFSAII (Michael W. Deem and Ramdas Pophale) SiO2 
 PCOD8067972
Probable space group: P 2/M
;
_chemical_formula_sum "Si O2"
_cell_formula_units_Z 24
_cell_length_a 9.850628
_cell_length_b 9.425085
_cell_length_c 21.267568
_cell_angle_alpha 90.000000
_cell_angle_beta 134.008416
_cell_angle_gamma 90.000000
_cell_volume 1420.167278
_symmetry_space_group_name_H-M "P 2/M"
_symmetry_group_IT_number 10
_symmetry_cell_setting 'monoclinic'
loop_
_space_group_symop_operation_xyz
x,y,z
-x,y,-z
-x,-y,-z
x,-y,z
loop_
_atom_site_type_symbol
_atom_site_label
_atom_site_fract_x
_atom_site_fract_y
_atom_site_fract_z
Si Si1 0.702544 0.168546 0.903180
Si Si2 0.030235 0.834292 0.249281
Si Si3 0.993005 0.168546 0.096820
Si Si4 0.713314 0.664681 0.579654
Si Si5 0.974352 0.335319 0.420346
Si Si6 0.717610 0.165708 0.249281
O O1 0.819316 0.219366 0.879544
O O2 0.490471 0.228154 0.831239
O O3 0.696808 0.000000 0.903716
O O4 0.807331 0.224952 1.000000
O O5 0.996754 0.771846 0.168761
O O6 0.206174 0.753076 0.336158
O O7 0.840199 0.804179 0.226800
O O8 0.081085 0.000000 0.264667
O O9 0.985658 0.000000 0.096283
O O10 0.500000 0.715329 0.500000
O O11 0.721895 0.500000 0.600860
O O12 0.832445 0.696059 0.554963
O O13 0.919316 0.500000 0.399139
O O14 0.802300 0.246923 0.336158
O O15 0.000000 0.284673 0.500000
O O16 0.712914 0.000000 0.264666
#
# Coordination Sequence:
#
# PCOD8067972 Si02
#       6
#     4   4   4   4   4   4
#     4   8  14  25  41  62  88 115 141 170 206 248
#     4   9  17  28  43  65  89 110 137 175 213 246
#     4   8  14  25  41  62  88 115 141 170 206 248
#     4   9  18  32  47  62  83 112 143 173 208 252
#     4   9  18  32  47  62  83 112 143 173 208 252
#     4   9  17  28  43  65  89 110 137 175 213 246
#
# _framework density 16.899417
#
# number of rings (size 3 to 8) (size 9 to 14) (size 15 to 20)
#    0.000    3.333    0.000    1.000    0.000    2.667 
#    0.000    3.333    0.000    1.000    0.000    7.000 
#    0.000    0.000    0.000    0.000    0.000    0.000 
#
# Total GULP energy -297533.511102 kJ/mol
# GULP energy per Si atom -12397.229629 kJ/mol
# Density = 1.686095 g / cm^3
# Si number density = 16.899417 Si / 1000 Ang^3
#
#
#
# Elastic Constant Matrix: (Units=GPa)
#
#
# Indices 1 2 3 4 5 6 
#
# 1 98.7215 30.1533 106.1306 0.0000 0.0045 0.0000
# 2 30.1533 27.9041 46.1482 0.0000 0.0008 0.0000
# 3 106.1306 46.1482 183.2312 0.0000 -0.0003 0.0000
# 4 0.0000 0.0000 0.0000 0.1103 0.0000 -0.0006
# 5 0.0045 0.0008 -0.0003 0.0000 42.2248 0.0000
# 6 0.0000 0.0000 0.0000 -0.0006 0.0000 14.5557
#
#
#
# Elastic Compliance Matrix: (Units=1/GPa)
#
#
# Indices 1 2 3 4 5 6 
#
# 1 0.027376 -0.005756 -0.014407 0.000000 -0.000003 0.000000
# 2 -0.005756 0.062630 -0.012440 0.000000 -0.000001 0.000000
# 3 -0.014407 -0.012440 0.016935 0.000000 0.000002 0.000000
# 4 0.000000 0.000000 0.000000 9.066620 0.000000 0.000405
# 5 -0.000003 -0.000001 0.000002 0.000000 0.023683 0.000000
# 6 0.000000 0.000000 0.000000 0.000405 0.000000 0.068702
#
#
# Mechanical properties :
#
#
# Convention : Reuss Voigt Hill
#
# Bulk Modulus (GPa) = 23.96030 74.96897 49.46464
# Shear Modulus (GPa) = 0.53504 19.87315 10.20410
#
# Velocity S-wave (km/s) = 0.56329 3.43296 2.45993
# Velocity P-wave (km/s) = 3.82518 7.75705 6.11571
#
# Compressibility (1/GPa) = 0.04173571
#
# Stress axis : x y z
#
# Youngs Moduli (GPa) = 36.52901 15.96671 59.04863
#
# Poissons Ratio (x) = 0.09191 0.85069
# Poissons Ratio (y) = 0.21027 0.73455
# Poissons Ratio (z) = 0.52626 0.19862
#
# Static dielectric constant tensor:
#      x y z
#    x 3.290700 0.000000 0.000010 
#    y 0.000000 2.806500 0.000000 
#    z 0.000010 0.000000 3.421550 
# 
# 
# High freq. dielectric constant tensor:
#      x y z
#    x 1.653470 0.000000 0.000000 
#    y 0.000000 1.610530 0.000000 
#    z 0.000000 0.000000 1.658520 
# 
# From -- ./inp_files/27763.got.cif
#   From: 2010.06.25/outbox.cif.g09.slc.cpg/sg10_14_cif.got.tgz:27763.got - 2010.06.27 22:07:45.
