data_PCOD8067823
_publ_section_title
;
Structure prediction by ZEFSAII (Michael W. Deem and Ramdas Pophale) SiO2 
 PCOD8067823
Probable space group: P 2/M
;
_chemical_formula_sum "Si O2"
_cell_formula_units_Z 20
_cell_length_a 21.597767
_cell_length_b 8.893982
_cell_length_c 13.408123
_cell_angle_alpha 90.000000
_cell_angle_beta 21.339785
_cell_angle_gamma 90.000000
_cell_volume 937.244411
_symmetry_space_group_name_H-M "P 2/M"
_symmetry_group_IT_number 10
_symmetry_cell_setting 'monoclinic'
loop_
_space_group_symop_operation_xyz
x,y,z
-x,y,-z
-x,-y,-z
x,-y,z
loop_
_atom_site_type_symbol
_atom_site_label
_atom_site_fract_x
_atom_site_fract_y
_atom_site_fract_z
Si Si1 0.753876 0.828991 0.562574
Si Si2 0.172456 0.676604 0.186368
Si Si3 0.940421 0.675447 0.981595
Si Si4 0.411105 0.829120 0.976817
Si Si5 0.695409 0.177582 0.208751
O O1 0.684934 0.805912 0.776011
O O2 0.906156 0.711717 0.323781
O O3 0.818281 0.000000 0.451168
O O4 0.609225 0.791995 0.697441
O O5 0.165488 0.500000 0.178688
O O6 0.336069 0.717173 0.007590
O O7 0.000000 0.733624 0.500000
O O8 0.193419 0.754925 0.048168
O O9 0.899450 0.500000 0.043513
O O10 0.772604 0.763402 0.197314
O O11 0.000000 0.734740 0.000000
O O12 0.389354 0.000000 0.970838
O O13 0.500000 0.231535 0.500000
O O14 0.709241 0.000000 0.182522
#
# Coordination Sequence:
#
# PCOD8067823 Si02
#       5
#     4   4   4   4   4
#     4   9  19  37  61  89 123 161 206 258 308 362
#     4  11  24  40  62  93 129 168 209 257 320 385
#     4  11  25  42  62  91 127 166 207 254 314 377
#     4   9  19  36  60  91 123 159 205 258 310 365
#     4  11  26  46  68  95 126 168 219 268 318 375
#
# _framework density 21.33915
#
# number of rings (size 3 to 8) (size 9 to 14) (size 15 to 20)
#    0.000    1.800    0.000    4.200    2.800    9.600 
#    0.000    2.000    0.000    0.000    0.000    0.000 
#    0.000    0.000    0.000    0.000    0.000    0.000 
#
# Total GULP energy -248067.723567 kJ/mol
# GULP energy per Si atom -12403.386178 kJ/mol
# Density = 2.129058 g / cm^3
# Si number density = 21.339150 Si / 1000 Ang^3
#
#
#
# Elastic Constant Matrix: (Units=GPa)
#
#
# Indices 1 2 3 4 5 6 
#
# 1 127.3920 41.8953 38.7678 0.0000 -19.1815 0.0000
# 2 41.8953 69.0013 36.2128 0.0000 -3.5322 0.0000
# 3 38.7678 36.2128 97.8771 0.0000 -12.1219 0.0000
# 4 0.0000 0.0000 0.0000 13.8186 0.0000 -4.4758
# 5 -19.1815 -3.5322 -12.1219 0.0000 30.1489 0.0000
# 6 0.0000 0.0000 0.0000 -4.4758 0.0000 35.6050
#
#
#
# Elastic Compliance Matrix: (Units=1/GPa)
#
#
# Indices 1 2 3 4 5 6 
#
# 1 0.011028 -0.005562 -0.001601 0.000000 0.005721 0.000000
# 2 -0.005562 0.020800 -0.005924 0.000000 -0.003484 0.000000
# 3 -0.001601 -0.005924 0.013503 0.000000 0.003716 0.000000
# 4 0.000000 0.000000 0.000000 0.075438 0.000000 0.009483
# 5 0.005721 -0.003484 0.003716 0.000000 0.037894 0.000000
# 6 0.000000 0.000000 0.000000 0.009483 0.000000 0.029278
#
#
# Mechanical properties :
#
#
# Convention : Reuss Voigt Hill
#
# Bulk Modulus (GPa) = 52.20402 58.66913 55.43658
# Shear Modulus (GPa) = 22.67541 27.74079 25.20810
#
# Velocity S-wave (km/s) = 3.26332 3.60946 3.44074
# Velocity P-wave (km/s) = 6.22223 6.70255 6.46685
#
# Compressibility (1/GPa) = 0.01915561
#
# Stress axis : x y z
#
# Youngs Moduli (GPa) = 90.67984 48.07582 74.05601
#
# Poissons Ratio (x) = 0.26742 0.11860
# Poissons Ratio (y) = 0.50440 0.43871
# Poissons Ratio (z) = 0.14522 0.28481
#
# Static dielectric constant tensor:
#      x y z
#    x 4.065500 0.000000 -0.190080 
#    y 0.000000 3.673890 0.000000 
#    z -0.190080 0.000000 3.917970 
# 
# 
# High freq. dielectric constant tensor:
#      x y z
#    x 1.849720 0.000000 -0.009090 
#    y 0.000000 1.827920 0.000000 
#    z -0.009090 0.000000 1.839070 
# 
# From -- ./inp_files/40806.got.cif
#   From: 2010.06.25/outbox.cif.g09.slc.cpg/sg10_21_cif.got.tgz:40806.got - 2010.06.27 22:07:45.
