data_PCOD8067111
_publ_section_title
;
Structure prediction by ZEFSAII (Michael W. Deem and Ramdas Pophale) SiO2 
 PCOD8067111
Probable space group: P 2/M
;
_chemical_formula_sum "Si O2"
_cell_formula_units_Z 28
_cell_length_a 10.045333
_cell_length_b 11.225623
_cell_length_c 15.327965
_cell_angle_alpha 90.000000
_cell_angle_beta 119.222185
_cell_angle_gamma 90.000000
_cell_volume 1508.484127
_symmetry_space_group_name_H-M "P 2/M"
_symmetry_group_IT_number 10
_symmetry_cell_setting 'monoclinic'
loop_
_space_group_symop_operation_xyz
x,y,z
-x,y,-z
-x,-y,-z
x,-y,z
loop_
_atom_site_type_symbol
_atom_site_label
_atom_site_fract_x
_atom_site_fract_y
_atom_site_fract_z
Si Si1 0.097604 0.750379 0.118535
Si Si2 0.933353 0.863143 0.218322
Si Si3 0.082443 0.857648 0.440700
Si Si4 0.613160 0.245281 0.117724
Si Si5 0.662730 0.500000 0.097767
Si Si6 0.420702 0.141313 0.560186
Si Si7 0.983915 0.500000 0.098267
Si Si8 0.420648 0.858451 0.210668
O O1 0.072248 0.620297 0.155803
O O2 0.270857 0.778757 0.147639
O O3 0.047900 0.846444 0.174367
O O4 0.000000 0.763247 0.000000
O O5 0.768885 0.816014 0.138480
O O6 0.000884 0.803941 0.328371
O O7 0.915952 0.000000 0.233244
O O8 0.251717 0.805539 0.503858
O O9 0.000000 0.809577 0.500000
O O10 0.084429 0.000000 0.437700
O O11 0.661327 0.381333 0.156575
O O12 0.543388 0.177059 0.177317
O O13 0.500000 0.238614 0.000000
O O14 0.807956 0.500000 0.076714
O O15 0.500000 0.500000 0.000000
O O16 0.500000 0.194572 0.500000
O O17 0.510950 0.180821 0.674932
O O18 0.415057 0.000000 0.554776
O O19 0.000000 0.500000 0.000000
O O20 0.386463 0.000000 0.194204
#
# Coordination Sequence:
#
# PCOD8067111 Si02
#       8
#     4   4   4   4   2   4   2   4
#     4  11  23  37  56  80 114 149 190 231 273 326
#     4  11  21  34  54  83 115 150 184 222 285 350
#     4   9  17  30  50  75 104 140 185 230 270 321
#     4  11  23  37  56  80 116 152 189 233 273 329
#     4  10  22  40  62  82 104 144 204 250 272 310
#     4   9  17  32  52  75 108 145 184 231 273 319
#     4  10  22  40  62  82 104 143 204 252 274 305
#     4  11  23  36  54  87 121 151 185 222 282 354
#
# _framework density 18.561679999999999
#
# number of rings (size 3 to 8) (size 9 to 14) (size 15 to 20)
#    0.000    1.714    1.429    3.429    6.000    8.000 
#    0.000    0.000    0.000    0.000    0.000   20.000 
#    0.000    0.000    0.000    0.000    0.000    0.000 
#
# Total GULP energy -347070.793374 kJ/mol
# GULP energy per Si atom -12395.385478 kJ/mol
# Density = 1.851943 g / cm^3
# Si number density = 18.561680 Si / 1000 Ang^3
#
#
#
# Elastic Constant Matrix: (Units=GPa)
#
#
# Indices 1 2 3 4 5 6 
#
# 1 101.7402 22.5551 28.9225 0.0000 4.0886 0.0000
# 2 22.5551 67.4308 25.1976 0.0000 5.5371 0.0000
# 3 28.9225 25.1976 108.4733 0.0000 -4.3957 0.0000
# 4 0.0000 0.0000 0.0000 1.7372 0.0000 -1.3506
# 5 4.0886 5.5371 -4.3957 0.0000 35.1639 0.0000
# 6 0.0000 0.0000 0.0000 -1.3506 0.0000 26.9031
#
#
#
# Elastic Compliance Matrix: (Units=1/GPa)
#
#
# Indices 1 2 3 4 5 6 
#
# 1 0.011163 -0.002747 -0.002385 0.000000 -0.001164 0.000000
# 2 -0.002747 0.017246 -0.003388 0.000000 -0.002820 0.000000
# 3 -0.002385 -0.003388 0.010729 0.000000 0.002152 0.000000
# 4 0.000000 0.000000 0.000000 0.599036 0.000000 0.030074
# 5 -0.001164 -0.002820 0.002152 0.000000 0.029287 0.000000
# 6 0.000000 0.000000 0.000000 0.030074 0.000000 0.038680
#
#
# Mechanical properties :
#
#
# Convention : Reuss Voigt Hill
#
# Bulk Modulus (GPa) = 45.25395 47.88829 46.57112
# Shear Modulus (GPa) = 6.84418 26.15877 16.50148
#
# Velocity S-wave (km/s) = 1.92231 3.75812 2.98486
# Velocity P-wave (km/s) = 5.41851 6.68482 6.08470
#
# Compressibility (1/GPa) = 0.02209752
#
# Stress axis : x y z
#
# Youngs Moduli (GPa) = 89.58313 57.98288 93.20423
#
# Poissons Ratio (x) = 0.15928 0.22233
# Poissons Ratio (y) = 0.24608 0.31578
# Poissons Ratio (z) = 0.21369 0.19645
#
# Static dielectric constant tensor:
#      x y z
#    x 0.257410 0.000000 0.627090 
#    y 0.000000 3.563610 0.000000 
#    z 0.627090 0.000000 3.431890 
# 
# 
# High freq. dielectric constant tensor:
#      x y z
#    x 1.742180 0.000000 0.002180 
#    y 0.000000 1.687350 0.000000 
#    z 0.002180 0.000000 1.716220 
# 
# From -- ./inp_files/28279.got.cif
#   From: 2010.06.25/outbox.cif.g09.slc.cpg/sg10_15_cif.got.tgz:28279.got - 2010.06.27 22:07:45.
