data_PCOD8067668
_publ_section_title
;
Structure prediction by ZEFSAII (Michael W. Deem and Ramdas Pophale) SiO2 
 PCOD8067668
Probable space group: P 2/M
;
_chemical_formula_sum "Si O2"
_cell_formula_units_Z 28
_cell_length_a 15.769751
_cell_length_b 12.759910
_cell_length_c 10.020192
_cell_angle_alpha 90.000000
_cell_angle_beta 51.940369
_cell_angle_gamma 90.000000
_cell_volume 1587.548925
_symmetry_space_group_name_H-M "P 2/M"
_symmetry_group_IT_number 10
_symmetry_cell_setting 'monoclinic'
loop_
_space_group_symop_operation_xyz
x,y,z
-x,y,-z
-x,-y,-z
x,-y,z
loop_
_atom_site_type_symbol
_atom_site_label
_atom_site_fract_x
_atom_site_fract_y
_atom_site_fract_z
Si Si1 0.121555 0.619655 0.224018
Si Si2 0.305659 0.250882 0.924784
Si Si3 0.688789 0.238973 0.573855
Si Si4 0.372947 0.880576 0.108804
Si Si5 0.627103 0.879040 0.382673
Si Si6 0.500160 0.621712 0.655608
Si Si7 0.125973 0.380230 0.529729
O O1 0.141811 0.500000 0.158728
O O2 0.154468 0.632306 0.346228
O O3 0.997375 0.650021 0.323493
O O4 0.189778 0.699188 0.067364
O O5 0.304173 0.189622 0.786876
O O6 0.389295 0.346644 0.834254
O O7 0.340603 0.166078 0.998877
O O8 0.683908 0.187192 0.722987
O O9 0.677207 0.145936 0.478197
O O10 0.594628 0.321942 0.643340
O O11 0.801187 0.301726 0.453644
O O12 0.331872 0.000000 0.156444
O O13 0.500000 0.875385 0.000000
O O14 0.500000 0.850728 0.500000
O O15 0.644684 0.000000 0.332472
O O16 0.500000 0.653844 0.500000
O O17 0.518866 0.500000 0.656254
O O18 0.147767 0.500000 0.552991
#
# Coordination Sequence:
#
# PCOD8067668 Si02
#       7
#     4   4   4   4   4   4   4
#     4   9  19  36  58  83 112 149 187 223 272 336
#     4  12  19  37  56  83 111 144 185 227 279 325
#     4  12  19  37  56  83 111 144 185 227 279 325
#     4  11  22  34  53  82 115 141 180 234 278 328
#     4  11  22  38  59  80 111 153 194 222 268 340
#     4  11  22  35  52  81 117 151 177 217 278 339
#     4   9  19  36  58  83 112 149 187 223 272 336
#
# _framework density 17.637250999999999
#
# number of rings (size 3 to 8) (size 9 to 14) (size 15 to 20)
#    0.000    1.286    5.714    2.571    0.000    2.286 
#    0.000    1.429    0.000    6.857    0.000    0.000 
#    0.000    0.000    0.000    0.000    0.000    0.000 
#
# Total GULP energy -347251.843195 kJ/mol
# GULP energy per Si atom -12401.851543 kJ/mol
# Density = 1.759711 g / cm^3
# Si number density = 17.637251 Si / 1000 Ang^3
#
#
#
# Elastic Constant Matrix: (Units=GPa)
#
#
# Indices 1 2 3 4 5 6 
#
# 1 52.8050 22.8892 27.3033 0.0000 -10.0051 0.0000
# 2 22.8892 99.7093 41.7687 0.0000 -12.7755 0.0000
# 3 27.3033 41.7687 77.7741 0.0000 -13.2441 0.0000
# 4 0.0000 0.0000 0.0000 24.1718 0.0000 -4.2260
# 5 -10.0051 -12.7755 -13.2441 0.0000 26.1654 0.0000
# 6 0.0000 0.0000 0.0000 -4.2260 0.0000 18.9981
#
#
#
# Elastic Compliance Matrix: (Units=1/GPa)
#
#
# Indices 1 2 3 4 5 6 
#
# 1 0.024165 -0.002214 -0.006462 0.000000 0.004888 0.000000
# 2 -0.002214 0.013372 -0.005949 0.000000 0.002671 0.000000
# 3 -0.006462 -0.005949 0.019048 0.000000 0.004266 0.000000
# 4 0.000000 0.000000 0.000000 0.043045 0.000000 0.009575
# 5 0.004888 0.002671 0.004266 0.000000 0.043551 0.000000
# 6 0.000000 0.000000 0.000000 0.009575 0.000000 0.054767
#
#
# Mechanical properties :
#
#
# Convention : Reuss Voigt Hill
#
# Bulk Modulus (GPa) = 36.58441 46.02341 41.30391
# Shear Modulus (GPa) = 21.15885 23.08886 22.12386
#
# Velocity S-wave (km/s) = 3.46738 3.62207 3.54557
# Velocity P-wave (km/s) = 6.06779 6.60633 6.34278
#
# Compressibility (1/GPa) = 0.02733405
#
# Stress axis : x y z
#
# Youngs Moduli (GPa) = 41.38278 74.78427 52.49982
#
# Poissons Ratio (x) = 0.16558 0.33924
# Poissons Ratio (y) = 0.09162 0.31233
# Poissons Ratio (z) = 0.26741 0.44491
#
# Static dielectric constant tensor:
#      x y z
#    x 3.104810 0.000000 0.048460 
#    y 0.000000 3.349510 0.000000 
#    z 0.048460 0.000000 3.209840 
# 
# 
# High freq. dielectric constant tensor:
#      x y z
#    x 1.665290 0.000000 0.006330 
#    y 0.000000 1.695420 0.000000 
#    z 0.006330 0.000000 1.676040 
# 
# From -- ./inp_files/28485.got.cif
#   From: 2010.06.25/outbox.cif.g09.slc.cpg/sg10_15_cif.got.tgz:28485.got - 2010.06.27 22:07:45.
