data_PCOD8067261
_publ_section_title
;
Structure prediction by ZEFSAII (Michael W. Deem and Ramdas Pophale) SiO2 
 PCOD8067261
Probable space group: P 2/M
;
_chemical_formula_sum "Si O2"
_cell_formula_units_Z 28
_cell_length_a 9.387103
_cell_length_b 18.690761
_cell_length_c 14.923646
_cell_angle_alpha 90.000000
_cell_angle_beta 149.362730
_cell_angle_gamma 90.000000
_cell_volume 1334.332162
_symmetry_space_group_name_H-M "P 2/M"
_symmetry_group_IT_number 10
_symmetry_cell_setting 'monoclinic'
loop_
_space_group_symop_operation_xyz
x,y,z
-x,y,-z
-x,-y,-z
x,-y,z
loop_
_atom_site_type_symbol
_atom_site_label
_atom_site_fract_x
_atom_site_fract_y
_atom_site_fract_z
Si Si1 0.126713 0.420968 0.470702
Si Si2 0.983824 0.811674 0.392553
Si Si3 0.686844 0.349577 0.824880
Si Si4 0.361440 0.680945 0.829131
Si Si5 0.539528 0.225447 0.626181
Si Si6 0.808532 0.919706 0.162003
Si Si7 0.847536 0.919306 0.825289
O O1 0.114970 0.500000 0.419648
O O2 0.453499 0.397061 0.646971
O O3 0.000000 0.424994 0.500000
O O4 0.918010 0.366649 0.308073
O O5 0.712389 0.762733 0.234709
O O6 0.007395 0.875132 0.334215
O O7 0.000000 0.845483 0.500000
O O8 0.247504 0.760753 0.518047
O O9 0.574984 0.340982 0.866009
O O10 0.740422 0.278544 0.791316
O O11 0.000000 0.384588 0.000000
O O12 0.500000 0.677741 0.000000
O O13 0.500000 0.245008 0.500000
O O14 0.622512 0.141900 0.682842
O O15 0.908734 0.914235 0.115281
O O16 0.808771 0.000000 0.199166
O O17 0.500000 0.886725 0.000000
O O18 0.712466 0.000000 0.750449
O O19 0.000000 0.903591 0.000000
#
# Coordination Sequence:
#
# PCOD8067261 Si02
#       7
#     4   4   4   4   4   4   4
#     4   9  19  41  67  93 130 170 208 250 302 368
#     4  12  23  40  62  88 123 161 208 262 308 372
#     4  11  24  40  64  97 129 163 209 260 310 364
#     4  11  23  41  65  93 128 170 209 252 307 370
#     4  12  24  39  63  89 121 161 208 261 316 368
#     4  10  23  41  59  84 118 159 208 261 316 375
#     4  10  23  41  59  83 118 160 207 259 317 379
#
# _framework density 20.984279999999998
#
# number of rings (size 3 to 8) (size 9 to 14) (size 15 to 20)
#    0.000    1.286    4.286    1.286    4.000    4.000 
#    0.000    0.000    0.000    3.000    0.000    0.000 
#    0.000    0.000    0.000    0.000    0.000    0.000 
#
# Total GULP energy -346992.047546 kJ/mol
# GULP energy per Si atom -12392.573127 kJ/mol
# Density = 2.093652 g / cm^3
# Si number density = 20.984280 Si / 1000 Ang^3
#
#
#
# Elastic Constant Matrix: (Units=GPa)
#
#
# Indices 1 2 3 4 5 6 
#
# 1 105.4170 21.1683 49.0055 0.0000 -12.9142 0.0000
# 2 21.1683 92.6446 40.7521 0.0000 -6.0247 0.0000
# 3 49.0055 40.7521 120.4079 0.0000 -2.4261 0.0000
# 4 0.0000 0.0000 0.0000 22.7558 0.0000 3.5521
# 5 -12.9142 -6.0247 -2.4261 0.0000 48.2224 0.0000
# 6 0.0000 0.0000 0.0000 3.5521 0.0000 13.3359
#
#
#
# Elastic Compliance Matrix: (Units=1/GPa)
#
#
# Indices 1 2 3 4 5 6 
#
# 1 0.012139 -0.000511 -0.004708 0.000000 0.002950 0.000000
# 2 -0.000511 0.012795 -0.004097 0.000000 0.001256 0.000000
# 3 -0.004708 -0.004097 0.011584 0.000000 -0.001190 0.000000
# 4 0.000000 0.000000 0.000000 0.045851 0.000000 -0.012213
# 5 0.002950 0.001256 -0.001190 0.000000 0.021624 0.000000
# 6 0.000000 0.000000 0.000000 -0.012213 0.000000 0.078238
#
#
# Mechanical properties :
#
#
# Convention : Reuss Voigt Hill
#
# Bulk Modulus (GPa) = 55.91194 60.03573 57.97383
# Shear Modulus (GPa) = 24.17502 30.69907 27.43705
#
# Velocity S-wave (km/s) = 3.39787 3.82901 3.61987
# Velocity P-wave (km/s) = 6.48819 6.94409 6.72001
#
# Compressibility (1/GPa) = 0.01788527
#
# Stress axis : x y z
#
# Youngs Moduli (GPa) = 82.38048 78.15847 86.32598
#
# Poissons Ratio (x) = 0.03992 0.40643
# Poissons Ratio (y) = 0.04208 0.35369
# Poissons Ratio (z) = 0.38786 0.32023
#
# Static dielectric constant tensor:
#      x y z
#    x 3.751610 0.000000 0.074870 
#    y 0.000000 3.982980 0.000000 
#    z 0.074870 0.000000 3.851360 
# 
# 
# High freq. dielectric constant tensor:
#      x y z
#    x 1.819970 0.000000 0.000610 
#    y 0.000000 1.814200 0.000000 
#    z 0.000610 0.000000 1.823450 
# 
# From -- ./inp_files/62627.got.cif
#   From: 2010.06.25/outbox.cif.g09.slc.cpg/sg10_32_cif.got.tgz:62627.got - 2010.06.27 22:07:45.
