data_PCOD8067491
_publ_section_title
;
Structure prediction by ZEFSAII (Michael W. Deem and Ramdas Pophale) SiO2 
 PCOD8067491
Probable space group: P 2/M
;
_chemical_formula_sum "Si O2"
_cell_formula_units_Z 28
_cell_length_a 9.728462
_cell_length_b 13.342957
_cell_length_c 12.158461
_cell_angle_alpha 90.000000
_cell_angle_beta 64.808010
_cell_angle_gamma 90.000000
_cell_volume 1428.134205
_symmetry_space_group_name_H-M "P 2/M"
_symmetry_group_IT_number 10
_symmetry_cell_setting 'monoclinic'
loop_
_space_group_symop_operation_xyz
x,y,z
-x,y,-z
-x,-y,-z
x,-y,z
loop_
_atom_site_type_symbol
_atom_site_label
_atom_site_fract_x
_atom_site_fract_y
_atom_site_fract_z
Si Si1 0.158950 0.684873 0.771878
Si Si2 0.694126 0.727525 0.722181
Si Si3 0.881183 0.288031 0.458570
Si Si4 0.926676 0.889804 0.141513
Si Si5 0.089032 0.112237 0.305376
Si Si6 0.608459 0.613729 0.139639
Si Si7 0.836175 0.616561 0.870076
O O1 0.162216 0.657738 0.640685
O O2 0.194293 0.802378 0.786338
O O3 0.280418 0.616970 0.793279
O O4 0.988183 0.662615 0.872114
O O5 0.724811 0.715602 0.581252
O O6 0.741122 0.842242 0.734411
O O7 0.522096 0.696826 0.805037
O O8 0.807831 0.661360 0.758928
O O9 0.000000 0.345845 0.500000
O O10 0.957522 0.178877 0.408598
O O11 0.062212 0.887905 0.183906
O O12 0.846532 0.000000 0.169971
O O13 0.000000 0.866822 0.000000
O O14 0.082898 0.000000 0.356153
O O15 0.541990 0.500000 0.155795
O O16 0.696135 0.641000 0.998173
O O17 0.861629 0.500000 0.848154
#
# Coordination Sequence:
#
# PCOD8067491 Si02
#       7
#     4   4   4   4   4   4   4
#     4  11  20  37  61  87 113 151 200 247 292 341
#     4  11  21  38  57  83 120 154 193 234 295 350
#     4   9  18  36  59  86 116 145 193 237 283 344
#     4   9  16  29  54  87 118 146 182 233 293 343
#     4   9  18  34  62  93 117 151 198 239 286 348
#     4  11  25  40  57  83 117 158 198 244 302 350
#     4  11  21  38  61  82 109 151 206 249 288 346
#
# _framework density 19.606000999999999
#
# number of rings (size 3 to 8) (size 9 to 14) (size 15 to 20)
#    0.000    1.857    4.286    2.571    0.000    5.429 
#    0.000    5.000    0.000    2.571    0.000    8.000 
#    0.000    0.000    0.000    0.000    0.000    0.000 
#
# Total GULP energy -346931.786578 kJ/mol
# GULP energy per Si atom -12390.420949 kJ/mol
# Density = 1.956138 g / cm^3
# Si number density = 19.606001 Si / 1000 Ang^3
#
#
#
# Elastic Constant Matrix: (Units=GPa)
#
#
# Indices 1 2 3 4 5 6 
#
# 1 68.2104 23.2286 24.4781 0.0000 -7.9601 0.0000
# 2 23.2286 74.8735 33.1235 0.0000 -11.0014 0.0000
# 3 24.4781 33.1235 106.2852 0.0000 8.0168 0.0000
# 4 0.0000 0.0000 0.0000 17.9972 0.0000 1.2875
# 5 -7.9601 -11.0014 8.0168 0.0000 30.9667 0.0000
# 6 0.0000 0.0000 0.0000 1.2875 0.0000 26.5509
#
#
#
# Elastic Compliance Matrix: (Units=1/GPa)
#
#
# Indices 1 2 3 4 5 6 
#
# 1 0.017468 -0.003353 -0.003291 0.000000 0.004151 0.000000
# 2 -0.003353 0.017724 -0.005264 0.000000 0.006797 0.000000
# 3 -0.003291 -0.005264 0.012251 0.000000 -0.005888 0.000000
# 4 0.000000 0.000000 0.000000 0.055758 0.000000 -0.002704
# 5 0.004151 0.006797 -0.005888 0.000000 0.037299 0.000000
# 6 0.000000 0.000000 0.000000 -0.002704 0.000000 0.037795
#
#
# Mechanical properties :
#
#
# Convention : Reuss Voigt Hill
#
# Bulk Modulus (GPa) = 42.32602 45.66994 43.99798
# Shear Modulus (GPa) = 23.81113 26.33889 25.07501
#
# Velocity S-wave (km/s) = 3.48872 3.66923 3.58011
# Velocity P-wave (km/s) = 6.15332 6.42615 6.29122
#
# Compressibility (1/GPa) = 0.02362613
#
# Stress axis : x y z
#
# Youngs Moduli (GPa) = 57.24793 56.42163 81.62502
#
# Poissons Ratio (x) = 0.18921 0.26862
# Poissons Ratio (y) = 0.19198 0.42967
# Poissons Ratio (z) = 0.18840 0.29700
#
# Static dielectric constant tensor:
#      x y z
#    x 3.371900 0.000000 0.244450 
#    y 0.000000 3.701970 0.000000 
#    z 0.244450 0.000000 3.817820 
# 
# 
# High freq. dielectric constant tensor:
#      x y z
#    x 1.731810 0.000000 0.027100 
#    y 0.000000 1.757570 0.000000 
#    z 0.027100 0.000000 1.774650 
# 
# From -- ./inp_files/42640.got.cif
#   From: 2010.06.25/outbox.cif.g09.slc.cpg/sg10_22_cif.got.tgz:42640.got - 2010.06.27 22:07:45.
