data_PCOD8067082
_publ_section_title
;
Structure prediction by ZEFSAII (Michael W. Deem and Ramdas Pophale) SiO2 
 PCOD8067082
Probable space group: P 2/M
;
_chemical_formula_sum "Si O2"
_cell_formula_units_Z 28
_cell_length_a 10.115927
_cell_length_b 13.723765
_cell_length_c 12.187716
_cell_angle_alpha 90.000000
_cell_angle_beta 65.589205
_cell_angle_gamma 90.000000
_cell_volume 1540.748321
_symmetry_space_group_name_H-M "P 2/M"
_symmetry_group_IT_number 10
_symmetry_cell_setting 'monoclinic'
loop_
_space_group_symop_operation_xyz
x,y,z
-x,y,-z
-x,-y,-z
x,-y,z
loop_
_atom_site_type_symbol
_atom_site_label
_atom_site_fract_x
_atom_site_fract_y
_atom_site_fract_z
Si Si1 0.124104 0.888353 0.725645
Si Si2 0.822249 0.797812 0.843019
Si Si3 0.267524 0.887164 0.904636
Si Si4 0.352997 0.800985 0.489915
Si Si5 0.397779 0.112308 0.244635
Si Si6 0.779455 0.608954 0.513645
Si Si7 0.079828 0.609505 0.300577
O O1 0.165678 0.863645 0.836395
O O2 0.215895 0.823730 0.611699
O O3 0.955626 0.866658 0.762700
O O4 0.158460 0.000000 0.687715
O O5 0.682948 0.823498 0.818087
O O6 0.866325 0.684963 0.810416
O O7 0.782822 0.814673 0.982888
O O8 0.432375 0.862883 0.816950
O O9 0.250538 0.000000 0.947726
O O10 0.500000 0.830366 0.500000
O O11 0.337767 0.863494 0.385151
O O12 0.348820 0.685364 0.466792
O O13 0.368510 0.000000 0.227590
O O14 0.714573 0.500000 0.528242
O O15 0.836913 0.630501 0.615340
O O16 0.908676 0.621471 0.381405
O O17 0.112964 0.500000 0.247066
#
# Coordination Sequence:
#
# PCOD8067082 Si02
#       7
#     4   4   4   4   4   4   4
#     4  11  23  37  56  84 116 153 190 230 279 335
#     4  12  21  36  61  85 111 143 195 245 270 315
#     4  10  22  40  57  78 114 162 197 219 268 339
#     4  12  22  36  58  83 115 152 184 230 293 341
#     4  11  23  37  56  84 116 153 190 230 279 335
#     4   9  18  36  57  82 111 141 185 235 285 343
#     4   9  18  34  59  84 109 141 180 231 297 344
#
# _framework density 18.172988
#
# number of rings (size 3 to 8) (size 9 to 14) (size 15 to 20)
#    0.000    1.429    4.286    3.429    0.000    3.714 
#    0.000    1.429    0.000    5.143    0.000    0.000 
#    0.000    0.000    0.000    0.000    0.000    0.000 
#
# Total GULP energy -347294.219410 kJ/mol
# GULP energy per Si atom -12403.364979 kJ/mol
# Density = 1.813163 g / cm^3
# Si number density = 18.172988 Si / 1000 Ang^3
#
#
#
# Elastic Constant Matrix: (Units=GPa)
#
#
# Indices 1 2 3 4 5 6 
#
# 1 49.5102 15.9582 -2.2190 0.0000 -1.5648 0.0000
# 2 15.9582 87.5713 43.7440 0.0000 -1.4490 0.0000
# 3 -2.2190 43.7440 82.8490 0.0000 1.5986 0.0000
# 4 0.0000 0.0000 0.0000 33.5145 0.0000 0.2313
# 5 -1.5648 -1.4490 1.5986 0.0000 13.1557 0.0000
# 6 0.0000 0.0000 0.0000 0.2313 0.0000 25.3276
#
#
#
# Elastic Compliance Matrix: (Units=1/GPa)
#
#
# Indices 1 2 3 4 5 6 
#
# 1 0.022304 -0.005870 0.003667 0.000000 0.001561 0.000000
# 2 -0.005870 0.017152 -0.009258 0.000000 0.002316 0.000000
# 3 0.003667 -0.009258 0.017108 0.000000 -0.002662 0.000000
# 4 0.000000 0.000000 0.000000 0.029840 0.000000 -0.000273
# 5 0.001561 0.002316 -0.002662 0.000000 0.076777 0.000000
# 6 0.000000 0.000000 0.000000 -0.000273 0.000000 0.039485
#
#
# Mechanical properties :
#
#
# Convention : Reuss Voigt Hill
#
# Bulk Modulus (GPa) = 29.72620 37.21078 33.46849
# Shear Modulus (GPa) = 21.11471 25.22938 23.17205
#
# Velocity S-wave (km/s) = 3.41232 3.73002 3.57470
# Velocity P-wave (km/s) = 5.64961 6.25068 5.95773
#
# Compressibility (1/GPa) = 0.03364036
#
# Stress axis : x y z
#
# Youngs Moduli (GPa) = 44.83584 58.30241 58.45228
#
# Poissons Ratio (x) = 0.34224 -0.21433
# Poissons Ratio (y) = 0.26319 0.54116
# Poissons Ratio (z) = -0.16440 0.53977
#
# Static dielectric constant tensor:
#      x y z
#    x 3.316660 0.000000 -0.007570 
#    y 0.000000 3.344360 0.000000 
#    z -0.007570 0.000000 3.252120 
# 
# 
# High freq. dielectric constant tensor:
#      x y z
#    x 1.704050 0.000000 -0.000140 
#    y 0.000000 1.699960 0.000000 
#    z -0.000140 0.000000 1.695990 
# 
# From -- ./inp_files/25014.got.cif
#   From: 2010.06.25/outbox.cif.g09.slc.cpg/sg10_13_cif.got.tgz:25014.got - 2010.06.27 22:07:45.
