data_PCOD8067217
_publ_section_title
;
Structure prediction by ZEFSAII (Michael W. Deem and Ramdas Pophale) SiO2 
 PCOD8067217
Probable space group: P 2/M
;
_chemical_formula_sum "Si O2"
_cell_formula_units_Z 26
_cell_length_a 13.479634
_cell_length_b 15.246454
_cell_length_c 8.625643
_cell_angle_alpha 90.000000
_cell_angle_beta 42.448168
_cell_angle_gamma 90.000000
_cell_volume 1196.444702
_symmetry_space_group_name_H-M "P 2/M"
_symmetry_group_IT_number 10
_symmetry_cell_setting 'monoclinic'
loop_
_space_group_symop_operation_xyz
x,y,z
-x,y,-z
-x,-y,-z
x,-y,z
loop_
_atom_site_type_symbol
_atom_site_label
_atom_site_fract_x
_atom_site_fract_y
_atom_site_fract_z
Si Si1 0.500000 0.648119 0.500000
Si Si2 0.824721 0.902173 0.386226
Si Si3 0.989214 0.599854 0.696335
Si Si4 0.828603 0.097178 0.029990
Si Si5 0.735559 0.273179 0.011770
Si Si6 0.687663 0.403644 0.553567
Si Si7 0.651598 0.760005 0.778737
O O1 0.374959 0.592496 0.551060
O O2 0.412392 0.705743 0.725519
O O3 0.777004 0.883633 0.265039
O O4 0.757152 0.829162 0.575019
O O5 0.773809 0.000000 0.496053
O O6 0.998490 0.896140 0.192310
O O7 0.935328 0.500000 0.783471
O O8 0.870779 0.665519 0.910948
O O9 0.000000 0.618915 0.500000
O O10 0.138589 0.616244 0.622426
O O11 0.774961 0.000000 0.041888
O O12 0.757116 0.169341 0.004640
O O13 0.727548 0.285871 0.837286
O O14 0.654910 0.500000 0.665555
O O15 0.603614 0.322851 0.728900
O O16 0.500000 0.808885 0.000000
#
# Coordination Sequence:
#
# PCOD8067217 Si02
#       7
#     2   4   4   4   4   4   4
#     4  12  27  46  61  96 136 182 221 268 329 406
#     4   9  20  41  67  95 130 170 219 269 327 392
#     4  10  22  42  69  99 129 167 221 278 332 382
#     4   9  20  40  67  96 128 171 214 269 331 389
#     4  12  25  41  68  96 135 173 221 273 332 391
#     4  11  24  44  68  96 132 175 222 274 329 393
#     4  12  24  41  64  95 135 175 221 268 330 396
#
# _framework density 21.73105
#
# number of rings (size 3 to 8) (size 9 to 14) (size 15 to 20)
#    0.000    1.385    3.077    3.000    0.000    4.308 
#    0.000    3.462    0.000    0.000    0.000    0.000 
#    0.000    0.000    0.000    0.000    0.000    0.000 
#
# Total GULP energy -322177.695868 kJ/mol
# GULP energy per Si atom -12391.449841 kJ/mol
# Density = 2.168159 g / cm^3
# Si number density = 21.731050 Si / 1000 Ang^3
#
#
#
# Elastic Constant Matrix: (Units=GPa)
#
#
# Indices 1 2 3 4 5 6 
#
# 1 126.4442 37.6366 33.3011 0.0000 -2.4473 0.0000
# 2 37.6366 136.8494 65.3637 0.0000 2.1897 0.0000
# 3 33.3011 65.3637 110.1192 0.0000 -0.0007 0.0000
# 4 0.0000 0.0000 0.0000 1.6222 0.0000 9.5511
# 5 -2.4473 2.1897 -0.0007 0.0000 23.9830 0.0000
# 6 0.0000 0.0000 0.0000 9.5511 0.0000 27.9170
#
#
#
# Elastic Compliance Matrix: (Units=1/GPa)
#
#
# Indices 1 2 3 4 5 6 
#
# 1 0.008867 -0.001640 -0.001708 0.000000 0.001054 0.000000
# 2 -0.001640 0.010523 -0.005750 0.000000 -0.001128 0.000000
# 3 -0.001708 -0.005750 0.013011 0.000000 0.000351 0.000000
# 4 0.000000 0.000000 0.000000 -0.607729 0.000000 0.207918
# 5 0.001054 -0.001128 0.000351 0.000000 0.041907 0.000000
# 6 0.000000 0.000000 0.000000 0.207918 0.000000 -0.035313
#
#
# Mechanical properties :
#
#
# Convention : Reuss Voigt Hill
#
# Bulk Modulus (GPa) = 70.40022 71.77952 71.08987
# Shear Modulus (GPa) = -9.16081 26.51186 8.67553
#
# Velocity S-wave (km/s) = -2.05540 3.49664 2.00022
# Velocity P-wave (km/s) = 5.18011 7.02884 6.17406
#
# Compressibility (1/GPa) = 0.01420450
#
# Stress axis : x y z
#
# Youngs Moduli (GPa) = 112.77829 95.03210 76.85914
#
# Poissons Ratio (x) = 0.15581 0.13129
# Poissons Ratio (y) = 0.18491 0.44196
# Poissons Ratio (z) = 0.19265 0.54645
#
# Static dielectric constant tensor:
#      x y z
#    x 4.018990 0.000000 0.036190 
#    y 0.000000 4.141370 0.000000 
#    z 0.036190 0.000000 3.681830 
# 
# 
# High freq. dielectric constant tensor:
#      x y z
#    x 1.857840 0.000000 -0.002170 
#    y 0.000000 1.860520 0.000000 
#    z -0.002170 0.000000 1.837620 
# 
# From -- ./inp_files/29762.got.cif
#   From: 2010.06.25/outbox.cif.g09.slc.cpg/sg10_15_cif.got.tgz:29762.got - 2010.06.27 22:07:45.
