data_PCOD8067073
_publ_section_title
;
Structure prediction by ZEFSAII (Michael W. Deem and Ramdas Pophale) SiO2 
 PCOD8067073
Probable space group: P 2/M
;
_chemical_formula_sum "Si O2"
_cell_formula_units_Z 32
_cell_length_a 29.889483
_cell_length_b 8.699372
_cell_length_c 12.580598
_cell_angle_alpha 90.000000
_cell_angle_beta 151.361460
_cell_angle_gamma 90.000000
_cell_volume 1567.830121
_symmetry_space_group_name_H-M "P 2/M"
_symmetry_group_IT_number 10
_symmetry_cell_setting 'monoclinic'
loop_
_space_group_symop_operation_xyz
x,y,z
-x,y,-z
-x,-y,-z
x,-y,z
loop_
_atom_site_type_symbol
_atom_site_label
_atom_site_fract_x
_atom_site_fract_y
_atom_site_fract_z
Si Si1 0.895685 0.319456 0.315157
Si Si2 0.606973 0.172556 0.195663
Si Si3 0.898162 0.682745 0.763077
Si Si4 0.247024 0.318772 0.361506
Si Si5 0.181418 0.319078 0.622073
Si Si6 0.459812 0.818460 0.526422
Si Si7 0.252829 0.818710 0.149853
Si Si8 0.614867 0.679038 0.991063
O O1 0.877816 0.500000 0.258980
O O2 0.881710 0.272679 0.409129
O O3 0.000000 0.272139 0.500000
O O4 0.821582 0.222212 0.094898
O O5 0.657595 0.235789 0.406162
O O6 0.628321 0.286426 0.143338
O O7 0.640811 0.000000 0.238593
O O8 0.500000 0.172751 0.000000
O O9 0.902425 0.500000 0.764511
O O10 0.832059 0.735224 0.721154
O O11 0.861628 0.754159 0.575244
O O12 0.000000 0.751129 0.000000
O O13 0.261379 0.500000 0.392408
O O14 0.218846 0.264588 0.185705
O O15 0.182456 0.500000 0.607573
O O16 0.288860 0.266759 0.864963
O O17 0.500000 0.748291 0.500000
O O18 0.355281 0.756056 0.329315
O O19 0.456982 0.000000 0.513270
O O20 0.527590 0.772032 0.763562
O O21 0.255294 0.000000 0.173619
O O22 0.595181 0.500000 0.933243
#
# Coordination Sequence:
#
# PCOD8067073 Si02
#       8
#     4   4   4   4   4   4   4   4
#     4  10  22  39  64  92 117 152 201 249 292 344
#     4  11  23  38  56  81 117 159 196 233 288 350
#     4   9  18  33  59  89 118 152 189 239 297 346
#     4  11  22  38  62  90 119 153 199 245 292 348
#     4   9  18  35  57  88 123 149 189 246 296 344
#     4  10  22  40  60  83 114 157 203 242 291 356
#     4  11  24  41  60  85 123 160 194 241 299 355
#     4  11  21  35  58  87 117 150 191 243 295 343
#
# _framework density 20.410375999999999
#
# number of rings (size 3 to 8) (size 9 to 14) (size 15 to 20)
#    0.000    1.750    1.250    3.000    1.750    5.500 
#    0.000    0.625    0.000    1.500    0.000    0.000 
#    0.000    0.000    0.000    0.000    0.000    0.000 
#
# Total GULP energy -396888.754131 kJ/mol
# GULP energy per Si atom -12402.773567 kJ/mol
# Density = 2.036392 g / cm^3
# Si number density = 20.410376 Si / 1000 Ang^3
#
#
#
# Elastic Constant Matrix: (Units=GPa)
#
#
# Indices 1 2 3 4 5 6 
#
# 1 143.9874 28.1902 60.3427 0.0000 4.4831 0.0000
# 2 28.1902 34.4022 22.2842 0.0000 9.7784 0.0000
# 3 60.3427 22.2842 135.6834 0.0000 9.4725 0.0000
# 4 0.0000 0.0000 0.0000 17.5504 0.0000 -3.5505
# 5 4.4831 9.7784 9.4725 0.0000 32.2236 0.0000
# 6 0.0000 0.0000 0.0000 -3.5505 0.0000 21.9094
#
#
#
# Elastic Compliance Matrix: (Units=1/GPa)
#
#
# Indices 1 2 3 4 5 6 
#
# 1 0.009474 -0.006032 -0.003327 0.000000 0.001490 0.000000
# 2 -0.006032 0.038805 -0.002989 0.000000 -0.010058 0.000000
# 3 -0.003327 -0.002989 0.009438 0.000000 -0.001405 0.000000
# 4 0.000000 0.000000 0.000000 0.058910 0.000000 0.009547
# 5 0.001490 -0.010058 -0.001405 0.000000 0.034291 0.000000
# 6 0.000000 0.000000 0.000000 0.009547 0.000000 0.047190
#
#
# Mechanical properties :
#
#
# Convention : Reuss Voigt Hill
#
# Bulk Modulus (GPa) = 30.28147 59.52303 44.90225
# Shear Modulus (GPa) = 21.38490 27.88708 24.63599
#
# Velocity S-wave (km/s) = 3.24040 3.70038 3.47801
# Velocity P-wave (km/s) = 5.37297 6.89083 6.17869
#
# Compressibility (1/GPa) = 0.03302350
#
# Stress axis : x y z
#
# Youngs Moduli (GPa) = 105.55518 25.76968 105.94935
#
# Poissons Ratio (x) = 0.15544 0.35246
# Poissons Ratio (y) = 0.63669 0.31663
# Poissons Ratio (z) = 0.35115 0.07701
#
# Static dielectric constant tensor:
#      x y z
#    x 4.372250 0.000000 -0.082230 
#    y 0.000000 3.423110 0.000000 
#    z -0.082230 0.000000 3.816560 
# 
# 
# High freq. dielectric constant tensor:
#      x y z
#    x 1.810210 0.000000 0.000630 
#    y 0.000000 1.769190 0.000000 
#    z 0.000630 0.000000 1.807400 
# 
# From -- ./inp_files/58315.got.cif
#   From: 2010.06.25/outbox.cif.g09.slc.cpg/sg10_30_cif.got.tgz:58315.got - 2010.06.27 22:07:45.
