data_PCOD8067206
_publ_section_title
;
Structure prediction by ZEFSAII (Michael W. Deem and Ramdas Pophale) SiO2 
 PCOD8067206
Probable space group: P 2/M
;
_chemical_formula_sum "Si O2"
_cell_formula_units_Z 24
_cell_length_a 12.397234
_cell_length_b 15.652940
_cell_length_c 18.768500
_cell_angle_alpha 90.000000
_cell_angle_beta 19.733341
_cell_angle_gamma 90.000000
_cell_volume 1229.725283
_symmetry_space_group_name_H-M "P 2/M"
_symmetry_group_IT_number 10
_symmetry_cell_setting 'monoclinic'
loop_
_space_group_symop_operation_xyz
x,y,z
-x,y,-z
-x,-y,-z
x,-y,z
loop_
_atom_site_type_symbol
_atom_site_label
_atom_site_fract_x
_atom_site_fract_y
_atom_site_fract_z
Si Si1 0.647867 0.500000 0.295920
Si Si2 0.280176 0.310908 0.068614
Si Si3 0.008028 0.500000 0.214274
Si Si4 0.339889 0.324706 0.770272
Si Si5 0.622164 0.097540 0.223400
Si Si6 0.632536 0.235692 0.713726
Si Si7 0.359524 0.792831 0.514358
O O1 0.692817 0.424697 0.212469
O O2 0.921047 0.500000 0.185386
O O3 0.299656 0.500000 0.545355
O O4 0.193365 0.411491 0.114993
O O5 0.998043 0.242016 0.254816
O O6 0.500000 0.301478 0.000000
O O7 0.467828 0.280632 0.882552
O O8 0.604857 0.299699 0.663663
O O9 0.433471 0.291196 0.633700
O O10 0.000000 0.281285 0.000000
O O11 0.535612 0.146257 0.203707
O O12 0.413563 0.137951 0.417989
O O13 0.513744 0.000000 0.283225
O O14 0.000000 0.104756 0.000000
O O15 0.000000 0.217484 0.500000
O O16 0.500000 0.831977 0.500000
#
# Coordination Sequence:
#
# PCOD8067206 Si02
#       7
#     2   4   2   4   4   4   4
#     4  11  21  36  58  85 117 158 203 259 294 350
#     4  12  24  41  61  86 122 164 207 252 300 355
#     4  11  23  38  58  88 123 161 205 257 306 338
#     4  11  21  36  58  86 119 157 207 250 297 349
#     4  10  22  42  66  94 124 155 194 245 303 360
#     4  11  24  42  62  89 119 162 202 247 306 363
#     4  11  20  36  62  90 121 157 199 244 297 358
#
# _framework density 19.516555
#
# number of rings (size 3 to 8) (size 9 to 14) (size 15 to 20)
#    0.000    1.000    1.667    8.500    0.000    1.333 
#    0.000    1.667    0.000    2.000    0.000    0.000 
#    0.000    0.000    0.000    0.000    0.000    0.000 
#
# Total GULP energy -297462.953880 kJ/mol
# GULP energy per Si atom -12394.289745 kJ/mol
# Density = 1.947213 g / cm^3
# Si number density = 19.516555 Si / 1000 Ang^3
#
#
#
# Elastic Constant Matrix: (Units=GPa)
#
#
# Indices 1 2 3 4 5 6 
#
# 1 121.0011 43.1233 34.2812 0.0000 -9.2497 0.0000
# 2 43.1233 120.1909 18.0654 0.0000 -2.8904 0.0000
# 3 34.2812 18.0654 91.0073 0.0000 -6.5535 0.0000
# 4 0.0000 0.0000 0.0000 26.8743 0.0000 -0.0385
# 5 -9.2497 -2.8904 -6.5535 0.0000 36.7549 0.0000
# 6 0.0000 0.0000 0.0000 -0.0385 0.0000 26.0292
#
#
#
# Elastic Compliance Matrix: (Units=1/GPa)
#
#
# Indices 1 2 3 4 5 6 
#
# 1 0.010451 -0.003230 -0.003165 0.000000 0.001812 0.000000
# 2 -0.003230 0.009580 -0.000698 0.000000 -0.000184 0.000000
# 3 -0.003165 -0.000698 0.012417 0.000000 0.001363 0.000000
# 4 0.000000 0.000000 0.000000 0.037210 0.000000 0.000055
# 5 0.001812 -0.000184 0.001363 0.000000 0.027892 0.000000
# 6 0.000000 0.000000 0.000000 0.000055 0.000000 0.038418
#
#
# Mechanical properties :
#
#
# Convention : Reuss Voigt Hill
#
# Bulk Modulus (GPa) = 54.76235 58.12656 56.44446
# Shear Modulus (GPa) = 32.00174 33.71364 32.85769
#
# Velocity S-wave (km/s) = 4.05374 4.16076 4.10760
# Velocity P-wave (km/s) = 7.07324 7.27533 7.17500
#
# Compressibility (1/GPa) = 0.01826072
#
# Stress axis : x y z
#
# Youngs Moduli (GPa) = 95.68626 104.38837 80.53463
#
# Poissons Ratio (x) = 0.33721 0.25489
# Poissons Ratio (y) = 0.30910 0.05622
# Poissons Ratio (z) = 0.30284 0.07287
#
# Static dielectric constant tensor:
#      x y z
#    x 3.748100 0.000000 -0.010710 
#    y 0.000000 3.684330 0.000000 
#    z -0.010710 0.000000 3.710930 
# 
# 
# High freq. dielectric constant tensor:
#      x y z
#    x 1.764580 0.000000 0.008330 
#    y 0.000000 1.759470 0.000000 
#    z 0.008330 0.000000 1.769380 
# 
# From -- ./inp_files/77167.got.cif
#   From: 2010.06.25/outbox.cif.g09.slc.cpg/sg10_39_cif.got.tgz:77167.got - 2010.06.27 22:07:45.
