data_PCOD8067152
_publ_section_title
;
Structure prediction by ZEFSAII (Michael W. Deem and Ramdas Pophale) SiO2 
 PCOD8067152
Probable space group: P 2/M
;
_chemical_formula_sum "Si O2"
_cell_formula_units_Z 32
_cell_length_a 8.785468
_cell_length_b 13.703481
_cell_length_c 13.794278
_cell_angle_alpha 90.000000
_cell_angle_beta 120.042456
_cell_angle_gamma 90.000000
_cell_volume 1437.604596
_symmetry_space_group_name_H-M "P 2/M"
_symmetry_group_IT_number 10
_symmetry_cell_setting 'monoclinic'
loop_
_space_group_symop_operation_xyz
x,y,z
-x,y,-z
-x,-y,-z
x,-y,z
loop_
_atom_site_type_symbol
_atom_site_label
_atom_site_fract_x
_atom_site_fract_y
_atom_site_fract_z
Si Si1 0.459693 0.755455 0.649927
Si Si2 0.748808 0.611648 0.667351
Si Si3 0.710174 0.113873 0.844084
Si Si4 0.810735 0.390674 0.459221
Si Si5 0.066011 0.610363 0.912201
Si Si6 0.996239 0.112465 0.774414
Si Si7 0.841811 0.113910 0.522086
Si Si8 0.296641 0.787100 0.959629
O O1 0.601334 0.693548 0.634707
O O2 0.545976 0.817976 0.762774
O O3 0.326782 0.672706 0.647363
O O4 0.341448 0.829798 0.550101
O O5 0.688179 0.500000 0.675860
O O6 0.786516 0.614804 0.566286
O O7 0.916281 0.641242 0.786885
O O8 0.876315 0.136694 0.829223
O O9 0.657598 0.000000 0.820643
O O10 0.756529 0.143297 0.967665
O O11 0.797111 0.500000 0.414508
O O12 0.000000 0.344941 0.500000
O O13 0.125036 0.500000 0.911071
O O14 0.240606 0.675391 0.957893
O O15 0.000000 0.624327 0.000000
O O16 0.893814 0.145485 0.646503
O O17 0.179807 0.170453 0.834981
O O18 0.045447 0.000000 0.783711
O O19 0.000000 0.143133 0.500000
O O20 0.799154 0.000000 0.499120
O O21 0.500000 0.793682 0.000000
#
# Coordination Sequence:
#
# PCOD8067152 Si02
#       8
#     4   4   4   4   4   4   4   4
#     4  12  23  37  66  97 130 172 216 267 328 389
#     4  10  22  40  66  98 134 172 216 273 327 389
#     4  11  26  45  66  98 134 172 224 280 329 390
#     4  10  23  41  61  91 132 176 220 265 322 389
#     4  10  22  44  71  98 132 173 217 268 329 397
#     4  10  23  44  68  91 127 177 225 273 332 395
#     4  10  24  43  64  95 135 179 222 273 333 396
#     4  12  26  42  70 102 131 171 222 275 340 392
#
# _framework density 22.259247999999999
#
# number of rings (size 3 to 8) (size 9 to 14) (size 15 to 20)
#    0.000    1.375    0.000    4.500    7.000    4.250 
#    0.000    2.500    0.000    0.000    0.000    0.000 
#    0.000    0.000    0.000    0.000    0.000    0.000 
#
# Total GULP energy -396737.714372 kJ/mol
# GULP energy per Si atom -12398.053574 kJ/mol
# Density = 2.220859 g / cm^3
# Si number density = 22.259248 Si / 1000 Ang^3
#
#
#
# Elastic Constant Matrix: (Units=GPa)
#
#
# Indices 1 2 3 4 5 6 
#
# 1 97.1440 48.0369 29.0365 0.0000 17.2366 0.0000
# 2 48.0369 116.2708 46.0259 0.0000 21.9123 0.0000
# 3 29.0365 46.0259 74.8159 0.0000 18.3033 0.0000
# 4 0.0000 0.0000 0.0000 26.4914 0.0000 23.2387
# 5 17.2366 21.9123 18.3033 0.0000 34.5878 0.0000
# 6 0.0000 0.0000 0.0000 23.2387 0.0000 24.9046
#
#
#
# Elastic Compliance Matrix: (Units=1/GPa)
#
#
# Indices 1 2 3 4 5 6 
#
# 1 0.013501 -0.004264 -0.001874 0.000000 -0.003035 0.000000
# 2 -0.004264 0.013225 -0.005687 0.000000 -0.003244 0.000000
# 3 -0.001874 -0.005687 0.018934 0.000000 -0.005482 0.000000
# 4 0.000000 0.000000 0.000000 0.208020 0.000000 -0.194106
# 5 -0.003035 -0.003244 -0.005482 0.000000 0.035381 0.000000
# 6 0.000000 0.000000 0.000000 -0.194106 0.000000 0.221275
#
#
# Mechanical properties :
#
#
# Convention : Reuss Voigt Hill
#
# Bulk Modulus (GPa) = 45.43713 59.38105 52.40909
# Shear Modulus (GPa) = 9.23663 28.20551 18.72107
#
# Velocity S-wave (km/s) = 2.03926 3.56355 2.90323
# Velocity P-wave (km/s) = 5.09919 6.60808 5.90206
#
# Compressibility (1/GPa) = 0.02200843
#
# Stress axis : x y z
#
# Youngs Moduli (GPa) = 74.06698 75.61439 52.81636
#
# Poissons Ratio (x) = 0.32243 0.09899
# Poissons Ratio (y) = 0.31583 0.30039
# Poissons Ratio (z) = 0.13881 0.43005
#
# Static dielectric constant tensor:
#      x y z
#    x 3.841780 0.000000 0.117370 
#    y 0.000000 4.481070 0.000000 
#    z 0.117370 0.000000 4.093260 
# 
# 
# High freq. dielectric constant tensor:
#      x y z
#    x 1.861740 0.000000 0.011310 
#    y 0.000000 1.904900 0.000000 
#    z 0.011310 0.000000 1.878620 
# 
# From -- ./inp_files/61885.got.cif
#   From: 2010.06.25/outbox.cif.g09.slc.cpg/sg10_31_cif.got.tgz:61885.got - 2010.06.27 22:07:45.
