data_PCOD8067170
_publ_section_title
;
Structure prediction by ZEFSAII (Michael W. Deem and Ramdas Pophale) SiO2 
 PCOD8067170
Probable space group: P 2/M
;
_chemical_formula_sum "Si O2"
_cell_formula_units_Z 20
_cell_length_a 8.695101
_cell_length_b 11.688357
_cell_length_c 9.906351
_cell_angle_alpha 90.000000
_cell_angle_beta 88.426218
_cell_angle_gamma 90.000000
_cell_volume 1006.416986
_symmetry_space_group_name_H-M "P 2/M"
_symmetry_group_IT_number 10
_symmetry_cell_setting 'monoclinic'
loop_
_space_group_symop_operation_xyz
x,y,z
-x,y,-z
-x,-y,-z
x,-y,z
loop_
_atom_site_type_symbol
_atom_site_label
_atom_site_fract_x
_atom_site_fract_y
_atom_site_fract_z
Si Si1 0.959804 0.000000 0.344202
Si Si2 0.153226 0.000000 0.085815
Si Si3 0.327901 0.632994 0.488810
Si Si4 0.840764 0.367556 0.782925
Si Si5 0.681054 0.229447 0.005499
Si Si6 0.154806 0.241202 0.724507
O O1 0.856203 0.891185 0.312906
O O2 0.000000 0.000000 0.500000
O O3 0.112089 0.000000 0.246136
O O4 0.251214 0.888704 0.050753
O O5 0.000000 0.000000 0.000000
O O6 0.500000 0.683396 0.500000
O O7 0.327546 0.500000 0.524670
O O8 0.268593 0.658145 0.340837
O O9 0.211112 0.691804 0.593091
O O10 0.889715 0.500000 0.788093
O O11 0.990926 0.289351 0.774215
O O12 0.745280 0.335483 0.917862
O O13 0.724014 0.254221 0.158582
O O14 0.500000 0.224229 0.000000
#
# Coordination Sequence:
#
# PCOD8067170 Si02
#       6
#     2   2   4   4   4   4
#     4  12  24  40  67  97 122 155 205 262 305 359
#     4  12  21  46  67  89 127 166 209 255 306 377
#     4  10  22  41  63  91 130 168 205 259 320 374
#     4  11  23  40  64  93 124 167 216 260 310 372
#     4  12  25  41  64  93 127 167 208 261 319 372
#     4  12  23  41  65  92 125 164 215 260 307 378
#
# _framework density 19.872478999999998
#
# number of rings (size 3 to 8) (size 9 to 14) (size 15 to 20)
#    0.000    0.600    4.000    4.500    0.000    4.400 
#    0.000    0.500    0.000    0.000    0.000    0.000 
#    0.000    0.000    0.000    0.000    0.000    0.000 
#
# Total GULP energy -248142.291044 kJ/mol
# GULP energy per Si atom -12407.114552 kJ/mol
# Density = 1.982725 g / cm^3
# Si number density = 19.872479 Si / 1000 Ang^3
#
#
#
# Elastic Constant Matrix: (Units=GPa)
#
#
# Indices 1 2 3 4 5 6 
#
# 1 133.2193 42.0613 28.5416 0.0000 9.7781 0.0000
# 2 42.0613 78.8229 47.9346 0.0000 11.9304 0.0000
# 3 28.5416 47.9346 111.3009 0.0000 9.8229 0.0000
# 4 0.0000 0.0000 0.0000 35.9621 0.0000 2.9793
# 5 9.7781 11.9304 9.8229 0.0000 38.1316 0.0000
# 6 0.0000 0.0000 0.0000 2.9793 0.0000 105.6354
#
#
#
# Elastic Compliance Matrix: (Units=1/GPa)
#
#
# Indices 1 2 3 4 5 6 
#
# 1 0.009061 -0.004527 -0.000301 0.000000 -0.000830 0.000000
# 2 -0.004527 0.019933 -0.007138 0.000000 -0.003237 0.000000
# 3 -0.000301 -0.007138 0.012210 0.000000 -0.000835 0.000000
# 4 0.000000 0.000000 0.000000 0.027872 0.000000 -0.000786
# 5 -0.000830 -0.003237 -0.000835 0.000000 0.027666 0.000000
# 6 0.000000 0.000000 0.000000 -0.000786 0.000000 0.009489
#
#
# Mechanical properties :
#
#
# Convention : Reuss Voigt Hill
#
# Bulk Modulus (GPa) = 57.89557 62.26867 60.08212
# Shear Modulus (GPa) = 36.78668 49.59953 43.19310
#
# Velocity S-wave (km/s) = 4.30715 5.00131 4.66715
# Velocity P-wave (km/s) = 7.34385 8.04692 7.70341
#
# Compressibility (1/GPa) = 0.01727248
#
# Stress axis : x y z
#
# Youngs Moduli (GPa) = 110.36378 50.16806 81.90186
#
# Poissons Ratio (x) = 0.22709 0.02464
# Poissons Ratio (y) = 0.49957 0.58463
# Poissons Ratio (z) = 0.03320 0.35811
#
# Static dielectric constant tensor:
#      x y z
#    x 3.725900 0.000000 -0.003110 
#    y 0.000000 3.699010 0.000000 
#    z -0.003110 0.000000 3.854610 
# 
# 
# High freq. dielectric constant tensor:
#      x y z
#    x 1.777350 0.000000 0.002470 
#    y 0.000000 1.785820 0.000000 
#    z 0.002470 0.000000 1.792390 
# 
# From -- ./inp_files/17814.got.cif
#   From: 2010.06.25/outbox.cif.g09.slc.cpg/sg10_9_cif.got.tgz:17814.got - 2010.06.27 22:07:45.
