data_PCOD8067125
_publ_section_title
;
Structure prediction by ZEFSAII (Michael W. Deem and Ramdas Pophale) SiO2 
 PCOD8067125
Probable space group: P 2/M
;
_chemical_formula_sum "Si O2"
_cell_formula_units_Z 32
_cell_length_a 23.441574
_cell_length_b 8.889250
_cell_length_c 14.188972
_cell_angle_alpha 90.000000
_cell_angle_beta 147.494328
_cell_angle_gamma 90.000000
_cell_volume 1588.864360
_symmetry_space_group_name_H-M "P 2/M"
_symmetry_group_IT_number 10
_symmetry_cell_setting 'monoclinic'
loop_
_space_group_symop_operation_xyz
x,y,z
-x,y,-z
-x,-y,-z
x,-y,z
loop_
_atom_site_type_symbol
_atom_site_label
_atom_site_fract_x
_atom_site_fract_y
_atom_site_fract_z
Si Si1 0.453445 0.324304 0.035698
Si Si2 0.711642 0.672639 0.689162
Si Si3 0.154069 0.176502 0.813722
Si Si4 0.206736 0.323266 0.696239
Si Si5 0.350799 0.326888 0.188055
Si Si6 0.952244 0.326563 0.035796
Si Si7 0.462873 0.822739 0.664272
Si Si8 0.049439 0.824335 0.346896
O O1 0.470783 0.500000 0.079893
O O2 0.516877 0.230362 0.201491
O O3 0.500000 0.277388 0.000000
O O4 0.330252 0.280150 0.868663
O O5 0.712706 0.500000 0.656230
O O6 0.648132 0.689186 0.698215
O O7 0.654992 0.772793 0.530729
O O8 0.831316 0.732153 0.868485
O O9 0.147942 0.244308 0.701185
O O10 0.045561 0.216530 0.714786
O O11 0.173423 0.000000 0.832991
O O12 0.248443 0.247754 0.003920
O O13 0.189706 0.500000 0.679393
O O14 0.154705 0.262140 0.527708
O O15 0.348509 0.500000 0.152559
O O16 0.456010 0.252098 0.295169
O O17 0.956448 0.500000 0.073816
O O18 0.021775 0.228729 0.203681
O O19 0.000000 0.302632 0.000000
O O20 0.474525 0.000000 0.674640
O O21 0.073797 0.000000 0.379034
#
# Coordination Sequence:
#
# PCOD8067125 Si02
#       8
#     4   4   4   4   4   4   4   4
#     4  10  23  44  66  87 116 158 208 257 302 354
#     4  10  22  40  63  90 122 160 202 251 300 358
#     4  11  22  37  60  91 126 161 194 243 308 365
#     4  11  23  39  64  92 120 160 205 251 299 360
#     4  11  21  37  63  91 121 160 201 246 299 359
#     4  10  22  42  66  90 118 158 210 259 300 352
#     4  12  25  39  61  92 126 161 197 248 306 367
#     4  11  24  40  61  90 128 164 196 246 308 367
#
# _framework density 20.140172
#
# number of rings (size 3 to 8) (size 9 to 14) (size 15 to 20)
#    0.000    1.250    2.500    3.375    0.000    8.000 
#    0.000    5.000    0.000    0.000    0.000    0.000 
#    0.000    0.000    0.000    0.000    0.000    0.000 
#
# Total GULP energy -397025.456754 kJ/mol
# GULP energy per Si atom -12407.045524 kJ/mol
# Density = 2.009433 g / cm^3
# Si number density = 20.140172 Si / 1000 Ang^3
#
#
#
# Elastic Constant Matrix: (Units=GPa)
#
#
# Indices 1 2 3 4 5 6 
#
# 1 86.2312 34.5317 23.1127 0.0000 -13.9365 0.0000
# 2 34.5317 102.4045 55.5018 0.0000 -15.9858 0.0000
# 3 23.1127 55.5018 117.4698 0.0000 -30.7589 0.0000
# 4 0.0000 0.0000 0.0000 -11.7471 0.0000 4.6563
# 5 -13.9365 -15.9858 -30.7589 0.0000 19.5929 0.0000
# 6 0.0000 0.0000 0.0000 4.6563 0.0000 19.1882
#
#
#
# Elastic Compliance Matrix: (Units=1/GPa)
#
#
# Indices 1 2 3 4 5 6 
#
# 1 0.014375 -0.004278 0.001624 0.000000 0.009284 0.000000
# 2 -0.004278 0.014432 -0.006266 0.000000 -0.001106 0.000000
# 3 0.001624 -0.006266 0.017180 0.000000 0.023013 0.000000
# 4 0.000000 0.000000 0.000000 -0.077658 0.000000 0.018845
# 5 0.009284 -0.001106 0.023013 0.000000 0.092868 0.000000
# 6 0.000000 0.000000 0.000000 0.018845 0.000000 0.047543
#
#
# Mechanical properties :
#
#
# Convention : Reuss Voigt Hill
#
# Bulk Modulus (GPa) = 35.53026 59.15530 47.34278
# Shear Modulus (GPa) = 36.77476 18.27075 27.52276
#
# Velocity S-wave (km/s) = 4.27774 3.01521 3.70071
# Velocity P-wave (km/s) = 6.48680 6.44651 6.46669
#
# Compressibility (1/GPa) = 0.02814502
#
# Stress axis : x y z
#
# Youngs Moduli (GPa) = 69.56431 69.29276 58.20755
#
# Poissons Ratio (x) = 0.29646 -0.09453
# Poissons Ratio (y) = 0.29762 0.36475
# Poissons Ratio (z) = -0.11297 0.43422
#
# Static dielectric constant tensor:
#      x y z
#    x 3.661840 0.000000 0.018140 
#    y 0.000000 3.666870 0.000000 
#    z 0.018140 0.000000 3.702060 
# 
# 
# High freq. dielectric constant tensor:
#      x y z
#    x 1.783860 0.000000 -0.004700 
#    y 0.000000 1.786970 0.000000 
#    z -0.004700 0.000000 1.801170 
# 
# From -- ./inp_files/71655.got.cif
#   From: 2010.06.25/outbox.cif.g09.slc.cpg/sg10_36_cif.got.tgz:71655.got - 2010.06.27 22:07:45.
