data_PCOD8067495
_publ_section_title
;
Structure prediction by ZEFSAII (Michael W. Deem and Ramdas Pophale) SiO2 
 PCOD8067495
Probable space group: P 2/M
;
_chemical_formula_sum "Si O2"
_cell_formula_units_Z 12
_cell_length_a 10.458191
_cell_length_b 7.653738
_cell_length_c 18.985927
_cell_angle_alpha 90.000000
_cell_angle_beta 24.619122
_cell_angle_gamma 90.000000
_cell_volume 633.089020
_symmetry_space_group_name_H-M "P 2/M"
_symmetry_group_IT_number 10
_symmetry_cell_setting 'monoclinic'
loop_
_space_group_symop_operation_xyz
x,y,z
-x,y,-z
-x,-y,-z
x,-y,z
loop_
_atom_site_type_symbol
_atom_site_label
_atom_site_fract_x
_atom_site_fract_y
_atom_site_fract_z
Si Si1 0.359523 0.000000 0.737440
Si Si2 0.625110 0.303856 0.512716
Si Si3 0.362212 0.000000 0.899020
Si Si4 0.292623 0.805913 0.165000
O O1 0.502904 0.825873 0.633102
O O2 0.450429 0.000000 0.773507
O O3 0.998356 0.000000 0.907019
O O4 0.500000 0.240215 0.500000
O O5 0.508130 0.500000 0.587979
O O6 0.994299 0.309355 0.328114
O O7 0.507947 0.173183 0.862900
O O8 0.187499 0.000000 0.191091
O O9 0.500000 0.717440 0.000000
#
# Coordination Sequence:
#
# PCOD8067495 Si02
#       4
#     2   4   2   4
#     4  11  20  39  60  77 117 145 182 231 274 327
#     4  11  23  36  57  85 111 146 186 227 275 327
#     4   9  20  35  60  85 103 153 186 219 280 329
#     4   9  18  35  58  84 109 140 187 221 272 324
#
# _framework density 18.954681999999998
#
# number of rings (size 3 to 8) (size 9 to 14) (size 15 to 20)
#    1.000    1.000    1.667    2.500    0.000    3.333 
#    0.000    8.333    0.000    0.000    0.000    0.000 
#    0.000    0.000    0.000    0.000    0.000    0.000 
#
# Total GULP energy -148760.697968 kJ/mol
# GULP energy per Si atom -12396.724831 kJ/mol
# Density = 1.891154 g / cm^3
# Si number density = 18.954682 Si / 1000 Ang^3
#
#
#
# Elastic Constant Matrix: (Units=GPa)
#
#
# Indices 1 2 3 4 5 6 
#
# 1 158.8510 35.0053 77.0597 0.0000 5.2548 0.0000
# 2 35.0053 76.5026 42.6010 0.0000 13.6566 0.0000
# 3 77.0597 42.6010 132.0127 0.0000 9.1375 0.0000
# 4 0.0000 0.0000 0.0000 -22.1054 0.0000 -35.3261
# 5 5.2548 13.6566 9.1375 0.0000 33.3094 0.0000
# 6 0.0000 0.0000 0.0000 -35.3261 0.0000 -21.4527
#
#
#
# Elastic Compliance Matrix: (Units=1/GPa)
#
#
# Indices 1 2 3 4 5 6 
#
# 1 0.008919 -0.001530 -0.004749 0.000000 0.000523 0.000000
# 2 -0.001530 0.017141 -0.004249 0.000000 -0.005621 0.000000
# 3 -0.004749 -0.004249 0.011769 0.000000 -0.000737 0.000000
# 4 0.000000 0.000000 0.000000 0.027727 0.000000 -0.045658
# 5 0.000523 -0.005621 -0.000737 0.000000 0.032446 0.000000
# 6 0.000000 0.000000 0.000000 -0.045658 0.000000 0.028571
#
#
# Mechanical properties :
#
#
# Convention : Reuss Voigt Hill
#
# Bulk Modulus (GPa) = 59.61888 75.18870 67.40379
# Shear Modulus (GPa) = 32.63299 12.13028 22.38164
#
# Velocity S-wave (km/s) = 4.15376 2.53249 3.44000
# Velocity P-wave (km/s) = 7.38421 6.95019 7.17048
#
# Compressibility (1/GPa) = 0.01677321
#
# Stress axis : x y z
#
# Youngs Moduli (GPa) = 112.12522 58.33910 84.96766
#
# Poissons Ratio (x) = 0.08926 0.40347
# Poissons Ratio (y) = 0.17155 0.36106
# Poissons Ratio (z) = 0.53243 0.24790
#
# Static dielectric constant tensor:
#      x y z
#    x 3.444570 0.000000 -0.049020 
#    y 0.000000 3.111690 0.000000 
#    z -0.049020 0.000000 3.431760 
# 
# 
# High freq. dielectric constant tensor:
#      x y z
#    x 1.734830 0.000000 -0.007510 
#    y 0.000000 1.709310 0.000000 
#    z -0.007510 0.000000 1.744240 
# 
# From -- ./inp_files/16220.got.cif
#   From: 2010.06.25/outbox.cif.g09.slc.cpg/sg10_9_cif.got.tgz:16220.got - 2010.06.27 22:07:45.
