data_PCOD8067910
_publ_section_title
;
Structure prediction by ZEFSAII (Michael W. Deem and Ramdas Pophale) SiO2 
 PCOD8067910
Probable space group: P 2/M
;
_chemical_formula_sum "Si O2"
_cell_formula_units_Z 24
_cell_length_a 25.762393
_cell_length_b 9.345582
_cell_length_c 30.361976
_cell_angle_alpha 90.000000
_cell_angle_beta 168.673168
_cell_angle_gamma 90.000000
_cell_volume 1435.740338
_symmetry_space_group_name_H-M "P 2/M"
_symmetry_group_IT_number 10
_symmetry_cell_setting 'monoclinic'
loop_
_space_group_symop_operation_xyz
x,y,z
-x,y,-z
-x,-y,-z
x,-y,z
loop_
_atom_site_type_symbol
_atom_site_label
_atom_site_fract_x
_atom_site_fract_y
_atom_site_fract_z
Si Si1 0.197930 0.830779 0.298617
Si Si2 0.798501 0.669654 0.130074
Si Si3 0.212095 0.669657 0.543672
Si Si4 0.206977 0.169515 0.206984
Si Si5 0.790263 0.329244 0.360171
Si Si6 0.810140 0.668204 0.040109
O O1 0.496462 0.781511 0.558503
O O2 0.131209 0.781500 0.193266
O O3 0.001710 0.752772 0.167816
O O4 0.164683 0.000000 0.276457
O O5 0.800801 0.500000 0.135505
O O6 0.008954 0.737732 0.339310
O O7 0.875691 0.714341 0.144732
O O8 0.504160 0.724976 0.897234
O O9 0.190945 0.500000 0.525662
O O10 0.137411 0.724971 0.530489
O O11 0.510124 0.714305 0.779167
O O12 0.195591 0.000000 0.195600
O O13 0.000000 0.237873 0.000000
O O14 0.797196 0.500000 0.364794
O O15 0.000000 0.264439 0.500000
O O16 0.851901 0.500000 0.067950
#
# Coordination Sequence:
#
# PCOD8067910 Si02
#       6
#     4   4   4   4   4   4
#     4   9  17  29  46  65  81 102 134 166 197 235
#     4   8  14  24  36  51  75 107 137 163 197 241
#     4   8  14  24  36  51  75 107 137 163 197 241
#     4   8  15  29  46  62  82 106 130 160 200 242
#     4   8  13  20  31  50  75 103 137 172 201 233
#     4   9  17  28  41  58  82 110 136 162 195 237
#
# _framework density 16.716116
#
# number of rings (size 3 to 8) (size 9 to 14) (size 15 to 20)
#    0.000    3.667    0.000    3.000    0.000    2.000 
#    0.000    5.000    0.000    1.000    0.000    0.000 
#    0.000   10.667    0.000   12.000    0.000   13.333 
#
# Total GULP energy -297404.006735 kJ/mol
# GULP energy per Si atom -12391.833614 kJ/mol
# Density = 1.667807 g / cm^3
# Si number density = 16.716116 Si / 1000 Ang^3
#
#
#
# Elastic Constant Matrix: (Units=GPa)
#
#
# Indices 1 2 3 4 5 6 
#
# 1 154.5704 24.7631 125.0475 0.0000 0.9828 0.0000
# 2 24.7631 15.3446 24.0904 0.0000 6.2848 0.0000
# 3 125.0475 24.0904 154.6284 0.0000 -2.2237 0.0000
# 4 0.0000 0.0000 0.0000 -12.1224 0.0000 -20.6017
# 5 0.9828 6.2848 -2.2237 0.0000 44.2841 0.0000
# 6 0.0000 0.0000 0.0000 -20.6017 0.0000 -14.3429
#
#
#
# Elastic Compliance Matrix: (Units=1/GPa)
#
#
# Indices 1 2 3 4 5 6 
#
# 1 0.019594 -0.008994 -0.014442 0.000000 0.000116 0.000000
# 2 -0.008994 0.098488 -0.008275 0.000000 -0.014193 0.000000
# 3 -0.014442 -0.008275 0.019471 0.000000 0.002473 0.000000
# 4 0.000000 0.000000 0.000000 0.057244 0.000000 -0.082223
# 5 0.000116 -0.014193 0.002473 0.000000 0.024717 0.000000
# 6 0.000000 0.000000 0.000000 -0.082223 0.000000 0.048382
#
#
# Mechanical properties :
#
#
# Convention : Reuss Voigt Hill
#
# Bulk Modulus (GPa) = 13.48967 74.70508 44.09737
# Shear Modulus (GPa) = 14.04384 13.60657 13.82520
#
# Velocity S-wave (km/s) = 2.90166 2.85613 2.87898
# Velocity P-wave (km/s) = 4.39472 7.46084 6.12281
#
# Compressibility (1/GPa) = 0.07413079
#
# Stress axis : x y z
#
# Youngs Moduli (GPa) = 51.03716 10.15353 51.35733
#
# Poissons Ratio (x) = 0.09132 0.74172
# Poissons Ratio (y) = 0.45901 0.42498
# Poissons Ratio (z) = 0.73710 0.08402
#
# Static dielectric constant tensor:
#      x y z
#    x 3.526640 0.000000 -0.335050 
#    y 0.000000 2.448230 0.000000 
#    z -0.335050 0.000000 3.562570 
# 
# 
# High freq. dielectric constant tensor:
#      x y z
#    x 1.653380 0.000000 -0.002820 
#    y 0.000000 1.569720 0.000000 
#    z -0.002820 0.000000 1.653670 
# 
# From -- ./inp_files/91427.got.cif
#   From: 2010.06.25/outbox.cif.g09.slc.cpg/sg10_46_cif.got.tgz:91427.got - 2010.06.27 22:07:45.
