data_PCOD8067128
_publ_section_title
;
Structure prediction by ZEFSAII (Michael W. Deem and Ramdas Pophale) SiO2 
 PCOD8067128
Probable space group: P 2/M
;
_chemical_formula_sum "Si O2"
_cell_formula_units_Z 32
_cell_length_a 14.236035
_cell_length_b 8.561598
_cell_length_c 23.719986
_cell_angle_alpha 90.000000
_cell_angle_beta 147.624030
_cell_angle_gamma 90.000000
_cell_volume 1548.087802
_symmetry_space_group_name_H-M "P 2/M"
_symmetry_group_IT_number 10
_symmetry_cell_setting 'monoclinic'
loop_
_space_group_symop_operation_xyz
x,y,z
-x,y,-z
-x,-y,-z
x,-y,z
loop_
_atom_site_type_symbol
_atom_site_label
_atom_site_fract_x
_atom_site_fract_y
_atom_site_fract_z
Si Si1 0.681714 0.319741 0.206915
Si Si2 0.997882 0.180769 0.434286
Si Si3 0.697074 0.321490 0.477595
Si Si4 0.677129 0.180705 0.973955
Si Si5 0.802670 0.179701 0.646415
Si Si6 0.694072 0.680287 0.704587
Si Si7 0.823414 0.319430 0.157762
Si Si8 0.021374 0.316593 0.946307
O O1 0.634556 0.500000 0.191047
O O2 0.519069 0.217823 0.147287
O O3 0.714928 0.278107 0.158506
O O4 0.854897 0.282834 0.329831
O O5 0.188857 0.211086 0.504688
O O6 0.000000 0.232918 0.500000
O O7 0.949519 0.000000 0.402938
O O8 0.750690 0.500000 0.493120
O O9 0.730630 0.286578 0.560027
O O10 0.492660 0.292764 0.359718
O O11 0.696456 0.000000 0.998932
O O12 0.704407 0.284603 0.043464
O O13 0.813860 0.224152 0.994705
O O14 0.697469 0.216751 0.649988
O O15 0.006696 0.211598 0.760252
O O16 0.774760 0.000000 0.616018
O O17 0.719036 0.500000 0.699928
O O18 0.845741 0.733468 0.824267
O O19 0.881502 0.500000 0.186905
O O20 0.057742 0.500000 0.958810
O O21 0.000000 0.266097 0.000000
#
# Coordination Sequence:
#
# PCOD8067128 Si02
#       8
#     4   4   4   4   4   4   4   4
#     4  11  24  42  67  94 124 167 212 258 308 372
#     4  11  25  44  65  92 127 165 207 264 321 368
#     4  11  23  40  63  92 124 167 212 254 307 373
#     4  12  25  40  63  96 131 167 204 256 318 376
#     4  12  23  36  61  94 127 163 201 253 318 375
#     4  10  22  40  63  90 125 164 207 257 307 370
#     4  11  22  39  64  93 126 164 208 256 308 374
#     4  10  22  42  66  90 120 164 215 263 308 364
#
# _framework density 20.670663000000001
#
# number of rings (size 3 to 8) (size 9 to 14) (size 15 to 20)
#    0.000    1.000    2.500    4.500    0.000    7.750 
#    0.000    1.250    0.000    0.000    0.000    0.000 
#    0.000    0.000    0.000    0.000    0.000    0.000 
#
# Total GULP energy -397048.898350 kJ/mol
# GULP energy per Si atom -12407.778073 kJ/mol
# Density = 2.062362 g / cm^3
# Si number density = 20.670663 Si / 1000 Ang^3
#
#
#
# Elastic Constant Matrix: (Units=GPa)
#
#
# Indices 1 2 3 4 5 6 
#
# 1 128.6733 34.8139 70.2521 0.0000 -3.6620 0.0000
# 2 34.8139 57.5415 22.1080 0.0000 0.6414 0.0000
# 3 70.2521 22.1080 64.7835 0.0000 16.1091 0.0000
# 4 0.0000 0.0000 0.0000 21.4976 0.0000 1.4022
# 5 -3.6620 0.6414 16.1091 0.0000 38.4587 0.0000
# 6 0.0000 0.0000 0.0000 1.4022 0.0000 26.8882
#
#
#
# Elastic Compliance Matrix: (Units=1/GPa)
#
#
# Indices 1 2 3 4 5 6 
#
# 1 0.026125 -0.004165 -0.030747 0.000000 0.015436 0.000000
# 2 -0.004165 0.020943 -0.002729 0.000000 0.000397 0.000000
# 3 -0.030747 -0.002729 0.056290 0.000000 -0.026460 0.000000
# 4 0.000000 0.000000 0.000000 0.046676 0.000000 -0.002434
# 5 0.015436 0.000397 -0.026460 0.000000 0.038548 0.000000
# 6 0.000000 0.000000 0.000000 -0.002434 0.000000 0.037318
#
#
# Mechanical properties :
#
#
# Convention : Reuss Voigt Hill
#
# Bulk Modulus (GPa) = 35.61939 56.14959 45.88449
# Shear Modulus (GPa) = 16.10093 25.62385 20.86239
#
# Velocity S-wave (km/s) = 2.79395 3.52465 3.18036
# Velocity P-wave (km/s) = 5.26094 6.61718 5.97765
#
# Compressibility (1/GPa) = 0.02807459
#
# Stress axis : x y z
#
# Youngs Moduli (GPa) = 38.27755 47.74916 17.76516
#
# Poissons Ratio (x) = 0.19887 0.54623
# Poissons Ratio (y) = 0.15942 0.04849
# Poissons Ratio (z) = 1.17693 0.13033
#
# Static dielectric constant tensor:
#      x y z
#    x 3.747200 0.000000 0.076960 
#    y 0.000000 3.648440 0.000000 
#    z 0.076960 0.000000 3.753010 
# 
# 
# High freq. dielectric constant tensor:
#      x y z
#    x 1.810310 0.000000 0.010950 
#    y 0.000000 1.808670 0.000000 
#    z 0.010950 0.000000 1.813420 
# 
# From -- ./inp_files/66588.got.cif
#   From: 2010.06.25/outbox.cif.g09.slc.cpg/sg10_34_cif.got.tgz:66588.got - 2010.06.27 22:07:45.
