data_PCOD8067402
_publ_section_title
;
Structure prediction by ZEFSAII (Michael W. Deem and Ramdas Pophale) SiO2 
 PCOD8067402
Probable space group: P 2/M
;
_chemical_formula_sum "Si O2"
_cell_formula_units_Z 24
_cell_length_a 16.165140
_cell_length_b 13.613444
_cell_length_c 10.246541
_cell_angle_alpha 90.000000
_cell_angle_beta 143.540486
_cell_angle_gamma 90.000000
_cell_volume 1339.976956
_symmetry_space_group_name_H-M "P 2/M"
_symmetry_group_IT_number 10
_symmetry_cell_setting 'monoclinic'
loop_
_space_group_symop_operation_xyz
x,y,z
-x,y,-z
-x,-y,-z
x,-y,z
loop_
_atom_site_type_symbol
_atom_site_label
_atom_site_fract_x
_atom_site_fract_y
_atom_site_fract_z
Si Si1 0.728520 0.609852 0.808084
Si Si2 0.407802 0.885965 0.265534
Si Si3 0.560550 0.801356 0.217104
Si Si4 0.157722 0.883170 0.340643
Si Si5 0.138492 0.806549 0.026873
Si Si6 0.514623 0.609740 0.304713
O O1 0.790657 0.500000 0.902829
O O2 0.641076 0.616921 0.565327
O O3 0.629260 0.635667 0.804528
O O4 0.855025 0.687545 0.958765
O O5 0.500000 0.838156 0.500000
O O6 0.479714 0.866645 0.219558
O O7 0.393603 0.000000 0.272894
O O8 0.253576 0.840876 0.069341
O O9 0.721850 0.832408 0.422347
O O10 0.540850 0.685923 0.221505
O O11 0.500000 0.826669 0.000000
O O12 0.012924 0.840425 0.212735
O O13 0.161903 0.000000 0.361998
O O14 0.175387 0.855666 0.211928
O O15 0.506827 0.500000 0.235516
#
# Coordination Sequence:
#
# PCOD8067402 Si02
#       6
#     4   4   4   4   4   4
#     4   9  16  30  59  90 112 138 182 241 289 324
#     4  11  20  34  59  84 107 146 200 237 271 336
#     4  12  24  38  57  85 118 152 187 240 289 331
#     4  11  23  37  54  83 120 153 184 235 293 330
#     4  11  19  35  59  85 114 146 188 236 281 339
#     4   9  17  33  56  85 114 144 186 234 282 333
#
# _framework density 17.910755999999999
#
# number of rings (size 3 to 8) (size 9 to 14) (size 15 to 20)
#    0.000    1.500    5.000    3.500    0.000    1.667 
#    0.000    3.333    0.000    2.000    0.000    2.333 
#    0.000    0.000    0.000    0.000    0.000    0.000 
#
# Total GULP energy -297610.649191 kJ/mol
# GULP energy per Si atom -12400.443716 kJ/mol
# Density = 1.786999 g / cm^3
# Si number density = 17.910756 Si / 1000 Ang^3
#
#
#
# Elastic Constant Matrix: (Units=GPa)
#
#
# Indices 1 2 3 4 5 6 
#
# 1 71.7442 29.4745 48.3335 0.0000 10.3008 0.0000
# 2 29.4745 113.4990 33.6156 0.0000 11.0365 0.0000
# 3 48.3335 33.6156 101.5476 0.0000 7.1169 0.0000
# 4 0.0000 0.0000 0.0000 16.4919 0.0000 9.6568
# 5 10.3008 11.0365 7.1169 0.0000 28.3720 0.0000
# 6 0.0000 0.0000 0.0000 9.6568 0.0000 31.6548
#
#
#
# Elastic Compliance Matrix: (Units=1/GPa)
#
#
# Indices 1 2 3 4 5 6 
#
# 1 0.021864 -0.002484 -0.009258 0.000000 -0.004649 0.000000
# 2 -0.002484 0.010315 -0.002051 0.000000 -0.002597 0.000000
# 3 -0.009258 -0.002051 0.014904 0.000000 0.000421 0.000000
# 4 0.000000 0.000000 0.000000 0.073823 0.000000 -0.022521
# 5 -0.004649 -0.002597 0.000421 0.000000 0.037839 0.000000
# 6 0.000000 0.000000 0.000000 -0.022521 0.000000 0.038461
#
#
# Mechanical properties :
#
#
# Convention : Reuss Voigt Hill
#
# Bulk Modulus (GPa) = 51.28878 56.62645 53.95761
# Shear Modulus (GPa) = 21.61787 26.99486 24.30637
#
# Velocity S-wave (km/s) = 3.47793 3.88646 3.68786
# Velocity P-wave (km/s) = 6.69521 7.19889 6.95161
#
# Compressibility (1/GPa) = 0.01949744
#
# Stress axis : x y z
#
# Youngs Moduli (GPa) = 45.73820 96.94192 67.09760
#
# Poissons Ratio (x) = 0.24076 0.62122
# Poissons Ratio (y) = 0.11359 0.13760
# Poissons Ratio (z) = 0.42346 0.19880
#
# Static dielectric constant tensor:
#      x y z
#    x 3.188680 0.000000 0.242670 
#    y 0.000000 3.685750 0.000000 
#    z 0.242670 0.000000 3.018800 
# 
# 
# High freq. dielectric constant tensor:
#      x y z
#    x 1.678280 0.000000 0.020580 
#    y 0.000000 1.718110 0.000000 
#    z 0.020580 0.000000 1.650860 
# 
# From -- ./inp_files/29654.got.cif
#   From: 2010.06.25/outbox.cif.g09.slc.cpg/sg10_15_cif.got.tgz:29654.got - 2010.06.27 22:07:45.
