data_PCOD8067743
_publ_section_title
;
Structure prediction by ZEFSAII (Michael W. Deem and Ramdas Pophale) SiO2 
 PCOD8067743
Probable space group: P 2/M
;
_chemical_formula_sum "Si O2"
_cell_formula_units_Z 20
_cell_length_a 11.112416
_cell_length_b 11.550148
_cell_length_c 13.545353
_cell_angle_alpha 90.000000
_cell_angle_beta 148.963146
_cell_angle_gamma 90.000000
_cell_volume 896.376122
_symmetry_space_group_name_H-M "P 2/M"
_symmetry_group_IT_number 10
_symmetry_cell_setting 'monoclinic'
loop_
_space_group_symop_operation_xyz
x,y,z
-x,y,-z
-x,-y,-z
x,-y,z
loop_
_atom_site_type_symbol
_atom_site_label
_atom_site_fract_x
_atom_site_fract_y
_atom_site_fract_z
Si Si1 0.693623 0.369377 0.220726
Si Si2 0.478318 0.864293 0.598994
Si Si3 0.328714 0.264588 0.089060
Si Si4 0.044391 0.274883 0.321253
Si Si5 0.781570 0.500000 0.917138
Si Si6 0.333688 0.500000 0.476197
O O1 0.741164 0.500000 0.293183
O O2 0.594319 0.286018 0.237736
O O3 0.934377 0.315522 0.348436
O O4 0.500000 0.374340 0.000000
O O5 0.500000 0.823235 0.500000
O O6 0.670458 0.803034 0.805624
O O7 0.228064 0.828395 0.465747
O O8 0.518256 0.000000 0.636651
O O9 0.196148 0.387018 0.001634
O O10 0.155569 0.210108 0.885897
O O11 0.175009 0.385396 0.364992
O O12 0.516645 0.500000 0.692947
O O13 0.000000 0.500000 0.000000
O O14 0.500000 0.500000 0.500000
#
# Coordination Sequence:
#
# PCOD8067743 Si02
#       6
#     4   4   4   4   2   2
#     4   9  18  36  62  99 139 172 205 250 322 403
#     4  11  27  48  65  88 125 172 231 283 325 380
#     4  11  23  41  66  98 134 173 214 262 329 393
#     4  11  22  40  67  97 133 170 213 267 319 390
#     4  12  24  35  60 100 138 172 204 257 324 398
#     4  12  22  37  58  98 139 169 210 260 323 389
#
# _framework density 22.312062999999998
#
# number of rings (size 3 to 8) (size 9 to 14) (size 15 to 20)
#    0.000    1.200    4.000    2.400    2.800    1.600 
#    0.000    6.000    0.000    3.600    0.000    0.000 
#    0.000    0.000    0.000    0.000    0.000    0.000 
#
# Total GULP energy -247843.898363 kJ/mol
# GULP energy per Si atom -12392.194918 kJ/mol
# Density = 2.226128 g / cm^3
# Si number density = 22.312063 Si / 1000 Ang^3
#
#
#
# Elastic Constant Matrix: (Units=GPa)
#
#
# Indices 1 2 3 4 5 6 
#
# 1 123.1383 30.2928 13.0446 0.0000 13.2271 0.0000
# 2 30.2928 75.9284 15.6102 0.0000 -4.9634 0.0000
# 3 13.0446 15.6102 82.3140 0.0000 8.5012 0.0000
# 4 0.0000 0.0000 0.0000 11.7821 0.0000 -1.9233
# 5 13.2271 -4.9634 8.5012 0.0000 41.3198 0.0000
# 6 0.0000 0.0000 0.0000 -1.9233 0.0000 25.9622
#
#
#
# Elastic Compliance Matrix: (Units=1/GPa)
#
#
# Indices 1 2 3 4 5 6 
#
# 1 0.009499 -0.003931 -0.000406 0.000000 -0.003430 0.000000
# 2 -0.003931 0.015535 -0.002703 0.000000 0.003681 0.000000
# 3 -0.000406 -0.002703 0.013022 0.000000 -0.002874 0.000000
# 4 0.000000 0.000000 0.000000 0.085914 0.000000 0.006365
# 5 -0.003430 0.003681 -0.002874 0.000000 0.026333 0.000000
# 6 0.000000 0.000000 0.000000 0.006365 0.000000 0.038989
#
#
# Mechanical properties :
#
#
# Convention : Reuss Voigt Hill
#
# Bulk Modulus (GPa) = 41.70641 44.36400 43.03521
# Shear Modulus (GPa) = 23.65590 30.64169 27.14880
#
# Velocity S-wave (km/s) = 3.25965 3.70986 3.49202
# Velocity P-wave (km/s) = 5.73585 6.18687 5.96562
#
# Compressibility (1/GPa) = 0.02397713
#
# Stress axis : x y z
#
# Youngs Moduli (GPa) = 105.27109 64.37139 76.79084
#
# Poissons Ratio (x) = 0.25302 0.03116
# Poissons Ratio (y) = 0.41378 0.20759
# Poissons Ratio (z) = 0.04272 0.17401
#
# Static dielectric constant tensor:
#      x y z
#    x 4.349030 0.000000 -0.121940 
#    y 0.000000 3.676440 0.000000 
#    z -0.121940 0.000000 4.194510 
# 
# 
# High freq. dielectric constant tensor:
#      x y z
#    x 1.886340 0.000000 0.000520 
#    y 0.000000 1.831600 0.000000 
#    z 0.000520 0.000000 1.902640 
# 
# From -- ./inp_files/64729.got.cif
#   From: 2010.06.25/outbox.cif.g09.slc.cpg/sg10_33_cif.got.tgz:64729.got - 2010.06.27 22:07:45.
