data_PCOD8067496
_publ_section_title
;
Structure prediction by ZEFSAII (Michael W. Deem and Ramdas Pophale) SiO2 
 PCOD8067496
Probable space group: P 2/M
;
_chemical_formula_sum "Si O2"
_cell_formula_units_Z 24
_cell_length_a 10.964927
_cell_length_b 13.646670
_cell_length_c 10.960559
_cell_angle_alpha 90.000000
_cell_angle_beta 50.049636
_cell_angle_gamma 90.000000
_cell_volume 1257.287291
_symmetry_space_group_name_H-M "P 2/M"
_symmetry_group_IT_number 10
_symmetry_cell_setting 'monoclinic'
loop_
_space_group_symop_operation_xyz
x,y,z
-x,y,-z
-x,-y,-z
x,-y,z
loop_
_atom_site_type_symbol
_atom_site_label
_atom_site_fract_x
_atom_site_fract_y
_atom_site_fract_z
Si Si1 0.073418 0.614413 0.279708
Si Si2 0.765307 0.691779 0.587693
Si Si3 0.663405 0.889895 0.740003
Si Si4 0.843007 0.293665 0.021724
Si Si5 0.542859 0.385798 0.336355
Si Si6 0.293970 0.890366 0.007847
O O1 0.047047 0.500000 0.316740
O O2 0.193950 0.654441 0.303399
O O3 0.902328 0.666768 0.402719
O O4 0.145471 0.633962 0.100917
O O5 0.746775 0.809979 0.599701
O O6 0.603124 0.637951 0.658035
O O7 0.476442 0.867957 0.859524
O O8 0.698139 0.000000 0.668611
O O9 0.733481 0.878459 0.830427
O O10 0.696341 0.325399 0.198585
O O11 0.820500 0.182764 0.990650
O O12 0.000000 0.300734 0.000000
O O13 0.500000 0.352279 0.500000
O O14 0.584059 0.500000 0.303694
O O15 0.248948 0.000000 0.995386
#
# Coordination Sequence:
#
# PCOD8067496 Si02
#       6
#     4   4   4   4   4   4
#     4  11  24  39  58  89 126 161 195 246 303 348
#     4  11  20  39  63  88 121 156 197 246 297 353
#     4   9  17  34  64  92 117 150 194 248 302 354
#     4  12  24  39  60  87 121 162 202 248 297 353
#     4  11  24  41  62  86 116 159 206 247 294 358
#     4   9  18  36  60  90 120 151 194 247 304 355
#
# _framework density 19.088716000000002
#
# number of rings (size 3 to 8) (size 9 to 14) (size 15 to 20)
#    0.000    1.500    3.333    4.500    0.000    3.667 
#    0.000    4.167    0.000    4.000    0.000    0.000 
#    0.000    0.000    0.000    0.000    0.000    0.000 
#
# Total GULP energy -297685.781902 kJ/mol
# GULP energy per Si atom -12403.574246 kJ/mol
# Density = 1.904527 g / cm^3
# Si number density = 19.088716 Si / 1000 Ang^3
#
#
#
# Elastic Constant Matrix: (Units=GPa)
#
#
# Indices 1 2 3 4 5 6 
#
# 1 104.7953 11.2646 26.5288 0.0000 -9.4932 0.0000
# 2 11.2646 94.3117 19.7849 0.0000 0.4667 0.0000
# 3 26.5288 19.7849 71.6554 0.0000 -1.8040 0.0000
# 4 0.0000 0.0000 0.0000 33.6152 0.0000 -4.8193
# 5 -9.4932 0.4667 -1.8040 0.0000 23.2043 0.0000
# 6 0.0000 0.0000 0.0000 -4.8193 0.0000 19.2412
#
#
#
# Elastic Compliance Matrix: (Units=1/GPa)
#
#
# Indices 1 2 3 4 5 6 
#
# 1 0.010941 -0.000531 -0.003799 0.000000 0.004191 0.000000
# 2 -0.000531 0.011286 -0.002937 0.000000 -0.000672 0.000000
# 3 -0.003799 -0.002937 0.016167 0.000000 -0.000238 0.000000
# 4 0.000000 0.000000 0.000000 0.030856 0.000000 0.007729
# 5 0.004191 -0.000672 -0.000238 0.000000 0.044805 0.000000
# 6 0.000000 0.000000 0.000000 0.007729 0.000000 0.053908
#
#
# Mechanical properties :
#
#
# Convention : Reuss Voigt Hill
#
# Bulk Modulus (GPa) = 41.90786 42.87989 42.39388
# Shear Modulus (GPa) = 26.25381 29.42440 27.83910
#
# Velocity S-wave (km/s) = 3.71260 3.93040 3.82305
# Velocity P-wave (km/s) = 6.35451 6.56579 6.46101
#
# Compressibility (1/GPa) = 0.02386187
#
# Stress axis : x y z
#
# Youngs Moduli (GPa) = 91.40150 88.60611 61.85495
#
# Poissons Ratio (x) = 0.04702 0.23496
# Poissons Ratio (y) = 0.04850 0.18165
# Poissons Ratio (z) = 0.34719 0.26020
#
# Static dielectric constant tensor:
#      x y z
#    x 3.423110 0.000000 -0.018810 
#    y 0.000000 3.621950 0.000000 
#    z -0.018810 0.000000 3.405030 
# 
# 
# High freq. dielectric constant tensor:
#      x y z
#    x 1.738220 0.000000 -0.005120 
#    y 0.000000 1.754880 0.000000 
#    z -0.005120 0.000000 1.731960 
# 
# From -- ./inp_files/46520.got.cif
#   From: 2010.06.25/outbox.cif.g09.slc.cpg/sg10_24_cif.got.tgz:46520.got - 2010.06.27 22:07:45.
