data_PCOD8067626
_publ_section_title
;
Structure prediction by ZEFSAII (Michael W. Deem and Ramdas Pophale) SiO2 
 PCOD8067626
Probable space group: P 2/M
;
_chemical_formula_sum "Si O2"
_cell_formula_units_Z 28
_cell_length_a 11.027156
_cell_length_b 16.047459
_cell_length_c 9.032086
_cell_angle_alpha 90.000000
_cell_angle_beta 117.901649
_cell_angle_gamma 90.000000
_cell_volume 1412.499644
_symmetry_space_group_name_H-M "P 2/M"
_symmetry_group_IT_number 10
_symmetry_cell_setting 'monoclinic'
loop_
_space_group_symop_operation_xyz
x,y,z
-x,y,-z
-x,-y,-z
x,-y,z
loop_
_atom_site_type_symbol
_atom_site_label
_atom_site_fract_x
_atom_site_fract_y
_atom_site_fract_z
Si Si1 0.338529 0.644018 0.414726
Si Si2 0.367084 0.829307 0.519675
Si Si3 0.132208 0.094327 0.224597
Si Si4 0.153163 0.350276 0.023625
Si Si5 0.633450 0.905378 0.174451
Si Si6 0.886263 0.500000 0.214063
Si Si7 0.155812 0.166262 0.930289
Si Si8 0.807490 0.500000 0.506322
O O1 0.500000 0.625234 0.500000
O O2 0.311686 0.736891 0.457811
O O3 0.265473 0.630990 0.214576
O O4 0.274786 0.582323 0.497648
O O5 0.500000 0.849642 0.500000
O O6 0.248519 0.894832 0.412956
O O7 0.399333 0.843616 0.709254
O O8 0.006394 0.155282 0.190367
O O9 0.078180 0.000000 0.192889
O O10 0.197994 0.117373 0.103445
O O11 0.165008 0.419719 0.904461
O O12 0.190150 0.263306 0.967284
O O13 0.000000 0.348730 0.000000
O O14 0.764577 0.871398 0.162397
O O15 0.662812 0.000000 0.243400
O O16 0.500000 0.901700 0.000000
O O17 0.819889 0.500000 0.337394
O O18 0.049935 0.500000 0.323535
#
# Coordination Sequence:
#
# PCOD8067626 Si02
#       8
#     4   4   4   4   4   2   4   2
#     4  11  24  43  68  97 131 168 217 268 323 386
#     4  11  24  42  64  94 126 172 219 263 325 395
#     4  11  21  38  63  92 127 166 216 272 317 379
#     4  12  21  44  69  98 129 177 218 260 322 397
#     4  11  25  42  63  91 130 176 219 270 326 382
#     4  11  26  40  72 102 132 168 213 264 325 387
#     4  11  22  39  63  95 127 166 218 262 324 379
#     4  11  24  45  66 103 134 167 210 270 323 387
#
# _framework density 19.823011999999999
#
# number of rings (size 3 to 8) (size 9 to 14) (size 15 to 20)
#    0.000    0.857    4.286    3.857    4.000    2.857 
#    0.000    2.857    0.000    0.000    0.000    0.000 
#    0.000    0.000    0.000    0.000    0.000    0.000 
#
# Total GULP energy -347330.433653 kJ/mol
# GULP energy per Si atom -12404.658345 kJ/mol
# Density = 1.977789 g / cm^3
# Si number density = 19.823012 Si / 1000 Ang^3
#
#
#
# Elastic Constant Matrix: (Units=GPa)
#
#
# Indices 1 2 3 4 5 6 
#
# 1 108.9882 42.0182 57.6118 0.0000 -8.5737 0.0000
# 2 42.0182 116.0662 56.3464 0.0000 -7.0684 0.0000
# 3 57.6118 56.3464 125.6210 0.0000 -0.0132 0.0000
# 4 0.0000 0.0000 0.0000 41.5511 0.0000 -4.6412
# 5 -8.5737 -7.0684 -0.0132 0.0000 35.2858 0.0000
# 6 0.0000 0.0000 0.0000 -4.6412 0.0000 27.3605
#
#
#
# Elastic Compliance Matrix: (Units=1/GPa)
#
#
# Indices 1 2 3 4 5 6 
#
# 1 0.012797 -0.002071 -0.004940 0.000000 0.002693 0.000000
# 2 -0.002071 0.011523 -0.004219 0.000000 0.001804 0.000000
# 3 -0.004940 -0.004219 0.012118 0.000000 -0.002041 0.000000
# 4 0.000000 0.000000 0.000000 0.024532 0.000000 0.004161
# 5 0.002693 0.001804 -0.002041 0.000000 0.029355 0.000000
# 6 0.000000 0.000000 0.000000 0.004161 0.000000 0.037255
#
#
# Mechanical properties :
#
#
# Convention : Reuss Voigt Hill
#
# Bulk Modulus (GPa) = 71.53293 73.62534 72.57914
# Shear Modulus (GPa) = 32.32114 33.81940 33.07027
#
# Velocity S-wave (km/s) = 4.04231 4.13494 4.08889
# Velocity P-wave (km/s) = 7.61257 7.74719 7.68017
#
# Compressibility (1/GPa) = 0.01397958
#
# Stress axis : x y z
#
# Youngs Moduli (GPa) = 78.14615 86.78021 82.52160
#
# Poissons Ratio (x) = 0.17968 0.40763
# Poissons Ratio (y) = 0.16181 0.34815
# Poissons Ratio (z) = 0.38602 0.36612
#
# Static dielectric constant tensor:
#      x y z
#    x 3.543060 0.000000 0.045100 
#    y 0.000000 3.796030 0.000000 
#    z 0.045100 0.000000 3.665160 
# 
# 
# High freq. dielectric constant tensor:
#      x y z
#    x 1.768370 0.000000 0.008000 
#    y 0.000000 1.786690 0.000000 
#    z 0.008000 0.000000 1.779610 
# 
# From -- ./inp_files/25461.got.cif
#   From: 2010.06.25/outbox.cif.g09.slc.cpg/sg10_13_cif.got.tgz:25461.got - 2010.06.27 22:07:45.
