data_PCOD8067473
_publ_section_title
;
Structure prediction by ZEFSAII (Michael W. Deem and Ramdas Pophale) SiO2 
 PCOD8067473
Probable space group: P 2/M
;
_chemical_formula_sum "Si O2"
_cell_formula_units_Z 32
_cell_length_a 13.648035
_cell_length_b 14.124446
_cell_length_c 16.918389
_cell_angle_alpha 90.000000
_cell_angle_beta 36.024752
_cell_angle_gamma 90.000000
_cell_volume 1918.126993
_symmetry_space_group_name_H-M "P 2/M"
_symmetry_group_IT_number 10
_symmetry_cell_setting 'monoclinic'
loop_
_space_group_symop_operation_xyz
x,y,z
-x,y,-z
-x,-y,-z
x,-y,z
loop_
_atom_site_type_symbol
_atom_site_label
_atom_site_fract_x
_atom_site_fract_y
_atom_site_fract_z
Si Si1 0.691861 0.202020 0.714800
Si Si2 0.435922 0.396480 0.166802
Si Si3 0.339901 0.888871 0.961524
Si Si4 0.817209 0.887233 0.098761
Si Si5 0.481789 0.887728 0.599754
Si Si6 0.134507 0.201928 0.231224
Si Si7 0.760749 0.396929 0.867515
Si Si8 0.195909 0.888180 0.512494
O O1 0.635722 0.310672 0.733803
O O2 0.800284 0.193172 0.722545
O O3 0.807459 0.166581 0.568286
O O4 0.532990 0.134192 0.824065
O O5 0.405962 0.500000 0.226915
O O6 0.346311 0.394628 0.141642
O O7 0.633516 0.380916 0.023635
O O8 0.274934 0.840339 0.082959
O O9 0.319694 0.000000 0.984463
O O10 0.235326 0.852406 0.954046
O O11 0.684913 0.847972 0.249490
O O12 0.817192 0.000000 0.101631
O O13 0.000000 0.846557 0.000000
O O14 0.500000 0.844372 0.500000
O O15 0.640755 0.856833 0.546778
O O16 0.471761 0.000000 0.601164
O O17 0.105421 0.311867 0.224551
O O18 0.963408 0.144769 0.332833
O O19 0.849819 0.500000 0.818120
O O20 0.188389 0.000000 0.503118
#
# Coordination Sequence:
#
# PCOD8067473 Si02
#       8
#     4   4   4   4   4   4   4   4
#     4  11  20  34  49  67 100 137 172 202 237 284
#     4   8  14  27  49  71  90 119 160 209 257 288
#     4  11  21  32  47  70 100 131 169 209 237 278
#     4   9  18  32  50  70  91 118 157 211 260 283
#     4   9  18  33  51  67  88 123 163 204 252 294
#     4  11  22  32  47  72  98 137 176 199 231 286
#     4   8  14  28  48  69  93 120 158 210 257 284
#     4  11  23  36  47  66 102 141 171 201 237 284
#
# _framework density 16.682941
#
# number of rings (size 3 to 8) (size 9 to 14) (size 15 to 20)
#    0.000    2.250    2.500    2.250    1.750    3.000 
#    0.000    0.625    0.000    3.000    0.000    0.000 
#    0.000    6.000    0.000    0.000    0.000    0.000 
#
# Total GULP energy -396669.948072 kJ/mol
# GULP energy per Si atom -12395.935877 kJ/mol
# Density = 1.664497 g / cm^3
# Si number density = 16.682941 Si / 1000 Ang^3
#
#
#
# Elastic Constant Matrix: (Units=GPa)
#
#
# Indices 1 2 3 4 5 6 
#
# 1 54.7117 22.0567 25.1908 0.0000 -2.8626 0.0000
# 2 22.0567 83.6721 24.1451 0.0000 3.3031 0.0000
# 3 25.1908 24.1451 63.8499 0.0000 -2.3644 0.0000
# 4 0.0000 0.0000 0.0000 21.9969 0.0000 -3.8940
# 5 -2.8626 3.3031 -2.3644 0.0000 26.9150 0.0000
# 6 0.0000 0.0000 0.0000 -3.8940 0.0000 1.2602
#
#
#
# Elastic Compliance Matrix: (Units=1/GPa)
#
#
# Indices 1 2 3 4 5 6 
#
# 1 0.023582 -0.004096 -0.007668 0.000000 0.002337 0.000000
# 2 -0.004096 0.014246 -0.003865 0.000000 -0.002523 0.000000
# 3 -0.007668 -0.003865 0.020202 0.000000 0.001433 0.000000
# 4 0.000000 0.000000 0.000000 0.100361 0.000000 0.310125
# 5 0.002337 -0.002523 0.001433 0.000000 0.037838 0.000000
# 6 0.000000 0.000000 0.000000 0.310125 0.000000 1.751856
#
#
# Mechanical properties :
#
#
# Convention : Reuss Voigt Hill
#
# Bulk Modulus (GPa) = 37.35285 38.33544 37.84415
# Shear Modulus (GPa) = 2.51475 18.75715 10.63595
#
# Velocity S-wave (km/s) = 1.22909 3.35674 2.52768
# Velocity P-wave (km/s) = 4.94496 6.16866 5.59039
#
# Compressibility (1/GPa) = 0.02677172
#
# Stress axis : x y z
#
# Youngs Moduli (GPa) = 42.40544 70.19538 49.50079
#
# Poissons Ratio (x) = 0.28751 0.37959
# Poissons Ratio (y) = 0.17368 0.19131
# Poissons Ratio (z) = 0.32518 0.27128
#
# Static dielectric constant tensor:
#      x y z
#    x 2.985290 0.000000 0.020850 
#    y 0.000000 3.256850 0.000000 
#    z 0.020850 0.000000 3.181370 
# 
# 
# High freq. dielectric constant tensor:
#      x y z
#    x 1.614470 0.000000 0.001380 
#    y 0.000000 1.621160 0.000000 
#    z 0.001380 0.000000 1.643970 
# 
# From -- ./inp_files/35174.got.cif
#   From: 2010.06.25/outbox.cif.g09.slc.cpg/sg10_18_cif.got.tgz:35174.got - 2010.06.27 22:07:45.
