data_PCOD8067189
_publ_section_title
;
Structure prediction by ZEFSAII (Michael W. Deem and Ramdas Pophale) SiO2 
 PCOD8067189
Probable space group: P 2/M
;
_chemical_formula_sum "Si O2"
_cell_formula_units_Z 28
_cell_length_a 16.619601
_cell_length_b 10.621516
_cell_length_c 9.883285
_cell_angle_alpha 90.000000
_cell_angle_beta 52.328166
_cell_angle_gamma 90.000000
_cell_volume 1380.932781
_symmetry_space_group_name_H-M "P 2/M"
_symmetry_group_IT_number 10
_symmetry_cell_setting 'monoclinic'
loop_
_space_group_symop_operation_xyz
x,y,z
-x,y,-z
-x,-y,-z
x,-y,z
loop_
_atom_site_type_symbol
_atom_site_label
_atom_site_fract_x
_atom_site_fract_y
_atom_site_fract_z
Si Si1 0.461656 0.000000 0.387061
Si Si2 0.633927 0.358461 0.127170
Si Si3 0.094884 0.143416 0.807083
Si Si4 0.411619 0.737216 0.360587
Si Si5 0.744823 0.356574 0.280590
Si Si6 0.091698 0.855948 0.500215
Si Si7 0.596197 0.000000 0.998834
Si Si8 0.699715 0.753127 0.797688
O O1 0.500000 0.000000 0.500000
O O2 0.389307 0.119167 0.429165
O O3 0.560888 0.000000 0.189920
O O4 0.597897 0.500000 0.189066
O O5 0.532860 0.275187 0.239107
O O6 0.712653 0.317715 0.162476
O O7 0.691265 0.350360 0.924267
O O8 0.177470 0.250903 0.749352
O O9 0.058136 0.157251 0.690353
O O10 0.136334 0.000000 0.789561
O O11 0.000000 0.171356 0.000000
O O12 0.354715 0.644268 0.521415
O O13 0.373891 0.711997 0.247876
O O14 0.789550 0.500000 0.239214
O O15 0.186277 0.764437 0.374599
O O16 0.000000 0.809723 0.500000
O O17 0.121161 0.000000 0.435783
O O18 0.500000 0.000000 0.000000
O O19 0.666154 0.118453 0.901067
#
# Coordination Sequence:
#
# PCOD8067189 Si02
#       8
#     2   4   4   4   4   4   2   4
#     4  12  24  36  58  94 131 170 220 270 321 371
#     4  11  25  42  60  90 133 174 218 265 310 384
#     4  10  23  45  72  99 127 161 215 275 326 388
#     4  12  23  40  63  93 131 173 219 263 319 385
#     4  11  25  44  66  94 133 178 216 261 329 388
#     4  10  22  41  65  96 130 163 204 266 338 389
#     4  12  20  38  57  90 132 170 208 254 330 382
#     4  12  22  39  64  91 126 170 213 267 320 389
#
# _framework density 20.276150000000001
#
# number of rings (size 3 to 8) (size 9 to 14) (size 15 to 20)
#    0.000    0.857    5.000    2.143    3.000    3.143 
#    2.571    0.000    0.000    0.857    0.000    0.000 
#    0.000    0.000    0.000    0.000    0.000    0.000 
#
# Total GULP energy -347269.660916 kJ/mol
# GULP energy per Si atom -12402.487890 kJ/mol
# Density = 2.023000 g / cm^3
# Si number density = 20.276150 Si / 1000 Ang^3
#
#
#
# Elastic Constant Matrix: (Units=GPa)
#
#
# Indices 1 2 3 4 5 6 
#
# 1 109.0142 44.5607 42.7471 0.0000 20.0943 0.0000
# 2 44.5607 78.5280 23.2352 0.0000 4.2072 0.0000
# 3 42.7471 23.2352 127.6254 0.0000 16.9678 0.0000
# 4 0.0000 0.0000 0.0000 27.3942 0.0000 1.9758
# 5 20.0943 4.2072 16.9678 0.0000 43.4905 0.0000
# 6 0.0000 0.0000 0.0000 1.9758 0.0000 26.0058
#
#
#
# Elastic Compliance Matrix: (Units=1/GPa)
#
#
# Indices 1 2 3 4 5 6 
#
# 1 0.013921 -0.006821 -0.002799 0.000000 -0.004680 0.000000
# 2 -0.006821 0.016807 -0.001032 0.000000 0.001928 0.000000
# 3 -0.002799 -0.001032 0.009256 0.000000 -0.002218 0.000000
# 4 0.000000 0.000000 0.000000 0.036705 0.000000 -0.002789
# 5 -0.004680 0.001928 -0.002218 0.000000 0.025835 0.000000
# 6 0.000000 0.000000 0.000000 -0.002789 0.000000 0.038665
#
#
# Mechanical properties :
#
#
# Convention : Reuss Voigt Hill
#
# Bulk Modulus (GPa) = 53.52942 59.58372 56.55657
# Shear Modulus (GPa) = 29.63523 33.01976 31.32749
#
# Velocity S-wave (km/s) = 3.82721 4.03985 3.93497
# Velocity P-wave (km/s) = 6.78141 7.15614 6.97130
#
# Compressibility (1/GPa) = 0.01868132
#
# Stress axis : x y z
#
# Youngs Moduli (GPa) = 71.83179 59.50010 108.04304
#
# Poissons Ratio (x) = 0.40584 0.30239
# Poissons Ratio (y) = 0.48995 0.11145
# Poissons Ratio (z) = 0.20104 0.06138
#
# Static dielectric constant tensor:
#      x y z
#    x 3.536710 0.000000 0.175370 
#    y 0.000000 3.715070 0.000000 
#    z 0.175370 0.000000 3.916310 
# 
# 
# High freq. dielectric constant tensor:
#      x y z
#    x 1.779260 0.000000 0.017240 
#    y 0.000000 1.788700 0.000000 
#    z 0.017240 0.000000 1.804510 
# 
# From -- ./inp_files/28522.got.cif
#   From: 2010.06.25/outbox.cif.g09.slc.cpg/sg10_15_cif.got.tgz:28522.got - 2010.06.27 22:07:45.
