data_PCOD8067422
_publ_section_title
;
Structure prediction by ZEFSAII (Michael W. Deem and Ramdas Pophale) SiO2 
 PCOD8067422
Probable space group: P 2/M
;
_chemical_formula_sum "Si O2"
_cell_formula_units_Z 28
_cell_length_a 11.769937
_cell_length_b 8.771553
_cell_length_c 19.729858
_cell_angle_alpha 90.000000
_cell_angle_beta 50.778763
_cell_angle_gamma 90.000000
_cell_volume 1578.024883
_symmetry_space_group_name_H-M "P 2/M"
_symmetry_group_IT_number 10
_symmetry_cell_setting 'monoclinic'
loop_
_space_group_symop_operation_xyz
x,y,z
-x,y,-z
-x,-y,-z
x,-y,z
loop_
_atom_site_type_symbol
_atom_site_label
_atom_site_fract_x
_atom_site_fract_y
_atom_site_fract_z
Si Si1 0.112386 0.834671 0.902099
Si Si2 0.374318 0.175325 0.992948
Si Si3 0.814343 0.820988 0.311828
Si Si4 0.444034 0.680231 0.678332
Si Si5 0.389704 0.677383 0.847906
Si Si6 0.066241 0.680072 0.146438
Si Si7 0.354059 0.332437 0.511875
O O1 0.224285 0.724160 0.897206
O O2 0.036709 0.732628 0.874920
O O3 0.174756 0.000000 0.850614
O O4 0.000000 0.885888 0.000000
O O5 0.440778 0.235758 0.896482
O O6 0.331620 0.000000 0.999186
O O7 0.500000 0.200370 0.000000
O O8 0.230673 0.259897 0.074952
O O9 0.702822 0.762205 0.294720
O O10 0.757454 0.780737 0.408812
O O11 0.977754 0.747661 0.244619
O O12 0.828324 0.000000 0.300162
O O13 0.416204 0.500000 0.679475
O O14 0.474715 0.721441 0.745845
O O15 0.591336 0.730671 0.582064
O O16 0.402863 0.500000 0.858824
O O17 0.074559 0.500000 0.148750
O O18 0.500000 0.348160 0.500000
O O19 0.280566 0.500000 0.532507
#
# Coordination Sequence:
#
# PCOD8067422 Si02
#       7
#     4   4   4   4   4   4   4
#     4  11  21  32  49  74 106 137 169 210 259 308
#     4  11  25  43  58  74 101 135 172 218 268 312
#     4  11  20  29  46  73 106 140 174 212 254 306
#     4   9  18  31  47  71 105 142 175 210 253 301
#     4  11  21  33  54  79 105 138 176 213 254 308
#     4  12  23  35  54  76 102 136 176 216 257 310
#     4   8  15  29  45  64 100 143 176 207 247 299
#
# _framework density 17.743701000000001
#
# number of rings (size 3 to 8) (size 9 to 14) (size 15 to 20)
#    0.000    1.571    2.857    4.714    0.000    4.857 
#    0.000    0.000    0.000    0.000    0.000    1.000 
#    0.000    8.000    0.000    0.000    0.000    0.000 
#
# Total GULP energy -346888.796324 kJ/mol
# GULP energy per Si atom -12388.885583 kJ/mol
# Density = 1.770332 g / cm^3
# Si number density = 17.743701 Si / 1000 Ang^3
#
#
#
# Elastic Constant Matrix: (Units=GPa)
#
#
# Indices 1 2 3 4 5 6 
#
# 1 47.3381 31.4017 35.1456 0.0000 12.0856 0.0000
# 2 31.4017 116.1065 54.8208 0.0000 5.5793 0.0000
# 3 35.1456 54.8208 141.3605 0.0000 18.6881 0.0000
# 4 0.0000 0.0000 0.0000 -23.8973 0.0000 20.1240
# 5 12.0856 5.5793 18.6881 0.0000 10.7758 0.0000
# 6 0.0000 0.0000 0.0000 20.1240 0.0000 15.1438
#
#
#
# Elastic Compliance Matrix: (Units=1/GPa)
#
#
# Indices 1 2 3 4 5 6 
#
# 1 0.035703 -0.007278 -0.001633 0.000000 -0.033442 0.000000
# 2 -0.007278 0.012064 -0.004051 0.000000 0.008942 0.000000
# 3 -0.001633 -0.004051 0.011070 0.000000 -0.015269 0.000000
# 4 0.000000 0.000000 0.000000 -0.019747 0.000000 0.026242
# 5 -0.033442 0.008942 -0.015269 0.000000 0.152158 0.000000
# 6 0.000000 0.000000 0.000000 0.026242 0.000000 0.031162
#
#
# Mechanical properties :
#
#
# Convention : Reuss Voigt Hill
#
# Bulk Modulus (GPa) = 30.38374 60.83792 45.61083
# Shear Modulus (GPa) = 19.28231 12.63359 15.95795
#
# Velocity S-wave (km/s) = 3.30011 2.67124 3.00218
# Velocity P-wave (km/s) = 5.62866 6.62386 6.14643
#
# Compressibility (1/GPa) = 0.03291234
#
# Stress axis : x y z
#
# Youngs Moduli (GPa) = 28.00898 82.88890 90.33568
#
# Poissons Ratio (x) = 0.60327 0.14752
# Poissons Ratio (y) = 0.20385 0.36598
# Poissons Ratio (z) = 0.04574 0.33581
#
# Static dielectric constant tensor:
#      x y z
#    x 2.814700 0.000000 0.214980 
#    y 0.000000 3.365780 0.000000 
#    z 0.214980 0.000000 4.285430 
# 
# 
# High freq. dielectric constant tensor:
#      x y z
#    x 1.618930 0.000000 0.013550 
#    y 0.000000 1.701410 0.000000 
#    z 0.013550 0.000000 1.708530 
# 
# From -- ./inp_files/83307.got.cif
#   From: 2010.06.25/outbox.cif.g09.slc.cpg/sg10_42_cif.got.tgz:83307.got - 2010.06.27 22:07:45.
