data_PCOD8067435
_publ_section_title
;
Structure prediction by ZEFSAII (Michael W. Deem and Ramdas Pophale) SiO2 
 PCOD8067435
Probable space group: P 2/M
;
_chemical_formula_sum "Si O2"
_cell_formula_units_Z 28
_cell_length_a 8.821818
_cell_length_b 11.476993
_cell_length_c 20.130427
_cell_angle_alpha 90.000000
_cell_angle_beta 48.349782
_cell_angle_gamma 90.000000
_cell_volume 1522.948782
_symmetry_space_group_name_H-M "P 2/M"
_symmetry_group_IT_number 10
_symmetry_cell_setting 'monoclinic'
loop_
_space_group_symop_operation_xyz
x,y,z
-x,y,-z
-x,-y,-z
x,-y,z
loop_
_atom_site_type_symbol
_atom_site_label
_atom_site_fract_x
_atom_site_fract_y
_atom_site_fract_z
Si Si1 0.993138 0.772882 0.431064
Si Si2 0.299585 0.000000 0.639759
Si Si3 0.253538 0.000000 0.498415
Si Si4 0.565307 0.139625 0.730750
Si Si5 0.281076 0.363024 0.590269
Si Si6 0.830446 0.138938 0.900348
Si Si7 0.226924 0.222322 0.733137
Si Si8 0.485863 0.137029 0.901322
O O1 0.860934 0.884862 0.490067
O O2 0.892200 0.694678 0.404013
O O3 0.000000 0.703515 0.500000
O O4 0.207209 0.815562 0.341464
O O5 0.182845 0.113333 0.697878
O O6 0.292980 0.000000 0.563994
O O7 0.529251 0.000000 0.601631
O O8 0.429441 0.207107 0.716855
O O9 0.484625 0.181290 0.826212
O O10 0.551970 0.000000 0.726545
O O11 0.500000 0.318182 0.500000
O O12 0.261594 0.500000 0.587930
O O13 0.252023 0.332714 0.676868
O O14 0.685971 0.179406 0.881971
O O15 0.030495 0.220928 0.838162
O O16 0.882191 0.000000 0.884419
O O17 0.720427 0.175195 0.001269
O O18 0.497160 0.000000 0.900392
#
# Coordination Sequence:
#
# PCOD8067435 Si02
#       8
#     4   2   2   4   4   4   4   4
#     4  12  23  35  55  82 113 144 177 224 279 324
#     4  11  20  30  50  79 107 138 179 214 272 334
#     4  11  21  32  50  77 114 141 169 215 274 337
#     4  11  21  32  49  86 122 149 175 214 270 340
#     4  11  25  44  60  75 101 145 197 237 269 315
#     4   9  16  31  50  77 110 152 184 217 262 328
#     4  12  21  34  55  80 110 146 182 225 274 325
#     4   8  17  29  47  73 115 153 185 211 256 326
#
# _framework density 18.385383999999998
#
# number of rings (size 3 to 8) (size 9 to 14) (size 15 to 20)
#    0.000    1.429    3.571    4.500    0.000    0.857 
#    0.000    2.857    0.000    0.000    0.000   10.000 
#    0.000    0.000    0.000    0.000    0.000    0.000 
#
# Total GULP energy -347102.342109 kJ/mol
# GULP energy per Si atom -12396.512218 kJ/mol
# Density = 1.834354 g / cm^3
# Si number density = 18.385384 Si / 1000 Ang^3
#
#
#
# Elastic Constant Matrix: (Units=GPa)
#
#
# Indices 1 2 3 4 5 6 
#
# 1 105.1737 27.1777 47.5005 0.0000 5.9528 0.0000
# 2 27.1777 42.8924 20.4058 0.0000 1.5624 0.0000
# 3 47.5005 20.4058 116.8403 0.0000 1.0473 0.0000
# 4 0.0000 0.0000 0.0000 14.9906 0.0000 -1.6200
# 5 5.9528 1.5624 1.0473 0.0000 37.1274 0.0000
# 6 0.0000 0.0000 0.0000 -1.6200 0.0000 11.8770
#
#
#
# Elastic Compliance Matrix: (Units=1/GPa)
#
#
# Indices 1 2 3 4 5 6 
#
# 1 0.013130 -0.006244 -0.004232 0.000000 -0.001723 0.000000
# 2 -0.006244 0.028429 -0.002426 0.000000 -0.000127 0.000000
# 3 -0.004232 -0.002426 0.010699 0.000000 0.000479 0.000000
# 4 0.000000 0.000000 0.000000 0.067706 0.000000 0.009235
# 5 -0.001723 -0.000127 0.000479 0.000000 0.027202 0.000000
# 6 0.000000 0.000000 0.000000 0.009235 0.000000 0.085456
#
#
# Mechanical properties :
#
#
# Convention : Reuss Voigt Hill
#
# Bulk Modulus (GPa) = 37.79988 50.56381 44.18184
# Shear Modulus (GPa) = 18.70950 24.12051 21.41500
#
# Velocity S-wave (km/s) = 3.19349 3.62600 3.41660
# Velocity P-wave (km/s) = 5.84827 6.71509 6.29661
#
# Compressibility (1/GPa) = 0.02645511
#
# Stress axis : x y z
#
# Youngs Moduli (GPa) = 76.15903 35.17564 93.47028
#
# Poissons Ratio (x) = 0.21962 0.39559
# Poissons Ratio (y) = 0.47550 0.22672
# Poissons Ratio (z) = 0.32232 0.08532
#
# Static dielectric constant tensor:
#      x y z
#    x 3.684230 0.000000 0.186820 
#    y 0.000000 2.886180 0.000000 
#    z 0.186820 0.000000 4.141260 
# 
# 
# High freq. dielectric constant tensor:
#      x y z
#    x 1.726490 0.000000 0.002600 
#    y 0.000000 1.644820 0.000000 
#    z 0.002600 0.000000 1.732060 
# 
# From -- ./inp_files/82465.got.cif
#   From: 2010.06.25/outbox.cif.g09.slc.cpg/sg10_42_cif.got.tgz:82465.got - 2010.06.27 22:07:45.
