data_PCOD8067171
_publ_section_title
;
Structure prediction by ZEFSAII (Michael W. Deem and Ramdas Pophale) SiO2 
 PCOD8067171
Probable space group: P 2/M
;
_chemical_formula_sum "Si O2"
_cell_formula_units_Z 28
_cell_length_a 14.038023
_cell_length_b 15.430258
_cell_length_c 9.418153
_cell_angle_alpha 90.000000
_cell_angle_beta 140.036412
_cell_angle_gamma 90.000000
_cell_volume 1310.337715
_symmetry_space_group_name_H-M "P 2/M"
_symmetry_group_IT_number 10
_symmetry_cell_setting 'monoclinic'
loop_
_space_group_symop_operation_xyz
x,y,z
-x,y,-z
-x,-y,-z
x,-y,z
loop_
_atom_site_type_symbol
_atom_site_label
_atom_site_fract_x
_atom_site_fract_y
_atom_site_fract_z
Si Si1 0.940803 0.263173 0.275518
Si Si2 0.304753 0.603399 0.927035
Si Si3 0.510219 0.902272 0.169483
Si Si4 0.866270 0.674616 0.751869
Si Si5 0.370246 0.402962 0.690268
Si Si6 0.647040 0.183793 0.589798
Si Si7 0.782501 0.094620 0.993740
O O1 0.893525 0.171189 0.157304
O O2 0.000000 0.248432 0.500000
O O3 0.075486 0.291463 0.330927
O O4 0.814732 0.338161 0.125749
O O5 0.271749 0.500000 0.915722
O O6 0.468294 0.636549 0.165993
O O7 0.296242 0.631084 0.751370
O O8 0.614616 0.844483 0.390692
O O9 0.575652 0.000000 0.237902
O O10 0.500000 0.861114 0.000000
O O11 0.343967 0.903244 0.033626
O O12 0.742616 0.603270 0.570526
O O13 0.780155 0.747215 0.742869
O O14 0.000000 0.636149 0.000000
O O15 0.413231 0.500000 0.774038
O O16 0.500000 0.221361 0.500000
O O17 0.707706 0.104084 0.752691
O O18 0.861981 0.000000 0.087532
#
# Coordination Sequence:
#
# PCOD8067171 Si02
#       7
#     4   4   4   4   4   4   4
#     4  12  25  41  63  99 132 175 214 265 336 388
#     4   9  20  41  69 100 131 168 217 265 318 395
#     4   9  19  35  61  94 118 151 213 278 326 371
#     4  12  25  41  61  95 136 166 216 264 323 399
#     4   9  20  40  67  98 129 169 216 265 322 384
#     4  10  22  41  64  86 120 173 218 266 325 386
#     4  10  22  42  63  87 128 177 223 266 323 391
#
# _framework density 21.368537
#
# number of rings (size 3 to 8) (size 9 to 14) (size 15 to 20)
#    0.000    1.857    2.857    1.286    6.000    3.143 
#    0.000    2.143    0.000    2.143    0.000    0.000 
#    0.000    0.000    0.000    0.000    0.000    0.000 
#
# Total GULP energy -346979.535448 kJ/mol
# GULP energy per Si atom -12392.126266 kJ/mol
# Density = 2.131990 g / cm^3
# Si number density = 21.368537 Si / 1000 Ang^3
#
#
#
# Elastic Constant Matrix: (Units=GPa)
#
#
# Indices 1 2 3 4 5 6 
#
# 1 87.9260 28.8018 31.9730 0.0000 -6.0963 0.0000
# 2 28.8018 74.1433 29.4484 0.0000 7.4152 0.0000
# 3 31.9730 29.4484 153.2731 0.0000 -8.5197 0.0000
# 4 0.0000 0.0000 0.0000 29.0251 0.0000 -1.8305
# 5 -6.0963 7.4152 -8.5197 0.0000 36.8048 0.0000
# 6 0.0000 0.0000 0.0000 -1.8305 0.0000 13.6321
#
#
#
# Elastic Compliance Matrix: (Units=1/GPa)
#
#
# Indices 1 2 3 4 5 6 
#
# 1 0.013843 -0.004961 -0.001774 0.000000 0.002882 0.000000
# 2 -0.004961 0.016877 -0.002474 0.000000 -0.004795 0.000000
# 3 -0.001774 -0.002474 0.007477 0.000000 0.001935 0.000000
# 4 0.000000 0.000000 0.000000 0.034747 0.000000 0.004666
# 5 0.002882 -0.004795 0.001935 0.000000 0.029062 0.000000
# 6 0.000000 0.000000 0.000000 0.004666 0.000000 0.073983
#
#
# Mechanical properties :
#
#
# Convention : Reuss Voigt Hill
#
# Bulk Modulus (GPa) = 50.56049 55.08764 52.82406
# Shear Modulus (GPa) = 24.87551 30.90036 27.88794
#
# Velocity S-wave (km/s) = 3.41562 3.80685 3.61653
# Velocity P-wave (km/s) = 6.26640 6.72001 6.49717
#
# Compressibility (1/GPa) = 0.01977829
#
# Stress axis : x y z
#
# Youngs Moduli (GPa) = 72.23709 59.25295 133.73659
#
# Poissons Ratio (x) = 0.29396 0.23730
# Poissons Ratio (y) = 0.35837 0.33089
# Poissons Ratio (z) = 0.12818 0.14660
#
# Static dielectric constant tensor:
#      x y z
#    x 3.851860 0.000000 -0.028790 
#    y 0.000000 3.782010 0.000000 
#    z -0.028790 0.000000 3.808000 
# 
# 
# High freq. dielectric constant tensor:
#      x y z
#    x 1.835750 0.000000 -0.003200 
#    y 0.000000 1.822060 0.000000 
#    z -0.003200 0.000000 1.844130 
# 
# From -- ./inp_files/30153.got.cif
#   From: 2010.06.25/outbox.cif.g09.slc.cpg/sg10_16_cif.got.tgz:30153.got - 2010.06.27 22:07:45.
