data_PCOD8067239
_publ_section_title
;
Structure prediction by ZEFSAII (Michael W. Deem and Ramdas Pophale) SiO2 
 PCOD8067239
Probable space group: P 2/M
;
_chemical_formula_sum "Si O2"
_cell_formula_units_Z 32
_cell_length_a 25.126734
_cell_length_b 8.520400
_cell_length_c 20.259565
_cell_angle_alpha 90.000000
_cell_angle_beta 156.985318
_cell_angle_gamma 90.000000
_cell_volume 1695.767227
_symmetry_space_group_name_H-M "P 2/M"
_symmetry_group_IT_number 10
_symmetry_cell_setting 'monoclinic'
loop_
_space_group_symop_operation_xyz
x,y,z
-x,y,-z
-x,-y,-z
x,-y,z
loop_
_atom_site_type_symbol
_atom_site_label
_atom_site_fract_x
_atom_site_fract_y
_atom_site_fract_z
Si Si1 0.782720 0.186797 0.631403
Si Si2 0.157689 0.827669 0.162044
Si Si3 0.677094 0.683243 0.038115
Si Si4 0.373673 0.684552 0.663515
Si Si5 0.137915 0.816204 0.858949
Si Si6 0.079930 0.812714 0.937453
Si Si7 0.850251 0.182791 0.351426
Si Si8 0.854079 0.683437 0.493791
O O1 0.768052 0.255419 0.690286
O O2 0.658326 0.243557 0.444715
O O3 0.924125 0.249362 0.760893
O O4 0.783876 0.000000 0.636681
O O5 0.222862 0.000000 0.228556
O O6 0.165041 0.743174 0.098018
O O7 0.000000 0.843286 0.000000
O O8 0.687414 0.500000 0.067046
O O9 0.751667 0.715873 0.054194
O O10 0.744582 0.783685 0.172798
O O11 0.522045 0.741531 0.855383
O O12 0.371223 0.500000 0.653158
O O13 0.264785 0.742146 0.593219
O O14 0.148647 0.760416 0.947439
O O15 0.987816 0.784703 0.660058
O O16 0.168871 0.000000 0.886044
O O17 0.076679 0.000000 0.939614
O O18 0.805384 0.282596 0.363819
O O19 0.000000 0.237377 0.500000
O O20 0.848363 0.000000 0.367044
O O21 0.885321 0.500000 0.538817
#
# Coordination Sequence:
#
# PCOD8067239 Si02
#       8
#     4   4   4   4   4   4   4   4
#     4   9  15  27  51  78 105 141 179 218 267 318
#     4   7  11  21  41  73 107 137 172 213 265 318
#     4  11  24  41  58  77 107 147 183 215 263 322
#     4  10  23  39  54  78 112 146 181 220 261 316
#     4  11  20  33  55  84 111 137 178 227 270 312
#     4   8  14  25  46  78 111 137 169 222 273 312
#     4  11  23  39  60  85 111 135 171 223 270 313
#     4  11  22  37  59  82 107 143 179 214 264 321
#
# _framework density 18.870515000000001
#
# number of rings (size 3 to 8) (size 9 to 14) (size 15 to 20)
#    0.000    2.250    2.500    3.000    0.000    2.500 
#    0.000    2.500    0.000    5.625    0.000    5.250 
#    0.000    0.000    0.000    0.000    0.000    0.000 
#
# Total GULP energy -396629.736978 kJ/mol
# GULP energy per Si atom -12394.679281 kJ/mol
# Density = 1.882757 g / cm^3
# Si number density = 18.870515 Si / 1000 Ang^3
#
#
#
# Elastic Constant Matrix: (Units=GPa)
#
#
# Indices 1 2 3 4 5 6 
#
# 1 110.0896 10.5405 52.1905 0.0000 -22.9704 0.0000
# 2 10.5405 21.2430 18.3511 0.0000 -0.5812 0.0000
# 3 52.1905 18.3511 100.4987 0.0000 -12.0745 0.0000
# 4 0.0000 0.0000 0.0000 14.8120 0.0000 4.2469
# 5 -22.9704 -0.5812 -12.0745 0.0000 36.1677 0.0000
# 6 0.0000 0.0000 0.0000 4.2469 0.0000 9.9457
#
#
#
# Elastic Compliance Matrix: (Units=1/GPa)
#
#
# Indices 1 2 3 4 5 6 
#
# 1 0.013374 -0.001345 -0.005919 0.000000 0.006496 0.000000
# 2 -0.001345 0.056264 -0.009969 0.000000 -0.003278 0.000000
# 3 -0.005919 -0.009969 0.014974 0.000000 0.001080 0.000000
# 4 0.000000 0.000000 0.000000 0.076932 0.000000 -0.032850
# 5 0.006496 -0.003278 0.001080 0.000000 0.032082 0.000000
# 6 0.000000 0.000000 0.000000 -0.032850 0.000000 0.114573
#
#
# Mechanical properties :
#
#
# Convention : Reuss Voigt Hill
#
# Bulk Modulus (GPa) = 19.94189 43.77729 31.85959
# Shear Modulus (GPa) = 13.91278 22.23503 18.07391
#
# Velocity S-wave (km/s) = 2.71823 3.43635 3.09817
# Velocity P-wave (km/s) = 4.52133 6.24451 5.45143
#
# Compressibility (1/GPa) = 0.05014571
#
# Stress axis : x y z
#
# Youngs Moduli (GPa) = 74.77293 17.77331 66.78052
#
# Poissons Ratio (x) = 0.02390 0.39529
# Poissons Ratio (y) = 0.10055 0.66576
# Poissons Ratio (z) = 0.44260 0.17719
#
# Static dielectric constant tensor:
#      x y z
#    x 3.849370 0.000000 -0.309000 
#    y 0.000000 3.107240 0.000000 
#    z -0.309000 0.000000 3.471870 
# 
# 
# High freq. dielectric constant tensor:
#      x y z
#    x 1.740120 0.000000 -0.029970 
#    y 0.000000 1.705680 0.000000 
#    z -0.029970 0.000000 1.714170 
# 
# From -- ./inp_files/86991.got.cif
#   From: 2010.06.25/outbox.cif.g09.slc.cpg/sg10_44_cif.got.tgz:86991.got - 2010.06.27 22:07:45.
