data_PCOD8067899
_publ_section_title
;
Structure prediction by ZEFSAII (Michael W. Deem and Ramdas Pophale) SiO2 
 PCOD8067899
Probable space group: P 2/M
;
_chemical_formula_sum "Si O2"
_cell_formula_units_Z 28
_cell_length_a 20.712882
_cell_length_b 9.505460
_cell_length_c 27.111602
_cell_angle_alpha 90.000000
_cell_angle_beta 18.974893
_cell_angle_gamma 90.000000
_cell_volume 1735.632126
_symmetry_space_group_name_H-M "P 2/M"
_symmetry_group_IT_number 10
_symmetry_cell_setting 'monoclinic'
loop_
_space_group_symop_operation_xyz
x,y,z
-x,y,-z
-x,-y,-z
x,-y,z
loop_
_atom_site_type_symbol
_atom_site_label
_atom_site_fract_x
_atom_site_fract_y
_atom_site_fract_z
Si Si1 0.517360 0.667376 0.065303
Si Si2 0.256232 0.667681 0.445681
Si Si3 0.448062 0.332314 0.849932
Si Si4 0.186655 0.332629 0.230763
Si Si5 0.426257 0.343347 0.708253
Si Si6 0.888599 0.343349 0.976988
Si Si7 0.841725 0.841610 0.158225
O O1 0.521015 0.500000 0.065283
O O2 0.530982 0.731978 0.110366
O O3 0.312567 0.717465 0.187483
O O4 0.704369 0.720450 0.897749
O O5 0.251936 0.500000 0.446091
O O6 0.372330 0.726706 0.313749
O O7 0.370382 0.712460 0.413447
O O8 0.034502 0.731992 0.606704
O O9 0.459285 0.500000 0.842583
O O10 0.234572 0.287519 0.981479
O O11 0.175790 0.500000 0.237990
O O12 0.455578 0.500000 0.664603
O O13 0.259489 0.351354 0.870301
O O14 0.359191 0.237468 0.713582
O O15 0.975290 0.500000 0.904658
O O16 0.068464 0.237453 0.858897
O O17 0.786154 0.000000 0.213783
O O18 0.000000 0.841442 0.000000
#
# Coordination Sequence:
#
# PCOD8067899 Si02
#       7
#     4   4   4   4   4   4   4
#     4   8  13  20  29  43  66  94 119 144 178 216
#     4   8  13  20  30  45  65  91 122 149 173 209
#     4   8  13  20  30  45  65  91 122 149 173 209
#     4   8  13  20  29  43  66  94 119 144 178 216
#     4   8  13  21  32  46  67  95 123 149 178 213
#     4   8  13  21  32  46  67  95 123 149 178 213
#     4   9  15  21  31  49  72  95 118 146 182 221
#
# _framework density 16.132452000000001
#
# number of rings (size 3 to 8) (size 9 to 14) (size 15 to 20)
#    0.000    3.857    0.000    3.000    0.000    2.286 
#    0.000    2.857    0.000    0.000    0.000    1.000 
#    0.000   10.286    0.000   14.286    0.000   16.571 
#
# Total GULP energy -346912.223575 kJ/mol
# GULP energy per Si atom -12389.722271 kJ/mol
# Density = 1.609573 g / cm^3
# Si number density = 16.132452 Si / 1000 Ang^3
#
#
#
# Elastic Constant Matrix: (Units=GPa)
#
#
# Indices 1 2 3 4 5 6 
#
# 1 137.6505 38.7123 80.5792 0.0000 -31.0486 0.0000
# 2 38.7123 44.3383 23.7184 0.0000 -10.4180 0.0000
# 3 80.5792 23.7184 70.8610 0.0000 -15.1876 0.0000
# 4 0.0000 0.0000 0.0000 2.8910 0.0000 0.2787
# 5 -31.0486 -10.4180 -15.1876 0.0000 17.1686 0.0000
# 6 0.0000 0.0000 0.0000 0.2787 0.0000 2.4768
#
#
#
# Elastic Compliance Matrix: (Units=1/GPa)
#
#
# Indices 1 2 3 4 5 6 
#
# 1 0.032090 -0.006033 -0.028157 0.000000 0.029465 0.000000
# 2 -0.006033 0.030243 -0.002058 0.000000 0.005621 0.000000
# 3 -0.028157 -0.002058 0.043976 0.000000 -0.013267 0.000000
# 4 0.000000 0.000000 0.000000 0.349696 0.000000 -0.039344
# 5 0.029465 0.005621 -0.013267 0.000000 0.103206 0.000000
# 6 0.000000 0.000000 0.000000 -0.039344 0.000000 0.408178
#
#
# Mechanical properties :
#
#
# Convention : Reuss Voigt Hill
#
# Bulk Modulus (GPa) = 29.57368 59.87441 44.72404
# Shear Modulus (GPa) = 4.75667 11.82993 8.29330
#
# Velocity S-wave (km/s) = 1.71899 2.71089 2.26978
# Velocity P-wave (km/s) = 4.72350 6.85517 5.88663
#
# Compressibility (1/GPa) = 0.03381385
#
# Stress axis : x y z
#
# Youngs Moduli (GPa) = 31.16206 33.06570 22.73981
#
# Poissons Ratio (x) = 0.19948 0.64028
# Poissons Ratio (y) = 0.18800 0.04679
# Poissons Ratio (z) = 0.87742 0.06804
#
# Static dielectric constant tensor:
#      x y z
#    x 3.381700 0.000000 -0.256090 
#    y 0.000000 2.626070 0.000000 
#    z -0.256090 0.000000 3.015000 
# 
# 
# High freq. dielectric constant tensor:
#      x y z
#    x 1.624280 0.000000 -0.027270 
#    y 0.000000 1.556060 0.000000 
#    z -0.027270 0.000000 1.585210 
# 
# From -- ./inp_files/35920.got.cif
#   From: 2010.06.25/outbox.cif.g09.slc.cpg/sg10_18_cif.got.tgz:35920.got - 2010.06.27 22:07:45.
