data_PCOD8067858
_publ_section_title
;
Structure prediction by ZEFSAII (Michael W. Deem and Ramdas Pophale) SiO2 
 PCOD8067858
Probable space group: P 2/M
;
_chemical_formula_sum "Si O2"
_cell_formula_units_Z 28
_cell_length_a 10.182320
_cell_length_b 7.783888
_cell_length_c 29.621174
_cell_angle_alpha 90.000000
_cell_angle_beta 38.627908
_cell_angle_gamma 90.000000
_cell_volume 1465.585730
_symmetry_space_group_name_H-M "P 2/M"
_symmetry_group_IT_number 10
_symmetry_cell_setting 'monoclinic'
loop_
_space_group_symop_operation_xyz
x,y,z
-x,y,-z
-x,-y,-z
x,-y,z
loop_
_atom_site_type_symbol
_atom_site_label
_atom_site_fract_x
_atom_site_fract_y
_atom_site_fract_z
Si Si1 0.962440 0.198790 0.141787
Si Si2 0.727184 0.197498 0.682746
Si Si3 0.548792 0.297393 0.414219
Si Si4 0.272036 0.500000 0.040735
Si Si5 0.636374 0.193391 0.150069
Si Si6 0.245971 0.500000 0.942385
Si Si7 0.190621 0.694775 0.573593
Si Si8 0.405661 0.195699 0.698959
O O1 0.832978 0.219653 0.130385
O O2 0.815894 0.266782 0.222636
O O3 0.159032 0.325967 0.087639
O O4 0.036549 0.000000 0.128296
O O5 0.581617 0.225334 0.765325
O O6 0.607765 0.277298 0.670739
O O7 0.944194 0.295695 0.631703
O O8 0.788824 0.000000 0.659271
O O9 0.554700 0.500000 0.402914
O O10 0.735263 0.230513 0.397664
O O11 0.327359 0.230304 0.495083
O O12 0.578926 0.206223 0.358474
O O13 0.500000 0.500000 0.000000
O O14 0.297532 0.500000 0.980620
O O15 0.649839 0.329028 0.106247
O O16 0.640378 0.000000 0.128930
O O17 0.000000 0.500000 0.000000
O O18 0.265555 0.500000 0.555920
O O19 0.408510 0.000000 0.715277
#
# Coordination Sequence:
#
# PCOD8067858 Si02
#       8
#     4   4   4   2   4   2   4   4
#     4   9  19  39  62  83 115 153 185 229 283 333
#     4   9  19  35  54  80 111 142 178 228 281 321
#     4   9  19  35  52  75 108 148 189 225 271 326
#     4  12  26  42  58  88 121 148 187 227 278 341
#     4   9  19  37  61  88 116 144 186 239 280 326
#     4  12  22  38  64  92 109 146 197 221 272 349
#     4   9  19  35  52  75 110 147 183 230 277 319
#     4   9  19  35  56  81 106 141 187 225 270 331
#
# _framework density 19.104989
#
# number of rings (size 3 to 8) (size 9 to 14) (size 15 to 20)
#    0.000    2.571    1.429    2.571    2.000    3.429 
#    2.571    4.286    0.000    0.000    0.000    0.000 
#    0.000    0.000    0.000    0.000    0.000    0.000 
#
# Total GULP energy -347032.444436 kJ/mol
# GULP energy per Si atom -12394.015873 kJ/mol
# Density = 1.906151 g / cm^3
# Si number density = 19.104989 Si / 1000 Ang^3
#
#
#
# Elastic Constant Matrix: (Units=GPa)
#
#
# Indices 1 2 3 4 5 6 
#
# 1 122.7168 32.9249 84.0261 0.0000 -2.2081 0.0000
# 2 32.9249 72.5747 44.6265 0.0000 -3.5635 0.0000
# 3 84.0261 44.6265 122.3704 0.0000 -1.6907 0.0000
# 4 0.0000 0.0000 0.0000 -13.9343 0.0000 10.1532
# 5 -2.2081 -3.5635 -1.6907 0.0000 35.6327 0.0000
# 6 0.0000 0.0000 0.0000 10.1532 0.0000 14.7739
#
#
#
# Elastic Compliance Matrix: (Units=1/GPa)
#
#
# Indices 1 2 3 4 5 6 
#
# 1 0.015408 -0.000603 -0.010354 0.000000 0.000403 0.000000
# 2 -0.000603 0.017863 -0.006080 0.000000 0.001461 0.000000
# 3 -0.010354 -0.006080 0.017493 0.000000 -0.000420 0.000000
# 4 0.000000 0.000000 0.000000 -0.047820 0.000000 0.032863
# 5 0.000403 0.001461 -0.000420 0.000000 0.028215 0.000000
# 6 0.000000 0.000000 0.000000 0.032863 0.000000 0.045102
#
#
# Mechanical properties :
#
#
# Convention : Reuss Voigt Hill
#
# Bulk Modulus (GPa) = 59.92000 71.20187 65.56093
# Shear Modulus (GPa) = 43.14124 17.70010 30.42067
#
# Velocity S-wave (km/s) = 4.75712 3.04709 3.99468
# Velocity P-wave (km/s) = 7.84890 7.05190 7.46105
#
# Compressibility (1/GPa) = 0.01668892
#
# Stress axis : x y z
#
# Youngs Moduli (GPa) = 64.90324 55.98215 57.16592
#
# Poissons Ratio (x) = 0.03378 0.59190
# Poissons Ratio (y) = 0.03916 0.34756
# Poissons Ratio (z) = 0.67201 0.34036
#
# Static dielectric constant tensor:
#      x y z
#    x 3.220070 0.000000 0.019920 
#    y 0.000000 3.427550 0.000000 
#    z 0.019920 0.000000 3.448900 
# 
# 
# High freq. dielectric constant tensor:
#      x y z
#    x 1.724230 0.000000 0.002900 
#    y 0.000000 1.740420 0.000000 
#    z 0.002900 0.000000 1.745710 
# 
# From -- ./inp_files/92029.got.cif
#   From: 2010.06.25/outbox.cif.g09.slc.cpg/sg10_47_cif.got.tgz:92029.got - 2010.06.27 22:07:45.
