data_PCOD8067109
_publ_section_title
;
Structure prediction by ZEFSAII (Michael W. Deem and Ramdas Pophale) SiO2 
 PCOD8067109
Probable space group: P 2/M
;
_chemical_formula_sum "Si O2"
_cell_formula_units_Z 28
_cell_length_a 9.798351
_cell_length_b 18.375046
_cell_length_c 16.201449
_cell_angle_alpha 90.000000
_cell_angle_beta 152.247093
_cell_angle_gamma 90.000000
_cell_volume 1358.324956
_symmetry_space_group_name_H-M "P 2/M"
_symmetry_group_IT_number 10
_symmetry_cell_setting 'monoclinic'
loop_
_space_group_symop_operation_xyz
x,y,z
-x,y,-z
-x,-y,-z
x,-y,z
loop_
_atom_site_type_symbol
_atom_site_label
_atom_site_fract_x
_atom_site_fract_y
_atom_site_fract_z
Si Si1 0.678636 0.689414 0.804991
Si Si2 0.272598 0.224179 0.705544
Si Si3 0.791266 0.772985 0.711242
Si Si4 0.154393 0.922273 0.313779
Si Si5 0.173223 0.678593 0.805516
Si Si6 0.352154 0.414949 0.508068
Si Si7 0.680841 0.081031 0.180757
O O1 0.515237 0.721291 0.797734
O O2 0.702660 0.757883 0.757142
O O3 0.506869 0.624160 0.668063
O O4 0.000000 0.659203 0.000000
O O5 0.161303 0.259174 0.730570
O O6 0.394583 0.143143 0.792008
O O7 0.000000 0.215869 0.500000
O O8 0.500000 0.769813 0.500000
O O9 0.941311 0.852904 0.791808
O O10 0.028771 0.713620 0.809555
O O11 0.500000 0.925217 0.500000
O O12 0.023359 0.912651 0.336302
O O13 0.034479 0.000000 0.213309
O O14 0.987569 0.608681 0.676882
O O15 0.500000 0.651339 0.000000
O O16 0.500000 0.392807 0.500000
O O17 0.373251 0.500000 0.536083
O O18 0.618487 0.000000 0.184202
O O19 0.500000 0.094211 0.000000
#
# Coordination Sequence:
#
# PCOD8067109 Si02
#       7
#     4   4   4   4   4   4   4
#     4  12  25  41  64  97 131 166 205 258 325 382
#     4  12  24  39  62  96 131 170 207 263 327 378
#     4  11  19  39  65  87 124 168 220 265 301 368
#     4   9  19  33  57  86 114 158 216 262 299 350
#     4  12  22  40  68  95 126 165 216 259 307 374
#     4  11  24  47  72  95 124 165 214 256 308 386
#     4  10  22  40  61  89 126 170 223 270 314 372
#
# _framework density 20.613623
#
# number of rings (size 3 to 8) (size 9 to 14) (size 15 to 20)
#    0.000    1.000    5.714    1.286    4.000    0.857 
#    0.000    2.143    0.000    0.857    0.000    0.000 
#    0.000    0.000    0.000    0.000    0.000    0.000 
#
# Total GULP energy -347067.393576 kJ/mol
# GULP energy per Si atom -12395.264056 kJ/mol
# Density = 2.056671 g / cm^3
# Si number density = 20.613623 Si / 1000 Ang^3
#
#
#
# Elastic Constant Matrix: (Units=GPa)
#
#
# Indices 1 2 3 4 5 6 
#
# 1 63.5872 34.3956 24.3732 0.0000 6.7350 0.0000
# 2 34.3956 142.3577 43.6013 0.0000 3.1744 0.0000
# 3 24.3732 43.6013 130.7252 0.0000 10.7696 0.0000
# 4 0.0000 0.0000 0.0000 9.7582 0.0000 -2.9004
# 5 6.7350 3.1744 10.7696 0.0000 30.7275 0.0000
# 6 0.0000 0.0000 0.0000 -2.9004 0.0000 25.9359
#
#
#
# Elastic Compliance Matrix: (Units=1/GPa)
#
#
# Indices 1 2 3 4 5 6 
#
# 1 0.018915 -0.003897 -0.001975 0.000000 -0.003051 0.000000
# 2 -0.003897 0.008627 -0.002212 0.000000 0.000738 0.000000
# 3 -0.001975 -0.002212 0.008960 0.000000 -0.002479 0.000000
# 4 0.000000 0.000000 0.000000 0.106001 0.000000 0.011854
# 5 -0.003051 0.000738 -0.002479 0.000000 0.034005 0.000000
# 6 0.000000 0.000000 0.000000 0.011854 0.000000 0.039882
#
#
# Mechanical properties :
#
#
# Convention : Reuss Voigt Hill
#
# Bulk Modulus (GPa) = 49.18011 60.15670 54.66840
# Shear Modulus (GPa) = 20.89110 28.90431 24.89771
#
# Velocity S-wave (km/s) = 3.18694 3.74865 3.47915
# Velocity P-wave (km/s) = 6.11980 6.92697 6.53586
#
# Compressibility (1/GPa) = 0.02033342
#
# Stress axis : x y z
#
# Youngs Moduli (GPa) = 52.86890 115.91448 111.60934
#
# Poissons Ratio (x) = 0.45172 0.22048
# Poissons Ratio (y) = 0.20603 0.24684
# Poissons Ratio (z) = 0.10444 0.25636
#
# Static dielectric constant tensor:
#      x y z
#    x 3.899960 0.000000 0.248020 
#    y 0.000000 4.052930 0.000000 
#    z 0.248020 0.000000 3.861440 
# 
# 
# High freq. dielectric constant tensor:
#      x y z
#    x 1.795420 0.000000 0.023060 
#    y 0.000000 1.807380 0.000000 
#    z 0.023060 0.000000 1.804600 
# 
# From -- ./inp_files/62616.got.cif
#   From: 2010.06.25/outbox.cif.g09.slc.cpg/sg10_32_cif.got.tgz:62616.got - 2010.06.27 22:07:45.
