data_PCOD8067076
_publ_section_title
;
Structure prediction by ZEFSAII (Michael W. Deem and Ramdas Pophale) SiO2 
 PCOD8067076
Probable space group: P 2/M
;
_chemical_formula_sum "Si O2"
_cell_formula_units_Z 26
_cell_length_a 9.204127
_cell_length_b 19.866836
_cell_length_c 9.228325
_cell_angle_alpha 90.000000
_cell_angle_beta 132.233456
_cell_angle_gamma 90.000000
_cell_volume 1249.418063
_symmetry_space_group_name_H-M "P 2/M"
_symmetry_group_IT_number 10
_symmetry_cell_setting 'monoclinic'
loop_
_space_group_symop_operation_xyz
x,y,z
-x,y,-z
-x,-y,-z
x,-y,z
loop_
_atom_site_type_symbol
_atom_site_label
_atom_site_fract_x
_atom_site_fract_y
_atom_site_fract_z
Si Si1 0.929315 0.195044 0.231195
Si Si2 0.680229 0.814078 0.332689
Si Si3 0.386599 0.578230 0.070343
Si Si4 0.574505 0.074576 0.704850
Si Si5 0.395884 0.324281 0.574278
Si Si6 0.000000 0.111649 0.000000
Si Si7 0.012183 0.659448 0.835410
O O1 0.744128 0.177371 0.208460
O O2 0.132437 0.172767 0.440845
O O3 0.907266 0.273380 0.183840
O O4 0.920373 0.156743 0.076120
O O5 0.507713 0.868823 0.240628
O O6 0.611066 0.737931 0.318545
O O7 0.396508 0.500000 0.114379
O O8 0.481103 0.616749 0.269184
O O9 0.500000 0.595989 0.000000
O O10 0.160151 0.599000 0.898445
O O11 0.500000 0.097945 0.500000
O O12 0.809086 0.067311 0.842151
O O13 0.496467 0.000000 0.697284
O O14 0.500000 0.296168 0.500000
O O15 0.190795 0.356239 0.383171
O O16 0.000000 0.668916 0.000000
#
# Coordination Sequence:
#
# PCOD8067076 Si02
#       7
#     4   4   4   4   4   2   4
#     4  10  22  39  66  99 129 162 214 267 319 375
#     4  10  22  42  65  97 129 168 211 267 322 377
#     4  11  26  45  65  95 132 170 214 262 321 386
#     4  11  24  43  65  92 130 173 211 261 324 380
#     4  11  23  41  68  98 129 166 219 271 314 378
#     4  12  23  40  66  96 125 164 216 264 309 388
#     4  11  22  41  65  97 129 166 211 264 322 374
#
# _framework density 20.809688999999999
#
# number of rings (size 3 to 8) (size 9 to 14) (size 15 to 20)
#    0.000    1.231    3.846    1.615    4.308    3.692 
#    0.000    5.385    0.000    0.000    0.000    0.000 
#    0.000    0.000    0.000    0.000    0.000    0.000 
#
# Total GULP energy -322336.938524 kJ/mol
# GULP energy per Si atom -12397.574559 kJ/mol
# Density = 2.076232 g / cm^3
# Si number density = 20.809689 Si / 1000 Ang^3
#
#
#
# Elastic Constant Matrix: (Units=GPa)
#
#
# Indices 1 2 3 4 5 6 
#
# 1 144.7037 54.2564 46.8923 0.0000 -0.1458 0.0000
# 2 54.2564 94.4270 34.0141 0.0000 0.3270 0.0000
# 3 46.8923 34.0141 73.1396 0.0000 4.5380 0.0000
# 4 0.0000 0.0000 0.0000 5.5500 0.0000 11.9836
# 5 -0.1458 0.3270 4.5380 0.0000 41.4018 0.0000
# 6 0.0000 0.0000 0.0000 11.9836 0.0000 29.6670
#
#
#
# Elastic Compliance Matrix: (Units=1/GPa)
#
#
# Indices 1 2 3 4 5 6 
#
# 1 0.009890 -0.004070 -0.004483 0.000000 0.000558 0.000000
# 2 -0.004070 0.014409 -0.004112 0.000000 0.000323 0.000000
# 3 -0.004483 -0.004112 0.018584 0.000000 -0.002020 0.000000
# 4 0.000000 0.000000 0.000000 1.409704 0.000000 -0.569432
# 5 0.000558 0.000323 -0.002020 0.000000 0.024374 0.000000
# 6 0.000000 0.000000 0.000000 -0.569432 0.000000 0.263723
#
#
# Mechanical properties :
#
#
# Convention : Reuss Voigt Hill
#
# Bulk Modulus (GPa) = 56.96595 64.73288 60.84942
# Shear Modulus (GPa) = 2.82189 27.13090 14.97639
#
# Velocity S-wave (km/s) = 1.16576 3.61468 2.68560
# Velocity P-wave (km/s) = 5.40797 6.97107 6.23867
#
# Compressibility (1/GPa) = 0.01755434
#
# Stress axis : x y z
#
# Youngs Moduli (GPa) = 101.11393 69.40319 53.80987
#
# Poissons Ratio (x) = 0.28245 0.24121
# Poissons Ratio (y) = 0.41151 0.22124
# Poissons Ratio (z) = 0.45326 0.28536
#
# Static dielectric constant tensor:
#      x y z
#    x 3.910420 0.000000 -0.005490 
#    y 0.000000 3.506080 0.000000 
#    z -0.005490 0.000000 3.839490 
# 
# 
# High freq. dielectric constant tensor:
#      x y z
#    x 1.826500 0.000000 0.004150 
#    y 0.000000 1.801190 0.000000 
#    z 0.004150 0.000000 1.824200 
# 
# From -- ./inp_files/20477.got.cif
#   From: 2010.06.25/outbox.cif.g09.slc.cpg/sg10_11_cif.got.tgz:20477.got - 2010.06.27 22:07:45.
