data_PCOD8067248
_publ_section_title
;
Structure prediction by ZEFSAII (Michael W. Deem and Ramdas Pophale) SiO2 
 PCOD8067248
Probable space group: P 2/M
;
_chemical_formula_sum "Si O2"
_cell_formula_units_Z 18
_cell_length_a 9.200670
_cell_length_b 16.473997
_cell_length_c 5.119220
_cell_angle_alpha 90.000000
_cell_angle_beta 86.857510
_cell_angle_gamma 90.000000
_cell_volume 774.762669
_symmetry_space_group_name_H-M "P 2/M"
_symmetry_group_IT_number 10
_symmetry_cell_setting 'monoclinic'
loop_
_space_group_symop_operation_xyz
x,y,z
-x,y,-z
-x,-y,-z
x,-y,z
loop_
_atom_site_type_symbol
_atom_site_label
_atom_site_fract_x
_atom_site_fract_y
_atom_site_fract_z
Si Si1 0.851853 0.686609 0.915694
Si Si2 0.500000 0.679116 0.500000
Si Si3 0.094032 0.093357 0.731554
Si Si4 0.360046 0.807290 0.893601
Si Si5 0.214385 0.594909 0.554673
O O1 0.736635 0.759780 0.878419
O O2 0.802035 0.624726 0.147898
O O3 0.891594 0.638116 0.647016
O O4 0.000000 0.729868 0.000000
O O5 0.434408 0.735929 0.726673
O O6 0.372309 0.618635 0.418121
O O7 0.252450 0.136215 0.735992
O O8 0.000000 0.130318 0.500000
O O9 0.130415 0.000000 0.667368
O O10 0.000000 0.102430 0.000000
O O11 0.500000 0.856666 0.000000
O O12 0.186252 0.500000 0.548069
#
# Coordination Sequence:
#
# PCOD8067248 Si02
#       5
#     4   2   4   4   4
#     4  11  24  40  61  91 123 163 212 265 322 376
#     4  10  23  40  59  94 126 166 212 262 317 384
#     4  10  24  45  70 100 134 171 210 255 317 382
#     4  11  23  41  67  94 132 169 216 265 313 377
#     4  11  23  40  62  86 123 165 211 267 322 377
#
# _framework density 23.232921999999999
#
# number of rings (size 3 to 8) (size 9 to 14) (size 15 to 20)
#    0.000    1.333    2.222    2.333    3.111    6.667 
#    0.000    3.889    0.000    0.000    0.000    0.000 
#    0.000    0.000    0.000    0.000    0.000    0.000 
#
# Total GULP energy -223050.287314 kJ/mol
# GULP energy per Si atom -12391.682629 kJ/mol
# Density = 2.318004 g / cm^3
# Si number density = 23.232922 Si / 1000 Ang^3
#
#
#
# Elastic Constant Matrix: (Units=GPa)
#
#
# Indices 1 2 3 4 5 6 
#
# 1 145.8461 38.2187 36.0356 0.0000 34.7637 0.0000
# 2 38.2187 65.4132 20.0750 0.0000 15.8082 0.0000
# 3 36.0356 20.0750 115.4339 0.0000 18.4466 0.0000
# 4 0.0000 0.0000 0.0000 14.9847 0.0000 19.8109
# 5 34.7637 15.8082 18.4466 0.0000 47.3974 0.0000
# 6 0.0000 0.0000 0.0000 19.8109 0.0000 24.5555
#
#
#
# Elastic Compliance Matrix: (Units=1/GPa)
#
#
# Indices 1 2 3 4 5 6 
#
# 1 0.009432 -0.003836 -0.001468 0.000000 -0.005068 0.000000
# 2 -0.003836 0.018698 -0.001607 0.000000 -0.002797 0.000000
# 3 -0.001468 -0.001607 0.009749 0.000000 -0.002182 0.000000
# 4 0.000000 0.000000 0.000000 -1.001596 0.000000 0.808068
# 5 -0.005068 -0.002797 -0.002182 0.000000 0.026597 0.000000
# 6 0.000000 0.000000 0.000000 0.808068 0.000000 -0.611209
#
#
# Mechanical properties :
#
#
# Convention : Reuss Voigt Hill
#
# Bulk Modulus (GPa) = 41.56639 57.26131 49.41385
# Shear Modulus (GPa) = -3.27549 32.87845 14.80148
#
# Velocity S-wave (km/s) = -1.18866 3.76595 2.52680
# Velocity P-wave (km/s) = 4.00576 6.60379 5.46151
#
# Compressibility (1/GPa) = 0.02405790
#
# Stress axis : x y z
#
# Youngs Moduli (GPa) = 106.01947 53.48207 102.57149
#
# Poissons Ratio (x) = 0.20515 0.15053
# Poissons Ratio (y) = 0.40668 0.16486
# Poissons Ratio (z) = 0.15560 0.08596
#
# Static dielectric constant tensor:
#      x y z
#    x 5.195100 0.000000 0.126470 
#    y 0.000000 4.001610 0.000000 
#    z 0.126470 0.000000 4.254820 
# 
# 
# High freq. dielectric constant tensor:
#      x y z
#    x 1.946330 0.000000 0.007200 
#    y 0.000000 1.896300 0.000000 
#    z 0.007200 0.000000 1.915670 
# 
# From -- ./inp_files/3746.got.cif
#   From: 2010.06.25/outbox.cif.g09.slc.cpg/sg10_2_cif.got.tgz:3746.got - 2010.06.27 22:07:45.
