data_PCOD8067039
_publ_section_title
;
Structure prediction by ZEFSAII (Michael W. Deem and Ramdas Pophale) SiO2 
 PCOD8067039
Probable space group: P 2/M
;
_chemical_formula_sum "Si O2"
_cell_formula_units_Z 24
_cell_length_a 14.557373
_cell_length_b 9.252004
_cell_length_c 9.294053
_cell_angle_alpha 90.000000
_cell_angle_beta 81.642753
_cell_angle_gamma 90.000000
_cell_volume 1238.475899
_symmetry_space_group_name_H-M "P 2/M"
_symmetry_group_IT_number 10
_symmetry_cell_setting 'monoclinic'
loop_
_space_group_symop_operation_xyz
x,y,z
-x,y,-z
-x,-y,-z
x,-y,z
loop_
_atom_site_type_symbol
_atom_site_label
_atom_site_fract_x
_atom_site_fract_y
_atom_site_fract_z
Si Si1 0.593929 0.334247 0.894577
Si Si2 0.039024 0.838852 0.649450
Si Si3 0.591530 0.669035 0.560950
Si Si4 0.249810 0.831297 0.639927
Si Si5 0.747369 0.830376 0.031257
Si Si6 0.925290 0.660616 0.894054
O O1 0.625766 0.500000 0.906250
O O2 0.579417 0.295043 0.731405
O O3 0.500000 0.303393 0.000000
O O4 0.670112 0.230085 0.943184
O O5 0.144699 0.781062 0.630185
O O6 0.000000 0.847197 0.500000
O O7 0.971675 0.729537 0.744507
O O8 0.036578 0.000000 0.720359
O O9 0.500000 0.727028 0.500000
O O10 0.604380 0.500000 0.529350
O O11 0.682690 0.746743 0.481606
O O12 0.276486 0.793123 0.798095
O O13 0.261702 0.000000 0.605257
O O14 0.756001 0.000000 0.005023
O O15 0.844192 0.760962 0.968352
O O16 0.888232 0.500000 0.862932
O O17 0.000000 0.649083 0.000000
#
# Coordination Sequence:
#
# PCOD8067039 Si02
#       6
#     4   4   4   4   4   4
#     4  10  22  41  64  91 122 154 195 247 299 356
#     4  10  22  40  61  86 121 162 202 244 296 351
#     4  10  22  40  63  89 118 156 195 239 298 356
#     4  10  22  39  59  87 120 157 199 244 294 350
#     4  11  23  39  62  88 120 160 202 246 296 355
#     4  11  23  39  61  90 121 158 203 248 298 350
#
# _framework density 19.378658999999999
#
# number of rings (size 3 to 8) (size 9 to 14) (size 15 to 20)
#    0.000    1.667    1.667    2.000    2.333    5.667 
#    0.000    0.000    0.000    0.000    0.000    0.000 
#    0.000    0.000    0.000    0.000    0.000    0.000 
#
# Total GULP energy -297686.110016 kJ/mol
# GULP energy per Si atom -12403.587917 kJ/mol
# Density = 1.933455 g / cm^3
# Si number density = 19.378659 Si / 1000 Ang^3
#
#
#
# Elastic Constant Matrix: (Units=GPa)
#
#
# Indices 1 2 3 4 5 6 
#
# 1 93.7373 56.0573 53.3381 0.0000 -6.4553 0.0000
# 2 56.0573 90.3443 61.1644 0.0000 -8.9316 0.0000
# 3 53.3381 61.1644 124.5495 0.0000 -13.2784 0.0000
# 4 0.0000 0.0000 0.0000 33.3725 0.0000 -6.8223
# 5 -6.4553 -8.9316 -13.2784 0.0000 39.0399 0.0000
# 6 0.0000 0.0000 0.0000 -6.8223 0.0000 35.6449
#
#
#
# Elastic Compliance Matrix: (Units=1/GPa)
#
#
# Indices 1 2 3 4 5 6 
#
# 1 0.017825 -0.008835 -0.003316 0.000000 -0.000202 0.000000
# 2 -0.008835 0.021003 -0.006407 0.000000 0.001165 0.000000
# 3 -0.003316 -0.006407 0.012846 0.000000 0.002355 0.000000
# 4 0.000000 0.000000 0.000000 0.031185 0.000000 0.005969
# 5 -0.000202 0.001165 0.002355 0.000000 0.026649 0.000000
# 6 0.000000 0.000000 0.000000 0.005969 0.000000 0.029197
#
#
# Mechanical properties :
#
#
# Convention : Reuss Voigt Hill
#
# Bulk Modulus (GPa) = 68.68639 72.19454 70.44047
# Shear Modulus (GPa) = 27.67423 30.81621 29.24522
#
# Velocity S-wave (km/s) = 3.78309 3.99207 3.88899
# Velocity P-wave (km/s) = 7.38943 7.65405 7.52290
#
# Compressibility (1/GPa) = 0.01455892
#
# Stress axis : x y z
#
# Youngs Moduli (GPa) = 56.10223 47.61184 77.84239
#
# Poissons Ratio (x) = 0.42064 0.25815
# Poissons Ratio (y) = 0.49565 0.49871
# Poissons Ratio (z) = 0.18605 0.30503
#
# Static dielectric constant tensor:
#      x y z
#    x 3.454330 0.000000 0.001300 
#    y 0.000000 3.726790 0.000000 
#    z 0.001300 0.000000 3.575160 
# 
# 
# High freq. dielectric constant tensor:
#      x y z
#    x 1.764540 0.000000 0.001030 
#    y 0.000000 1.755630 0.000000 
#    z 0.001030 0.000000 1.763210 
# 
# From -- ./inp_files/27013.got.cif
#   From: 2010.06.25/outbox.cif.g09.slc.cpg/sg10_14_cif.got.tgz:27013.got - 2010.06.27 22:07:45.
