data_PCOD8067364
_publ_section_title
;
Structure prediction by ZEFSAII (Michael W. Deem and Ramdas Pophale) SiO2 
 PCOD8067364
Probable space group: P 2/M
;
_chemical_formula_sum "Si O2"
_cell_formula_units_Z 20
_cell_length_a 24.087043
_cell_length_b 7.854654
_cell_length_c 8.025391
_cell_angle_alpha 90.000000
_cell_angle_beta 36.424030
_cell_angle_gamma 90.000000
_cell_volume 901.540119
_symmetry_space_group_name_H-M "P 2/M"
_symmetry_group_IT_number 10
_symmetry_cell_setting 'monoclinic'
loop_
_space_group_symop_operation_xyz
x,y,z
-x,y,-z
-x,-y,-z
x,-y,z
loop_
_atom_site_type_symbol
_atom_site_label
_atom_site_fract_x
_atom_site_fract_y
_atom_site_fract_z
Si Si1 0.393817 0.299998 0.760571
Si Si2 0.284585 0.696160 0.691278
Si Si3 0.901880 0.687050 0.326721
Si Si4 0.141069 0.000000 0.023711
Si Si5 0.714129 0.196986 0.652876
Si Si6 0.054556 0.000000 0.579784
O O1 0.500000 0.234847 0.500000
O O2 0.388348 0.500000 0.803700
O O3 0.347713 0.247542 0.695847
O O4 0.343734 0.211480 0.037325
O O5 0.252542 0.500000 0.791954
O O6 0.338885 0.720796 0.381546
O O7 0.198023 0.824789 0.883811
O O8 0.896259 0.500000 0.424775
O O9 0.813289 0.705774 0.418662
O O10 0.891365 0.832383 0.488844
O O11 0.000000 0.708123 0.000000
O O12 0.072834 0.000000 0.343030
O O13 0.055636 0.000000 0.093596
O O14 0.734772 0.000000 0.563276
#
# Coordination Sequence:
#
# PCOD8067364 Si02
#       6
#     4   4   4   2   4   2
#     4  10  24  46  71 100 134 175 224 278 338 403
#     4  11  24  44  68  96 134 173 222 278 331 403
#     4  11  23  39  63  95 132 179 230 274 330 396
#     4  11  24  40  61  95 129 174 225 271 341 399
#     4  12  24  41  69  99 137 180 223 278 336 399
#     4  11  23  38  60  90 133 174 223 283 331 392
#
# _framework density 22.184256999999999
#
# number of rings (size 3 to 8) (size 9 to 14) (size 15 to 20)
#    0.000    1.000    2.000    4.500    1.400    6.000 
#    0.000    6.000    0.000    0.000    0.000    0.000 
#    0.000    0.000    0.000    0.000    0.000    0.000 
#
# Total GULP energy -247848.689676 kJ/mol
# GULP energy per Si atom -12392.434484 kJ/mol
# Density = 2.213376 g / cm^3
# Si number density = 22.184257 Si / 1000 Ang^3
#
#
#
# Elastic Constant Matrix: (Units=GPa)
#
#
# Indices 1 2 3 4 5 6 
#
# 1 146.6300 44.0649 56.0253 0.0000 12.4082 0.0000
# 2 44.0649 146.3133 27.2515 0.0000 -0.4383 0.0000
# 3 56.0253 27.2515 101.3349 0.0000 1.5267 0.0000
# 4 0.0000 0.0000 0.0000 21.5736 0.0000 -4.1260
# 5 12.4082 -0.4383 1.5267 0.0000 27.6797 0.0000
# 6 0.0000 0.0000 0.0000 -4.1260 0.0000 24.9342
#
#
#
# Elastic Compliance Matrix: (Units=1/GPa)
#
#
# Indices 1 2 3 4 5 6 
#
# 1 0.009558 -0.002019 -0.004680 0.000000 -0.004059 0.000000
# 2 -0.002019 0.007623 -0.000950 0.000000 0.001078 0.000000
# 3 -0.004680 -0.000950 0.012691 0.000000 0.001383 0.000000
# 4 0.000000 0.000000 0.000000 0.047868 0.000000 0.007921
# 5 -0.004059 0.001078 0.001383 0.000000 0.037888 0.000000
# 6 0.000000 0.000000 0.000000 0.007921 0.000000 0.041416
#
#
# Mechanical properties :
#
#
# Convention : Reuss Voigt Hill
#
# Bulk Modulus (GPa) = 68.62031 72.10684 70.36358
# Shear Modulus (GPa) = 28.21661 32.63326 30.42493
#
# Velocity S-wave (km/s) = 3.57027 3.83954 3.70735
# Velocity P-wave (km/s) = 6.92783 7.22705 7.07902
#
# Compressibility (1/GPa) = 0.01457294
#
# Stress axis : x y z
#
# Youngs Moduli (GPa) = 104.61930 131.18376 78.79844
#
# Poissons Ratio (x) = 0.26487 0.36881
# Poissons Ratio (y) = 0.21124 0.07485
# Poissons Ratio (z) = 0.48967 0.12462
#
# Static dielectric constant tensor:
#      x y z
#    x 4.376370 0.000000 0.085120 
#    y 0.000000 4.097110 0.000000 
#    z 0.085120 0.000000 3.887830 
# 
# 
# High freq. dielectric constant tensor:
#      x y z
#    x 1.884280 0.000000 0.008790 
#    y 0.000000 1.886570 0.000000 
#    z 0.008790 0.000000 1.859100 
# 
# From -- ./inp_files/35787.got.cif
#   From: 2010.06.25/outbox.cif.g09.slc.cpg/sg10_18_cif.got.tgz:35787.got - 2010.06.27 22:07:45.
