data_PCOD8067441
_publ_section_title
;
Structure prediction by ZEFSAII (Michael W. Deem and Ramdas Pophale) SiO2 
 PCOD8067441
Probable space group: P 2/M
;
_chemical_formula_sum "Si O2"
_cell_formula_units_Z 28
_cell_length_a 9.107661
_cell_length_b 14.301685
_cell_length_c 15.158492
_cell_angle_alpha 90.000000
_cell_angle_beta 124.881020
_cell_angle_gamma 90.000000
_cell_volume 1619.737637
_symmetry_space_group_name_H-M "P 2/M"
_symmetry_group_IT_number 10
_symmetry_cell_setting 'monoclinic'
loop_
_space_group_symop_operation_xyz
x,y,z
-x,y,-z
-x,-y,-z
x,-y,z
loop_
_atom_site_type_symbol
_atom_site_label
_atom_site_fract_x
_atom_site_fract_y
_atom_site_fract_z
Si Si1 0.342307 0.206194 0.006526
Si Si2 0.814400 0.602220 0.046221
Si Si3 0.986188 0.889467 0.633140
Si Si4 0.015885 0.110958 0.168777
Si Si5 0.637274 0.207301 0.782493
Si Si6 0.214444 0.601832 0.172521
Si Si7 0.711818 0.110608 0.393824
O O1 0.408557 0.204468 0.129824
O O2 0.500000 0.164512 0.000000
O O3 0.301954 0.311648 0.957151
O O4 0.168858 0.141242 0.939392
O O5 0.742288 0.500000 0.053845
O O6 0.018940 0.615111 0.149174
O O7 0.810876 0.606879 0.940271
O O8 0.976492 0.849425 0.728510
O O9 0.165503 0.853840 0.645471
O O10 0.809060 0.859770 0.518233
O O11 0.996915 0.000000 0.638280
O O12 0.177917 0.153130 0.168867
O O13 0.031055 0.000000 0.171511
O O14 0.655434 0.314131 0.753463
O O15 0.478844 0.160787 0.672973
O O16 0.294309 0.500000 0.227402
O O17 0.679638 0.000000 0.378228
#
# Coordination Sequence:
#
# PCOD8067441 Si02
#       7
#     4   4   4   4   4   4   4
#     4  11  22  33  46  69 101 132 161 191 234 294
#     4   8  14  28  48  67  90 121 157 198 236 272
#     4   8  17  34  52  70  94 126 162 199 238 277
#     4  11  22  34  48  68  97 130 164 200 233 274
#     4  11  20  31  49  74  97 125 161 197 240 281
#     4   8  14  27  47  68  92 122 155 192 237 282
#     4   9  17  32  53  74  97 124 157 197 239 282
#
# _framework density 17.286750999999999
#
# number of rings (size 3 to 8) (size 9 to 14) (size 15 to 20)
#    0.000    2.571    1.429    3.429    0.000    2.857 
#    0.000    2.143    0.000    0.000    0.000    5.000 
#    0.000    0.000    0.000    0.000    0.000    0.000 
#
# Total GULP energy -347050.243531 kJ/mol
# GULP energy per Si atom -12394.651555 kJ/mol
# Density = 1.724741 g / cm^3
# Si number density = 17.286751 Si / 1000 Ang^3
#
#
#
# Elastic Constant Matrix: (Units=GPa)
#
#
# Indices 1 2 3 4 5 6 
#
# 1 63.3803 18.3308 14.5458 0.0000 15.6575 0.0000
# 2 18.3308 82.0262 21.9222 0.0000 13.1719 0.0000
# 3 14.5458 21.9222 53.1658 0.0000 12.7132 0.0000
# 4 0.0000 0.0000 0.0000 9.6513 0.0000 8.1366
# 5 15.6575 13.1719 12.7132 0.0000 29.4345 0.0000
# 6 0.0000 0.0000 0.0000 8.1366 0.0000 19.2080
#
#
#
# Elastic Compliance Matrix: (Units=1/GPa)
#
#
# Indices 1 2 3 4 5 6 
#
# 1 0.018970 -0.002330 -0.002303 0.000000 -0.008053 0.000000
# 2 -0.002330 0.014450 -0.004540 0.000000 -0.003266 0.000000
# 3 -0.002303 -0.004540 0.022897 0.000000 -0.006633 0.000000
# 4 0.000000 0.000000 0.000000 0.161172 0.000000 -0.068273
# 5 -0.008053 -0.003266 -0.006633 0.000000 0.042584 0.000000
# 6 0.000000 0.000000 0.000000 -0.068273 0.000000 0.080982
#
#
# Mechanical properties :
#
#
# Convention : Reuss Voigt Hill
#
# Bulk Modulus (GPa) = 26.33668 34.24109 30.28888
# Shear Modulus (GPa) = 13.43876 21.24366 17.34121
#
# Velocity S-wave (km/s) = 2.79122 3.50937 3.17069
# Velocity P-wave (km/s) = 5.06519 6.02259 5.56452
#
# Compressibility (1/GPa) = 0.03796986
#
# Stress axis : x y z
#
# Youngs Moduli (GPa) = 52.71517 69.20557 43.67350
#
# Poissons Ratio (x) = 0.16128 0.10060
# Poissons Ratio (y) = 0.12285 0.19826
# Poissons Ratio (z) = 0.12142 0.31417
#
# Static dielectric constant tensor:
#      x y z
#    x 3.198920 0.000000 -0.038120 
#    y 0.000000 3.403390 0.000000 
#    z -0.038120 0.000000 3.077780 
# 
# 
# High freq. dielectric constant tensor:
#      x y z
#    x 1.662490 0.000000 0.008620 
#    y 0.000000 1.658410 0.000000 
#    z 0.008620 0.000000 1.637770 
# 
# From -- ./inp_files/28968.got.cif
#   From: 2010.06.25/outbox.cif.g09.slc.cpg/sg10_15_cif.got.tgz:28968.got - 2010.06.27 22:07:45.
