data_PCOD8067880
_publ_section_title
;
Structure prediction by ZEFSAII (Michael W. Deem and Ramdas Pophale) SiO2 
 PCOD8067880
Probable space group: P 2/M
;
_chemical_formula_sum "Si O2"
_cell_formula_units_Z 32
_cell_length_a 13.868413
_cell_length_b 9.820521
_cell_length_c 18.507930
_cell_angle_alpha 90.000000
_cell_angle_beta 67.996587
_cell_angle_gamma 90.000000
_cell_volume 2337.085230
_symmetry_space_group_name_H-M "P 2/M"
_symmetry_group_IT_number 10
_symmetry_cell_setting 'monoclinic'
loop_
_space_group_symop_operation_xyz
x,y,z
-x,y,-z
-x,-y,-z
x,-y,z
loop_
_atom_site_type_symbol
_atom_site_label
_atom_site_fract_x
_atom_site_fract_y
_atom_site_fract_z
Si Si1 0.498394 0.157754 0.276288
Si Si2 0.274682 0.842246 0.723712
Si Si3 0.514727 0.161649 0.881889
Si Si4 0.571336 0.652580 0.586366
Si Si5 0.662339 0.162047 0.962819
Si Si6 0.874842 0.837953 0.962819
Si Si7 0.103384 0.161649 0.881889
Si Si8 0.342298 0.347420 0.586365
O O1 0.618182 0.179606 0.263636
O O2 0.482020 0.218040 0.200436
O O3 0.420572 0.241116 0.350167
O O4 0.466768 0.000000 0.290956
O O5 0.182455 0.781960 0.799564
O O6 0.270739 0.758884 0.649833
O O7 0.257724 0.000000 0.709044
O O8 0.412632 0.216729 0.952217
O O9 0.508353 0.000000 0.880261
O O10 0.617567 0.209152 0.897444
O O11 0.595894 0.500000 0.607462
O O12 0.652455 0.693352 0.500000
O O13 0.456884 0.657598 0.586232
O O14 0.663381 0.000000 0.965484
O O15 0.778724 0.220581 0.942551
O O16 0.984989 0.790848 0.897444
O O17 0.871135 0.000000 0.965484
O O18 0.864849 0.783271 0.047783
O O19 0.111386 0.000000 0.880261
O O20 0.296644 0.500000 0.607462
#
# Coordination Sequence:
#
# PCOD8067880 Si02
#       8
#     4   4   4   4   4   4   4   4
#     4   9  15  21  31  48  69  90 110 135 166 195
#     4   9  15  21  31  48  69  90 110 135 166 195
#     4   8  13  19  27  43  66  88 111 139 166 192
#     4   8  14  24  35  46  63  88 114 136 159 192
#     4   8  12  18  28  41  61  90 117 138 163 194
#     4   8  12  18  28  41  61  90 117 138 163 194
#     4   8  13  19  27  43  66  88 111 139 166 192
#     4   8  14  24  35  46  63  88 114 136 159 192
#
# _framework density 13.692269
#
# number of rings (size 3 to 8) (size 9 to 14) (size 15 to 20)
#    0.000    3.750    0.000    3.000    0.000    3.500 
#    0.000    2.500    0.000    0.000    0.000    3.500 
#    0.000    4.000    0.000   12.500    0.000    2.500 
#
# Total GULP energy -396444.161954 kJ/mol
# GULP energy per Si atom -12388.880061 kJ/mol
# Density = 1.366110 g / cm^3
# Si number density = 13.692269 Si / 1000 Ang^3
#
#
#
# Elastic Constant Matrix: (Units=GPa)
#
#
# Indices 1 2 3 4 5 6 
#
# 1 71.6659 16.9583 42.5045 0.0000 -0.2174 0.0000
# 2 16.9583 33.1700 44.2169 0.0000 -1.0340 0.0000
# 3 42.5045 44.2169 128.5031 0.0000 -1.9385 0.0000
# 4 0.0000 0.0000 0.0000 4.0550 0.0000 -0.0075
# 5 -0.2174 -1.0340 -1.9385 0.0000 17.5116 0.0000
# 6 0.0000 0.0000 0.0000 -0.0075 0.0000 3.8564
#
#
#
# Elastic Compliance Matrix: (Units=1/GPa)
#
#
# Indices 1 2 3 4 5 6 
#
# 1 0.017455 -0.002277 -0.004997 0.000000 -0.000471 0.000000
# 2 -0.002277 0.056015 -0.018503 0.000000 0.001231 0.000000
# 3 -0.004997 -0.018503 0.015810 0.000000 0.000596 0.000000
# 4 0.000000 0.000000 0.000000 0.246609 0.000000 0.000480
# 5 -0.000471 0.001231 0.000596 0.000000 0.057238 0.000000
# 6 0.000000 0.000000 0.000000 0.000480 0.000000 0.259312
#
#
# Mechanical properties :
#
#
# Convention : Reuss Voigt Hill
#
# Bulk Modulus (GPa) = 26.50659 48.96648 37.73654
# Shear Modulus (GPa) = 6.97771 13.72855 10.35313
#
# Velocity S-wave (km/s) = 2.25990 3.16990 2.75276
# Velocity P-wave (km/s) = 5.11961 7.01694 6.14198
#
# Compressibility (1/GPa) = 0.03772647
#
# Stress axis : x y z
#
# Youngs Moduli (GPa) = 57.29101 17.85233 63.24996
#
# Poissons Ratio (x) = 0.04066 0.31605
# Poissons Ratio (y) = 0.13048 1.17028
# Poissons Ratio (z) = 0.28628 0.33031
#
# Static dielectric constant tensor:
#      x y z
#    x 2.690390 0.000000 -0.011320 
#    y 0.000000 2.389770 0.000000 
#    z -0.011320 0.000000 2.988790 
# 
# 
# High freq. dielectric constant tensor:
#      x y z
#    x 1.487150 0.000000 -0.001390 
#    y 0.000000 1.476180 0.000000 
#    z -0.001390 0.000000 1.523750 
# 
# From -- ./inp_files/68215.got.cif
#   From: 2010.06.25/outbox.cif.g09.slc.cpg/sg10_35_cif.got.tgz:68215.got - 2010.06.27 22:07:45.
