data_PCOD8067138
_publ_section_title
;
Structure prediction by ZEFSAII (Michael W. Deem and Ramdas Pophale) SiO2 
 PCOD8067138
Probable space group: P 2/M
;
_chemical_formula_sum "Si O2"
_cell_formula_units_Z 20
_cell_length_a 24.418129
_cell_length_b 8.806922
_cell_length_c 7.666236
_cell_angle_alpha 90.000000
_cell_angle_beta 142.414620
_cell_angle_gamma 90.000000
_cell_volume 1005.559918
_symmetry_space_group_name_H-M "P 2/M"
_symmetry_group_IT_number 10
_symmetry_cell_setting 'monoclinic'
loop_
_space_group_symop_operation_xyz
x,y,z
-x,y,-z
-x,-y,-z
x,-y,z
loop_
_atom_site_type_symbol
_atom_site_label
_atom_site_fract_x
_atom_site_fract_y
_atom_site_fract_z
Si Si1 0.104589 0.823401 0.764585
Si Si2 0.783672 0.180624 0.284931
Si Si3 0.222122 0.678639 0.354821
Si Si4 0.403938 0.832094 0.803063
Si Si5 0.592360 0.833475 0.780530
O O1 0.141659 0.774057 0.668075
O O2 0.000000 0.787082 0.500000
O O3 0.124833 0.000000 0.851221
O O4 0.148037 0.726579 0.028098
O O5 0.805737 0.253973 0.527390
O O6 0.778011 0.000000 0.299311
O O7 0.687189 0.241642 0.962386
O O8 0.224603 0.500000 0.380404
O O9 0.319319 0.733023 0.527413
O O10 0.398901 0.000000 0.701977
O O11 0.500000 0.754244 0.000000
O O12 0.397156 0.850016 0.989531
O O13 0.500000 0.741319 0.500000
O O14 0.584043 0.000000 0.669810
#
# Coordination Sequence:
#
# PCOD8067138 Si02
#       5
#     4   4   4   4   4
#     4  10  22  40  64  90 112 144 197 254 300 342
#     4   9  19  37  60  83 113 150 193 245 289 340
#     4  11  23  38  57  83 123 161 189 233 292 359
#     4   9  18  32  54  81 110 149 197 242 281 333
#     4   8  14  25  46  78 106 134 178 228 278 326
#
# _framework density 19.889415
#
# number of rings (size 3 to 8) (size 9 to 14) (size 15 to 20)
#    0.000    2.600    0.000    3.000    2.800    2.400 
#    0.000    4.000    0.000    2.400    0.000    0.000 
#    0.000    0.000    0.000    0.000    0.000    0.000 
#
# Total GULP energy -247797.184454 kJ/mol
# GULP energy per Si atom -12389.859223 kJ/mol
# Density = 1.984415 g / cm^3
# Si number density = 19.889415 Si / 1000 Ang^3
#
#
#
# Elastic Constant Matrix: (Units=GPa)
#
#
# Indices 1 2 3 4 5 6 
#
# 1 129.5253 37.6970 67.6938 0.0000 25.5491 0.0000
# 2 37.6970 73.5060 48.6784 0.0000 0.8648 0.0000
# 3 67.6938 48.6784 130.9675 0.0000 15.5911 0.0000
# 4 0.0000 0.0000 0.0000 13.2908 0.0000 -4.8562
# 5 25.5491 0.8648 15.5911 0.0000 35.0609 0.0000
# 6 0.0000 0.0000 0.0000 -4.8562 0.0000 15.4668
#
#
#
# Elastic Compliance Matrix: (Units=1/GPa)
#
#
# Indices 1 2 3 4 5 6 
#
# 1 0.012325 -0.003411 -0.004270 0.000000 -0.006999 0.000000
# 2 -0.003411 0.019232 -0.005939 0.000000 0.004652 0.000000
# 3 -0.004270 -0.005939 0.012314 0.000000 -0.002218 0.000000
# 4 0.000000 0.000000 0.000000 0.084990 0.000000 0.026685
# 5 -0.006999 0.004652 -0.002218 0.000000 0.034493 0.000000
# 6 0.000000 0.000000 0.000000 0.026685 0.000000 0.073033
#
#
# Mechanical properties :
#
#
# Convention : Reuss Voigt Hill
#
# Bulk Modulus (GPa) = 60.12602 71.34858 65.73730
# Shear Modulus (GPa) = 18.57560 24.75900 21.66730
#
# Velocity S-wave (km/s) = 3.05937 3.53205 3.30417
# Velocity P-wave (km/s) = 6.54029 7.25150 6.90506
#
# Compressibility (1/GPa) = 0.01663174
#
# Stress axis : x y z
#
# Youngs Moduli (GPa) = 81.13495 51.99690 81.20999
#
# Poissons Ratio (x) = 0.17736 0.34673
# Poissons Ratio (y) = 0.27676 0.48230
# Poissons Ratio (z) = 0.34641 0.30881
#
# Static dielectric constant tensor:
#      x y z
#    x 3.919540 0.000000 0.389540 
#    y 0.000000 3.249740 0.000000 
#    z 0.389540 0.000000 3.797290 
# 
# 
# High freq. dielectric constant tensor:
#      x y z
#    x 1.782740 0.000000 0.010150 
#    y 0.000000 1.724430 0.000000 
#    z 0.010150 0.000000 1.783530 
# 
# From -- ./inp_files/26771.got.cif
#   From: 2010.06.25/outbox.cif.g09.slc.cpg/sg10_14_cif.got.tgz:26771.got - 2010.06.27 22:07:45.
