data_PCOD8067107
_publ_section_title
;
Structure prediction by ZEFSAII (Michael W. Deem and Ramdas Pophale) SiO2 
 PCOD8067107
Probable space group: P 2/M
;
_chemical_formula_sum "Si O2"
_cell_formula_units_Z 24
_cell_length_a 13.292474
_cell_length_b 8.675172
_cell_length_c 14.311186
_cell_angle_alpha 90.000000
_cell_angle_beta 138.301142
_cell_angle_gamma 90.000000
_cell_volume 1097.796602
_symmetry_space_group_name_H-M "P 2/M"
_symmetry_group_IT_number 10
_symmetry_cell_setting 'monoclinic'
loop_
_space_group_symop_operation_xyz
x,y,z
-x,y,-z
-x,-y,-z
x,-y,z
loop_
_atom_site_type_symbol
_atom_site_label
_atom_site_fract_x
_atom_site_fract_y
_atom_site_fract_z
Si Si1 0.492654 0.677119 0.101823
Si Si2 0.018392 0.678830 0.651247
Si Si3 0.967959 0.821045 0.811318
Si Si4 0.781730 0.821696 0.359901
Si Si5 0.360823 0.180795 0.338850
Si Si6 0.751729 0.677163 0.919566
O O1 0.545775 0.500000 0.144848
O O2 0.605181 0.783995 0.239134
O O3 0.328286 0.698537 0.034581
O O4 0.500000 0.733669 0.000000
O O5 0.055295 0.500000 0.662414
O O6 0.150617 0.777010 0.694136
O O7 0.011880 0.715567 0.755025
O O8 0.858690 0.721505 0.494213
O O9 0.799023 0.778102 0.724590
O O10 0.979760 0.000000 0.793974
O O11 0.093443 0.777438 0.976681
O O12 0.810486 0.000000 0.401516
O O13 0.500000 0.240092 0.500000
O O14 0.363395 0.266125 0.240909
O O15 0.378266 0.000000 0.332941
O O16 0.792954 0.500000 0.930183
#
# Coordination Sequence:
#
# PCOD8067107 Si02
#       6
#     4   4   4   4   4   4
#     4  10  22  40  61  88 127 170 212 259 317 379
#     4  11  22  38  61  89 126 167 208 260 320 376
#     4  11  23  41  66  94 126 166 215 264 318 384
#     4  11  22  37  59  89 125 165 214 262 311 377
#     4  10  24  45  67  93 127 169 213 266 329 385
#     4  11  24  41  65  97 130 170 217 266 321 382
#
# _framework density 21.861972999999999
#
# number of rings (size 3 to 8) (size 9 to 14) (size 15 to 20)
#    0.000    1.333    0.000    6.500    2.333    6.667 
#    0.000    0.000    0.000    0.000    0.000    0.000 
#    0.000    0.000    0.000    0.000    0.000    0.000 
#
# Total GULP energy -297694.689191 kJ/mol
# GULP energy per Si atom -12403.945383 kJ/mol
# Density = 2.181221 g / cm^3
# Si number density = 21.861973 Si / 1000 Ang^3
#
#
#
# Elastic Constant Matrix: (Units=GPa)
#
#
# Indices 1 2 3 4 5 6 
#
# 1 74.3236 28.9945 50.3310 0.0000 4.2528 0.0000
# 2 28.9945 76.9252 24.6774 0.0000 5.4484 0.0000
# 3 50.3310 24.6774 119.7853 0.0000 14.3156 0.0000
# 4 0.0000 0.0000 0.0000 38.8563 0.0000 -2.2517
# 5 4.2528 5.4484 14.3156 0.0000 39.2878 0.0000
# 6 0.0000 0.0000 0.0000 -2.2517 0.0000 28.9683
#
#
#
# Elastic Compliance Matrix: (Units=1/GPa)
#
#
# Indices 1 2 3 4 5 6 
#
# 1 0.020750 -0.005426 -0.007760 0.000000 0.001334 0.000000
# 2 -0.005426 0.015371 -0.000734 0.000000 -0.001277 0.000000
# 3 -0.007760 -0.000734 0.012178 0.000000 -0.003496 0.000000
# 4 0.000000 0.000000 0.000000 0.025852 0.000000 0.002009
# 5 0.001334 -0.001277 -0.003496 0.000000 0.026760 0.000000
# 6 0.000000 0.000000 0.000000 0.002009 0.000000 0.034677
#
#
# Mechanical properties :
#
#
# Convention : Reuss Voigt Hill
#
# Bulk Modulus (GPa) = 48.88082 53.22663 51.05373
# Shear Modulus (GPa) = 29.36888 32.55791 30.96339
#
# Velocity S-wave (km/s) = 3.66919 3.86326 3.76748
# Velocity P-wave (km/s) = 6.35279 6.65577 6.50604
#
# Compressibility (1/GPa) = 0.02045792
#
# Stress axis : x y z
#
# Youngs Moduli (GPa) = 48.19183 65.05852 82.11543
#
# Poissons Ratio (x) = 0.35302 0.63725
# Poissons Ratio (y) = 0.26150 0.06028
# Poissons Ratio (z) = 0.37399 0.04776
#
# Static dielectric constant tensor:
#      x y z
#    x 3.836420 0.000000 0.056300 
#    y 0.000000 3.850330 0.000000 
#    z 0.056300 0.000000 4.093990 
# 
# 
# High freq. dielectric constant tensor:
#      x y z
#    x 1.856530 0.000000 0.002870 
#    y 0.000000 1.855720 0.000000 
#    z 0.002870 0.000000 1.869730 
# 
# From -- ./inp_files/66684.got.cif
#   From: 2010.06.25/outbox.cif.g09.slc.cpg/sg10_34_cif.got.tgz:66684.got - 2010.06.27 22:07:45.
