data_PCOD8067978
_publ_section_title
;
Structure prediction by ZEFSAII (Michael W. Deem and Ramdas Pophale) SiO2 
 PCOD8067978
Probable space group: P 2/M
;
_chemical_formula_sum "Si O2"
_cell_formula_units_Z 32
_cell_length_a 22.793629
_cell_length_b 8.980913
_cell_length_c 27.853277
_cell_angle_alpha 90.000000
_cell_angle_beta 18.097489
_cell_angle_gamma 90.000000
_cell_volume 1771.170345
_symmetry_space_group_name_H-M "P 2/M"
_symmetry_group_IT_number 10
_symmetry_cell_setting 'monoclinic'
loop_
_space_group_symop_operation_xyz
x,y,z
-x,y,-z
-x,-y,-z
x,-y,z
loop_
_atom_site_type_symbol
_atom_site_label
_atom_site_fract_x
_atom_site_fract_y
_atom_site_fract_z
Si Si1 0.649426 0.326723 0.603000
Si Si2 0.077620 0.176478 0.547520
Si Si3 0.075067 0.323638 0.048506
Si Si4 0.376006 0.174519 0.236916
Si Si5 0.336803 0.322375 0.661352
Si Si6 0.335633 0.822768 0.161988
Si Si7 0.374397 0.327646 0.738256
Si Si8 0.339146 0.173802 0.908553
O O1 0.639696 0.500000 0.624997
O O2 0.855149 0.258263 0.455330
O O3 0.584235 0.305971 0.598120
O O4 0.503531 0.230911 0.746656
O O5 0.208539 0.234683 0.401661
O O6 0.864967 0.228236 0.702986
O O7 0.093812 0.000000 0.542167
O O8 0.087542 0.500000 0.042779
O O9 0.210798 0.262129 0.900292
O O10 0.144909 0.257333 0.045506
O O11 0.863962 0.267706 0.202748
O O12 0.361974 0.246181 0.194894
O O13 0.585416 0.207592 0.096027
O O14 0.342220 0.000000 0.258659
O O15 0.500000 0.258115 0.500000
O O16 0.345904 0.500000 0.655507
O O17 0.367458 0.254040 0.690891
O O18 0.347690 0.000000 0.154863
O O19 0.500000 0.758458 0.000000
O O20 0.326336 0.500000 0.769278
O O21 0.308115 0.000000 0.924698
#
# Coordination Sequence:
#
# PCOD8067978 Si02
#       8
#     4   4   4   4   4   4   4   4
#     4   9  16  27  45  67  90 113 140 176 215 256
#     4   9  16  27  45  67  89 112 140 177 218 256
#     4   9  16  27  45  67  89 112 140 177 218 256
#     4   8  14  25  42  63  85 111 142 176 214 253
#     4   9  16  26  42  64  87 112 147 185 212 243
#     4   9  16  26  42  64  87 112 147 185 212 243
#     4   8  14  25  42  63  85 111 142 176 214 253
#     4   9  16  27  45  67  90 113 140 176 215 256
#
# _framework density 18.067150000000002
#
# number of rings (size 3 to 8) (size 9 to 14) (size 15 to 20)
#    0.000    3.250    0.000    3.000    0.000    3.000 
#    0.000    1.250    0.000   14.250    0.000    0.000 
#    0.000    0.000    0.000    0.000    0.000    0.000 
#
# Total GULP energy -396460.608889 kJ/mol
# GULP energy per Si atom -12389.394028 kJ/mol
# Density = 1.802603 g / cm^3
# Si number density = 18.067150 Si / 1000 Ang^3
#
#
#
# Elastic Constant Matrix: (Units=GPa)
#
#
# Indices 1 2 3 4 5 6 
#
# 1 125.3927 28.3706 94.2904 0.0000 -38.2997 0.0000
# 2 28.3706 14.7702 20.1021 0.0000 -8.3007 0.0000
# 3 94.2904 20.1021 120.6399 0.0000 -20.9281 0.0000
# 4 0.0000 0.0000 0.0000 15.2844 0.0000 -9.8884
# 5 -38.2997 -8.3007 -20.9281 0.0000 28.9776 0.0000
# 6 0.0000 0.0000 0.0000 -9.8884 0.0000 20.3999
#
#
#
# Elastic Compliance Matrix: (Units=1/GPa)
#
#
# Indices 1 2 3 4 5 6 
#
# 1 0.038704 -0.031283 -0.020256 0.000000 0.027565 0.000000
# 2 -0.031283 0.120464 0.003648 0.000000 -0.004205 0.000000
# 3 -0.020256 0.003648 0.021778 0.000000 -0.009998 0.000000
# 4 0.000000 0.000000 0.000000 0.095318 0.000000 0.046203
# 5 0.027565 -0.004205 -0.009998 0.000000 0.062516 0.000000
# 6 0.000000 0.000000 0.000000 0.046203 0.000000 0.071416
#
#
# Mechanical properties :
#
#
# Convention : Reuss Voigt Hill
#
# Bulk Modulus (GPa) = 11.74197 60.70322 36.22260
# Shear Modulus (GPa) = 9.35688 20.80168 15.07928
#
# Velocity S-wave (km/s) = 2.27820 3.39684 2.89212
# Velocity P-wave (km/s) = 3.66516 7.00402 5.58971
#
# Compressibility (1/GPa) = 0.08516462
#
# Stress axis : x y z
#
# Youngs Moduli (GPa) = 25.83722 8.30124 45.91696
#
# Poissons Ratio (x) = 0.25969 0.93009
# Poissons Ratio (y) = 0.80827 -0.16752
# Poissons Ratio (z) = 0.52336 -0.03029
#
# Static dielectric constant tensor:
#      x y z
#    x 3.889390 0.000000 -0.309350 
#    y 0.000000 2.929800 0.000000 
#    z -0.309350 0.000000 3.359990 
# 
# 
# High freq. dielectric constant tensor:
#      x y z
#    x 1.710370 0.000000 -0.029520 
#    y 0.000000 1.646230 0.000000 
#    z -0.029520 0.000000 1.676450 
# 
# From -- ./inp_files/93680.got.cif
#   From: 2010.06.25/outbox.cif.g09.slc.cpg/sg10_47_cif.got.tgz:93680.got - 2010.06.27 22:07:45.
