data_PCOD8067853
_publ_section_title
;
Structure prediction by ZEFSAII (Michael W. Deem and Ramdas Pophale) SiO2 
 PCOD8067853
Probable space group: P 2/M
;
_chemical_formula_sum "Si O2"
_cell_formula_units_Z 28
_cell_length_a 21.883009
_cell_length_b 9.002764
_cell_length_c 14.624971
_cell_angle_alpha 90.000000
_cell_angle_beta 37.419276
_cell_angle_gamma 90.000000
_cell_volume 1750.759403
_symmetry_space_group_name_H-M "P 2/M"
_symmetry_group_IT_number 10
_symmetry_cell_setting 'monoclinic'
loop_
_space_group_symop_operation_xyz
x,y,z
-x,y,-z
-x,-y,-z
x,-y,z
loop_
_atom_site_type_symbol
_atom_site_label
_atom_site_fract_x
_atom_site_fract_y
_atom_site_fract_z
Si Si1 0.410702 0.175607 0.982627
Si Si2 0.751893 0.166771 0.462641
Si Si3 0.431827 0.165127 0.456661
Si Si4 0.632902 0.176502 0.767187
Si Si5 0.887646 0.821940 0.146757
Si Si6 0.376110 0.674486 0.838316
Si Si7 0.279766 0.827087 0.793180
O O1 0.524760 0.233315 0.860048
O O2 0.359863 0.257378 0.958025
O O3 0.407390 0.000000 0.969250
O O4 0.349366 0.219735 0.147970
O O5 0.652878 0.167730 0.519120
O O6 0.721662 0.243575 0.595961
O O7 0.842394 0.242824 0.296808
O O8 0.786732 0.000000 0.442558
O O9 0.515972 0.284093 0.331986
O O10 0.381634 0.201798 0.613996
O O11 0.480958 0.000000 0.400677
O O12 0.631052 0.000000 0.759473
O O13 0.817922 0.767967 0.145773
O O14 0.884445 0.000000 0.154297
O O15 0.000000 0.760035 0.000000
O O16 0.366052 0.500000 0.857312
O O17 0.288058 0.736675 0.877484
O O18 0.267076 0.000000 0.830473
#
# Coordination Sequence:
#
# PCOD8067853 Si02
#       7
#     4   4   4   4   4   4   4
#     4   9  16  27  43  59  80 112 150 181 204 243
#     4   8  12  21  41  65  86 108 137 170 206 252
#     4   9  16  28  44  59  80 114 150 175 199 243
#     4   8  13  23  42  63  79 106 147 182 206 238
#     4   8  14  25  43  69  93 107 127 169 220 259
#     4  12  22  28  37  58  88 119 145 176 213 243
#     4   9  18  30  45  62  82 113 146 173 205 253
#
# _framework density 15.993061000000001
#
# number of rings (size 3 to 8) (size 9 to 14) (size 15 to 20)
#    0.000    3.000    1.429    4.286    0.000    2.286 
#    0.000    1.429    0.000    0.429    0.000    1.000 
#    0.000    8.000    0.000    0.000    0.000    0.000 
#
# Total GULP energy -346903.180887 kJ/mol
# GULP energy per Si atom -12389.399317 kJ/mol
# Density = 1.595666 g / cm^3
# Si number density = 15.993061 Si / 1000 Ang^3
#
#
#
# Elastic Constant Matrix: (Units=GPa)
#
#
# Indices 1 2 3 4 5 6 
#
# 1 91.4222 31.4902 68.3202 0.0000 26.5933 0.0000
# 2 31.4902 45.2833 24.5661 0.0000 10.1775 0.0000
# 3 68.3202 24.5661 118.4841 0.0000 19.0510 0.0000
# 4 0.0000 0.0000 0.0000 5.2152 0.0000 1.7631
# 5 26.5933 10.1775 19.0510 0.0000 28.7510 0.0000
# 6 0.0000 0.0000 0.0000 1.7631 0.0000 1.8233
#
#
#
# Elastic Compliance Matrix: (Units=1/GPa)
#
#
# Indices 1 2 3 4 5 6 
#
# 1 0.026453 -0.009260 -0.011110 0.000000 -0.013828 0.000000
# 2 -0.009260 0.029095 -0.000463 0.000000 -0.001427 0.000000
# 3 -0.011110 -0.000463 0.014845 0.000000 0.000603 0.000000
# 4 0.000000 0.000000 0.000000 0.284867 0.000000 -0.275453
# 5 -0.013828 -0.001427 0.000603 0.000000 0.047677 0.000000
# 6 0.000000 0.000000 0.000000 -0.275453 0.000000 0.814794
#
#
# Mechanical properties :
#
#
# Convention : Reuss Voigt Hill
#
# Bulk Modulus (GPa) = 34.81187 55.99361 45.40274
# Shear Modulus (GPa) = 3.94020 15.87879 9.90949
#
# Velocity S-wave (km/s) = 1.57132 3.15438 2.49190
# Velocity P-wave (km/s) = 5.01061 6.95370 6.06053
#
# Compressibility (1/GPa) = 0.02872584
#
# Stress axis : x y z
#
# Youngs Moduli (GPa) = 37.80350 34.37019 67.36254
#
# Poissons Ratio (x) = 0.31828 0.74837
# Poissons Ratio (y) = 0.35008 0.03121
# Poissons Ratio (z) = 0.41998 0.01592
#
# Static dielectric constant tensor:
#      x y z
#    x 3.046980 0.000000 0.306420 
#    y 0.000000 2.546080 0.000000 
#    z 0.306420 0.000000 3.288870 
# 
# 
# High freq. dielectric constant tensor:
#      x y z
#    x 1.602050 0.000000 0.029880 
#    y 0.000000 1.563410 0.000000 
#    z 0.029880 0.000000 1.598000 
# 
# From -- ./inp_files/69629.got.cif
#   From: 2010.06.25/outbox.cif.g09.slc.cpg/sg10_35_cif.got.tgz:69629.got - 2010.06.27 22:07:45.
