data_PCOD8067205
_publ_section_title
;
Structure prediction by ZEFSAII (Michael W. Deem and Ramdas Pophale) SiO2 
 PCOD8067205
Probable space group: P 2/M
;
_chemical_formula_sum "Si O2"
_cell_formula_units_Z 28
_cell_length_a 14.977446
_cell_length_b 8.963899
_cell_length_c 12.588522
_cell_angle_alpha 90.000000
_cell_angle_beta 53.493020
_cell_angle_gamma 90.000000
_cell_volume 1358.466798
_symmetry_space_group_name_H-M "P 2/M"
_symmetry_group_IT_number 10
_symmetry_cell_setting 'monoclinic'
loop_
_space_group_symop_operation_xyz
x,y,z
-x,y,-z
-x,-y,-z
x,-y,z
loop_
_atom_site_type_symbol
_atom_site_label
_atom_site_fract_x
_atom_site_fract_y
_atom_site_fract_z
Si Si1 0.400245 0.838955 0.000217
Si Si2 0.486700 0.326133 0.738024
Si Si3 0.224651 0.673896 0.262269
Si Si4 0.246143 0.328967 0.849852
Si Si5 0.095973 0.671087 0.150345
Si Si6 0.870278 0.175202 0.259398
Si Si7 0.719723 0.177304 0.560359
O O1 0.325376 0.734311 0.124074
O O2 0.345753 0.000000 0.000584
O O3 0.500000 0.893558 0.000000
O O4 0.448976 0.734910 0.876112
O O5 0.516399 0.500000 0.725155
O O6 0.378367 0.299453 0.740068
O O7 0.596635 0.239730 0.622911
O O8 0.240977 0.500000 0.275652
O O9 0.118524 0.700987 0.259980
O O10 0.219555 0.760513 0.377244
O O11 0.218844 0.500000 0.843351
O O12 0.178527 0.228620 0.817045
O O13 0.204926 0.291071 0.000075
O O14 0.062229 0.500000 0.157087
O O15 0.995471 0.771242 0.183165
O O16 0.795012 0.232528 0.409702
O O17 0.871756 0.000000 0.256584
O O18 0.711610 0.000000 0.576424
#
# Coordination Sequence:
#
# PCOD8067205 Si02
#       7
#     4   4   4   4   4   4   4
#     4  11  21  33  55  90 128 163 196 242 309 365
#     4  11  22  38  63  93 123 158 205 251 301 364
#     4  11  22  38  63  93 123 158 205 251 301 364
#     4  10  22  42  66  93 123 155 199 259 312 356
#     4  10  22  42  66  93 123 155 199 259 312 356
#     4  11  26  44  62  87 122 165 210 254 301 366
#     4  11  25  43  59  87 130 167 203 248 305 363
#
# _framework density 20.611471000000002
#
# number of rings (size 3 to 8) (size 9 to 14) (size 15 to 20)
#    0.000    1.286    2.857    2.571    0.000    8.571 
#    0.000    5.714    0.000    0.000    0.000    0.000 
#    0.000    0.000    0.000    0.000    0.000    0.000 
#
# Total GULP energy -347029.626814 kJ/mol
# GULP energy per Si atom -12393.915243 kJ/mol
# Density = 2.056456 g / cm^3
# Si number density = 20.611471 Si / 1000 Ang^3
#
#
#
# Elastic Constant Matrix: (Units=GPa)
#
#
# Indices 1 2 3 4 5 6 
#
# 1 111.2271 35.1462 29.5821 0.0000 -17.2673 0.0000
# 2 35.1462 76.9178 29.3140 0.0000 0.7458 0.0000
# 3 29.5821 29.3140 89.8234 0.0000 17.8855 0.0000
# 4 0.0000 0.0000 0.0000 46.0400 0.0000 -53.3153
# 5 -17.2673 0.7458 17.8855 0.0000 150.3076 0.0000
# 6 0.0000 0.0000 0.0000 -53.3153 0.0000 -580.2625
#
#
#
# Elastic Compliance Matrix: (Units=1/GPa)
#
#
# Indices 1 2 3 4 5 6 
#
# 1 0.011267 -0.004141 -0.002685 0.000000 0.001634 0.000000
# 2 -0.004141 0.016409 -0.003974 0.000000 -0.000084 0.000000
# 3 -0.002685 -0.003974 0.013696 0.000000 -0.001918 0.000000
# 4 0.000000 0.000000 0.000000 0.019631 0.000000 -0.001804
# 5 0.001634 -0.000084 -0.001918 0.000000 0.007069 0.000000
# 6 0.000000 0.000000 0.000000 -0.001804 0.000000 -0.001558
#
#
# Mechanical properties :
#
#
# Convention : Reuss Voigt Hill
#
# Bulk Modulus (GPa) = 50.57758 51.78366 51.18062
# Shear Modulus (GPa) = 52.79544 -64.52125 -5.86290
#
# Velocity S-wave (km/s) = 5.06658 -5.60103 -1.68839
# Velocity P-wave (km/s) = 7.66934 4.08050 4.59175
#
# Compressibility (1/GPa) = 0.01977161
#
# Stress axis : x y z
#
# Youngs Moduli (GPa) = 88.75640 60.94396 73.01325
#
# Poissons Ratio (x) = 0.25236 0.19601
# Poissons Ratio (y) = 0.36753 0.29019
# Poissons Ratio (z) = 0.23827 0.24222
#
# Static dielectric constant tensor:
#      x y z
#    x 3.960910 0.000000 0.020230 
#    y 0.000000 3.775830 0.000000 
#    z 0.020230 0.000000 3.699620 
# 
# 
# High freq. dielectric constant tensor:
#      x y z
#    x 1.813070 0.000000 0.001230 
#    y 0.000000 1.820840 0.000000 
#    z 0.001230 0.000000 1.796390 
# 
# From -- ./inp_files/49660.got.cif
#   From: 2010.06.25/outbox.cif.g09.slc.cpg/sg10_25_cif.got.tgz:49660.got - 2010.06.27 22:07:45.
