data_PCOD8067253
_publ_section_title
;
Structure prediction by ZEFSAII (Michael W. Deem and Ramdas Pophale) SiO2 
 PCOD8067253
Probable space group: P 2/M
;
_chemical_formula_sum "Si O2"
_cell_formula_units_Z 26
_cell_length_a 13.890636
_cell_length_b 7.781620
_cell_length_c 15.134265
_cell_angle_alpha 90.000000
_cell_angle_beta 47.295924
_cell_angle_gamma 90.000000
_cell_volume 1202.158814
_symmetry_space_group_name_H-M "P 2/M"
_symmetry_group_IT_number 10
_symmetry_cell_setting 'monoclinic'
loop_
_space_group_symop_operation_xyz
x,y,z
-x,y,-z
-x,-y,-z
x,-y,z
loop_
_atom_site_type_symbol
_atom_site_label
_atom_site_fract_x
_atom_site_fract_y
_atom_site_fract_z
Si Si1 0.798547 0.199748 0.655038
Si Si2 0.952191 0.201437 0.390522
Si Si3 0.885639 0.500000 0.001643
Si Si4 0.527313 0.183272 0.586881
Si Si5 0.319550 0.800731 0.863382
Si Si6 0.476632 0.203658 0.112819
Si Si7 0.361440 0.500000 0.532813
Si Si8 0.921152 0.500000 0.275302
O O1 0.857539 0.270984 0.527104
O O2 0.658440 0.284694 0.765443
O O3 0.897816 0.231840 0.673708
O O4 0.779293 0.000000 0.651780
O O5 0.927818 0.321852 0.322970
O O6 0.929403 0.000000 0.380808
O O7 0.956933 0.500000 0.864251
O O8 0.803504 0.674629 0.063015
O O9 0.000000 0.500000 0.000000
O O10 0.500000 0.168376 0.500000
O O11 0.397172 0.226891 0.723209
O O12 0.636037 0.331477 0.532223
O O13 0.583837 0.000000 0.586448
O O14 0.407086 0.745361 0.893008
O O15 0.273631 0.000000 0.900476
O O16 0.463435 0.000000 0.115086
O O17 0.500000 0.279676 0.000000
O O18 0.500000 0.500000 0.500000
O O19 0.227829 0.500000 0.674028
#
# Coordination Sequence:
#
# PCOD8067253 Si02
#       8
#     4   4   2   4   4   4   2   2
#     4   8  16  34  61  94 132 172 204 251 321 378
#     4   9  20  40  64  91 131 170 208 261 316 383
#     4  12  31  50  65  87 134 175 229 286 324 393
#     4   9  19  37  68  99 122 154 204 268 331 387
#     4  10  23  45  71  98 129 174 221 270 334 394
#     4   9  18  33  62  98 131 168 215 261 313 388
#     4  10  23  40  64  88 126 156 193 259 332 381
#     4  12  28  41  63  99 116 170 228 262 324 393
#
# _framework density 21.627758
#
# number of rings (size 3 to 8) (size 9 to 14) (size 15 to 20)
#    0.000    2.462    0.000    1.385    8.615    2.769 
#    0.000    1.154    0.000    0.000    0.000    0.000 
#    0.000    0.000    0.000    0.000    0.000    0.000 
#
# Total GULP energy -322123.183217 kJ/mol
# GULP energy per Si atom -12389.353201 kJ/mol
# Density = 2.157853 g / cm^3
# Si number density = 21.627758 Si / 1000 Ang^3
#
#
#
# Elastic Constant Matrix: (Units=GPa)
#
#
# Indices 1 2 3 4 5 6 
#
# 1 111.3897 31.9326 61.1578 0.0000 -5.0563 0.0000
# 2 31.9326 116.6236 53.5750 0.0000 -11.7428 0.0000
# 3 61.1578 53.5750 159.0618 0.0000 -7.0960 0.0000
# 4 0.0000 0.0000 0.0000 40.4931 0.0000 -12.5150
# 5 -5.0563 -11.7428 -7.0960 0.0000 37.6602 0.0000
# 6 0.0000 0.0000 0.0000 -12.5150 0.0000 26.9798
#
#
#
# Elastic Compliance Matrix: (Units=1/GPa)
#
#
# Indices 1 2 3 4 5 6 
#
# 1 0.011557 -0.001291 -0.003991 0.000000 0.000397 0.000000
# 2 -0.001291 0.010535 -0.002938 0.000000 0.002558 0.000000
# 3 -0.003991 -0.002938 0.008820 0.000000 0.000210 0.000000
# 4 0.000000 0.000000 0.000000 0.028829 0.000000 0.013373
# 5 0.000397 0.002558 0.000210 0.000000 0.027444 0.000000
# 6 0.000000 0.000000 0.000000 0.013373 0.000000 0.043268
#
#
# Mechanical properties :
#
#
# Convention : Reuss Voigt Hill
#
# Bulk Modulus (GPa) = 69.09634 75.60065 72.34849
# Shear Modulus (GPa) = 32.95616 37.05392 35.00504
#
# Velocity S-wave (km/s) = 3.90781 4.14364 4.02745
# Velocity P-wave (km/s) = 7.23731 7.61080 7.42640
#
# Compressibility (1/GPa) = 0.01447255
#
# Stress axis : x y z
#
# Youngs Moduli (GPa) = 86.52905 94.91874 113.37500
#
# Poissons Ratio (x) = 0.12254 0.45247
# Poissons Ratio (y) = 0.11171 0.33310
# Poissons Ratio (z) = 0.34533 0.27887
#
# Static dielectric constant tensor:
#      x y z
#    x 3.749170 0.000000 -0.143750 
#    y 0.000000 5.229610 0.000000 
#    z -0.143750 0.000000 4.253770 
# 
# 
# High freq. dielectric constant tensor:
#      x y z
#    x 1.835910 0.000000 -0.004230 
#    y 0.000000 1.848020 0.000000 
#    z -0.004230 0.000000 1.851590 
# 
# From -- ./inp_files/66828.got.cif
#   From: 2010.06.25/outbox.cif.g09.slc.cpg/sg10_34_cif.got.tgz:66828.got - 2010.06.27 22:07:45.
