data_PCOD8067756
_publ_section_title
;
Structure prediction by ZEFSAII (Michael W. Deem and Ramdas Pophale) SiO2 
 PCOD8067756
Probable space group: P 2/M
;
_chemical_formula_sum "Si O2"
_cell_formula_units_Z 32
_cell_length_a 22.020447
_cell_length_b 13.555320
_cell_length_c 9.756161
_cell_angle_alpha 90.000000
_cell_angle_beta 40.601424
_cell_angle_gamma 90.000000
_cell_volume 1895.211989
_symmetry_space_group_name_H-M "P 2/M"
_symmetry_group_IT_number 10
_symmetry_cell_setting 'monoclinic'
loop_
_space_group_symop_operation_xyz
x,y,z
-x,y,-z
-x,-y,-z
x,-y,z
loop_
_atom_site_type_symbol
_atom_site_label
_atom_site_fract_x
_atom_site_fract_y
_atom_site_fract_z
Si Si1 0.107302 0.116919 0.158757
Si Si2 0.543227 0.885827 0.564411
Si Si3 0.740802 0.117030 0.584807
Si Si4 0.434046 0.217730 0.990994
Si Si5 0.423487 0.388412 0.822247
Si Si6 0.364502 0.388279 0.621607
Si Si7 0.103352 0.883676 0.473276
Si Si8 0.735138 0.800119 0.296102
O O1 0.130698 0.151937 0.273562
O O2 0.001060 0.148401 0.306773
O O3 0.122627 0.000000 0.112589
O O4 0.170963 0.177730 0.946416
O O5 0.500000 0.838700 0.500000
O O6 0.498057 0.838154 0.773674
O O7 0.653687 0.868289 0.373611
O O8 0.519956 0.000000 0.609550
O O9 0.823561 0.156212 0.540817
O O10 0.752029 0.176426 0.425538
O O11 0.745426 0.000000 0.549297
O O12 0.643268 0.142091 0.823363
O O13 0.386838 0.313813 0.001932
O O14 0.500000 0.254734 0.000000
O O15 0.409286 0.500000 0.898584
O O16 0.364881 0.371451 0.784384
O O17 0.532653 0.366378 0.611590
O O18 0.334115 0.500000 0.639083
O O19 0.291550 0.314921 0.674736
O O20 0.107324 0.000000 0.462493
#
# Coordination Sequence:
#
# PCOD8067756 Si02
#       8
#     4   4   4   4   4   4   4   4
#     4   9  18  34  56  79 103 132 174 221 257 305
#     4  11  23  34  46  70 104 140 181 214 243 299
#     4  11  23  35  49  74 112 150 176 206 254 309
#     4  12  22  34  49  72 109 149 172 209 258 309
#     4   9  18  34  54  73  97 134 180 225 262 302
#     4   9  18  34  54  76 101 129 172 229 271 300
#     4   8  18  36  53  75 105 137 172 215 264 303
#     4  12  21  33  53  79 101 136 179 217 257 315
#
# _framework density 16.884654999999999
#
# number of rings (size 3 to 8) (size 9 to 14) (size 15 to 20)
#    0.000    1.875    2.500    3.750    3.500    1.250 
#    0.000    2.500    0.000    0.000    0.000    4.375 
#    0.000    0.000    0.000    0.000    0.000    0.000 
#
# Total GULP energy -396799.900789 kJ/mol
# GULP energy per Si atom -12399.996900 kJ/mol
# Density = 1.684622 g / cm^3
# Si number density = 16.884655 Si / 1000 Ang^3
#
#
#
# Elastic Constant Matrix: (Units=GPa)
#
#
# Indices 1 2 3 4 5 6 
#
# 1 110.6755 34.9451 33.7890 0.0000 8.3205 0.0000
# 2 34.9451 85.4454 30.9453 0.0000 7.6991 0.0000
# 3 33.7890 30.9453 85.3680 0.0000 6.1839 0.0000
# 4 0.0000 0.0000 0.0000 10.4887 0.0000 5.4541
# 5 8.3205 7.6991 6.1839 0.0000 22.5369 0.0000
# 6 0.0000 0.0000 0.0000 5.4541 0.0000 26.0639
#
#
#
# Elastic Compliance Matrix: (Units=1/GPa)
#
#
# Indices 1 2 3 4 5 6 
#
# 1 0.011167 -0.003256 -0.003083 0.000000 -0.002165 0.000000
# 2 -0.003256 0.014670 -0.003829 0.000000 -0.002759 0.000000
# 3 -0.003083 -0.003829 0.014432 0.000000 -0.001513 0.000000
# 4 0.000000 0.000000 0.000000 0.106982 0.000000 -0.022387
# 5 -0.002165 -0.002759 -0.001513 0.000000 0.046529 0.000000
# 6 0.000000 0.000000 0.000000 -0.022387 0.000000 0.043052
#
#
# Mechanical properties :
#
#
# Convention : Reuss Voigt Hill
#
# Bulk Modulus (GPa) = 50.16688 53.42752 51.79720
# Shear Modulus (GPa) = 18.95276 23.93853 21.44565
#
# Velocity S-wave (km/s) = 3.35398 3.76941 3.56775
# Velocity P-wave (km/s) = 6.69141 7.11730 6.90764
#
# Compressibility (1/GPa) = 0.01993347
#
# Stress axis : x y z
#
# Youngs Moduli (GPa) = 89.54658 68.16482 69.28982
#
# Poissons Ratio (x) = 0.22191 0.21363
# Poissons Ratio (y) = 0.29152 0.26534
# Poissons Ratio (z) = 0.27609 0.26104
#
# Static dielectric constant tensor:
#      x y z
#    x 3.658740 0.000000 0.068810 
#    y 0.000000 3.092490 0.000000 
#    z 0.068810 0.000000 3.056080 
# 
# 
# High freq. dielectric constant tensor:
#      x y z
#    x 1.651690 0.000000 0.014830 
#    y 0.000000 1.633550 0.000000 
#    z 0.014830 0.000000 1.639570 
# 
# From -- ./inp_files/35102.got.cif
#   From: 2010.06.25/outbox.cif.g09.slc.cpg/sg10_18_cif.got.tgz:35102.got - 2010.06.27 22:07:45.
