data_PCOD8067845
_publ_section_title
;
Structure prediction by ZEFSAII (Michael W. Deem and Ramdas Pophale) SiO2 
 PCOD8067845
Probable space group: P 2/M
;
_chemical_formula_sum "Si O2"
_cell_formula_units_Z 28
_cell_length_a 13.568610
_cell_length_b 14.060117
_cell_length_c 10.252731
_cell_angle_alpha 90.000000
_cell_angle_beta 131.704843
_cell_angle_gamma 90.000000
_cell_volume 1460.297506
_symmetry_space_group_name_H-M "P 2/M"
_symmetry_group_IT_number 10
_symmetry_cell_setting 'monoclinic'
loop_
_space_group_symop_operation_xyz
x,y,z
-x,y,-z
-x,-y,-z
x,-y,z
loop_
_atom_site_type_symbol
_atom_site_label
_atom_site_fract_x
_atom_site_fract_y
_atom_site_fract_z
Si Si1 0.814590 0.390798 0.736442
Si Si2 0.144898 0.708875 0.681987
Si Si3 0.890385 0.607589 0.088186
Si Si4 0.510940 0.892497 0.225736
Si Si5 0.712384 0.106885 0.168849
Si Si6 0.399454 0.388396 0.799165
Si Si7 0.428448 0.710776 0.569441
O O1 0.773059 0.500000 0.666053
O O2 0.725545 0.311928 0.588044
O O3 0.959056 0.369282 0.811177
O O4 0.804706 0.375094 0.883119
O O5 0.163676 0.672768 0.845167
O O6 0.164616 0.822295 0.707497
O O7 0.257193 0.661566 0.690686
O O8 0.000000 0.683806 0.500000
O O9 0.875149 0.500000 0.123308
O O10 0.617753 0.876672 0.207884
O O11 0.541826 0.821114 0.372216
O O12 0.518163 0.000000 0.287364
O O13 0.367471 0.873477 0.035639
O O14 0.768845 0.000000 0.217799
O O15 0.375383 0.500000 0.775741
O O16 0.471248 0.354050 0.729847
O O17 0.500000 0.356728 0.000000
O O18 0.500000 0.678833 0.500000
#
# Coordination Sequence:
#
# PCOD8067845 Si02
#       7
#     4   4   4   4   4   4   4
#     4   9  20  39  57  79 118 162 203 238 282 350
#     4  12  23  35  62  94 120 151 197 255 305 352
#     4   9  20  38  59  80 113 163 204 237 284 352
#     4   9  19  39  63  85 113 153 198 244 297 358
#     4   9  19  38  64  87 115 153 193 242 301 363
#     4  11  25  42  59  86 127 165 204 252 295 346
#     4  12  24  35  59  90 120 154 195 247 299 354
#
# _framework density 19.174175000000002
#
# number of rings (size 3 to 8) (size 9 to 14) (size 15 to 20)
#    0.000    1.857    1.429    4.286    4.000    4.000 
#    0.000    0.000    0.000    0.000    0.000    2.000 
#    0.000    0.000    0.000    0.000    0.000    0.000 
#
# Total GULP energy -347158.444773 kJ/mol
# GULP energy per Si atom -12398.515885 kJ/mol
# Density = 1.913053 g / cm^3
# Si number density = 19.174175 Si / 1000 Ang^3
#
#
#
# Elastic Constant Matrix: (Units=GPa)
#
#
# Indices 1 2 3 4 5 6 
#
# 1 66.9846 39.0788 37.2533 0.0000 -14.1284 0.0000
# 2 39.0788 95.3858 43.8376 0.0000 1.5010 0.0000
# 3 37.2533 43.8376 96.8084 0.0000 -3.5087 0.0000
# 4 0.0000 0.0000 0.0000 38.3657 0.0000 0.4417
# 5 -14.1284 1.5010 -3.5087 0.0000 31.3568 0.0000
# 6 0.0000 0.0000 0.0000 0.4417 0.0000 25.3736
#
#
#
# Elastic Compliance Matrix: (Units=1/GPa)
#
#
# Indices 1 2 3 4 5 6 
#
# 1 0.024940 -0.007782 -0.005676 0.000000 0.010975 0.000000
# 2 -0.007782 0.015721 -0.004296 0.000000 -0.004740 0.000000
# 3 -0.005676 -0.004296 0.014432 0.000000 -0.000737 0.000000
# 4 0.000000 0.000000 0.000000 0.026070 0.000000 -0.000454
# 5 0.010975 -0.004740 -0.000737 0.000000 0.036980 0.000000
# 6 0.000000 0.000000 0.000000 -0.000454 0.000000 0.039419
#
#
# Mechanical properties :
#
#
# Convention : Reuss Voigt Hill
#
# Bulk Modulus (GPa) = 51.05671 55.50202 53.27936
# Shear Modulus (GPa) = 25.05023 28.28648 26.66836
#
# Velocity S-wave (km/s) = 3.61842 3.84505 3.73345
# Velocity P-wave (km/s) = 6.64401 6.98009 6.81412
#
# Compressibility (1/GPa) = 0.01958607
#
# Stress axis : x y z
#
# Youngs Moduli (GPa) = 40.09609 63.60950 69.28849
#
# Poissons Ratio (x) = 0.49501 0.39326
# Poissons Ratio (y) = 0.31203 0.29766
# Poissons Ratio (z) = 0.22757 0.27327
#
# Static dielectric constant tensor:
#      x y z
#    x 3.329850 0.000000 -0.098670 
#    y 0.000000 3.536260 0.000000 
#    z -0.098670 0.000000 3.576130 
# 
# 
# High freq. dielectric constant tensor:
#      x y z
#    x 1.731550 0.000000 -0.005720 
#    y 0.000000 1.742150 0.000000 
#    z -0.005720 0.000000 1.748610 
# 
# From -- ./inp_files/29622.got.cif
#   From: 2010.06.25/outbox.cif.g09.slc.cpg/sg10_15_cif.got.tgz:29622.got - 2010.06.27 22:07:45.
