data_PCOD8067366
_publ_section_title
;
Structure prediction by ZEFSAII (Michael W. Deem and Ramdas Pophale) SiO2 
 PCOD8067366
Probable space group: P 2/M
;
_chemical_formula_sum "Si O2"
_cell_formula_units_Z 28
_cell_length_a 9.685540
_cell_length_b 13.281220
_cell_length_c 21.494869
_cell_angle_alpha 90.000000
_cell_angle_beta 151.842053
_cell_angle_gamma 90.000000
_cell_volume 1304.818425
_symmetry_space_group_name_H-M "P 2/M"
_symmetry_group_IT_number 10
_symmetry_cell_setting 'monoclinic'
loop_
_space_group_symop_operation_xyz
x,y,z
-x,y,-z
-x,-y,-z
x,-y,z
loop_
_atom_site_type_symbol
_atom_site_label
_atom_site_fract_x
_atom_site_fract_y
_atom_site_fract_z
Si Si1 0.275307 0.616806 0.776817
Si Si2 0.336085 0.882032 0.626312
Si Si3 0.338762 0.883453 0.371931
Si Si4 0.317824 0.736893 0.147008
Si Si5 0.815776 0.738396 0.139837
Si Si6 0.633939 0.615880 0.490986
Si Si7 0.205993 0.616647 0.216266
O O1 0.380395 0.500000 0.816593
O O2 0.508695 0.696310 0.843731
O O3 0.202323 0.647570 0.817986
O O4 0.978673 0.631201 0.618988
O O5 0.451146 0.855237 0.602727
O O6 0.524602 0.827163 0.754272
O O7 0.000000 0.847453 0.500000
O O8 0.367848 0.000000 0.652413
O O9 0.500000 0.854979 0.500000
O O10 0.030625 0.826174 0.247045
O O11 0.256049 0.000000 0.337493
O O12 0.295856 0.638094 0.181572
O O13 0.000000 0.776834 0.000000
O O14 0.921250 0.682993 0.118793
O O15 0.500000 0.787130 0.000000
O O16 0.500000 0.668958 0.500000
O O17 0.550901 0.500000 0.462357
O O18 0.465416 0.658808 0.364074
O O19 0.136656 0.500000 0.196944
#
# Coordination Sequence:
#
# PCOD8067366 Si02
#       7
#     4   4   4   4   4   4   4
#     4  11  25  41  63  95 137 181 223 270 319 381
#     4  10  24  48  75 100 127 166 217 273 337 401
#     4  10  24  47  74 102 131 164 210 276 342 395
#     4  12  27  43  64  97 134 178 222 268 328 384
#     4  12  25  39  65  99 131 178 224 264 324 390
#     4   9  18  36  60  89 118 160 219 272 317 363
#     4  11  23  41  65  92 133 179 225 272 323 384
#
# _framework density 21.458925000000001
#
# number of rings (size 3 to 8) (size 9 to 14) (size 15 to 20)
#    0.000    1.286    2.857    1.714    6.000    4.000 
#    0.000    2.143    0.000    0.000    0.000    0.000 
#    0.000    0.000    0.000    0.000    0.000    0.000 
#
# Total GULP energy -347208.956392 kJ/mol
# GULP energy per Si atom -12400.319871 kJ/mol
# Density = 2.141008 g / cm^3
# Si number density = 21.458925 Si / 1000 Ang^3
#
#
#
# Elastic Constant Matrix: (Units=GPa)
#
#
# Indices 1 2 3 4 5 6 
#
# 1 85.2978 29.0219 38.7087 0.0000 3.8191 0.0000
# 2 29.0219 104.2243 55.9842 0.0000 9.2460 0.0000
# 3 38.7087 55.9842 155.8908 0.0000 14.1748 0.0000
# 4 0.0000 0.0000 0.0000 14.6900 0.0000 -8.3282
# 5 3.8191 9.2460 14.1748 0.0000 31.4782 0.0000
# 6 0.0000 0.0000 0.0000 -8.3282 0.0000 18.0041
#
#
#
# Elastic Compliance Matrix: (Units=1/GPa)
#
#
# Indices 1 2 3 4 5 6 
#
# 1 0.013706 -0.002474 -0.002533 0.000000 0.000205 0.000000
# 2 -0.002474 0.012416 -0.003691 0.000000 -0.001684 0.000000
# 3 -0.002533 -0.003691 0.008595 0.000000 -0.002479 0.000000
# 4 0.000000 0.000000 0.000000 0.092271 0.000000 0.042682
# 5 0.000205 -0.001684 -0.002479 0.000000 0.033354 0.000000
# 6 0.000000 0.000000 0.000000 0.042682 0.000000 0.075286
#
#
# Mechanical properties :
#
#
# Convention : Reuss Voigt Hill
#
# Bulk Modulus (GPa) = 57.73919 65.87139 61.80529
# Shear Modulus (GPa) = 19.32002 27.61434 23.46718
#
# Velocity S-wave (km/s) = 3.00380 3.59116 3.31053
# Velocity P-wave (km/s) = 6.24465 6.92520 6.59371
#
# Compressibility (1/GPa) = 0.01731926
#
# Stress axis : x y z
#
# Youngs Moduli (GPa) = 72.96156 80.54249 116.34841
#
# Poissons Ratio (x) = 0.19924 0.29476
# Poissons Ratio (y) = 0.18049 0.42949
# Poissons Ratio (z) = 0.18485 0.29731
#
# Static dielectric constant tensor:
#      x y z
#    x 3.909170 0.000000 0.000800 
#    y 0.000000 3.736810 0.000000 
#    z 0.000800 0.000000 4.016120 
# 
# 
# High freq. dielectric constant tensor:
#      x y z
#    x 1.844800 0.000000 0.000360 
#    y 0.000000 1.839960 0.000000 
#    z 0.000360 0.000000 1.848360 
# 
# From -- ./inp_files/82931.got.cif
#   From: 2010.06.25/outbox.cif.g09.slc.cpg/sg10_42_cif.got.tgz:82931.got - 2010.06.27 22:07:45.
