data_PCOD8067650
_publ_section_title
;
Structure prediction by ZEFSAII (Michael W. Deem and Ramdas Pophale) SiO2 
 PCOD8067650
Probable space group: P 2/M
;
_chemical_formula_sum "Si O2"
_cell_formula_units_Z 18
_cell_length_a 8.694430
_cell_length_b 9.841100
_cell_length_c 11.961088
_cell_angle_alpha 90.000000
_cell_angle_beta 55.162075
_cell_angle_gamma 90.000000
_cell_volume 839.996718
_symmetry_space_group_name_H-M "P 2/M"
_symmetry_group_IT_number 10
_symmetry_cell_setting 'monoclinic'
loop_
_space_group_symop_operation_xyz
x,y,z
-x,y,-z
-x,-y,-z
x,-y,z
loop_
_atom_site_type_symbol
_atom_site_label
_atom_site_fract_x
_atom_site_fract_y
_atom_site_fract_z
Si Si1 0.455812 0.000000 0.284120
Si Si2 0.828652 0.000000 0.991813
Si Si3 0.569107 0.735147 0.347790
Si Si4 0.792527 0.500000 0.865161
Si Si5 0.995496 0.223953 0.219758
Si Si6 0.066910 0.000000 0.350907
Si Si7 0.468135 0.500000 0.816873
O O1 0.452104 0.130214 0.366682
O O2 0.292399 0.000000 0.259432
O O3 0.635902 0.000000 0.133099
O O4 0.849033 0.138396 0.913221
O O5 0.000000 0.000000 0.000000
O O6 0.500000 0.684850 0.500000
O O7 0.791008 0.765016 0.249203
O O8 0.526257 0.628379 0.267587
O O9 0.642981 0.500000 0.828023
O O10 0.926228 0.372382 0.791520
O O11 0.711649 0.500000 0.025528
O O12 0.975830 0.137234 0.340228
O O13 0.000000 0.000000 0.500000
#
# Coordination Sequence:
#
# PCOD8067650 Si02
#       7
#     2   2   4   2   4   2   2
#     4  12  22  38  70  93 131 172 210 270 322 377
#     4  11  21  41  64 100 128 158 215 270 324 374
#     4  12  24  42  65  95 127 171 217 263 320 390
#     4  11  25  44  65  94 126 169 214 269 334 380
#     4  11  24  41  66  95 131 167 217 268 322 385
#     4  11  24  44  64  97 137 175 213 261 322 390
#     4  11  26  44  64  92 130 167 218 266 325 393
#
# _framework density 21.428654000000002
#
# number of rings (size 3 to 8) (size 9 to 14) (size 15 to 20)
#    0.000    0.667    2.222    6.000    0.000    4.444 
#    0.000    1.667    0.000    0.000    0.000    0.000 
#    0.000    0.000    0.000    0.000    0.000    0.000 
#
# Total GULP energy -223126.234297 kJ/mol
# GULP energy per Si atom -12395.901905 kJ/mol
# Density = 2.137988 g / cm^3
# Si number density = 21.428654 Si / 1000 Ang^3
#
#
#
# Elastic Constant Matrix: (Units=GPa)
#
#
# Indices 1 2 3 4 5 6 
#
# 1 104.0583 46.0699 13.9041 0.0000 7.8319 0.0000
# 2 46.0699 182.0352 35.6890 0.0000 20.2337 0.0000
# 3 13.9041 35.6890 112.7992 0.0000 21.2015 0.0000
# 4 0.0000 0.0000 0.0000 385.2227 0.0000 91.7959
# 5 7.8319 20.2337 21.2015 0.0000 41.3227 0.0000
# 6 0.0000 0.0000 0.0000 91.7959 0.0000 53.4748
#
#
#
# Elastic Compliance Matrix: (Units=1/GPa)
#
#
# Indices 1 2 3 4 5 6 
#
# 1 0.010861 -0.002605 -0.000407 0.000000 -0.000574 0.000000
# 2 -0.002605 0.006655 -0.001400 0.000000 -0.002047 0.000000
# 3 -0.000407 -0.001400 0.010198 0.000000 -0.004470 0.000000
# 4 0.000000 0.000000 0.000000 0.004393 0.000000 -0.007541
# 5 -0.000574 -0.002047 -0.004470 0.000000 0.027604 0.000000
# 6 0.000000 0.000000 0.000000 -0.007541 0.000000 0.031645
#
#
# Mechanical properties :
#
#
# Convention : Reuss Voigt Hill
#
# Bulk Modulus (GPa) = 52.93475 65.57988 59.25731
# Shear Modulus (GPa) = 46.95886 116.21934 81.58910
#
# Velocity S-wave (km/s) = 4.68632 7.37246 6.17717
# Velocity P-wave (km/s) = 7.35109 10.15585 8.86509
#
# Compressibility (1/GPa) = 0.01889118
#
# Stress axis : x y z
#
# Youngs Moduli (GPa) = 92.07308 150.27044 98.05381
#
# Poissons Ratio (x) = 0.39148 0.03987
# Poissons Ratio (y) = 0.23987 0.13725
# Poissons Ratio (z) = 0.03743 0.21033
#
# Static dielectric constant tensor:
#      x y z
#    x 3.647560 0.000000 0.166510 
#    y 0.000000 5.426330 0.000000 
#    z 0.166510 0.000000 3.908230 
# 
# 
# High freq. dielectric constant tensor:
#      x y z
#    x 1.854020 0.000000 0.007330 
#    y 0.000000 1.852210 0.000000 
#    z 0.007330 0.000000 1.848650 
# 
# From -- ./inp_files/40719.got.cif
#   From: 2010.06.25/outbox.cif.g09.slc.cpg/sg10_21_cif.got.tgz:40719.got - 2010.06.27 22:07:45.
