data_PCOD8067316
_publ_section_title
;
Structure prediction by ZEFSAII (Michael W. Deem and Ramdas Pophale) SiO2 
 PCOD8067316
Probable space group: P 2/M
;
_chemical_formula_sum "Si O2"
_cell_formula_units_Z 16
_cell_length_a 5.339392
_cell_length_b 21.371219
_cell_length_c 5.380470
_cell_angle_alpha 90.000000
_cell_angle_beta 91.760174
_cell_angle_gamma 90.000000
_cell_volume 613.672054
_symmetry_space_group_name_H-M "P 2/M"
_symmetry_group_IT_number 10
_symmetry_cell_setting 'monoclinic'
loop_
_space_group_symop_operation_xyz
x,y,z
-x,y,-z
-x,-y,-z
x,-y,z
loop_
_atom_site_type_symbol
_atom_site_label
_atom_site_fract_x
_atom_site_fract_y
_atom_site_fract_z
Si Si1 0.500000 0.156704 0.500000
Si Si2 0.747046 0.238279 0.865292
Si Si3 0.153615 0.928945 0.760224
Si Si4 0.237668 0.367632 0.347936
Si Si5 0.342515 0.500000 0.242859
O O1 0.724590 0.202836 0.599817
O O2 0.601012 0.113796 0.275349
O O3 0.743186 0.313896 0.856863
O O4 0.500000 0.216181 0.000000
O O5 0.000000 0.214290 0.000000
O O6 0.000000 0.923878 0.500000
O O7 0.243225 0.000000 0.809064
O O8 0.000000 0.905818 0.000000
O O9 0.500000 0.369976 0.500000
O O10 0.177897 0.436363 0.230613
O O11 0.000000 0.347008 0.500000
O O12 0.500000 0.500000 0.500000
O O13 0.500000 0.500000 0.000000
#
# Coordination Sequence:
#
# PCOD8067316 Si02
#       5
#     2   4   4   4   2
#     4  12  29  46  78 113 166 206 276 322 412 475
#     4  12  29  48  76 113 157 214 267 331 400 481
#     4  10  25  49  80 117 159 207 265 333 403 479
#     4  11  23  47  73 109 153 203 261 331 399 472
#     4  10  23  44  78 110 150 201 265 329 402 474
#
# _framework density 26.072558000000001
#
# number of rings (size 3 to 8) (size 9 to 14) (size 15 to 20)
#    0.000    1.000    1.250    3.000    7.000    2.000 
#    0.000    9.375    0.000    2.250    0.000    0.000 
#    0.000    0.000    0.000    0.000    0.000    0.000 
#
# Total GULP energy -198351.458092 kJ/mol
# GULP energy per Si atom -12396.966131 kJ/mol
# Density = 2.601322 g / cm^3
# Si number density = 26.072558 Si / 1000 Ang^3
#
#
#
# Elastic Constant Matrix: (Units=GPa)
#
#
# Indices 1 2 3 4 5 6 
#
# 1 166.2715 43.4184 52.0314 0.0000 -2.4122 0.0000
# 2 43.4184 185.8359 43.0876 0.0000 -2.3751 0.0000
# 3 52.0314 43.0876 139.5767 0.0000 -10.6272 0.0000
# 4 0.0000 0.0000 0.0000 470.4659 0.0000 -336.2026
# 5 -2.4122 -2.3751 -10.6272 0.0000 50.9658 0.0000
# 6 0.0000 0.0000 0.0000 -336.2026 0.0000 261.6019
#
#
#
# Elastic Compliance Matrix: (Units=1/GPa)
#
#
# Indices 1 2 3 4 5 6 
#
# 1 0.007018 -0.001112 -0.002288 0.000000 -0.000197 0.000000
# 2 -0.001112 0.005973 -0.001435 0.000000 -0.000073 0.000000
# 3 -0.002288 -0.001435 0.008583 0.000000 0.001615 0.000000
# 4 0.000000 0.000000 0.000000 0.026049 0.000000 0.033478
# 5 -0.000197 -0.000073 0.001615 0.000000 0.019945 0.000000
# 6 0.000000 0.000000 0.000000 0.033478 0.000000 0.046847
#
#
# Mechanical properties :
#
#
# Convention : Reuss Voigt Hill
#
# Bulk Modulus (GPa) = 84.00091 85.41764 84.70928
# Shear Modulus (GPa) = 39.04672 180.14983 109.59828
#
# Velocity S-wave (km/s) = 3.87410 8.32139 6.49054
# Velocity P-wave (km/s) = 7.23185 11.18750 9.41965
#
# Compressibility (1/GPa) = 0.01190463
#
# Stress axis : x y z
#
# Youngs Moduli (GPa) = 142.49840 167.43186 116.50547
#
# Poissons Ratio (x) = 0.18612 0.26655
# Poissons Ratio (y) = 0.15841 0.16718
# Poissons Ratio (z) = 0.32601 0.24026
#
# Static dielectric constant tensor:
#      x y z
#    x 4.471660 0.000000 -0.071290 
#    y 0.000000 5.372910 0.000000 
#    z -0.071290 0.000000 4.556060 
# 
# 
# High freq. dielectric constant tensor:
#      x y z
#    x 2.031820 0.000000 -0.005340 
#    y 0.000000 2.081100 0.000000 
#    z -0.005340 0.000000 2.035360 
# 
# From -- ./inp_files/1292.got.cif
#   From: 2010.06.25/outbox.cif.g09.slc.cpg/sg10_1_cif.got.tgz:1292.got - 2010.06.27 22:07:45.
