data_PCOD8067314
_publ_section_title
;
Structure prediction by ZEFSAII (Michael W. Deem and Ramdas Pophale) SiO2 
 PCOD8067314
Probable space group: P 2/M
;
_chemical_formula_sum "Si O2"
_cell_formula_units_Z 32
_cell_length_a 30.013470
_cell_length_b 8.664391
_cell_length_c 12.846824
_cell_angle_alpha 90.000000
_cell_angle_beta 27.927452
_cell_angle_gamma 90.000000
_cell_volume 1564.672737
_symmetry_space_group_name_H-M "P 2/M"
_symmetry_group_IT_number 10
_symmetry_cell_setting 'monoclinic'
loop_
_space_group_symop_operation_xyz
x,y,z
-x,y,-z
-x,-y,-z
x,-y,z
loop_
_atom_site_type_symbol
_atom_site_label
_atom_site_fract_x
_atom_site_fract_y
_atom_site_fract_z
Si Si1 0.894320 0.679012 0.482184
Si Si2 0.725430 0.682659 0.157131
Si Si3 0.100716 0.182166 0.751961
Si Si4 0.286829 0.680042 0.434049
Si Si5 0.061253 0.321072 0.280049
Si Si6 0.278154 0.818941 0.051677
Si Si7 0.610082 0.821093 0.973003
Si Si8 0.388946 0.179752 0.418178
O O1 0.866819 0.500000 0.536031
O O2 0.876236 0.751787 0.408270
O O3 0.003926 0.703462 0.290585
O O4 0.827975 0.762981 0.702985
O O5 0.718684 0.500000 0.188154
O O6 0.686441 0.729138 0.123977
O O7 0.661833 0.767647 0.372597
O O8 0.833197 0.748798 0.948141
O O9 0.184804 0.235368 0.654952
O O10 0.097900 0.000000 0.750601
O O11 0.000000 0.248013 0.000000
O O12 0.266970 0.500000 0.479548
O O13 0.351583 0.727570 0.396575
O O14 0.338494 0.720463 0.220118
O O15 0.074827 0.500000 0.279594
O O16 0.000000 0.243991 0.500000
O O17 0.349100 0.775374 0.998718
O O18 0.278070 0.000000 0.029010
O O19 0.499497 0.781965 0.201644
O O20 0.630316 0.000000 0.905962
O O21 0.371030 0.000000 0.435784
#
# Coordination Sequence:
#
# PCOD8067314 Si02
#       8
#     4   4   4   4   4   4   4   4
#     4  11  21  37  62  91 122 163 210 259 312 372
#     4  11  23  41  63  92 129 169 212 265 320 374
#     4  11  25  43  62  91 130 169 209 256 310 373
#     4  12  25  42  68  98 128 164 210 264 319 380
#     4   9  18  35  58  85 120 160 199 242 303 368
#     4  11  22  39  64  93 126 167 214 264 316 377
#     4  10  23  44  69  92 123 167 213 263 322 385
#     4  11  25  45  66  91 126 169 212 262 326 386
#
# _framework density 20.451561000000002
#
# number of rings (size 3 to 8) (size 9 to 14) (size 15 to 20)
#    0.000    1.250    2.500    3.375    1.750    4.500 
#    0.000    5.000    0.000    0.000    0.000    0.000 
#    0.000    0.000    0.000    0.000    0.000    0.000 
#
# Total GULP energy -396946.472499 kJ/mol
# GULP energy per Si atom -12404.577266 kJ/mol
# Density = 2.040501 g / cm^3
# Si number density = 20.451561 Si / 1000 Ang^3
#
#
#
# Elastic Constant Matrix: (Units=GPa)
#
#
# Indices 1 2 3 4 5 6 
#
# 1 116.2281 32.6804 44.4520 0.0000 -7.8963 0.0000
# 2 32.6804 98.8526 46.2719 0.0000 -12.4795 0.0000
# 3 44.4520 46.2719 112.9662 0.0000 -18.7744 0.0000
# 4 0.0000 0.0000 0.0000 31.2204 0.0000 7.5667
# 5 -7.8963 -12.4795 -18.7744 0.0000 28.0038 0.0000
# 6 0.0000 0.0000 0.0000 7.5667 0.0000 42.4832
#
#
#
# Elastic Compliance Matrix: (Units=1/GPa)
#
#
# Indices 1 2 3 4 5 6 
#
# 1 0.010405 -0.001894 -0.003344 0.000000 -0.000152 0.000000
# 2 -0.001894 0.013007 -0.004173 0.000000 0.002465 0.000000
# 3 -0.003344 -0.004173 0.012842 0.000000 0.005807 0.000000
# 4 0.000000 0.000000 0.000000 0.033475 0.000000 -0.005962
# 5 -0.000152 0.002465 0.005807 0.000000 0.040658 0.000000
# 6 0.000000 0.000000 0.000000 -0.005962 0.000000 0.024601
#
#
# Mechanical properties :
#
#
# Convention : Reuss Voigt Hill
#
# Bulk Modulus (GPa) = 57.36253 63.87284 60.61768
# Shear Modulus (GPa) = 31.32446 33.98433 32.65440
#
# Velocity S-wave (km/s) = 3.91786 4.08082 4.00017
# Velocity P-wave (km/s) = 6.96958 7.31459 7.14417
#
# Compressibility (1/GPa) = 0.01743298
#
# Stress axis : x y z
#
# Youngs Moduli (GPa) = 96.10957 76.88457 77.86742
#
# Poissons Ratio (x) = 0.14560 0.26037
# Poissons Ratio (y) = 0.18201 0.32492
# Poissons Ratio (z) = 0.32137 0.32082
#
# Static dielectric constant tensor:
#      x y z
#    x 3.713630 0.000000 -0.014840 
#    y 0.000000 3.634410 0.000000 
#    z -0.014840 0.000000 3.748660 
# 
# 
# High freq. dielectric constant tensor:
#      x y z
#    x 1.815080 0.000000 -0.004170 
#    y 0.000000 1.793560 0.000000 
#    z -0.004170 0.000000 1.800960 
# 
# From -- ./inp_files/58085.got.cif
#   From: 2010.06.25/outbox.cif.g09.slc.cpg/sg10_30_cif.got.tgz:58085.got - 2010.06.27 22:07:45.
