data_PCOD8067882
_publ_section_title
;
Structure prediction by ZEFSAII (Michael W. Deem and Ramdas Pophale) SiO2 
 PCOD8067882
Probable space group: P 2/M
;
_chemical_formula_sum "Si O2"
_cell_formula_units_Z 28
_cell_length_a 25.011414
_cell_length_b 9.486109
_cell_length_c 19.079451
_cell_angle_alpha 90.000000
_cell_angle_beta 157.072297
_cell_angle_gamma 90.000000
_cell_volume 1763.506078
_symmetry_space_group_name_H-M "P 2/M"
_symmetry_group_IT_number 10
_symmetry_cell_setting 'monoclinic'
loop_
_space_group_symop_operation_xyz
x,y,z
-x,y,-z
-x,-y,-z
x,-y,z
loop_
_atom_site_type_symbol
_atom_site_label
_atom_site_fract_x
_atom_site_fract_y
_atom_site_fract_z
Si Si1 0.095690 0.167508 0.403714
Si Si2 0.851735 0.658944 0.856594
Si Si3 0.041189 0.842098 0.897896
Si Si4 0.586642 0.832267 0.038658
Si Si5 0.628091 0.832461 0.329509
Si Si6 0.744671 0.158011 0.611016
Si Si7 0.107005 0.168194 0.572840
O O1 0.243554 0.230119 0.559490
O O2 0.060332 0.221026 0.439225
O O3 0.978295 0.212985 0.205859
O O4 0.105922 0.000000 0.415199
O O5 0.800369 0.500000 0.806807
O O6 0.742386 0.738073 0.674731
O O7 0.857323 0.737655 0.938247
O O8 0.000000 0.660968 0.000000
O O9 0.893342 0.845126 0.755394
O O10 0.104060 0.000000 0.975485
O O11 0.741208 0.772313 0.226560
O O12 0.591057 0.000000 0.048249
O O13 0.500000 0.773805 0.000000
O O14 0.512749 0.781565 0.877367
O O15 0.636815 0.785449 0.421835
O O16 0.638756 0.000000 0.340500
O O17 0.706519 0.000000 0.590410
O O18 0.000000 0.230498 0.500000
O O19 0.107983 0.000000 0.577104
#
# Coordination Sequence:
#
# PCOD8067882 Si02
#       7
#     4   4   4   4   4   4   4
#     4   8  12  19  29  42  61  87 120 151 177 210
#     4   9  15  21  29  44  68  94 117 142 181 228
#     4   8  13  20  31  44  61  90 124 151 175 211
#     4   9  13  18  29  43  63  91 122 153 181 211
#     4   8  12  18  29  44  60  85 121 154 177 203
#     4   8  13  20  30  44  64  89 120 153 179 209
#     4   9  15  20  27  43  69  97 120 146 185 225
#
# _framework density 15.877462
#
# number of rings (size 3 to 8) (size 9 to 14) (size 15 to 20)
#    0.000    3.571    1.429    2.143    0.000    1.714 
#    0.000    0.000    0.000    0.000    0.000    0.000 
#    0.000    3.429    0.000   15.000    0.000    6.143 
#
# Total GULP energy -346873.398337 kJ/mol
# GULP energy per Si atom -12388.335655 kJ/mol
# Density = 1.584132 g / cm^3
# Si number density = 15.877462 Si / 1000 Ang^3
#
#
#
# Elastic Constant Matrix: (Units=GPa)
#
#
# Indices 1 2 3 4 5 6 
#
# 1 97.4769 30.1190 72.5588 0.0000 -32.5409 0.0000
# 2 30.1190 44.7098 29.3137 0.0000 -17.6635 0.0000
# 3 72.5588 29.3137 95.5886 0.0000 -33.5879 0.0000
# 4 0.0000 0.0000 0.0000 2.2994 0.0000 0.0662
# 5 -32.5409 -17.6635 -33.5879 0.0000 37.7885 0.0000
# 6 0.0000 0.0000 0.0000 0.0662 0.0000 2.4290
#
#
#
# Elastic Compliance Matrix: (Units=1/GPa)
#
#
# Indices 1 2 3 4 5 6 
#
# 1 0.025339 -0.004423 -0.015904 0.000000 0.005616 0.000000
# 2 -0.004423 0.030504 -0.003381 0.000000 0.007444 0.000000
# 3 -0.015904 -0.003381 0.026470 0.000000 0.008252 0.000000
# 4 0.000000 0.000000 0.000000 0.435233 0.000000 -0.011857
# 5 0.005616 0.007444 0.008252 0.000000 0.042114 0.000000
# 6 0.000000 0.000000 0.000000 -0.011857 0.000000 0.412023
#
#
# Mechanical properties :
#
#
# Convention : Reuss Voigt Hill
#
# Bulk Modulus (GPa) = 28.65666 55.75091 42.20378
# Shear Modulus (GPa) = 4.85092 15.55563 10.20328
#
# Velocity S-wave (km/s) = 1.74982 3.13346 2.53776
# Velocity P-wave (km/s) = 4.70853 6.94845 5.93512
#
# Compressibility (1/GPa) = 0.03489591
#
# Stress axis : x y z
#
# Youngs Moduli (GPa) = 39.46436 32.78256 37.77796
#
# Poissons Ratio (x) = 0.14501 0.60084
# Poissons Ratio (y) = 0.17457 0.12773
# Poissons Ratio (z) = 0.62766 0.11084
#
# Static dielectric constant tensor:
#      x y z
#    x 3.085390 0.000000 -0.506720 
#    y 0.000000 2.561310 0.000000 
#    z -0.506720 0.000000 3.118480 
# 
# 
# High freq. dielectric constant tensor:
#      x y z
#    x 1.585730 0.000000 -0.049410 
#    y 0.000000 1.546050 0.000000 
#    z -0.049410 0.000000 1.590660 
# 
# From -- ./inp_files/56275.got.cif
#   From: 2010.06.25/outbox.cif.g09.slc.cpg/sg10_29_cif.got.tgz:56275.got - 2010.06.27 22:07:45.
