data_PCOD8067842
_publ_section_title
;
Structure prediction by ZEFSAII (Michael W. Deem and Ramdas Pophale) SiO2 
 PCOD8067842
Probable space group: P 2/M
;
_chemical_formula_sum "Si O2"
_cell_formula_units_Z 18
_cell_length_a 7.817682
_cell_length_b 13.270468
_cell_length_c 8.160223
_cell_angle_alpha 90.000000
_cell_angle_beta 95.064427
_cell_angle_gamma 90.000000
_cell_volume 843.271633
_symmetry_space_group_name_H-M "P 2/M"
_symmetry_group_IT_number 10
_symmetry_cell_setting 'monoclinic'
loop_
_space_group_symop_operation_xyz
x,y,z
-x,y,-z
-x,-y,-z
x,-y,z
loop_
_atom_site_type_symbol
_atom_site_label
_atom_site_fract_x
_atom_site_fract_y
_atom_site_fract_z
Si Si1 0.000000 0.324985 0.500000
Si Si2 0.643437 0.392060 0.377800
Si Si3 0.038979 0.000000 0.694443
Si Si4 0.535503 0.784515 0.815623
Si Si5 0.559337 0.000000 0.318577
Si Si6 0.926557 0.790603 0.814549
O O1 0.826699 0.389454 0.485574
O O2 0.020035 0.261966 0.669842
O O3 0.500000 0.396689 0.500000
O O4 0.638352 0.500000 0.278402
O O5 0.604537 0.291872 0.270949
O O6 0.243054 0.000000 0.715423
O O7 0.000000 0.000000 0.500000
O O8 0.954610 0.091556 0.786191
O O9 0.729519 0.754670 0.789072
O O10 0.517538 0.899166 0.760853
O O11 0.500000 0.777511 0.000000
O O12 0.500000 0.000000 0.500000
O O13 0.000000 0.759668 0.000000
#
# Coordination Sequence:
#
# PCOD8067842 Si02
#       6
#     2   4   2   4   2   4
#     4  12  23  45  72 100 138 177 230 286 353 404
#     4  11  24  45  72 101 136 182 231 284 346 411
#     4  12  23  40  61  97 135 184 228 279 340 411
#     4  12  25  45  68 101 140 180 230 285 345 410
#     4  12  25  40  67  98 136 180 231 276 342 415
#     4  12  25  42  66  99 138 182 230 284 344 412
#
# _framework density 21.345433
#
# number of rings (size 3 to 8) (size 9 to 14) (size 15 to 20)
#    0.000    0.222    3.333    7.667    0.000    0.444 
#    0.000    0.000    0.000    3.333    0.000    0.000 
#    0.000    0.000    0.000    0.000    0.000    0.000 
#
# Total GULP energy -223042.722697 kJ/mol
# GULP energy per Si atom -12391.262372 kJ/mol
# Density = 2.129685 g / cm^3
# Si number density = 21.345433 Si / 1000 Ang^3
#
#
#
# Elastic Constant Matrix: (Units=GPa)
#
#
# Indices 1 2 3 4 5 6 
#
# 1 149.2938 28.8382 38.6793 0.0000 9.0233 0.0000
# 2 28.8382 141.1477 43.0718 0.0000 11.5427 0.0000
# 3 38.6793 43.0718 108.6290 0.0000 4.4829 0.0000
# 4 0.0000 0.0000 0.0000 109.2577 0.0000 4.2055
# 5 9.0233 11.5427 4.4829 0.0000 38.2734 0.0000
# 6 0.0000 0.0000 0.0000 4.2055 0.0000 91.6490
#
#
#
# Elastic Compliance Matrix: (Units=1/GPa)
#
#
# Indices 1 2 3 4 5 6 
#
# 1 0.007521 -0.000717 -0.002340 0.000000 -0.001283 0.000000
# 2 -0.000717 0.008294 -0.002951 0.000000 -0.001987 0.000000
# 3 -0.002340 -0.002951 0.011204 0.000000 0.000130 0.000000
# 4 0.000000 0.000000 0.000000 0.009169 0.000000 -0.000421
# 5 -0.001283 -0.001987 0.000130 0.000000 0.027014 0.000000
# 6 0.000000 0.000000 0.000000 -0.000421 0.000000 0.010930
#
#
# Mechanical properties :
#
#
# Convention : Reuss Voigt Hill
#
# Bulk Modulus (GPa) = 66.66457 68.91656 67.79057
# Shear Modulus (GPa) = 54.85393 67.06812 60.96103
#
# Velocity S-wave (km/s) = 5.07484 5.61147 5.34989
# Velocity P-wave (km/s) = 8.10171 8.62213 8.36597
#
# Compressibility (1/GPa) = 0.01500047
#
# Stress axis : x y z
#
# Youngs Moduli (GPa) = 132.96670 120.56283 89.25491
#
# Poissons Ratio (x) = 0.08650 0.20890
# Poissons Ratio (y) = 0.09540 0.26342
# Poissons Ratio (z) = 0.31120 0.35582
#
# Static dielectric constant tensor:
#      x y z
#    x 4.009240 0.000000 -0.116280 
#    y 0.000000 4.103020 0.000000 
#    z -0.116280 0.000000 3.765370 
# 
# 
# High freq. dielectric constant tensor:
#      x y z
#    x 1.866100 0.000000 -0.005380 
#    y 0.000000 1.838660 0.000000 
#    z -0.005380 0.000000 1.832870 
# 
# From -- ./inp_files/17436.got.cif
#   From: 2010.06.25/outbox.cif.g09.slc.cpg/sg10_9_cif.got.tgz:17436.got - 2010.06.27 22:07:45.
