data_PCOD8067257
_publ_section_title
;
Structure prediction by ZEFSAII (Michael W. Deem and Ramdas Pophale) SiO2 
 PCOD8067257
Probable space group: P 2/M
;
_chemical_formula_sum "Si O2"
_cell_formula_units_Z 20
_cell_length_a 11.053393
_cell_length_b 9.607015
_cell_length_c 25.489519
_cell_angle_alpha 90.000000
_cell_angle_beta 23.521968
_cell_angle_gamma 90.000000
_cell_volume 1080.259661
_symmetry_space_group_name_H-M "P 2/M"
_symmetry_group_IT_number 10
_symmetry_cell_setting 'monoclinic'
loop_
_space_group_symop_operation_xyz
x,y,z
-x,y,-z
-x,-y,-z
x,-y,z
loop_
_atom_site_type_symbol
_atom_site_label
_atom_site_fract_x
_atom_site_fract_y
_atom_site_fract_z
Si Si1 0.668413 0.343626 0.791884
Si Si2 0.654094 0.836741 0.282170
Si Si3 0.344134 0.345790 0.320194
Si Si4 0.240046 0.656038 0.506356
Si Si5 0.641557 0.162646 0.997871
O O1 0.622464 0.500000 0.832136
O O2 0.518677 0.331001 0.793564
O O3 0.032233 0.312677 0.640235
O O4 0.523326 0.234420 0.888333
O O5 0.497672 0.774445 0.292886
O O6 0.511028 0.766361 0.391418
O O7 0.006191 0.800237 0.141300
O O8 0.591203 0.000000 0.309194
O O9 0.427523 0.500000 0.309068
O O10 0.975234 0.332486 0.460685
O O11 0.374393 0.500000 0.456834
O O12 0.582652 0.000000 0.027803
O O13 0.500000 0.217983 0.000000
#
# Coordination Sequence:
#
# PCOD8067257 Si02
#       5
#     4   4   4   4   4
#     4   8  18  36  57  79 103 134 173 210 255 312
#     4  11  21  31  51  82 107 136 178 212 249 306
#     4   8  17  33  54  79 111 138 162 203 260 315
#     4   8  17  34  54  79 110 138 163 203 261 315
#     4  10  23  41  54  69 102 143 179 218 261 302
#
# _framework density 18.514066
#
# number of rings (size 3 to 8) (size 9 to 14) (size 15 to 20)
#    1.200    1.800    0.000    1.200    0.000    7.600 
#    0.000    5.000    0.000    6.000    0.000    0.000 
#    0.000    0.000    0.000    0.000    0.000    0.000 
#
# Total GULP energy -247794.942359 kJ/mol
# GULP energy per Si atom -12389.747118 kJ/mol
# Density = 1.847193 g / cm^3
# Si number density = 18.514066 Si / 1000 Ang^3
#
#
#
# Elastic Constant Matrix: (Units=GPa)
#
#
# Indices 1 2 3 4 5 6 
#
# 1 35.0506 38.7778 43.1036 0.0000 1.5916 0.0000
# 2 38.7778 94.7769 69.4074 0.0000 21.7506 0.0000
# 3 43.1036 69.4074 94.6208 0.0000 36.3436 0.0000
# 4 0.0000 0.0000 0.0000 34.0776 0.0000 16.1569
# 5 1.5916 21.7506 36.3436 0.0000 0.0379 0.0000
# 6 0.0000 0.0000 0.0000 16.1569 0.0000 8.5780
#
#
#
# Elastic Compliance Matrix: (Units=1/GPa)
#
#
# Indices 1 2 3 4 5 6 
#
# 1 0.035576 -0.009704 0.004286 0.000000 -0.034820 0.000000
# 2 -0.009704 0.024579 -0.014287 0.000000 0.001764 0.000000
# 3 0.004286 -0.014287 0.008333 0.000000 0.028021 0.000000
# 4 0.000000 0.000000 0.000000 0.274294 0.000000 -0.516639
# 5 -0.034820 0.001764 0.028021 0.000000 -0.035025 0.000000
# 6 0.000000 0.000000 0.000000 -0.516639 0.000000 1.089679
#
#
# Mechanical properties :
#
#
# Convention : Reuss Voigt Hill
#
# Bulk Modulus (GPa) = 34.38867 58.55842 46.47355
# Shear Modulus (GPa) = 3.45653 13.41601 8.43627
#
# Velocity S-wave (km/s) = 1.36785 2.69483 2.13695
# Velocity P-wave (km/s) = 4.59449 6.43278 5.58972
#
# Compressibility (1/GPa) = 0.02907934
#
# Stress axis : x y z
#
# Youngs Moduli (GPa) = 28.10856 40.68539 120.00107
#
# Poissons Ratio (x) = 0.39479 -0.51428
# Poissons Ratio (y) = 0.27275 1.71441
# Poissons Ratio (z) = -0.12046 0.58126
#
# Static dielectric constant tensor:
#      x y z
#    x 3.124610 0.000000 0.094530 
#    y 0.000000 3.242950 0.000000 
#    z 0.094530 0.000000 3.326690 
# 
# 
# High freq. dielectric constant tensor:
#      x y z
#    x 1.694150 0.000000 0.018780 
#    y 0.000000 1.715020 0.000000 
#    z 0.018780 0.000000 1.714550 
# 
# From -- ./inp_files/94738.got.cif
#   From: 2010.06.25/outbox.cif.g09.slc.cpg/sg10_48_cif.got.tgz:94738.got - 2010.06.27 22:07:45.
