data_PCOD8067934
_publ_section_title
;
Structure prediction by ZEFSAII (Michael W. Deem and Ramdas Pophale) SiO2 
 PCOD8067934
Probable space group: P 2/M
;
_chemical_formula_sum "Si O2"
_cell_formula_units_Z 24
_cell_length_a 19.087072
_cell_length_b 9.497438
_cell_length_c 23.295823
_cell_angle_alpha 90.000000
_cell_angle_beta 17.622312
_cell_angle_gamma 90.000000
_cell_volume 1278.483596
_symmetry_space_group_name_H-M "P 2/M"
_symmetry_group_IT_number 10
_symmetry_cell_setting 'monoclinic'
loop_
_space_group_symop_operation_xyz
x,y,z
-x,y,-z
-x,-y,-z
x,-y,z
loop_
_atom_site_type_symbol
_atom_site_label
_atom_site_fract_x
_atom_site_fract_y
_atom_site_fract_z
Si Si1 0.690336 0.667643 0.501066
Si Si2 0.707261 0.841661 0.792778
Si Si3 0.427745 0.656507 0.933312
Si Si4 0.983473 0.656507 0.655548
Si Si5 0.172833 0.668182 0.913512
Si Si6 0.924194 0.667654 0.884345
O O1 0.693328 0.500000 0.496278
O O2 0.429897 0.726201 0.699227
O O3 0.845329 0.727400 0.327228
O O4 0.798386 0.714316 0.478019
O O5 0.930745 0.762256 0.644485
O O6 0.780520 0.000000 0.719537
O O7 0.500000 0.841911 0.000000
O O8 0.630134 0.762272 0.794738
O O9 0.532968 0.500000 0.841567
O O10 0.235474 0.646929 0.132215
O O11 0.307734 0.714269 0.968758
O O12 0.034884 0.500000 0.590698
O O13 0.173823 0.500000 0.913039
O O14 0.000000 0.726860 0.000000
O O15 0.087265 0.726224 0.041961
O O16 0.934420 0.500000 0.875954
#
# Coordination Sequence:
#
# PCOD8067934 Si02
#       6
#     4   4   4   4   4   4
#     4   8  14  24  37  54  78 109 142 172 204 248
#     4   9  15  21  33  58  87 108 135 179 218 247
#     4   8  13  22  36  53  77 112 147 173 203 248
#     4   8  13  22  36  53  77 112 147 173 203 248
#     4   9  16  24  36  57  83 108 134 169 215 259
#     4   8  14  24  37  54  78 109 142 172 204 248
#
# _framework density 18.772241000000001
#
# number of rings (size 3 to 8) (size 9 to 14) (size 15 to 20)
#    0.000    3.667    0.000    2.500    0.000    2.667 
#    0.000    3.333    0.000    1.000    0.000    8.167 
#    0.000    2.667    0.000   13.000    0.000   13.333 
#
# Total GULP energy -297403.493764 kJ/mol
# GULP energy per Si atom -12391.812240 kJ/mol
# Density = 1.872951 g / cm^3
# Si number density = 18.772241 Si / 1000 Ang^3
#
#
#
# Elastic Constant Matrix: (Units=GPa)
#
#
# Indices 1 2 3 4 5 6 
#
# 1 147.2705 43.0424 89.9236 0.0000 -37.1014 0.0000
# 2 43.0424 58.6494 26.2280 0.0000 -14.4287 0.0000
# 3 89.9236 26.2280 87.4714 0.0000 -13.8472 0.0000
# 4 0.0000 0.0000 0.0000 2.2503 0.0000 -0.6554
# 5 -37.1014 -14.4287 -13.8472 0.0000 27.1223 0.0000
# 6 0.0000 0.0000 0.0000 -0.6554 0.0000 2.9706
#
#
#
# Elastic Compliance Matrix: (Units=1/GPa)
#
#
# Indices 1 2 3 4 5 6 
#
# 1 0.030393 -0.004344 -0.025813 0.000000 0.026086 0.000000
# 2 -0.004344 0.022104 -0.001350 0.000000 0.005127 0.000000
# 3 -0.025813 -0.001350 0.035543 0.000000 -0.017882 0.000000
# 4 0.000000 0.000000 0.000000 0.474891 0.000000 0.104771
# 5 0.026086 0.005127 -0.017882 0.000000 0.066152 0.000000
# 6 0.000000 0.000000 0.000000 0.104771 0.000000 0.359743
#
#
# Mechanical properties :
#
#
# Convention : Reuss Voigt Hill
#
# Bulk Modulus (GPa) = 39.95983 67.97550 53.96766
# Shear Modulus (GPa) = 4.71617 15.41513 10.06565
#
# Velocity S-wave (km/s) = 1.58675 2.86871 2.31811
# Velocity P-wave (km/s) = 4.96889 6.87473 5.99799
#
# Compressibility (1/GPa) = 0.02502513
#
# Stress axis : x y z
#
# Youngs Moduli (GPa) = 32.90213 45.24113 28.13492
#
# Poissons Ratio (x) = 0.19653 0.72625
# Poissons Ratio (y) = 0.14293 0.03799
# Poissons Ratio (z) = 0.84931 0.06108
#
# Static dielectric constant tensor:
#      x y z
#    x 3.667060 0.000000 -0.185580 
#    y 0.000000 3.023530 0.000000 
#    z -0.185580 0.000000 3.453090 
# 
# 
# High freq. dielectric constant tensor:
#      x y z
#    x 1.729110 0.000000 -0.011990 
#    y 0.000000 1.655250 0.000000 
#    z -0.011990 0.000000 1.715260 
# 
# From -- ./inp_files/33511.got.cif
#   From: 2010.06.25/outbox.cif.g09.slc.cpg/sg10_17_cif.got.tgz:33511.got - 2010.06.27 22:07:45.
