data_PCOD8067461
_publ_section_title
;
Structure prediction by ZEFSAII (Michael W. Deem and Ramdas Pophale) SiO2 
 PCOD8067461
Probable space group: P 2/M
;
_chemical_formula_sum "Si O2"
_cell_formula_units_Z 32
_cell_length_a 23.039823
_cell_length_b 8.791637
_cell_length_c 11.998777
_cell_angle_alpha 90.000000
_cell_angle_beta 135.346408
_cell_angle_gamma 90.000000
_cell_volume 1708.162581
_symmetry_space_group_name_H-M "P 2/M"
_symmetry_group_IT_number 10
_symmetry_cell_setting 'monoclinic'
loop_
_space_group_symop_operation_xyz
x,y,z
-x,y,-z
-x,-y,-z
x,-y,z
loop_
_atom_site_type_symbol
_atom_site_label
_atom_site_fract_x
_atom_site_fract_y
_atom_site_fract_z
Si Si1 0.002858 0.668745 0.634673
Si Si2 0.161402 0.171347 0.596594
Si Si3 0.735185 0.679712 0.068075
Si Si4 0.906894 0.818826 0.891739
Si Si5 0.402147 0.180641 0.753563
Si Si6 0.767182 0.170426 0.542272
Si Si7 0.846773 0.178404 0.051358
Si Si8 0.584267 0.179874 0.975915
O O1 0.012514 0.500000 0.701276
O O2 0.919629 0.747688 0.562657
O O3 0.000000 0.653784 0.500000
O O4 0.077646 0.778149 0.766549
O O5 0.201345 0.262957 0.751909
O O6 0.222368 0.168275 0.576042
O O7 0.141719 0.000000 0.610738
O O8 0.737238 0.500000 0.069361
O O9 0.764432 0.740542 0.986723
O O10 0.643114 0.737632 0.967591
O O11 0.842381 0.749040 0.711919
O O12 0.913043 0.000000 0.891202
O O13 0.869926 0.765336 0.959244
O O14 0.000000 0.752435 0.000000
O O15 0.325127 0.245119 0.573222
O O16 0.489471 0.223914 0.816072
O O17 0.394742 0.000000 0.750776
O O18 0.397948 0.241270 0.875072
O O19 0.764662 0.000000 0.587596
O O20 0.831424 0.000000 0.033076
O O21 0.599735 0.000000 0.988547
#
# Coordination Sequence:
#
# PCOD8067461 Si02
#       8
#     4   4   4   4   4   4   4   4
#     4  11  22  34  48  71 105 138 168 212 264 310
#     4  11  20  32  54  79 104 138 177 213 260 320
#     4  12  23  34  49  74 111 145 173 214 266 316
#     4   9  18  33  53  81 110 133 170 226 271 305
#     4   8  14  26  50  81 109 137 171 218 267 316
#     4   9  16  29  53  82 107 133 171 221 272 312
#     4  11  22  36  56  78 101 138 183 219 260 318
#     4   9  16  30  51  78 109 139 175 214 264 323
#
# _framework density 18.733578000000001
#
# number of rings (size 3 to 8) (size 9 to 14) (size 15 to 20)
#    0.000    2.000    2.500    3.750    0.000    2.500 
#    0.000    1.250    0.000    9.000    0.000    5.250 
#    0.000    0.000    0.000    0.000    0.000    0.000 
#
# Total GULP energy -396554.090301 kJ/mol
# GULP energy per Si atom -12392.315322 kJ/mol
# Density = 1.869094 g / cm^3
# Si number density = 18.733578 Si / 1000 Ang^3
#
#
#
# Elastic Constant Matrix: (Units=GPa)
#
#
# Indices 1 2 3 4 5 6 
#
# 1 141.5967 38.0213 60.1291 0.0000 18.6910 0.0000
# 2 38.0213 68.3760 18.1623 0.0000 1.2230 0.0000
# 3 60.1291 18.1623 105.7767 0.0000 23.4510 0.0000
# 4 0.0000 0.0000 0.0000 5.9349 0.0000 6.1390
# 5 18.6910 1.2230 23.4510 0.0000 35.0601 0.0000
# 6 0.0000 0.0000 0.0000 6.1390 0.0000 7.0347
#
#
#
# Elastic Compliance Matrix: (Units=1/GPa)
#
#
# Indices 1 2 3 4 5 6 
#
# 1 0.010614 -0.004605 -0.004724 0.000000 -0.002338 0.000000
# 2 -0.004605 0.017384 -0.000912 0.000000 0.002459 0.000000
# 3 -0.004724 -0.000912 0.013773 0.000000 -0.006662 0.000000
# 4 0.000000 0.000000 0.000000 1.731451 0.000000 -1.510995
# 5 -0.002338 0.002459 -0.006662 0.000000 0.034139 0.000000
# 6 0.000000 0.000000 0.000000 -1.510995 0.000000 1.460761
#
#
# Mechanical properties :
#
#
# Convention : Reuss Voigt Hill
#
# Bulk Modulus (GPa) = 46.97633 60.93055 53.95344
# Shear Modulus (GPa) = 1.51713 22.90172 12.20942
#
# Velocity S-wave (km/s) = 0.90089 3.50021 2.55569
# Velocity P-wave (km/s) = 5.11982 6.99505 6.12957
#
# Compressibility (1/GPa) = 0.02128732
#
# Stress axis : x y z
#
# Youngs Moduli (GPa) = 94.21825 57.52392 72.60518
#
# Poissons Ratio (x) = 0.26490 0.34302
# Poissons Ratio (y) = 0.43389 0.06623
# Poissons Ratio (z) = 0.44512 0.05248
#
# Static dielectric constant tensor:
#      x y z
#    x 3.687280 0.000000 0.279110 
#    y 0.000000 3.217830 0.000000 
#    z 0.279110 0.000000 3.538680 
# 
# 
# High freq. dielectric constant tensor:
#      x y z
#    x 1.731170 0.000000 0.022600 
#    y 0.000000 1.691150 0.000000 
#    z 0.022600 0.000000 1.708240 
# 
# From -- ./inp_files/55322.got.cif
#   From: 2010.06.25/outbox.cif.g09.slc.cpg/sg10_28_cif.got.tgz:55322.got - 2010.06.27 22:07:45.
