data_PCOD8067016
_publ_section_title
;
Structure prediction by ZEFSAII (Michael W. Deem and Ramdas Pophale) SiO2 
 PCOD8067016
Probable space group: P 2/M
;
_chemical_formula_sum "Si O2"
_cell_formula_units_Z 32
_cell_length_a 11.946150
_cell_length_b 8.818208
_cell_length_c 31.010290
_cell_angle_alpha 90.000000
_cell_angle_beta 150.026926
_cell_angle_gamma 90.000000
_cell_volume 1632.038646
_symmetry_space_group_name_H-M "P 2/M"
_symmetry_group_IT_number 10
_symmetry_cell_setting 'monoclinic'
loop_
_space_group_symop_operation_xyz
x,y,z
-x,y,-z
-x,-y,-z
x,-y,z
loop_
_atom_site_type_symbol
_atom_site_label
_atom_site_fract_x
_atom_site_fract_y
_atom_site_fract_z
Si Si1 0.143990 0.674345 0.612887
Si Si2 0.547224 0.320539 0.968727
Si Si3 0.047793 0.678876 0.131359
Si Si4 0.334281 0.325631 0.583726
Si Si5 0.198396 0.176792 0.097098
Si Si6 0.868476 0.679176 0.224221
Si Si7 0.700924 0.824936 0.250266
Si Si8 0.790897 0.821912 0.725940
O O1 0.179014 0.500000 0.638374
O O2 0.284502 0.710536 0.616955
O O3 0.232338 0.785307 0.678933
O O4 0.882832 0.707573 0.517581
O O5 0.528514 0.500000 0.964908
O O6 0.360040 0.258194 0.873782
O O7 0.500000 0.250175 0.000000
O O8 0.793472 0.271056 0.035506
O O9 0.073020 0.500000 0.144678
O O10 0.200132 0.735983 0.143117
O O11 0.120136 0.749681 0.200467
O O12 0.408784 0.500000 0.603800
O O13 0.530558 0.217461 0.632478
O O14 0.437371 0.210005 0.154727
O O15 0.164078 0.000000 0.095389
O O16 0.000000 0.238475 0.000000
O O17 0.895935 0.500000 0.229155
O O18 0.853912 0.726074 0.269286
O O19 0.078937 0.756781 0.271784
O O20 0.752525 0.000000 0.259002
O O21 0.825292 0.000000 0.739534
#
# Coordination Sequence:
#
# PCOD8067016 Si02
#       8
#     4   4   4   4   4   4   4   4
#     4   9  19  38  64  91 116 147 188 233 283 339
#     4   9  17  33  55  80 108 141 189 242 286 325
#     4  11  21  35  58  84 112 148 195 244 286 335
#     4   9  19  38  64  91 117 145 185 236 284 336
#     4  10  22  39  56  80 119 158 191 234 287 341
#     4  11  22  39  61  81 110 152 197 243 286 335
#     4  11  23  38  57  83 118 156 193 233 283 342
#     4  12  24  37  55  85 120 150 185 231 289 347
#
# _framework density 19.607379999999999
#
# number of rings (size 3 to 8) (size 9 to 14) (size 15 to 20)
#    0.000    1.750    1.250    4.500    0.000    4.250 
#    0.000    4.375    0.000    3.750    0.000    0.000 
#    0.000    0.000    0.000    0.000    0.000    0.000 
#
# Total GULP energy -396911.290354 kJ/mol
# GULP energy per Si atom -12403.477824 kJ/mol
# Density = 1.956275 g / cm^3
# Si number density = 19.607380 Si / 1000 Ang^3
#
#
#
# Elastic Constant Matrix: (Units=GPa)
#
#
# Indices 1 2 3 4 5 6 
#
# 1 110.0196 45.5258 37.1626 0.0000 9.8899 0.0000
# 2 45.5258 81.6002 31.3745 0.0000 9.9121 0.0000
# 3 37.1626 31.3745 85.7469 0.0000 7.3750 0.0000
# 4 0.0000 0.0000 0.0000 27.0342 0.0000 -1.4163
# 5 9.8899 9.9121 7.3750 0.0000 32.2485 0.0000
# 6 0.0000 0.0000 0.0000 -1.4163 0.0000 29.8927
#
#
#
# Elastic Compliance Matrix: (Units=1/GPa)
#
#
# Indices 1 2 3 4 5 6 
#
# 1 0.012658 -0.005620 -0.003310 0.000000 -0.001398 0.000000
# 2 -0.005620 0.017099 -0.003588 0.000000 -0.002712 0.000000
# 3 -0.003310 -0.003588 0.014513 0.000000 -0.001201 0.000000
# 4 0.000000 0.000000 0.000000 0.037082 0.000000 0.001757
# 5 -0.001398 -0.002712 -0.001201 0.000000 0.032546 0.000000
# 6 0.000000 0.000000 0.000000 0.001757 0.000000 0.033536
#
#
# Mechanical properties :
#
#
# Convention : Reuss Voigt Hill
#
# Bulk Modulus (GPa) = 51.98635 56.16584 54.07609
# Shear Modulus (GPa) = 27.95157 28.72200 28.33679
#
# Velocity S-wave (km/s) = 3.77976 3.83150 3.80572
# Velocity P-wave (km/s) = 6.75426 6.94847 6.85205
#
# Compressibility (1/GPa) = 0.01923582
#
# Stress axis : x y z
#
# Youngs Moduli (GPa) = 78.99899 58.48251 68.90569
#
# Poissons Ratio (x) = 0.32867 0.22805
# Poissons Ratio (y) = 0.44397 0.24720
# Poissons Ratio (z) = 0.26145 0.20981
#
# Static dielectric constant tensor:
#      x y z
#    x 3.547770 0.000000 0.134560 
#    y 0.000000 3.374180 0.000000 
#    z 0.134560 0.000000 3.618900 
# 
# 
# High freq. dielectric constant tensor:
#      x y z
#    x 1.767280 0.000000 0.006710 
#    y 0.000000 1.752530 0.000000 
#    z 0.006710 0.000000 1.763060 
# 
# From -- ./inp_files/95100.got.cif
#   From: 2010.06.25/outbox.cif.g09.slc.cpg/sg10_48_cif.got.tgz:95100.got - 2010.06.27 22:07:45.
