data_PCOD8067133
_publ_section_title
;
Structure prediction by ZEFSAII (Michael W. Deem and Ramdas Pophale) SiO2 
 PCOD8067133
Probable space group: P 2/M
;
_chemical_formula_sum "Si O2"
_cell_formula_units_Z 28
_cell_length_a 17.121479
_cell_length_b 8.803428
_cell_length_c 22.928292
_cell_angle_alpha 90.000000
_cell_angle_beta 23.463194
_cell_angle_gamma 90.000000
_cell_volume 1376.012234
_symmetry_space_group_name_H-M "P 2/M"
_symmetry_group_IT_number 10
_symmetry_cell_setting 'monoclinic'
loop_
_space_group_symop_operation_xyz
x,y,z
-x,y,-z
-x,-y,-z
x,-y,z
loop_
_atom_site_type_symbol
_atom_site_label
_atom_site_fract_x
_atom_site_fract_y
_atom_site_fract_z
Si Si1 0.310026 0.679349 0.097080
Si Si2 0.323793 0.677595 0.750826
Si Si3 0.079154 0.172340 0.611462
Si Si4 0.665611 0.830220 0.455540
Si Si5 0.075692 0.824995 0.829368
Si Si6 0.701675 0.680073 0.027180
Si Si7 0.473674 0.180210 0.281101
O O1 0.315442 0.500000 0.093361
O O2 0.116024 0.730238 0.264878
O O3 0.500000 0.746027 0.000000
O O4 0.308025 0.741379 0.032289
O O5 0.288797 0.500000 0.783527
O O6 0.507553 0.704989 0.581847
O O7 0.130428 0.752249 0.854279
O O8 0.363083 0.754522 0.786296
O O9 0.142244 0.187826 0.635723
O O10 0.255947 0.233029 0.449352
O O11 0.028918 0.000000 0.629491
O O12 0.731077 0.810190 0.343950
O O13 0.575955 0.000000 0.527174
O O14 0.011811 0.000000 0.880407
O O15 0.901486 0.731138 0.920430
O O16 0.685500 0.500000 0.040743
O O17 0.517185 0.753197 0.187524
O O18 0.490353 0.000000 0.270401
#
# Coordination Sequence:
#
# PCOD8067133 Si02
#       7
#     4   4   4   4   4   4   4
#     4  10  22  40  63  92 123 151 183 230 292 357
#     4  11  22  34  52  82 117 154 200 247 288 336
#     4   9  18  36  61  88 114 150 197 240 282 340
#     4   9  18  33  53  79 114 154 198 241 289 343
#     4  11  21  35  55  79 115 158 199 243 293 341
#     4  11  23  39  60  88 118 151 195 243 292 347
#     4  10  22  41  61  83 117 159 200 239 289 347
#
# _framework density 20.348655999999998
#
# number of rings (size 3 to 8) (size 9 to 14) (size 15 to 20)
#    0.000    1.857    1.429    3.857    0.000    7.143 
#    0.000    3.571    0.000    4.286    0.000    0.000 
#    0.000    0.000    0.000    0.000    0.000    0.000 
#
# Total GULP energy -347255.393491 kJ/mol
# GULP energy per Si atom -12401.978339 kJ/mol
# Density = 2.030234 g / cm^3
# Si number density = 20.348656 Si / 1000 Ang^3
#
#
#
# Elastic Constant Matrix: (Units=GPa)
#
#
# Indices 1 2 3 4 5 6 
#
# 1 89.7095 27.7005 58.8476 0.0000 -10.8003 0.0000
# 2 27.7005 72.2593 28.3414 0.0000 2.9931 0.0000
# 3 58.8476 28.3414 81.5378 0.0000 2.3355 0.0000
# 4 0.0000 0.0000 0.0000 35.6846 0.0000 -0.3323
# 5 -10.8003 2.9931 2.3355 0.0000 28.1893 0.0000
# 6 0.0000 0.0000 0.0000 -0.3323 0.0000 19.9769
#
#
#
# Elastic Compliance Matrix: (Units=1/GPa)
#
#
# Indices 1 2 3 4 5 6 
#
# 1 0.024624 -0.003250 -0.016963 0.000000 0.011185 0.000000
# 2 -0.003250 0.016496 -0.003310 0.000000 -0.002722 0.000000
# 3 -0.016963 -0.003310 0.025895 0.000000 -0.008293 0.000000
# 4 0.000000 0.000000 0.000000 0.028028 0.000000 0.000466
# 5 0.011185 -0.002722 -0.008293 0.000000 0.040736 0.000000
# 6 0.000000 0.000000 0.000000 0.000466 0.000000 0.050066
#
#
# Mechanical properties :
#
#
# Convention : Reuss Voigt Hill
#
# Bulk Modulus (GPa) = 50.07672 52.58728 51.33200
# Shear Modulus (GPa) = 20.87279 25.34463 23.10871
#
# Velocity S-wave (km/s) = 3.20622 3.53302 3.37358
# Velocity P-wave (km/s) = 6.19429 6.52244 6.36048
#
# Compressibility (1/GPa) = 0.01996936
#
# Stress axis : x y z
#
# Youngs Moduli (GPa) = 40.61025 60.62073 38.61794
#
# Poissons Ratio (x) = 0.19701 0.65506
# Poissons Ratio (y) = 0.13198 0.12784
# Poissons Ratio (z) = 0.68886 0.20067
#
# Static dielectric constant tensor:
#      x y z
#    x 3.739740 0.000000 0.106650 
#    y 0.000000 3.530240 0.000000 
#    z 0.106650 0.000000 3.693810 
# 
# 
# High freq. dielectric constant tensor:
#      x y z
#    x 1.779080 0.000000 0.005510 
#    y 0.000000 1.789270 0.000000 
#    z 0.005510 0.000000 1.797240 
# 
# From -- ./inp_files/84902.got.cif
#   From: 2010.06.25/outbox.cif.g09.slc.cpg/sg10_43_cif.got.tgz:84902.got - 2010.06.27 22:07:45.
