data_PCOD8067613
_publ_section_title
;
Structure prediction by ZEFSAII (Michael W. Deem and Ramdas Pophale) SiO2 
 PCOD8067613
Probable space group: P 2/M
;
_chemical_formula_sum "Si O2"
_cell_formula_units_Z 20
_cell_length_a 16.212795
_cell_length_b 7.595552
_cell_length_c 23.461561
_cell_angle_alpha 90.000000
_cell_angle_beta 19.810378
_cell_angle_gamma 90.000000
_cell_volume 979.166144
_symmetry_space_group_name_H-M "P 2/M"
_symmetry_group_IT_number 10
_symmetry_cell_setting 'monoclinic'
loop_
_space_group_symop_operation_xyz
x,y,z
-x,y,-z
-x,-y,-z
x,-y,z
loop_
_atom_site_type_symbol
_atom_site_label
_atom_site_fract_x
_atom_site_fract_y
_atom_site_fract_z
Si Si1 0.240432 0.204329 0.873849
Si Si2 0.603409 0.000000 0.776090
Si Si3 0.918352 0.000000 0.460602
Si Si4 0.256832 0.795654 0.627686
Si Si5 0.263808 0.301756 0.496923
Si Si6 0.245964 0.304077 0.994698
O O1 0.459848 0.235764 0.687714
O O2 0.287240 0.313533 0.900380
O O3 0.212080 0.000000 0.908608
O O4 0.000000 0.276879 0.000000
O O5 0.442991 0.827611 0.894059
O O6 0.826986 0.000000 0.673320
O O7 0.693987 0.000000 0.651352
O O8 0.908329 0.173987 0.428119
O O9 0.500000 0.719093 0.500000
O O10 0.199775 0.700769 0.605215
O O11 0.294999 0.000000 0.590183
O O12 0.027455 0.762752 0.817370
O O13 0.227631 0.500000 0.497401
O O14 0.287242 0.500000 0.993095
#
# Coordination Sequence:
#
# PCOD8067613 Si02
#       6
#     4   2   2   4   4   4
#     4  11  21  37  61  89 127 168 207 252 306 372
#     4  11  24  45  68  93 125 161 211 271 326 369
#     4  11  24  45  68  93 125 161 211 271 326 369
#     4  11  23  41  65  93 133 176 207 246 308 378
#     4  12  23  40  64  94 127 163 211 257 312 374
#     4  12  23  40  64  94 127 163 211 257 312 374
#
# _framework density 20.425543000000001
#
# number of rings (size 3 to 8) (size 9 to 14) (size 15 to 20)
#    0.000    0.600    6.000    2.400    0.000    8.800 
#    0.000    4.000    0.000    2.400    0.000    0.000 
#    0.000    0.000    0.000    0.000    0.000    0.000 
#
# Total GULP energy -248112.958018 kJ/mol
# GULP energy per Si atom -12405.647901 kJ/mol
# Density = 2.037905 g / cm^3
# Si number density = 20.425543 Si / 1000 Ang^3
#
#
#
# Elastic Constant Matrix: (Units=GPa)
#
#
# Indices 1 2 3 4 5 6 
#
# 1 94.4391 41.1090 28.0686 0.0000 -11.9018 0.0000
# 2 41.1090 136.4631 26.5225 0.0000 -16.9650 0.0000
# 3 28.0686 26.5225 94.0144 0.0000 -13.4495 0.0000
# 4 0.0000 0.0000 0.0000 20.7974 0.0000 8.5091
# 5 -11.9018 -16.9650 -13.4495 0.0000 34.2710 0.0000
# 6 0.0000 0.0000 0.0000 8.5091 0.0000 11.3475
#
#
#
# Elastic Compliance Matrix: (Units=1/GPa)
#
#
# Indices 1 2 3 4 5 6 
#
# 1 0.013010 -0.003155 -0.002724 0.000000 0.001887 0.000000
# 2 -0.003155 0.008855 -0.001150 0.000000 0.002836 0.000000
# 3 -0.002724 -0.001150 0.012245 0.000000 0.003290 0.000000
# 4 0.000000 0.000000 0.000000 0.069364 0.000000 -0.052014
# 5 0.001887 0.002836 0.003290 0.000000 0.032530 0.000000
# 6 0.000000 0.000000 0.000000 -0.052014 0.000000 0.127129
#
#
# Mechanical properties :
#
#
# Convention : Reuss Voigt Hill
#
# Bulk Modulus (GPa) = 49.87390 57.36856 53.62123
# Shear Modulus (GPa) = 17.61340 28.56427 23.08884
#
# Velocity S-wave (km/s) = 2.93972 3.74365 3.36578
# Velocity P-wave (km/s) = 5.99942 6.84355 6.43534
#
# Compressibility (1/GPa) = 0.02005057
#
# Stress axis : x y z
#
# Youngs Moduli (GPa) = 76.86582 112.93582 81.66502
#
# Poissons Ratio (x) = 0.35632 0.22246
# Poissons Ratio (y) = 0.24252 0.09394
# Poissons Ratio (z) = 0.20939 0.12991
#
# Static dielectric constant tensor:
#      x y z
#    x 3.483780 0.000000 0.023210 
#    y 0.000000 3.743160 0.000000 
#    z 0.023210 0.000000 3.636800 
# 
# 
# High freq. dielectric constant tensor:
#      x y z
#    x 1.782890 0.000000 0.006390 
#    y 0.000000 1.808680 0.000000 
#    z 0.006390 0.000000 1.798530 
# 
# From -- ./inp_files/84617.got.cif
#   From: 2010.06.25/outbox.cif.g09.slc.cpg/sg10_43_cif.got.tgz:84617.got - 2010.06.27 22:07:45.
