data_PCOD8067043
_publ_section_title
;
Structure prediction by ZEFSAII (Michael W. Deem and Ramdas Pophale) SiO2 
 PCOD8067043
Probable space group: P 2/M
;
_chemical_formula_sum "Si O2"
_cell_formula_units_Z 20
_cell_length_a 10.151718
_cell_length_b 7.653183
_cell_length_c 28.800497
_cell_angle_alpha 90.000000
_cell_angle_beta 26.587246
_cell_angle_gamma 90.000000
_cell_volume 1001.458434
_symmetry_space_group_name_H-M "P 2/M"
_symmetry_group_IT_number 10
_symmetry_cell_setting 'monoclinic'
loop_
_space_group_symop_operation_xyz
x,y,z
-x,y,-z
-x,-y,-z
x,-y,z
loop_
_atom_site_type_symbol
_atom_site_label
_atom_site_fract_x
_atom_site_fract_y
_atom_site_fract_z
Si Si1 0.890456 0.203167 0.232842
Si Si2 0.227990 0.204694 0.466677
Si Si3 0.812675 0.301958 0.417350
Si Si4 0.273683 0.500000 0.947254
Si Si5 0.727939 0.195238 0.797838
Si Si6 0.831512 0.500000 0.912804
O O1 0.553599 0.254153 0.347676
O O2 0.070213 0.249221 0.222389
O O3 0.009005 0.323616 0.154220
O O4 0.924998 0.000000 0.207706
O O5 0.150785 0.298610 0.538962
O O6 0.000000 0.272911 0.500000
O O7 0.195478 0.000000 0.485340
O O8 0.500000 0.219311 0.500000
O O9 0.832379 0.500000 0.393019
O O10 0.075122 0.195771 0.310656
O O11 0.459269 0.326909 0.878315
O O12 0.152396 0.500000 0.037273
O O13 0.000000 0.500000 0.000000
O O14 0.600710 0.000000 0.844405
O O15 0.500000 0.500000 0.000000
#
# Coordination Sequence:
#
# PCOD8067043 Si02
#       6
#     4   4   4   2   4   2
#     4  10  22  40  67  97 125 163 213 259 306 371
#     4  10  22  39  59  92 134 168 203 251 306 370
#     4  11  22  35  63  96 129 169 210 252 304 376
#     4  12  28  48  64  95 129 158 210 273 331 373
#     4  11  22  41  69  95 125 166 214 260 313 379
#     4  12  24  42  70  90 121 162 213 271 314 373
#
# _framework density 19.970874999999999
#
# number of rings (size 3 to 8) (size 9 to 14) (size 15 to 20)
#    0.000    1.200    5.000    0.600    1.400    4.400 
#    0.000    2.000    0.000    0.000    0.000    0.000 
#    0.000    0.000    0.000    0.000    0.000    0.000 
#
# Total GULP energy -248114.352172 kJ/mol
# GULP energy per Si atom -12405.717609 kJ/mol
# Density = 1.992542 g / cm^3
# Si number density = 19.970875 Si / 1000 Ang^3
#
#
#
# Elastic Constant Matrix: (Units=GPa)
#
#
# Indices 1 2 3 4 5 6 
#
# 1 154.4705 43.0363 77.2573 0.0000 -5.6355 0.0000
# 2 43.0363 102.8949 64.2392 0.0000 -3.2471 0.0000
# 3 77.2573 64.2392 138.8368 0.0000 3.0233 0.0000
# 4 0.0000 0.0000 0.0000 -42.6846 0.0000 -14.8369
# 5 -5.6355 -3.2471 3.0233 0.0000 43.0788 0.0000
# 6 0.0000 0.0000 0.0000 -14.8369 0.0000 15.2231
#
#
#
# Elastic Compliance Matrix: (Units=1/GPa)
#
#
# Indices 1 2 3 4 5 6 
#
# 1 0.009120 -0.000816 -0.004729 0.000000 0.001463 0.000000
# 2 -0.000816 0.013834 -0.005976 0.000000 0.001355 0.000000
# 3 -0.004729 -0.005976 0.012642 0.000000 -0.001956 0.000000
# 4 0.000000 0.000000 0.000000 -0.017499 0.000000 -0.017055
# 5 0.001463 0.001355 -0.001956 0.000000 0.023644 0.000000
# 6 0.000000 0.000000 0.000000 -0.017055 0.000000 0.049067
#
#
# Mechanical properties :
#
#
# Convention : Reuss Voigt Hill
#
# Bulk Modulus (GPa) = 79.66215 85.02977 82.34596
# Shear Modulus (GPa) = 42.36053 17.23475 29.79764
#
# Velocity S-wave (km/s) = 4.61055 2.94086 3.86690
# Velocity P-wave (km/s) = 8.26551 7.36213 7.82686
#
# Compressibility (1/GPa) = 0.01255301
#
# Stress axis : x y z
#
# Youngs Moduli (GPa) = 109.65357 72.28670 79.10006
#
# Poissons Ratio (x) = 0.05896 0.37408
# Poissons Ratio (y) = 0.08944 0.47274
# Poissons Ratio (z) = 0.51857 0.43202
#
# Static dielectric constant tensor:
#      x y z
#    x 3.524030 0.000000 -0.027860 
#    y 0.000000 3.669730 0.000000 
#    z -0.027860 0.000000 3.615510 
# 
# 
# High freq. dielectric constant tensor:
#      x y z
#    x 1.771760 0.000000 0.005450 
#    y 0.000000 1.789810 0.000000 
#    z 0.005450 0.000000 1.780020 
# 
# From -- ./inp_files/91760.got.cif
#   From: 2010.06.25/outbox.cif.g09.slc.cpg/sg10_46_cif.got.tgz:91760.got - 2010.06.27 22:07:45.
