data_PCOD8067025
_publ_section_title
;
Structure prediction by ZEFSAII (Michael W. Deem and Ramdas Pophale) SiO2 
 PCOD8067025
Probable space group: P 2/M
;
_chemical_formula_sum "Si O2"
_cell_formula_units_Z 32
_cell_length_a 28.228626
_cell_length_b 8.778793
_cell_length_c 21.816335
_cell_angle_alpha 90.000000
_cell_angle_beta 161.983224
_cell_angle_gamma 90.000000
_cell_volume 1672.167851
_symmetry_space_group_name_H-M "P 2/M"
_symmetry_group_IT_number 10
_symmetry_cell_setting 'monoclinic'
loop_
_space_group_symop_operation_xyz
x,y,z
-x,y,-z
-x,-y,-z
x,-y,z
loop_
_atom_site_type_symbol
_atom_site_label
_atom_site_fract_x
_atom_site_fract_y
_atom_site_fract_z
Si Si1 0.397225 0.319859 0.963550
Si Si2 0.280596 0.319675 0.693018
Si Si3 0.966789 0.319848 0.703730
Si Si4 0.833746 0.175035 0.772220
Si Si5 0.532091 0.175791 0.471171
Si Si6 0.425832 0.179068 0.123351
Si Si7 0.251583 0.321673 0.457649
Si Si8 0.303660 0.319670 0.094964
O O1 0.392567 0.500000 0.970108
O O2 0.566543 0.262893 0.153101
O O3 0.346615 0.232142 0.962590
O O4 0.281759 0.272262 0.766204
O O5 0.282649 0.500000 0.691381
O O6 0.132356 0.252713 0.475379
O O7 0.972322 0.500000 0.704380
O O8 0.889818 0.272430 0.673253
O O9 0.138759 0.254558 0.913581
O O10 0.711429 0.198338 0.676358
O O11 0.789564 0.283918 0.662388
O O12 0.834151 0.000000 0.750200
O O13 0.000000 0.225463 0.000000
O O14 0.500000 0.237734 0.500000
O O15 0.432373 0.269700 0.300823
O O16 0.483420 0.000000 0.405987
O O17 0.601644 0.229571 0.339791
O O18 0.334922 0.255429 0.066581
O O19 0.415281 0.000000 0.118121
O O20 0.288696 0.500000 0.509399
O O21 0.305010 0.500000 0.092905
#
# Coordination Sequence:
#
# PCOD8067025 Si02
#       8
#     4   4   4   4   4   4   4   4
#     4   9  16  30  58  86 110 146 189 234 285 335
#     4   8  14  29  55  86 115 143 182 235 286 335
#     4   9  19  35  57  87 117 144 184 237 288 334
#     4  10  22  39  58  84 118 152 187 227 277 340
#     4  10  22  40  59  81 115 155 189 225 275 339
#     4  12  23  37  56  82 116 154 192 235 285 342
#     4  11  21  37  62  87 114 146 190 244 287 330
#     4  11  23  39  60  84 113 151 193 237 280 333
#
# _framework density 19.136834
#
# number of rings (size 3 to 8) (size 9 to 14) (size 15 to 20)
#    0.000    2.000    2.500    2.625    1.750    0.500 
#    0.000    3.750    0.000    3.750    0.000    0.000 
#    0.000    0.000    0.000    0.000    0.000    0.000 
#
# Total GULP energy -396787.633766 kJ/mol
# GULP energy per Si atom -12399.613555 kJ/mol
# Density = 1.909328 g / cm^3
# Si number density = 19.136834 Si / 1000 Ang^3
#
#
#
# Elastic Constant Matrix: (Units=GPa)
#
#
# Indices 1 2 3 4 5 6 
#
# 1 142.2583 25.6580 41.5745 0.0000 -2.3421 0.0000
# 2 25.6580 44.4163 16.3974 0.0000 0.1102 0.0000
# 3 41.5745 16.3974 81.5709 0.0000 6.9913 0.0000
# 4 0.0000 0.0000 0.0000 10.8398 0.0000 0.6304
# 5 -2.3421 0.1102 6.9913 0.0000 34.9734 0.0000
# 6 0.0000 0.0000 0.0000 0.6304 0.0000 16.6235
#
#
#
# Elastic Compliance Matrix: (Units=1/GPa)
#
#
# Indices 1 2 3 4 5 6 
#
# 1 0.008853 -0.003681 -0.003891 0.000000 0.001382 0.000000
# 2 -0.003681 0.025879 -0.003355 0.000000 0.000343 0.000000
# 3 -0.003891 -0.003355 0.015199 0.000000 -0.003288 0.000000
# 4 0.000000 0.000000 0.000000 0.092456 0.000000 -0.003506
# 5 0.001382 0.000343 -0.003288 0.000000 0.029342 0.000000
# 6 0.000000 0.000000 0.000000 -0.003506 0.000000 0.060289
#
#
# Mechanical properties :
#
#
# Convention : Reuss Voigt Hill
#
# Bulk Modulus (GPa) = 35.61772 48.38949 42.00360
# Shear Modulus (GPa) = 18.99473 24.79504 21.89489
#
# Velocity S-wave (km/s) = 3.15393 3.60345 3.38616
# Velocity P-wave (km/s) = 5.64939 6.53101 6.10613
#
# Compressibility (1/GPa) = 0.02807591
#
# Stress axis : x y z
#
# Youngs Moduli (GPa) = 112.95292 38.64191 65.79571
#
# Poissons Ratio (x) = 0.14225 0.25599
# Poissons Ratio (y) = 0.41582 0.22076
# Poissons Ratio (z) = 0.43947 0.12965
#
# Static dielectric constant tensor:
#      x y z
#    x 3.722610 0.000000 -0.053780 
#    y 0.000000 3.224220 0.000000 
#    z -0.053780 0.000000 3.763100 
# 
# 
# High freq. dielectric constant tensor:
#      x y z
#    x 1.755240 0.000000 -0.008400 
#    y 0.000000 1.717060 0.000000 
#    z -0.008400 0.000000 1.739850 
# 
# From -- ./inp_files/86985.got.cif
#   From: 2010.06.25/outbox.cif.g09.slc.cpg/sg10_44_cif.got.tgz:86985.got - 2010.06.27 22:07:45.
