data_PCOD8067801
_publ_section_title
;
Structure prediction by ZEFSAII (Michael W. Deem and Ramdas Pophale) SiO2 
 PCOD8067801
Probable space group: P 2/M
;
_chemical_formula_sum "Si O2"
_cell_formula_units_Z 22
_cell_length_a 16.953811
_cell_length_b 11.361128
_cell_length_c 13.635849
_cell_angle_alpha 90.000000
_cell_angle_beta 23.004391
_cell_angle_gamma 90.000000
_cell_volume 1026.425392
_symmetry_space_group_name_H-M "P 2/M"
_symmetry_group_IT_number 10
_symmetry_cell_setting 'monoclinic'
loop_
_space_group_symop_operation_xyz
x,y,z
-x,y,-z
-x,-y,-z
x,-y,z
loop_
_atom_site_type_symbol
_atom_site_label
_atom_site_fract_x
_atom_site_fract_y
_atom_site_fract_z
Si Si1 0.163220 0.763920 0.743999
Si Si2 0.881368 0.000000 0.736796
Si Si3 0.376839 0.753746 0.239648
Si Si4 0.350479 0.000000 0.579418
Si Si5 0.450756 0.638025 0.775661
Si Si6 0.439171 0.000000 0.254323
Si Si7 0.964596 0.768247 0.763278
O O1 0.213679 0.884537 0.742822
O O2 0.369227 0.689382 0.497389
O O3 0.057507 0.793336 0.762958
O O4 0.000000 0.696292 0.000000
O O5 0.910033 0.886833 0.770530
O O6 0.000000 0.000000 0.500000
O O7 0.655375 0.000000 0.956010
O O8 0.509025 0.670051 0.157377
O O9 0.330442 0.882242 0.340978
O O10 0.146637 0.703896 0.492085
O O11 0.500000 0.764450 0.000000
O O12 0.500000 0.000000 0.500000
O O13 0.464953 0.000000 0.342889
O O14 0.445161 0.500000 0.766551
O O15 0.232215 0.688248 0.997295
#
# Coordination Sequence:
#
# PCOD8067801 Si02
#       7
#     4   2   4   2   4   2   4
#     4  11  26  45  70 102 136 175 221 277 343 408
#     4  12  22  35  67 101 134 177 216 265 338 414
#     4  11  23  42  70 101 139 178 226 277 339 404
#     4  12  24  41  73 106 143 174 207 274 355 414
#     4  11  26  47  68  95 134 182 238 282 327 393
#     4  12  20  42  64 102 142 176 211 276 335 415
#     4  11  23  42  67  97 140 173 222 278 339 393
#
# _framework density 21.433609000000001
#
# number of rings (size 3 to 8) (size 9 to 14) (size 15 to 20)
#    0.000    0.727    5.455    2.727    5.091    3.636 
#    0.000    1.818    0.000    0.000    0.000    0.000 
#    0.000    0.000    0.000    0.000    0.000    0.000 
#
# Total GULP energy -272675.228952 kJ/mol
# GULP energy per Si atom -12394.328589 kJ/mol
# Density = 2.138482 g / cm^3
# Si number density = 21.433609 Si / 1000 Ang^3
#
#
#
# Elastic Constant Matrix: (Units=GPa)
#
#
# Indices 1 2 3 4 5 6 
#
# 1 80.7396 44.3944 73.5734 0.0000 1.0348 0.0000
# 2 44.3944 120.6614 55.7425 0.0000 -7.9341 0.0000
# 3 73.5734 55.7425 200.2041 0.0000 5.3587 0.0000
# 4 0.0000 0.0000 0.0000 5.1846 0.0000 6.2920
# 5 1.0348 -7.9341 5.3587 0.0000 48.1581 0.0000
# 6 0.0000 0.0000 0.0000 6.2920 0.0000 -1.9409
#
#
#
# Elastic Compliance Matrix: (Units=1/GPa)
#
#
# Indices 1 2 3 4 5 6 
#
# 1 0.020732 -0.004762 -0.006279 0.000000 -0.000531 0.000000
# 2 -0.004762 0.010775 -0.001304 0.000000 0.002023 0.000000
# 3 -0.006279 -0.001304 0.007690 0.000000 -0.000936 0.000000
# 4 0.000000 0.000000 0.000000 0.039090 0.000000 0.126722
# 5 -0.000531 0.002023 -0.000936 0.000000 0.021214 0.000000
# 6 0.000000 0.000000 0.000000 0.126722 0.000000 -0.104420
#
#
# Mechanical properties :
#
#
# Convention : Reuss Voigt Hill
#
# Bulk Modulus (GPa) = 68.92925 83.22505 76.07715
# Shear Modulus (GPa) = 203.17962 25.47334 114.32648
#
# Velocity S-wave (km/s) = 9.74683 3.45117 7.31133
# Velocity P-wave (km/s) = 12.60543 7.40232 10.33661
#
# Compressibility (1/GPa) = 0.01450763
#
# Stress axis : x y z
#
# Youngs Moduli (GPa) = 48.23388 92.80465 130.03093
#
# Poissons Ratio (x) = 0.44196 0.81644
# Poissons Ratio (y) = 0.22970 0.16959
# Poissons Ratio (z) = 0.30285 0.12104
#
# Static dielectric constant tensor:
#      x y z
#    x 3.849900 0.000000 -0.088760 
#    y 0.000000 3.770100 0.000000 
#    z -0.088760 0.000000 4.554480 
# 
# 
# High freq. dielectric constant tensor:
#      x y z
#    x 1.838940 0.000000 -0.003240 
#    y 0.000000 1.809690 0.000000 
#    z -0.003240 0.000000 1.878960 
# 
# From -- ./inp_files/69041.got.cif
#   From: 2010.06.25/outbox.cif.g09.slc.cpg/sg10_35_cif.got.tgz:69041.got - 2010.06.27 22:07:45.
