data_PCOD8067855
_publ_section_title
;
Structure prediction by ZEFSAII (Michael W. Deem and Ramdas Pophale) SiO2 
 PCOD8067855
Probable space group: P 2/M
;
_chemical_formula_sum "Si O2"
_cell_formula_units_Z 28
_cell_length_a 12.289514
_cell_length_b 14.044721
_cell_length_c 10.352793
_cell_angle_alpha 90.000000
_cell_angle_beta 52.444737
_cell_angle_gamma 90.000000
_cell_volume 1416.609880
_symmetry_space_group_name_H-M "P 2/M"
_symmetry_group_IT_number 10
_symmetry_cell_setting 'monoclinic'
loop_
_space_group_symop_operation_xyz
x,y,z
-x,y,-z
-x,-y,-z
x,-y,z
loop_
_atom_site_type_symbol
_atom_site_label
_atom_site_fract_x
_atom_site_fract_y
_atom_site_fract_z
Si Si1 0.144903 0.112560 0.741068
Si Si2 0.162109 0.887329 0.023356
Si Si3 0.570763 0.789362 0.082439
Si Si4 0.006836 0.396135 0.146781
Si Si5 0.594082 0.794029 0.548776
Si Si6 0.303463 0.389850 0.919335
Si Si7 0.709366 0.389241 0.375156
O O1 0.255217 0.159592 0.566209
O O2 0.989387 0.145749 0.817965
O O3 0.155329 0.000000 0.720985
O O4 0.178619 0.145167 0.862781
O O5 0.175317 0.000000 0.026208
O O6 0.281420 0.839734 0.021023
O O7 0.473769 0.825991 0.268159
O O8 0.587484 0.675057 0.084454
O O9 0.500000 0.815763 0.000000
O O10 0.009851 0.500000 0.210238
O O11 0.863713 0.348253 0.295065
O O12 0.153067 0.347195 0.072277
O O13 0.000000 0.411265 0.000000
O O14 0.500000 0.833062 0.500000
O O15 0.607418 0.678336 0.529304
O O16 0.321347 0.500000 0.946241
O O17 0.322741 0.377029 0.752581
O O18 0.689645 0.500000 0.430358
#
# Coordination Sequence:
#
# PCOD8067855 Si02
#       7
#     4   4   4   4   4   4   4
#     4   9  19  37  66  96 117 140 187 248 294 341
#     4   9  19  39  65  92 117 149 188 236 296 345
#     4  12  26  40  54  83 124 162 195 233 286 348
#     4   7  12  24  46  78 105 133 178 234 287 326
#     4  12  22  36  56  91 117 152 196 235 296 340
#     4   9  17  32  54  80 112 152 196 236 282 339
#     4   9  17  30  53  85 116 142 186 248 295 334
#
# _framework density 19.765498000000001
#
# number of rings (size 3 to 8) (size 9 to 14) (size 15 to 20)
#    0.000    2.429    2.857    2.571    2.000    2.286 
#    0.000    0.714    0.000    1.714    0.000    3.000 
#    0.000    0.000    0.000    0.000    0.000    0.000 
#
# Total GULP energy -346921.228832 kJ/mol
# GULP energy per Si atom -12390.043887 kJ/mol
# Density = 1.972051 g / cm^3
# Si number density = 19.765498 Si / 1000 Ang^3
#
#
#
# Elastic Constant Matrix: (Units=GPa)
#
#
# Indices 1 2 3 4 5 6 
#
# 1 124.6505 40.5301 60.7316 0.0000 -10.0599 0.0000
# 2 40.5301 41.3799 24.6998 0.0000 -6.6434 0.0000
# 3 60.7316 24.6998 85.8385 0.0000 -11.3634 0.0000
# 4 0.0000 0.0000 0.0000 17.3811 0.0000 -9.1757
# 5 -10.0599 -6.6434 -11.3634 0.0000 28.9131 0.0000
# 6 0.0000 0.0000 0.0000 -9.1757 0.0000 27.4769
#
#
#
# Elastic Compliance Matrix: (Units=1/GPa)
#
#
# Indices 1 2 3 4 5 6 
#
# 1 0.015112 -0.010180 -0.007781 0.000000 -0.000139 0.000000
# 2 -0.010180 0.036392 -0.002776 0.000000 0.003729 0.000000
# 3 -0.007781 -0.002776 0.018472 0.000000 0.003915 0.000000
# 4 0.000000 0.000000 0.000000 0.069847 0.000000 0.023325
# 5 -0.000139 0.003729 0.003915 0.000000 0.036933 0.000000
# 6 0.000000 0.000000 0.000000 0.023325 0.000000 0.044183
#
#
# Mechanical properties :
#
#
# Convention : Reuss Voigt Hill
#
# Bulk Modulus (GPa) = 35.08392 55.97688 45.53040
# Shear Modulus (GPa) = 18.38806 23.14805 20.76806
#
# Velocity S-wave (km/s) = 3.05341 3.42590 3.24500
# Velocity P-wave (km/s) = 5.49724 6.63559 6.09306
#
# Compressibility (1/GPa) = 0.02850309
#
# Stress axis : x y z
#
# Youngs Moduli (GPa) = 66.17137 27.47819 54.13540
#
# Poissons Ratio (x) = 0.27971 0.42125
# Poissons Ratio (y) = 0.67359 0.15028
# Poissons Ratio (z) = 0.51490 0.07628
#
# Static dielectric constant tensor:
#      x y z
#    x 3.572070 0.000000 -0.559180 
#    y 0.000000 3.549610 0.000000 
#    z -0.559180 0.000000 3.304740 
# 
# 
# High freq. dielectric constant tensor:
#      x y z
#    x 1.752590 0.000000 -0.057190 
#    y 0.000000 1.774400 0.000000 
#    z -0.057190 0.000000 1.726320 
# 
# From -- ./inp_files/25173.got.cif
#   From: 2010.06.25/outbox.cif.g09.slc.cpg/sg10_13_cif.got.tgz:25173.got - 2010.06.27 22:07:45.
