data_PCOD8067251
_publ_section_title
;
Structure prediction by ZEFSAII (Michael W. Deem and Ramdas Pophale) SiO2 
 PCOD8067251
Probable space group: P 2/M
;
_chemical_formula_sum "Si O2"
_cell_formula_units_Z 28
_cell_length_a 20.114921
_cell_length_b 12.945744
_cell_length_c 9.133430
_cell_angle_alpha 90.000000
_cell_angle_beta 33.786725
_cell_angle_gamma 90.000000
_cell_volume 1322.618343
_symmetry_space_group_name_H-M "P 2/M"
_symmetry_group_IT_number 10
_symmetry_cell_setting 'monoclinic'
loop_
_space_group_symop_operation_xyz
x,y,z
-x,y,-z
-x,-y,-z
x,-y,z
loop_
_atom_site_type_symbol
_atom_site_label
_atom_site_fract_x
_atom_site_fract_y
_atom_site_fract_z
Si Si1 0.087922 0.880480 0.468203
Si Si2 0.469632 0.885930 0.401509
Si Si3 0.674130 0.798107 0.884542
Si Si4 0.617290 0.617246 0.182960
Si Si5 0.886343 0.618837 0.814091
Si Si6 0.713508 0.877690 0.495969
Si Si7 0.059736 0.224218 0.032192
O O1 0.205677 0.810880 0.239951
O O2 0.000000 0.846651 0.500000
O O3 0.122527 0.000000 0.395957
O O4 0.032449 0.854569 0.725367
O O5 0.500000 0.826322 0.500000
O O6 0.370512 0.833263 0.480368
O O7 0.422961 0.000000 0.527665
O O8 0.589223 0.892386 0.086564
O O9 0.691711 0.806769 0.678680
O O10 0.610328 0.691323 0.052350
O O11 0.500000 0.638727 0.500000
O O12 0.609836 0.500000 0.139896
O O13 0.750047 0.636285 0.007893
O O14 0.902975 0.500000 0.828159
O O15 0.000000 0.648922 0.500000
O O16 0.895836 0.686211 0.943045
O O17 0.843221 0.857137 0.198703
O O18 0.693273 0.000000 0.565669
O O19 0.000000 0.278533 0.000000
#
# Coordination Sequence:
#
# PCOD8067251 Si02
#       7
#     4   4   4   4   4   4   4
#     4  11  24  39  60  92 131 174 221 271 320 385
#     4  10  23  40  61  90 120 164 220 270 314 376
#     4  12  22  39  65  91 124 174 217 263 323 396
#     4  10  23  43  70 102 134 169 219 283 340 394
#     4  10  23  45  72  98 129 171 224 281 337 393
#     4  11  25  42  61  91 136 178 214 263 322 389
#     4  12  24  39  63  95 132 173 215 269 328 393
#
# _framework density 21.170127999999998
#
# number of rings (size 3 to 8) (size 9 to 14) (size 15 to 20)
#    0.000    1.143    1.429    4.714    6.000    2.000 
#    0.000    0.714    0.000    1.714    0.000    0.000 
#    0.000    0.000    0.000    0.000    0.000    0.000 
#
# Total GULP energy -346868.886411 kJ/mol
# GULP energy per Si atom -12388.174515 kJ/mol
# Density = 2.112194 g / cm^3
# Si number density = 21.170128 Si / 1000 Ang^3
#
#
#
# Elastic Constant Matrix: (Units=GPa)
#
#
# Indices 1 2 3 4 5 6 
#
# 1 121.1855 51.9779 28.7364 0.0000 -3.7344 0.0000
# 2 51.9779 106.2734 42.5700 0.0000 15.4135 0.0000
# 3 28.7364 42.5700 111.6847 0.0000 -13.6286 0.0000
# 4 0.0000 0.0000 0.0000 16.4923 0.0000 5.2019
# 5 -3.7344 15.4135 -13.6286 0.0000 34.5084 0.0000
# 6 0.0000 0.0000 0.0000 5.2019 0.0000 17.3342
#
#
#
# Elastic Compliance Matrix: (Units=1/GPa)
#
#
# Indices 1 2 3 4 5 6 
#
# 1 0.010892 -0.005814 -0.000132 0.000000 0.003724 0.000000
# 2 -0.005814 0.016071 -0.005865 0.000000 -0.010124 0.000000
# 3 -0.000132 -0.005865 0.012126 0.000000 0.007394 0.000000
# 4 0.000000 0.000000 0.000000 0.066974 0.000000 -0.020099
# 5 0.003724 -0.010124 0.007394 0.000000 0.036824 0.000000
# 6 0.000000 0.000000 0.000000 -0.020099 0.000000 0.063721
#
#
# Mechanical properties :
#
#
# Convention : Reuss Voigt Hill
#
# Bulk Modulus (GPa) = 64.65845 65.07913 64.86879
# Shear Modulus (GPa) = 21.24187 28.05762 24.64975
#
# Velocity S-wave (km/s) = 3.17107 3.64447 3.41598
# Velocity P-wave (km/s) = 6.63447 6.96544 6.80197
#
# Compressibility (1/GPa) = 0.01546588
#
# Stress axis : x y z
#
# Youngs Moduli (GPa) = 91.81350 62.22329 82.47051
#
# Poissons Ratio (x) = 0.36179 0.01087
# Poissons Ratio (y) = 0.53383 0.48370
# Poissons Ratio (z) = 0.01210 0.36494
#
# Static dielectric constant tensor:
#      x y z
#    x 3.973590 0.000000 -0.086470 
#    y 0.000000 3.704240 0.000000 
#    z -0.086470 0.000000 3.942770 
# 
# 
# High freq. dielectric constant tensor:
#      x y z
#    x 1.831920 0.000000 -0.011480 
#    y 0.000000 1.822610 0.000000 
#    z -0.011480 0.000000 1.845190 
# 
# From -- ./inp_files/35226.got.cif
#   From: 2010.06.25/outbox.cif.g09.slc.cpg/sg10_18_cif.got.tgz:35226.got - 2010.06.27 22:07:45.
