data_PCOD8067649
_publ_section_title
;
Structure prediction by ZEFSAII (Michael W. Deem and Ramdas Pophale) SiO2 
 PCOD8067649
Probable space group: P 2/M
;
_chemical_formula_sum "Si O2"
_cell_formula_units_Z 24
_cell_length_a 8.634645
_cell_length_b 20.629548
_cell_length_c 8.555962
_cell_angle_alpha 90.000000
_cell_angle_beta 53.284211
_cell_angle_gamma 90.000000
_cell_volume 1221.705910
_symmetry_space_group_name_H-M "P 2/M"
_symmetry_group_IT_number 10
_symmetry_cell_setting 'monoclinic'
loop_
_space_group_symop_operation_xyz
x,y,z
-x,y,-z
-x,-y,-z
x,-y,z
loop_
_atom_site_type_symbol
_atom_site_label
_atom_site_fract_x
_atom_site_fract_y
_atom_site_fract_z
Si Si1 0.801037 0.074513 0.208996
Si Si2 0.967671 0.500000 0.701318
Si Si3 0.884558 0.749170 0.911402
Si Si4 0.145279 0.169834 0.540805
Si Si5 0.326480 0.500000 0.717109
Si Si6 0.460040 0.151891 0.853115
Si Si7 0.823604 0.395068 0.988383
O O1 0.810383 0.114833 0.361056
O O2 0.619346 0.096150 0.213193
O O3 0.770522 0.000000 0.271818
O O4 0.000000 0.086786 0.000000
O O5 0.145009 0.500000 0.712705
O O6 0.000000 0.500000 0.500000
O O7 0.852968 0.434461 0.810284
O O8 0.786502 0.678296 0.956011
O O9 0.038896 0.766791 0.680490
O O10 0.702117 0.795030 0.021354
O O11 0.000000 0.758513 0.000000
O O12 0.350300 0.186793 0.335433
O O13 0.000000 0.140100 0.500000
O O14 0.500000 0.500000 0.500000
O O15 0.339822 0.434722 0.816172
O O16 0.500000 0.120803 0.000000
O O17 0.000000 0.394357 0.000000
#
# Coordination Sequence:
#
# PCOD8067649 Si02
#       7
#     4   2   4   4   2   4   4
#     4  11  23  43  67  92 123 159 201 250 306 367
#     4   9  17  35  58  82 112 155 187 243 292 343
#     4  11  21  41  60  90 121 160 203 255 301 364
#     4  12  23  40  65  87 123 164 199 251 309 359
#     4   9  17  37  58  86 114 157 201 241 292 355
#     4  12  23  41  63  89 124 159 202 252 304 362
#     4   8  18  36  59  79 118 156 196 239 296 353
#
# _framework density 19.644660999999999
#
# number of rings (size 3 to 8) (size 9 to 14) (size 15 to 20)
#    0.000    1.500    5.000    1.500    0.000    2.667 
#    9.000    1.667    0.000    0.000    0.000    0.000 
#    0.000    0.000    0.000    0.000    0.000    0.000 
#
# Total GULP energy -297361.446248 kJ/mol
# GULP energy per Si atom -12390.060260 kJ/mol
# Density = 1.959995 g / cm^3
# Si number density = 19.644661 Si / 1000 Ang^3
#
#
#
# Elastic Constant Matrix: (Units=GPa)
#
#
# Indices 1 2 3 4 5 6 
#
# 1 92.4035 34.6021 33.1387 0.0000 16.0922 0.0000
# 2 34.6021 117.1774 48.5944 0.0000 8.8551 0.0000
# 3 33.1387 48.5944 140.0477 0.0000 1.3051 0.0000
# 4 0.0000 0.0000 0.0000 7.5639 0.0000 -14.5104
# 5 16.0922 8.8551 1.3051 0.0000 44.5801 0.0000
# 6 0.0000 0.0000 0.0000 -14.5104 0.0000 -18.9951
#
#
#
# Elastic Compliance Matrix: (Units=1/GPa)
#
#
# Indices 1 2 3 4 5 6 
#
# 1 0.013357 -0.002723 -0.002176 0.000000 -0.004217 0.000000
# 2 -0.002723 0.010684 -0.003053 0.000000 -0.001050 0.000000
# 3 -0.002176 -0.003053 0.008704 0.000000 0.001137 0.000000
# 4 0.000000 0.000000 0.000000 0.053624 0.000000 -0.040963
# 5 -0.004217 -0.001050 0.001137 0.000000 0.024129 0.000000
# 6 0.000000 0.000000 0.000000 -0.040963 0.000000 -0.021353
#
#
# Mechanical properties :
#
#
# Convention : Reuss Voigt Hill
#
# Bulk Modulus (GPa) = 59.38311 64.69988 62.04149
# Shear Modulus (GPa) = 45.18266 22.18265 33.68266
#
# Velocity S-wave (km/s) = 4.80103 3.36400 4.14526
# Velocity P-wave (km/s) = 7.81201 6.93507 7.38656
#
# Compressibility (1/GPa) = 0.01683980
#
# Stress axis : x y z
#
# Youngs Moduli (GPa) = 74.86920 93.60175 114.88794
#
# Poissons Ratio (x) = 0.25487 0.25004
# Poissons Ratio (y) = 0.20386 0.35075
# Poissons Ratio (z) = 0.16294 0.28576
#
# Static dielectric constant tensor:
#      x y z
#    x 3.837420 0.000000 0.148700 
#    y 0.000000 3.119100 0.000000 
#    z 0.148700 0.000000 3.852050 
# 
# 
# High freq. dielectric constant tensor:
#      x y z
#    x 1.762670 0.000000 0.008120 
#    y 0.000000 1.754530 0.000000 
#    z 0.008120 0.000000 1.777520 
# 
# From -- ./inp_files/20163.got.cif
#   From: 2010.06.25/outbox.cif.g09.slc.cpg/sg10_11_cif.got.tgz:20163.got - 2010.06.27 22:07:45.
