data_PCOD8067012
_publ_section_title
;
Structure prediction by ZEFSAII (Michael W. Deem and Ramdas Pophale) SiO2 
 PCOD8067012
Probable space group: P 2/M
;
_chemical_formula_sum "Si O2"
_cell_formula_units_Z 32
_cell_length_a 11.999105
_cell_length_b 8.831624
_cell_length_c 31.234411
_cell_angle_alpha 90.000000
_cell_angle_beta 149.587139
_cell_angle_gamma 90.000000
_cell_volume 1675.592302
_symmetry_space_group_name_H-M "P 2/M"
_symmetry_group_IT_number 10
_symmetry_cell_setting 'monoclinic'
loop_
_space_group_symop_operation_xyz
x,y,z
-x,y,-z
-x,-y,-z
x,-y,z
loop_
_atom_site_type_symbol
_atom_site_label
_atom_site_fract_x
_atom_site_fract_y
_atom_site_fract_z
Si Si1 0.049230 0.176223 0.967260
Si Si2 0.690450 0.175785 0.095873
Si Si3 0.334436 0.321108 0.212429
Si Si4 0.296882 0.320054 0.728821
Si Si5 0.187911 0.175284 0.247327
Si Si6 0.512029 0.678568 0.117259
Si Si7 0.813646 0.320836 0.577621
Si Si8 0.364168 0.679082 0.390695
O O1 0.882958 0.269588 0.883601
O O2 0.024146 0.000000 0.948065
O O3 0.290378 0.230305 0.034661
O O4 0.000000 0.213153 0.000000
O O5 0.679237 0.277696 0.134815
O O6 0.928474 0.206327 0.153534
O O7 0.662977 0.000000 0.099231
O O8 0.500000 0.227180 0.000000
O O9 0.340563 0.500000 0.215829
O O10 0.548257 0.257369 0.257908
O O11 0.334496 0.259811 0.260571
O O12 0.294181 0.500000 0.727176
O O13 0.388660 0.264823 0.804920
O O14 0.049430 0.255052 0.640402
O O15 0.258383 0.232292 0.316856
O O16 0.242288 0.000000 0.261638
O O17 0.466500 0.500000 0.102533
O O18 0.822938 0.500000 0.582975
O O19 0.761656 0.264891 0.608408
O O20 0.621621 0.273614 0.480932
O O21 0.338783 0.500000 0.374959
#
# Coordination Sequence:
#
# PCOD8067012 Si02
#       8
#     4   4   4   4   4   4   4   4
#     4  11  22  36  54  77 111 152 187 221 267 327
#     4  10  22  39  55  74 106 145 183 224 274 332
#     4  11  22  37  57  79 108 145 190 237 275 322
#     4   9  18  32  52  82 113 137 171 229 286 322
#     4  11  23  38  56  79 113 151 185 225 278 338
#     4  11  21  34  57  85 111 138 180 234 279 324
#     4   8  15  31  57  87 114 139 175 228 282 331
#     4   9  17  33  60  87 110 142 184 225 271 333
#
# _framework density 19.097723999999999
#
# number of rings (size 3 to 8) (size 9 to 14) (size 15 to 20)
#    0.000    2.000    1.250    3.750    0.000    3.750 
#    0.000    1.875    0.000    7.500    0.000    0.000 
#    0.000    0.000    0.000    0.000    0.000    0.000 
#
# Total GULP energy -396832.180365 kJ/mol
# GULP energy per Si atom -12401.005636 kJ/mol
# Density = 1.905426 g / cm^3
# Si number density = 19.097724 Si / 1000 Ang^3
#
#
#
# Elastic Constant Matrix: (Units=GPa)
#
#
# Indices 1 2 3 4 5 6 
#
# 1 102.9103 26.6375 42.3285 0.0000 5.9168 0.0000
# 2 26.6375 43.9049 17.7936 0.0000 -5.2517 0.0000
# 3 42.3285 17.7936 112.3871 0.0000 9.3843 0.0000
# 4 0.0000 0.0000 0.0000 16.2740 0.0000 -3.3356
# 5 5.9168 -5.2517 9.3843 0.0000 32.5633 0.0000
# 6 0.0000 0.0000 0.0000 -3.3356 0.0000 26.0381
#
#
#
# Elastic Compliance Matrix: (Units=1/GPa)
#
#
# Indices 1 2 3 4 5 6 
#
# 1 0.013114 -0.006759 -0.003667 0.000000 -0.002416 0.000000
# 2 -0.006759 0.028698 -0.002548 0.000000 0.006591 0.000000
# 3 -0.003667 -0.002548 0.010924 0.000000 -0.002893 0.000000
# 4 0.000000 0.000000 0.000000 0.063104 0.000000 0.008084
# 5 -0.002416 0.006591 -0.002893 0.000000 0.033045 0.000000
# 6 0.000000 0.000000 0.000000 0.008084 0.000000 0.039441
#
#
# Mechanical properties :
#
#
# Convention : Reuss Voigt Hill
#
# Bulk Modulus (GPa) = 37.33138 48.08016 42.70577
# Shear Modulus (GPa) = 22.40088 26.47126 24.43607
#
# Velocity S-wave (km/s) = 3.42857 3.72707 3.58093
# Velocity P-wave (km/s) = 5.93830 6.61452 6.28551
#
# Compressibility (1/GPa) = 0.02678712
#
# Stress axis : x y z
#
# Youngs Moduli (GPa) = 76.25390 34.84504 91.54125
#
# Poissons Ratio (x) = 0.23552 0.33571
# Poissons Ratio (y) = 0.51541 0.23327
# Poissons Ratio (z) = 0.27965 0.08879
#
# Static dielectric constant tensor:
#      x y z
#    x 3.840700 0.000000 0.234910 
#    y 0.000000 3.232960 0.000000 
#    z 0.234910 0.000000 3.653550 
# 
# 
# High freq. dielectric constant tensor:
#      x y z
#    x 1.749110 0.000000 0.005840 
#    y 0.000000 1.720000 0.000000 
#    z 0.005840 0.000000 1.742580 
# 
# From -- ./inp_files/83601.got.cif
#   From: 2010.06.25/outbox.cif.g09.slc.cpg/sg10_42_cif.got.tgz:83601.got - 2010.06.27 22:07:45.
