data_PCOD8067222
_publ_section_title
;
Structure prediction by ZEFSAII (Michael W. Deem and Ramdas Pophale) SiO2 
 PCOD8067222
Probable space group: P 2/M
;
_chemical_formula_sum "Si O2"
_cell_formula_units_Z 28
_cell_length_a 9.697505
_cell_length_b 8.673138
_cell_length_c 21.854737
_cell_angle_alpha 90.000000
_cell_angle_beta 47.942866
_cell_angle_gamma 90.000000
_cell_volume 1364.787336
_symmetry_space_group_name_H-M "P 2/M"
_symmetry_group_IT_number 10
_symmetry_cell_setting 'monoclinic'
loop_
_space_group_symop_operation_xyz
x,y,z
-x,y,-z
-x,-y,-z
x,-y,z
loop_
_atom_site_type_symbol
_atom_site_label
_atom_site_fract_x
_atom_site_fract_y
_atom_site_fract_z
Si Si1 0.148643 0.679252 0.074191
Si Si2 0.244982 0.177517 0.820374
Si Si3 0.224810 0.819998 0.175036
Si Si4 0.850619 0.681258 0.495676
Si Si5 0.870433 0.181553 0.357512
Si Si6 0.544133 0.821079 0.367443
Si Si7 0.420290 0.678170 0.883585
O O1 0.092465 0.500000 0.088777
O O2 0.255698 0.719264 0.104867
O O3 0.970327 0.787709 0.124790
O O4 0.279321 0.723898 0.979099
O O5 0.349866 0.213017 0.726554
O O6 0.323693 0.290581 0.847988
O O7 0.269181 0.000000 0.832811
O O8 0.397820 0.784376 0.167456
O O9 0.037437 0.765169 0.264122
O O10 0.216370 0.000000 0.161237
O O11 0.866930 0.500000 0.488888
O O12 0.898184 0.742662 0.414691
O O13 0.644235 0.725880 0.577022
O O14 0.000000 0.748717 0.500000
O O15 0.675575 0.232162 0.384648
O O16 0.876029 0.000000 0.364983
O O17 0.493870 0.000000 0.389644
O O18 0.477575 0.500000 0.870865
#
# Coordination Sequence:
#
# PCOD8067222 Si02
#       7
#     4   4   4   4   4   4   4
#     4  11  23  41  63  90 127 170 211 259 320 377
#     4  11  23  41  65  94 125 164 215 264 311 370
#     4  11  23  41  65  94 125 164 215 264 311 370
#     4  11  26  43  62  96 132 161 200 249 302 368
#     4  10  22  43  67  92 123 161 206 255 308 367
#     4  10  22  43  67  92 123 161 206 255 308 367
#     4  11  25  41  59  90 131 170 211 261 320 377
#
# _framework density 20.516017999999999
#
# number of rings (size 3 to 8) (size 9 to 14) (size 15 to 20)
#    0.000    1.286    1.429    3.429    2.000   11.429 
#    0.000    0.000    0.000    0.000    0.000    0.000 
#    0.000    0.000    0.000    0.000    0.000    0.000 
#
# Total GULP energy -347380.999754 kJ/mol
# GULP energy per Si atom -12406.464277 kJ/mol
# Density = 2.046932 g / cm^3
# Si number density = 20.516018 Si / 1000 Ang^3
#
#
#
# Elastic Constant Matrix: (Units=GPa)
#
#
# Indices 1 2 3 4 5 6 
#
# 1 248.6817 1.0317 -5.2329 0.0000 -0.6143 0.0000
# 2 1.0317 49.3660 55.9622 0.0000 8.6577 0.0000
# 3 -5.2329 55.9622 122.1358 0.0000 16.8517 0.0000
# 4 0.0000 0.0000 0.0000 -113.4823 0.0000 -7.0847
# 5 -0.6143 8.6577 16.8517 0.0000 29.3077 0.0000
# 6 0.0000 0.0000 0.0000 -7.0847 0.0000 38.1697
#
#
#
# Elastic Compliance Matrix: (Units=1/GPa)
#
#
# Indices 1 2 3 4 5 6 
#
# 1 0.004033 -0.000583 0.000439 0.000000 0.000004 0.000000
# 2 -0.000583 0.042293 -0.019201 0.000000 -0.001465 0.000000
# 3 0.000439 -0.019201 0.017618 0.000000 -0.004449 0.000000
# 4 0.000000 0.000000 0.000000 -0.008711 0.000000 -0.001617
# 5 0.000004 -0.001465 -0.004449 0.000000 0.037112 0.000000
# 6 0.000000 0.000000 0.000000 -0.001617 0.000000 0.025899
#
#
# Mechanical properties :
#
#
# Convention : Reuss Voigt Hill
#
# Bulk Modulus (GPa) = 39.59763 58.18951 48.89357
# Shear Modulus (GPa) = 30.23861 15.36053 22.79957
#
# Velocity S-wave (km/s) = 3.84331 2.73922 3.33724
# Velocity P-wave (km/s) = 6.24799 6.19911 6.22360
#
# Compressibility (1/GPa) = 0.02525403
#
# Stress axis : x y z
#
# Youngs Moduli (GPa) = 247.96173 23.64460 56.75935
#
# Poissons Ratio (x) = 0.01379 -0.02494
# Poissons Ratio (y) = 0.14459 1.08985
# Poissons Ratio (z) = -0.10896 0.45401
#
# Static dielectric constant tensor:
#      x y z
#    x 3.867110 0.000000 0.055370 
#    y 0.000000 3.602250 0.000000 
#    z 0.055370 0.000000 3.816070 
# 
# 
# High freq. dielectric constant tensor:
#      x y z
#    x 1.817160 0.000000 0.001080 
#    y 0.000000 1.799970 0.000000 
#    z 0.001080 0.000000 1.812800 
# 
# From -- ./inp_files/82174.got.cif
#   From: 2010.06.25/outbox.cif.g09.slc.cpg/sg10_42_cif.got.tgz:82174.got - 2010.06.27 22:07:45.
