data_PCOD8067713
_publ_section_title
;
Structure prediction by ZEFSAII (Michael W. Deem and Ramdas Pophale) SiO2 
 PCOD8067713
Probable space group: P 2/M
;
_chemical_formula_sum "Si O2"
_cell_formula_units_Z 28
_cell_length_a 17.851730
_cell_length_b 15.375564
_cell_length_c 5.256228
_cell_angle_alpha 90.000000
_cell_angle_beta 63.318208
_cell_angle_gamma 90.000000
_cell_volume 1289.101122
_symmetry_space_group_name_H-M "P 2/M"
_symmetry_group_IT_number 10
_symmetry_cell_setting 'monoclinic'
loop_
_space_group_symop_operation_xyz
x,y,z
-x,y,-z
-x,-y,-z
x,-y,z
loop_
_atom_site_type_symbol
_atom_site_label
_atom_site_fract_x
_atom_site_fract_y
_atom_site_fract_z
Si Si1 0.334822 0.100986 0.723474
Si Si2 0.735402 0.680226 0.652816
Si Si3 0.597046 0.815693 0.877533
Si Si4 0.209213 0.599923 0.931642
Si Si5 0.142398 0.103604 0.027873
Si Si6 0.102491 0.200215 0.590371
Si Si7 0.026804 0.642605 0.209746
O O1 0.374581 0.118012 0.386510
O O2 0.338707 0.000000 0.774948
O O3 0.386465 0.146923 0.867546
O O4 0.239288 0.134741 0.875125
O O5 0.646050 0.725896 0.768934
O O6 0.740367 0.616892 0.402533
O O7 0.809709 0.749490 0.541201
O O8 0.735466 0.622619 0.908264
O O9 0.500000 0.794258 0.000000
O O10 0.180171 0.500000 0.986945
O O11 0.125915 0.661179 0.060151
O O12 0.097329 0.140125 0.348243
O O13 0.135801 0.000000 0.037782
O O14 0.095835 0.139737 0.849248
O O15 0.024908 0.267075 0.709207
O O16 0.000000 0.587871 0.500000
O O17 0.000000 0.588629 0.000000
#
# Coordination Sequence:
#
# PCOD8067713 Si02
#       7
#     4   4   4   4   4   4   4
#     4  11  22  38  61  94 135 174 215 271 325 364
#     4  12  23  44  68  94 126 173 207 249 320 385
#     4  12  25  40  64  96 131 170 218 265 307 380
#     4  12  26  45  69 101 130 155 200 259 325 394
#     4  11  22  38  63  92 125 175 227 270 306 356
#     4  12  21  39  65  90 127 172 218 257 306 384
#     4  12  23  38  63  98 124 167 197 254 317 376
#
# _framework density 21.720559999999999
#
# number of rings (size 3 to 8) (size 9 to 14) (size 15 to 20)
#    0.000    0.286    5.714    4.286    0.000    4.571 
#    0.000    0.000    0.000   11.143    0.000    0.000 
#    0.000    0.000    0.000    0.000    0.000    0.000 
#
# Total GULP energy -347236.101082 kJ/mol
# GULP energy per Si atom -12401.289324 kJ/mol
# Density = 2.167112 g / cm^3
# Si number density = 21.720560 Si / 1000 Ang^3
#
#
#
# Elastic Constant Matrix: (Units=GPa)
#
#
# Indices 1 2 3 4 5 6 
#
# 1 109.6059 49.0326 52.7988 0.0000 0.8586 0.0000
# 2 49.0326 84.3795 38.2872 0.0000 -2.5109 0.0000
# 3 52.7988 38.2872 131.9062 0.0000 38.0751 0.0000
# 4 0.0000 0.0000 0.0000 15.3035 0.0000 1.0159
# 5 0.8586 -2.5109 38.0751 0.0000 56.7293 0.0000
# 6 0.0000 0.0000 0.0000 1.0159 0.0000 10.6075
#
#
#
# Elastic Compliance Matrix: (Units=1/GPa)
#
#
# Indices 1 2 3 4 5 6 
#
# 1 0.014000 -0.005953 -0.004637 0.000000 0.002637 0.000000
# 2 -0.005953 0.016973 -0.003456 0.000000 0.003161 0.000000
# 3 -0.004637 -0.003456 0.012979 0.000000 -0.008794 0.000000
# 4 0.000000 0.000000 0.000000 0.065763 0.000000 -0.006298
# 5 0.002637 0.003161 -0.008794 0.000000 0.023630 0.000000
# 6 0.000000 0.000000 0.000000 -0.006298 0.000000 0.094876
#
#
# Mechanical properties :
#
#
# Convention : Reuss Voigt Hill
#
# Bulk Modulus (GPa) = 63.05475 67.34765 65.20120
# Shear Modulus (GPa) = 19.11332 28.91293 24.01313
#
# Velocity S-wave (km/s) = 2.96964 3.65243 3.32859
# Velocity P-wave (km/s) = 6.39151 6.99004 6.69746
#
# Compressibility (1/GPa) = 0.01585923
#
# Stress axis : x y z
#
# Youngs Moduli (GPa) = 71.43079 58.91852 77.04877
#
# Poissons Ratio (x) = 0.35072 0.35728
# Poissons Ratio (y) = 0.42520 0.26630
# Poissons Ratio (z) = 0.33123 0.20364
#
# Static dielectric constant tensor:
#      x y z
#    x 4.460600 0.000000 1.006210 
#    y 0.000000 3.655330 0.000000 
#    z 1.006210 0.000000 5.440290 
# 
# 
# High freq. dielectric constant tensor:
#      x y z
#    x 1.849460 0.000000 0.026710 
#    y 0.000000 1.838710 0.000000 
#    z 0.026710 0.000000 1.876000 
# 
# From -- ./inp_files/11375.got.cif
#   From: 2010.06.25/outbox.cif.g09.slc.cpg/sg10_6_cif.got.tgz:11375.got - 2010.06.27 22:07:45.
