data_PCOD8067659
_publ_section_title
;
Structure prediction by ZEFSAII (Michael W. Deem and Ramdas Pophale) SiO2 
 PCOD8067659
Probable space group: P 2/M
;
_chemical_formula_sum "Si O2"
_cell_formula_units_Z 32
_cell_length_a 28.504818
_cell_length_b 8.679877
_cell_length_c 22.548394
_cell_angle_alpha 90.000000
_cell_angle_beta 18.552560
_cell_angle_gamma 90.000000
_cell_volume 1775.058938
_symmetry_space_group_name_H-M "P 2/M"
_symmetry_group_IT_number 10
_symmetry_cell_setting 'monoclinic'
loop_
_space_group_symop_operation_xyz
x,y,z
-x,y,-z
-x,-y,-z
x,-y,z
loop_
_atom_site_type_symbol
_atom_site_label
_atom_site_fract_x
_atom_site_fract_y
_atom_site_fract_z
Si Si1 0.423860 0.183571 0.502651
Si Si2 0.535934 0.816591 0.790821
Si Si3 0.279816 0.816902 0.794088
Si Si4 0.029445 0.182886 0.788486
Si Si5 0.677092 0.181968 0.501572
Si Si6 0.178952 0.680679 0.498282
Si Si7 0.926638 0.817715 0.496219
Si Si8 0.219955 0.181853 0.207437
O O1 0.590224 0.238856 0.317588
O O2 0.314113 0.241689 0.686213
O O3 0.372929 0.256655 0.500969
O O4 0.419563 0.000000 0.505430
O O5 0.569941 0.761453 0.682857
O O6 0.659455 0.753052 0.687127
O O7 0.540260 0.000000 0.790189
O O8 0.377253 0.747405 0.999576
O O9 0.272363 0.000000 0.802705
O O10 0.124634 0.749129 0.002591
O O11 0.155814 0.232127 0.683791
O O12 0.062034 0.253771 0.685434
O O13 0.024627 0.000000 0.786473
O O14 0.667025 0.000000 0.508149
O O15 0.191004 0.500000 0.491926
O O16 0.121090 0.721544 0.502990
O O17 0.817510 0.769823 0.680499
O O18 0.091989 0.764754 0.315690
O O19 0.918835 0.000000 0.492680
O O20 0.228323 0.000000 0.194070
#
# Coordination Sequence:
#
# PCOD8067659 Si02
#       8
#     4   4   4   4   4   4   4   4
#     4   8  13  22  36  63  97 120 140 180 233 282
#     4   9  17  32  51  72  95 124 161 199 235 279
#     4   8  14  23  38  62  94 122 145 179 231 283
#     4   9  17  30  46  65  87 118 157 196 233 275
#     4   8  14  23  38  60  88 116 146 183 224 266
#     4  11  22  34  47  68  97 130 162 198 241 284
#     4   9  17  33  54  76  99 124 155 195 237 284
#     4   8  16  31  54  78  98 122 157 196 236 279
#
# _framework density 18.027570000000001
#
# number of rings (size 3 to 8) (size 9 to 14) (size 15 to 20)
#    0.000    3.250    0.000    3.375    0.000    2.000 
#    0.000   11.250    0.000    0.000    0.000    8.750 
#    0.000    0.000    0.000    0.000    0.000    0.000 
#
# Total GULP energy -396626.980216 kJ/mol
# GULP energy per Si atom -12394.593132 kJ/mol
# Density = 1.798654 g / cm^3
# Si number density = 18.027570 Si / 1000 Ang^3
#
#
#
# Elastic Constant Matrix: (Units=GPa)
#
#
# Indices 1 2 3 4 5 6 
#
# 1 161.9393 16.9362 85.1132 0.0000 1.1401 0.0000
# 2 16.9362 23.6304 19.0367 0.0000 0.2936 0.0000
# 3 85.1132 19.0367 191.4240 0.0000 -4.0986 0.0000
# 4 0.0000 0.0000 0.0000 3.0952 0.0000 0.1552
# 5 1.1401 0.2936 -4.0986 0.0000 14.8629 0.0000
# 6 0.0000 0.0000 0.0000 0.1552 0.0000 2.4756
#
#
#
# Elastic Compliance Matrix: (Units=1/GPa)
#
#
# Indices 1 2 3 4 5 6 
#
# 1 0.008312 -0.003191 -0.003411 0.000000 -0.001515 0.000000
# 2 -0.003191 0.047299 -0.003319 0.000000 -0.001605 0.000000
# 3 -0.003411 -0.003319 0.007120 0.000000 0.002291 0.000000
# 4 0.000000 0.000000 0.000000 0.324098 0.000000 -0.020317
# 5 -0.001515 -0.001605 0.002291 0.000000 0.068061 0.000000
# 6 0.000000 0.000000 0.000000 -0.020317 0.000000 0.405215
#
#
# Mechanical properties :
#
#
# Convention : Reuss Voigt Hill
#
# Bulk Modulus (GPa) = 23.31605 68.79622 46.05614
# Shear Modulus (GPa) = 5.59131 21.14724 13.36928
#
# Velocity S-wave (km/s) = 1.76303 3.42870 2.72619
# Velocity P-wave (km/s) = 4.13594 7.34297 5.95924
#
# Compressibility (1/GPa) = 0.04288890
#
# Stress axis : x y z
#
# Youngs Moduli (GPa) = 120.30313 21.14195 140.45273
#
# Poissons Ratio (x) = 0.06746 0.47909
# Poissons Ratio (y) = 0.38386 0.46623
# Poissons Ratio (z) = 0.41036 0.07018
#
# Static dielectric constant tensor:
#      x y z
#    x 3.514120 0.000000 0.011180 
#    y 0.000000 2.726180 0.000000 
#    z 0.011180 0.000000 3.844260 
# 
# 
# High freq. dielectric constant tensor:
#      x y z
#    x 1.703650 0.000000 0.000000 
#    y 0.000000 1.638840 0.000000 
#    z 0.000000 0.000000 1.705740 
# 
# From -- ./inp_files/86831.got.cif
#   From: 2010.06.25/outbox.cif.g09.slc.cpg/sg10_44_cif.got.tgz:86831.got - 2010.06.27 22:07:45.
