data_PCOD8067336
_publ_section_title
;
Structure prediction by ZEFSAII (Michael W. Deem and Ramdas Pophale) SiO2 
 PCOD8067336
Probable space group: P 2/M
;
_chemical_formula_sum "Si O2"
_cell_formula_units_Z 28
_cell_length_a 9.629649
_cell_length_b 13.823373
_cell_length_c 13.541701
_cell_angle_alpha 90.000000
_cell_angle_beta 121.151212
_cell_angle_gamma 90.000000
_cell_volume 1542.668290
_symmetry_space_group_name_H-M "P 2/M"
_symmetry_group_IT_number 10
_symmetry_cell_setting 'monoclinic'
loop_
_space_group_symop_operation_xyz
x,y,z
-x,y,-z
-x,-y,-z
x,-y,z
loop_
_atom_site_type_symbol
_atom_site_label
_atom_site_fract_x
_atom_site_fract_y
_atom_site_fract_z
Si Si1 0.277672 0.300423 0.179988
Si Si2 0.013853 0.387916 0.213207
Si Si3 0.392838 0.891820 0.310435
Si Si4 0.452428 0.387937 0.589484
Si Si5 0.260932 0.892552 0.480652
Si Si6 0.333334 0.388313 0.991808
Si Si7 0.880665 0.698930 0.540534
O O1 0.099399 0.327960 0.156000
O O2 0.314364 0.186724 0.208421
O O3 0.404071 0.368294 0.282694
O O4 0.295515 0.321469 0.071311
O O5 0.061959 0.500000 0.218453
O O6 0.076816 0.351725 0.341348
O O7 0.819233 0.374336 0.137836
O O8 0.313651 0.879564 0.387676
O O9 0.585519 0.874682 0.391123
O O10 0.358792 0.000000 0.256332
O O11 0.500000 0.346627 0.500000
O O12 0.411543 0.500000 0.569618
O O13 0.293697 0.331782 0.564467
O O14 0.118933 0.815463 0.449433
O O15 0.190203 0.000000 0.472291
O O16 0.349006 0.500000 0.031028
O O17 0.500000 0.354642 0.000000
O O18 0.000000 0.663591 0.500000
#
# Coordination Sequence:
#
# PCOD8067336 Si02
#       7
#     4   4   4   4   4   4   4
#     4  12  20  36  63  83 111 145 192 238 276 335
#     4  11  23  39  57  81 113 152 194 234 275 333
#     4   9  17  31  59  88 110 142 188 236 281 332
#     4  11  21  34  54  83 116 151 186 227 279 343
#     4   9  17  34  54  80 116 151 189 230 278 338
#     4  10  24  42  59  81 110 151 197 236 278 330
#     4  12  24  35  53  86 124 154 184 228 292 345
#
# _framework density 18.150369000000001
#
# number of rings (size 3 to 8) (size 9 to 14) (size 15 to 20)
#    0.000    1.429    4.286    3.000    2.000    2.571 
#    0.000    0.000    0.000    3.000    0.000    0.000 
#    0.000    0.000    0.000    0.000    0.000    0.000 
#
# Total GULP energy -347210.964790 kJ/mol
# GULP energy per Si atom -12400.391600 kJ/mol
# Density = 1.810906 g / cm^3
# Si number density = 18.150369 Si / 1000 Ang^3
#
#
#
# Elastic Constant Matrix: (Units=GPa)
#
#
# Indices 1 2 3 4 5 6 
#
# 1 98.9825 30.9735 22.4478 0.0000 -0.3385 0.0000
# 2 30.9735 107.1777 23.8865 0.0000 0.1733 0.0000
# 3 22.4478 23.8865 50.5670 0.0000 3.4676 0.0000
# 4 0.0000 0.0000 0.0000 28.5149 0.0000 0.4439
# 5 -0.3385 0.1733 3.4676 0.0000 26.3077 0.0000
# 6 0.0000 0.0000 0.0000 0.4439 0.0000 18.1895
#
#
#
# Elastic Compliance Matrix: (Units=1/GPa)
#
#
# Indices 1 2 3 4 5 6 
#
# 1 0.011821 -0.002500 -0.004115 0.000000 0.000711 0.000000
# 2 -0.002500 0.010966 -0.004100 0.000000 0.000436 0.000000
# 3 -0.004115 -0.004100 0.023756 0.000000 -0.003157 0.000000
# 4 0.000000 0.000000 0.000000 0.035083 0.000000 -0.000856
# 5 0.000711 0.000436 -0.003157 0.000000 0.038434 0.000000
# 6 0.000000 0.000000 0.000000 -0.000856 0.000000 0.054998
#
#
# Mechanical properties :
#
#
# Convention : Reuss Voigt Hill
#
# Bulk Modulus (GPa) = 39.82209 45.70475 42.76342
# Shear Modulus (GPa) = 24.40707 26.56370 25.48538
#
# Velocity S-wave (km/s) = 3.67101 3.82977 3.75123
# Velocity P-wave (km/s) = 6.32109 6.69268 6.50954
#
# Compressibility (1/GPa) = 0.02511169
#
# Stress axis : x y z
#
# Youngs Moduli (GPa) = 84.59624 91.19199 42.09484
#
# Poissons Ratio (x) = 0.22799 0.17323
# Poissons Ratio (y) = 0.21150 0.17259
# Poissons Ratio (z) = 0.34814 0.37389
#
# Static dielectric constant tensor:
#      x y z
#    x 3.321690 0.000000 0.127490 
#    y 0.000000 3.532840 0.000000 
#    z 0.127490 0.000000 3.172090 
# 
# 
# High freq. dielectric constant tensor:
#      x y z
#    x 1.695680 0.000000 0.009110 
#    y 0.000000 1.708050 0.000000 
#    z 0.009110 0.000000 1.681560 
# 
# From -- ./inp_files/25404.got.cif
#   From: 2010.06.25/outbox.cif.g09.slc.cpg/sg10_13_cif.got.tgz:25404.got - 2010.06.27 22:07:45.
