data_PCOD8067228
_publ_section_title
;
Structure prediction by ZEFSAII (Michael W. Deem and Ramdas Pophale) SiO2 
 PCOD8067228
Probable space group: P 2/M
;
_chemical_formula_sum "Si O2"
_cell_formula_units_Z 26
_cell_length_a 14.395384
_cell_length_b 15.199081
_cell_length_c 9.748627
_cell_angle_alpha 90.000000
_cell_angle_beta 143.379149
_cell_angle_gamma 90.000000
_cell_volume 1272.350777
_symmetry_space_group_name_H-M "P 2/M"
_symmetry_group_IT_number 10
_symmetry_cell_setting 'monoclinic'
loop_
_space_group_symop_operation_xyz
x,y,z
-x,y,-z
-x,-y,-z
x,-y,z
loop_
_atom_site_type_symbol
_atom_site_label
_atom_site_fract_x
_atom_site_fract_y
_atom_site_fract_z
Si Si1 0.945413 0.000000 0.785357
Si Si2 0.647258 0.247848 0.569802
Si Si3 0.157344 0.846830 0.985357
Si Si4 0.367834 0.000000 0.702642
Si Si5 0.639390 0.190364 0.255381
Si Si6 0.393344 0.000000 0.237633
Si Si7 0.141505 0.599996 0.270686
Si Si8 0.041182 0.711628 0.399433
O O1 0.761852 0.000000 0.568885
O O2 0.000000 0.000000 0.000000
O O3 0.005296 0.091746 0.795336
O O4 0.500000 0.252880 0.500000
O O5 0.793673 0.195149 0.809636
O O6 0.600072 0.200033 0.371740
O O7 0.709228 0.344954 0.604865
O O8 0.299344 0.909489 0.114786
O O9 0.111343 0.767235 0.829616
O O10 0.350959 0.912958 0.774990
O O11 0.526786 0.000000 0.812405
O O12 0.803175 0.230799 0.407789
O O13 0.500000 0.233712 0.000000
O O14 0.500000 0.000000 0.500000
O O15 0.199010 0.500000 0.352132
O O16 0.076449 0.631176 0.340315
O O17 0.000000 0.610155 0.000000
O O18 0.000000 0.673414 0.500000
#
# Coordination Sequence:
#
# PCOD8067228 Si02
#       8
#     2   4   4   2   4   2   4   4
#     4  11  21  32  58  84 125 163 216 273 311 357
#     4  11  23  40  69  94 129 166 206 263 315 380
#     4  11  22  40  59  91 124 168 225 260 309 373
#     4  12  21  38  53  82 121 177 210 267 317 349
#     4  11  25  40  59  90 128 170 222 258 315 374
#     4  11  23  36  56  89 129 169 218 274 311 363
#     4  10  22  43  71 102 128 155 202 263 327 394
#     4  11  25  42  67  92 128 173 211 267 317 379
#
# _framework density 20.434615999999998
#
# number of rings (size 3 to 8) (size 9 to 14) (size 15 to 20)
#    0.000    1.077    3.077    4.385    6.462    0.615 
#    0.000    1.923    0.000    7.385    0.000    0.000 
#    0.000    0.000    0.000    0.000    0.000    0.000 
#
# Total GULP energy -322176.202802 kJ/mol
# GULP energy per Si atom -12391.392415 kJ/mol
# Density = 2.038811 g / cm^3
# Si number density = 20.434616 Si / 1000 Ang^3
#
#
#
# Elastic Constant Matrix: (Units=GPa)
#
#
# Indices 1 2 3 4 5 6 
#
# 1 110.7469 34.9027 33.9746 0.0000 -8.2132 0.0000
# 2 34.9027 120.9255 31.8331 0.0000 0.7109 0.0000
# 3 33.9746 31.8331 130.4613 0.0000 -3.2285 0.0000
# 4 0.0000 0.0000 0.0000 28.8386 0.0000 4.3904
# 5 -8.2132 0.7109 -3.2285 0.0000 32.8092 0.0000
# 6 0.0000 0.0000 0.0000 4.3904 0.0000 13.8930
#
#
#
# Elastic Compliance Matrix: (Units=1/GPa)
#
#
# Indices 1 2 3 4 5 6 
#
# 1 0.010659 -0.002540 -0.002094 0.000000 0.002517 0.000000
# 2 -0.002540 0.009448 -0.001669 0.000000 -0.001005 0.000000
# 3 -0.002094 -0.001669 0.008626 0.000000 0.000361 0.000000
# 4 0.000000 0.000000 0.000000 0.036428 0.000000 -0.011512
# 5 0.002517 -0.001005 0.000361 0.000000 0.031167 0.000000
# 6 0.000000 0.000000 0.000000 -0.011512 0.000000 0.075616
#
#
# Mechanical properties :
#
#
# Convention : Reuss Voigt Hill
#
# Bulk Modulus (GPa) = 62.00274 62.61715 62.30994
# Shear Modulus (GPa) = 26.32603 32.53639 29.43121
#
# Velocity S-wave (km/s) = 3.59319 3.99459 3.79920
# Velocity P-wave (km/s) = 6.90091 7.21005 7.05718
#
# Compressibility (1/GPa) = 0.01612832
#
# Stress axis : x y z
#
# Youngs Moduli (GPa) = 93.81605 105.84356 115.92247
#
# Poissons Ratio (x) = 0.26886 0.24271
# Poissons Ratio (y) = 0.23831 0.19344
# Poissons Ratio (z) = 0.19643 0.17662
#
# Static dielectric constant tensor:
#      x y z
#    x 3.502190 0.000000 0.030590 
#    y 0.000000 3.765820 0.000000 
#    z 0.030590 0.000000 3.895550 
# 
# 
# High freq. dielectric constant tensor:
#      x y z
#    x 1.789890 0.000000 0.006060 
#    y 0.000000 1.785610 0.000000 
#    z 0.006060 0.000000 1.814700 
# 
# From -- ./inp_files/29869.got.cif
#   From: 2010.06.25/outbox.cif.g09.slc.cpg/sg10_15_cif.got.tgz:29869.got - 2010.06.27 22:07:45.
