data_PCOD8067763
_publ_section_title
;
Structure prediction by ZEFSAII (Michael W. Deem and Ramdas Pophale) SiO2 
 PCOD8067763
Probable space group: P 2/M
;
_chemical_formula_sum "Si O2"
_cell_formula_units_Z 32
_cell_length_a 17.729826
_cell_length_b 8.541389
_cell_length_c 12.348731
_cell_angle_alpha 90.000000
_cell_angle_beta 102.971349
_cell_angle_gamma 90.000000
_cell_volume 1822.339625
_symmetry_space_group_name_H-M "P 2/M"
_symmetry_group_IT_number 10
_symmetry_cell_setting 'monoclinic'
loop_
_space_group_symop_operation_xyz
x,y,z
-x,y,-z
-x,-y,-z
x,-y,z
loop_
_atom_site_type_symbol
_atom_site_label
_atom_site_fract_x
_atom_site_fract_y
_atom_site_fract_z
Si Si1 0.331364 0.186196 0.565926
Si Si2 0.334793 0.813790 0.317432
Si Si3 0.083119 0.181606 0.982191
Si Si4 0.501768 0.828388 0.372282
Si Si5 0.817712 0.681376 0.807697
Si Si6 0.927123 0.320217 0.251470
Si Si7 0.823104 0.319264 0.419718
Si Si8 0.086536 0.819082 0.354840
O O1 0.316097 0.228751 0.435728
O O2 0.416147 0.253575 0.631655
O O3 0.266939 0.271982 0.617062
O O4 0.328002 0.000000 0.581506
O O5 0.420587 0.746450 0.311290
O O6 0.272473 0.728572 0.221832
O O7 0.331814 0.000000 0.299708
O O8 0.087798 0.211350 0.856199
O O9 0.097274 0.000000 0.010910
O O10 0.149104 0.281976 0.062921
O O11 0.000000 0.236434 0.000000
O O12 0.500000 0.848160 0.500000
O O13 0.502497 0.000000 0.318975
O O14 0.827543 0.500000 0.782849
O O15 0.863829 0.783152 0.735361
O O16 0.926782 0.500000 0.214178
O O17 0.859679 0.284680 0.315067
O O18 0.009061 0.283228 0.333406
O O19 0.832502 0.500000 0.455612
O O20 0.864166 0.213482 0.522564
O O21 0.062999 0.000000 0.344195
#
# Coordination Sequence:
#
# PCOD8067763 Si02
#       8
#     4   4   4   4   4   4   4   4
#     4   9  16  28  49  74 103 140 176 208 249 302
#     4   9  16  29  49  74 105 137 173 213 251 301
#     4  11  23  39  59  79  99 129 174 220 260 306
#     4   7  12  24  44  71 101 135 171 207 249 297
#     4  12  23  34  53  78 107 139 171 211 263 312
#     4  11  24  40  56  75 102 137 174 215 263 310
#     4  11  23  36  51  76 109 141 173 211 258 309
#     4  12  23  36  54  76 102 137 179 217 255 301
#
# _framework density 17.559843999999998
#
# number of rings (size 3 to 8) (size 9 to 14) (size 15 to 20)
#    0.000    1.750    2.500    5.250    0.000    4.000 
#    0.000    0.625    0.000    2.250    0.000    0.875 
#    0.000    7.000    0.000    0.000    0.000    0.000 
#
# Total GULP energy -396731.308101 kJ/mol
# GULP energy per Si atom -12397.853378 kJ/mol
# Density = 1.751988 g / cm^3
# Si number density = 17.559844 Si / 1000 Ang^3
#
#
#
# Elastic Constant Matrix: (Units=GPa)
#
#
# Indices 1 2 3 4 5 6 
#
# 1 152.1835 26.5603 47.7282 0.0000 9.4684 0.0000
# 2 26.5603 45.4272 23.7627 0.0000 2.5996 0.0000
# 3 47.7282 23.7627 59.5150 0.0000 -2.4559 0.0000
# 4 0.0000 0.0000 0.0000 20.1836 0.0000 -2.1301
# 5 9.4684 2.5996 -2.4559 0.0000 20.2988 0.0000
# 6 0.0000 0.0000 0.0000 -2.1301 0.0000 12.5614
#
#
#
# Elastic Compliance Matrix: (Units=1/GPa)
#
#
# Indices 1 2 3 4 5 6 
#
# 1 0.009383 -0.001455 -0.007152 0.000000 -0.005055 0.000000
# 2 -0.001455 0.028551 -0.010407 0.000000 -0.004237 0.000000
# 3 -0.007152 -0.010407 0.027021 0.000000 0.007938 0.000000
# 4 0.000000 0.000000 0.000000 0.050448 0.000000 0.008555
# 5 -0.005055 -0.004237 0.007938 0.000000 0.053125 0.000000
# 6 0.000000 0.000000 0.000000 0.008555 0.000000 0.081060
#
#
# Mechanical properties :
#
#
# Convention : Reuss Voigt Hill
#
# Bulk Modulus (GPa) = 37.14003 50.35867 43.74935
# Shear Modulus (GPa) = 16.85828 21.21371 19.03599
#
# Velocity S-wave (km/s) = 3.10182 3.47952 3.29608
# Velocity P-wave (km/s) = 5.83309 6.69950 6.28125
#
# Compressibility (1/GPa) = 0.02692512
#
# Stress axis : x y z
#
# Youngs Moduli (GPa) = 106.58102 35.02562 37.00862
#
# Poissons Ratio (x) = 0.05098 0.26468
# Poissons Ratio (y) = 0.15512 0.38515
# Poissons Ratio (z) = 0.76225 0.36451
#
# Static dielectric constant tensor:
#      x y z
#    x 3.663550 0.000000 0.113730 
#    y 0.000000 3.123680 0.000000 
#    z 0.113730 0.000000 2.947310 
# 
# 
# High freq. dielectric constant tensor:
#      x y z
#    x 1.691160 0.000000 0.010120 
#    y 0.000000 1.671900 0.000000 
#    z 0.010120 0.000000 1.635520 
# 
# From -- ./inp_files/52754.got.cif
#   From: 2010.06.25/outbox.cif.g09.slc.cpg/sg10_27_cif.got.tgz:52754.got - 2010.06.27 22:07:45.
