data_PCOD8067479
_publ_section_title
;
Structure prediction by ZEFSAII (Michael W. Deem and Ramdas Pophale) SiO2 
 PCOD8067479
Probable space group: P 2/M
;
_chemical_formula_sum "Si O2"
_cell_formula_units_Z 24
_cell_length_a 18.594852
_cell_length_b 10.908896
_cell_length_c 12.137489
_cell_angle_alpha 90.000000
_cell_angle_beta 29.000970
_cell_angle_gamma 90.000000
_cell_volume 1193.677121
_symmetry_space_group_name_H-M "P 2/M"
_symmetry_group_IT_number 10
_symmetry_cell_setting 'monoclinic'
loop_
_space_group_symop_operation_xyz
x,y,z
-x,y,-z
-x,-y,-z
x,-y,z
loop_
_atom_site_type_symbol
_atom_site_label
_atom_site_fract_x
_atom_site_fract_y
_atom_site_fract_z
Si Si1 0.740029 0.641691 0.881444
Si Si2 0.742043 0.000000 0.141093
Si Si3 0.800706 0.645091 0.547436
Si Si4 0.582523 0.257536 0.664445
Si Si5 0.116965 0.746492 0.107024
Si Si6 0.646168 0.360417 0.359208
Si Si7 0.548826 0.000000 0.615872
O O1 0.774789 0.500000 0.860047
O O2 0.774011 0.673921 0.710425
O O3 0.848009 0.725392 0.810943
O O4 0.570790 0.669182 0.137425
O O5 0.680079 0.000000 0.349003
O O6 0.608818 0.000000 0.233110
O O7 0.846717 0.883326 0.980948
O O8 0.810935 0.500000 0.510259
O O9 0.663101 0.704923 0.668420
O O10 0.947001 0.714828 0.310188
O O11 0.682440 0.295453 0.425815
O O12 0.557933 0.112741 0.688295
O O13 0.215349 0.650758 0.906761
O O14 0.500000 0.296702 0.500000
O O15 0.609628 0.500000 0.433032
#
# Coordination Sequence:
#
# PCOD8067479 Si02
#       7
#     4   2   4   4   4   4   2
#     4  11  22  42  69  94 128 174 222 269 316 379
#     4  11  22  43  68  94 127 170 217 270 318 379
#     4  11  26  44  63  96 138 174 208 265 334 385
#     4  12  23  41  66  97 128 170 219 262 324 384
#     4  12  23  41  66  97 128 170 219 262 324 384
#     4  11  20  34  62  95 122 157 215 274 319 376
#     4  11  22  43  68  94 127 170 217 270 318 379
#
# _framework density 20.105941000000001
#
# number of rings (size 3 to 8) (size 9 to 14) (size 15 to 20)
#    0.000    0.667    5.000    4.000    0.000    4.000 
#    0.000    7.500    0.000    0.000    0.000    0.000 
#    0.000    0.000    0.000    0.000    0.000    0.000 
#
# Total GULP energy -297721.661359 kJ/mol
# GULP energy per Si atom -12405.069223 kJ/mol
# Density = 2.006018 g / cm^3
# Si number density = 20.105941 Si / 1000 Ang^3
#
#
#
# Elastic Constant Matrix: (Units=GPa)
#
#
# Indices 1 2 3 4 5 6 
#
# 1 41.9745 11.5674 13.6446 0.0000 -4.3776 0.0000
# 2 11.5674 96.0443 23.1881 0.0000 1.2193 0.0000
# 3 13.6446 23.1881 55.2863 0.0000 5.9477 0.0000
# 4 0.0000 0.0000 0.0000 24.2885 0.0000 -1.5654
# 5 -4.3776 1.2193 5.9477 0.0000 30.4943 0.0000
# 6 0.0000 0.0000 0.0000 -1.5654 0.0000 33.7934
#
#
#
# Elastic Compliance Matrix: (Units=1/GPa)
#
#
# Indices 1 2 3 4 5 6 
#
# 1 0.026954 -0.001748 -0.006479 0.000000 0.005203 0.000000
# 2 -0.001748 0.011706 -0.004495 0.000000 0.000158 0.000000
# 3 -0.006479 -0.004495 0.022117 0.000000 -0.005064 0.000000
# 4 0.000000 0.000000 0.000000 0.041295 0.000000 0.001913
# 5 0.005203 0.000158 -0.005064 0.000000 0.034521 0.000000
# 6 0.000000 0.000000 0.000000 0.001913 0.000000 0.029680
#
#
# Mechanical properties :
#
#
# Convention : Reuss Voigt Hill
#
# Bulk Modulus (GPa) = 28.30245 32.23391 30.26818
# Shear Modulus (GPa) = 24.57059 27.37556 25.97307
#
# Velocity S-wave (km/s) = 3.49958 3.69394 3.59808
# Velocity P-wave (km/s) = 5.51694 5.85324 5.68758
#
# Compressibility (1/GPa) = 0.03533263
#
# Stress axis : x y z
#
# Youngs Moduli (GPa) = 37.09960 85.42875 45.21457
#
# Poissons Ratio (x) = 0.14935 0.29294
# Poissons Ratio (y) = 0.06486 0.20324
# Poissons Ratio (z) = 0.24036 0.38401
#
# Static dielectric constant tensor:
#      x y z
#    x 3.650130 0.000000 0.073060 
#    y 0.000000 3.665480 0.000000 
#    z 0.073060 0.000000 3.622990 
# 
# 
# High freq. dielectric constant tensor:
#      x y z
#    x 1.781100 0.000000 0.009890 
#    y 0.000000 1.787470 0.000000 
#    z 0.009890 0.000000 1.785500 
# 
# From -- ./inp_files/53610.got.cif
#   From: 2010.06.25/outbox.cif.g09.slc.cpg/sg10_27_cif.got.tgz:53610.got - 2010.06.27 22:07:45.
