data_PCOD8067719
_publ_section_title
;
Structure prediction by ZEFSAII (Michael W. Deem and Ramdas Pophale) SiO2 
 PCOD8067719
Probable space group: P 2/M
;
_chemical_formula_sum "Si O2"
_cell_formula_units_Z 24
_cell_length_a 9.105102
_cell_length_b 11.100812
_cell_length_c 11.348629
_cell_angle_alpha 90.000000
_cell_angle_beta 66.336183
_cell_angle_gamma 90.000000
_cell_volume 1050.603211
_symmetry_space_group_name_H-M "P 2/M"
_symmetry_group_IT_number 10
_symmetry_cell_setting 'monoclinic'
loop_
_space_group_symop_operation_xyz
x,y,z
-x,y,-z
-x,-y,-z
x,-y,z
loop_
_atom_site_type_symbol
_atom_site_label
_atom_site_fract_x
_atom_site_fract_y
_atom_site_fract_z
Si Si1 0.632383 0.864153 0.640478
Si Si2 0.181820 0.638620 0.977160
Si Si3 0.170495 0.500000 0.320134
Si Si4 0.219131 0.256463 0.208440
Si Si5 0.668334 0.715714 0.307726
Si Si6 0.895761 0.135726 0.365610
Si Si7 0.192111 0.500000 0.591982
O O1 0.660239 0.840664 0.771739
O O2 0.513031 0.764793 0.624055
O O3 0.803239 0.849244 0.519711
O O4 0.565776 0.000000 0.645135
O O5 0.199413 0.500000 0.014363
O O6 0.300297 0.661078 0.830784
O O7 0.231484 0.733728 0.063195
O O8 0.000000 0.665591 0.000000
O O9 0.268453 0.384634 0.246157
O O10 0.178201 0.500000 0.457260
O O11 0.995376 0.500000 0.309709
O O12 0.040579 0.228584 0.311356
O O13 0.777336 0.833151 0.295787
O O14 0.710804 0.615971 0.392508
O O15 0.959862 0.000000 0.329172
#
# Coordination Sequence:
#
# PCOD8067719 Si02
#       7
#     4   4   2   4   4   4   2
#     4  11  27  47  68  99 142 186 225 284 347 401
#     4  11  22  43  72  98 138 182 223 281 343 411
#     4  11  22  38  67 105 139 168 218 293 346 394
#     4  12  23  43  70 104 135 181 232 279 344 407
#     4  12  23  44  69 102 138 182 226 274 349 410
#     4  11  23  43  70  97 134 183 235 283 334 403
#     4  11  22  38  67 102 139 172 219 287 346 401
#
# _framework density 22.844018999999999
#
# number of rings (size 3 to 8) (size 9 to 14) (size 15 to 20)
#    0.000    0.667    5.000    3.000    2.333    4.000 
#    0.000    9.167    0.000    0.000    0.000    0.000 
#    0.000    0.000    0.000    0.000    0.000    0.000 
#
# Total GULP energy -297551.068657 kJ/mol
# GULP energy per Si atom -12397.961194 kJ/mol
# Density = 2.279203 g / cm^3
# Si number density = 22.844019 Si / 1000 Ang^3
#
#
#
# Elastic Constant Matrix: (Units=GPa)
#
#
# Indices 1 2 3 4 5 6 
#
# 1 69.7187 30.7446 24.5429 0.0000 23.8103 0.0000
# 2 30.7446 108.4902 43.8157 0.0000 9.8391 0.0000
# 3 24.5429 43.8157 75.5192 0.0000 23.7757 0.0000
# 4 0.0000 0.0000 0.0000 30.8591 0.0000 9.7873
# 5 23.8103 9.8391 23.7757 0.0000 34.2774 0.0000
# 6 0.0000 0.0000 0.0000 9.7873 0.0000 32.8027
#
#
#
# Elastic Compliance Matrix: (Units=1/GPa)
#
#
# Indices 1 2 3 4 5 6 
#
# 1 0.020935 -0.004792 0.000156 0.000000 -0.013275 0.000000
# 2 -0.004792 0.013220 -0.007633 0.000000 0.004828 0.000000
# 3 0.000156 -0.007633 0.021703 0.000000 -0.012971 0.000000
# 4 0.000000 0.000000 0.000000 0.035792 0.000000 -0.010679
# 5 -0.013275 0.004828 -0.012971 0.000000 0.046006 0.000000
# 6 0.000000 0.000000 0.000000 -0.010679 0.000000 0.033672
#
#
# Mechanical properties :
#
#
# Convention : Reuss Voigt Hill
#
# Bulk Modulus (GPa) = 31.92767 50.21493 41.07130
# Shear Modulus (GPa) = 24.23563 29.89616 27.06589
#
# Velocity S-wave (km/s) = 3.26071 3.62153 3.44585
# Velocity P-wave (km/s) = 5.30877 6.28623 5.81806
#
# Compressibility (1/GPa) = 0.03132079
#
# Stress axis : x y z
#
# Youngs Moduli (GPa) = 47.76631 75.64173 46.07561
#
# Poissons Ratio (x) = 0.36246 -0.00718
# Poissons Ratio (y) = 0.22888 0.35170
# Poissons Ratio (z) = -0.00744 0.57738
#
# Static dielectric constant tensor:
#      x y z
#    x 4.150680 0.000000 0.227340 
#    y 0.000000 4.204440 0.000000 
#    z 0.227340 0.000000 3.908090 
# 
# 
# High freq. dielectric constant tensor:
#      x y z
#    x 1.899430 0.000000 0.021640 
#    y 0.000000 1.906160 0.000000 
#    z 0.021640 0.000000 1.883600 
# 
# From -- ./inp_files/41952.got.cif
#   From: 2010.06.25/outbox.cif.g09.slc.cpg/sg10_21_cif.got.tgz:41952.got - 2010.06.27 22:07:45.
