data_PCOD8067714
_publ_section_title
;
Structure prediction by ZEFSAII (Michael W. Deem and Ramdas Pophale) SiO2 
 PCOD8067714
Probable space group: P 2/M
;
_chemical_formula_sum "Si O2"
_cell_formula_units_Z 24
_cell_length_a 14.338502
_cell_length_b 8.517680
_cell_length_c 18.657965
_cell_angle_alpha 90.000000
_cell_angle_beta 148.714705
_cell_angle_gamma 90.000000
_cell_volume 1183.334505
_symmetry_space_group_name_H-M "P 2/M"
_symmetry_group_IT_number 10
_symmetry_cell_setting 'monoclinic'
loop_
_space_group_symop_operation_xyz
x,y,z
-x,y,-z
-x,-y,-z
x,-y,z
loop_
_atom_site_type_symbol
_atom_site_label
_atom_site_fract_x
_atom_site_fract_y
_atom_site_fract_z
Si Si1 0.725430 0.685007 0.806016
Si Si2 0.966286 0.313874 0.093224
Si Si3 0.205978 0.817378 0.631699
Si Si4 0.310883 0.682424 0.843501
Si Si5 0.997805 0.181866 0.730183
Si Si6 0.675049 0.316166 0.438538
O O1 0.742565 0.500000 0.817602
O O2 0.520409 0.739982 0.662100
O O3 0.844714 0.744135 0.817296
O O4 0.806983 0.742422 0.935507
O O5 0.962616 0.500000 0.104271
O O6 0.934016 0.226489 0.146472
O O7 0.316291 0.717450 0.762419
O O8 0.281932 0.781801 0.603698
O O9 0.000000 0.763847 0.500000
O O10 0.227866 0.000000 0.663549
O O11 0.274704 0.500000 0.834663
O O12 0.152585 0.782347 0.774809
O O13 0.500000 0.736440 0.000000
O O14 0.818595 0.279915 0.594589
O O15 0.949632 0.000000 0.693544
O O16 0.676143 0.500000 0.420928
#
# Coordination Sequence:
#
# PCOD8067714 Si02
#       6
#     4   4   4   4   4   4
#     4   8  18  37  64  92 115 147 198 249 296 345
#     4   9  18  39  65  88 117 153 194 247 297 349
#     4  11  23  40  61  88 123 159 192 237 296 356
#     4  11  25  43  64  89 115 153 203 247 288 345
#     4  12  25  40  57  87 124 159 195 240 299 356
#     4  11  22  38  62  90 117 156 205 248 289 345
#
# _framework density 20.281669000000001
#
# number of rings (size 3 to 8) (size 9 to 14) (size 15 to 20)
#    0.000    1.667    1.667    4.000    2.333    2.667 
#    0.000    7.500    0.000    0.000    0.000    0.000 
#    0.000    0.000    0.000    0.000    0.000    0.000 
#
# Total GULP energy -297686.686577 kJ/mol
# GULP energy per Si atom -12403.611941 kJ/mol
# Density = 2.023551 g / cm^3
# Si number density = 20.281669 Si / 1000 Ang^3
#
#
#
# Elastic Constant Matrix: (Units=GPa)
#
#
# Indices 1 2 3 4 5 6 
#
# 1 49.8869 12.6662 11.7802 0.0000 -2.0915 0.0000
# 2 12.6662 49.0414 23.6660 0.0000 6.6061 0.0000
# 3 11.7802 23.6660 104.1346 0.0000 7.5234 0.0000
# 4 0.0000 0.0000 0.0000 10.1799 0.0000 -2.9428
# 5 -2.0915 6.6061 7.5234 0.0000 41.5730 0.0000
# 6 0.0000 0.0000 0.0000 -2.9428 0.0000 8.5125
#
#
#
# Elastic Compliance Matrix: (Units=1/GPa)
#
#
# Indices 1 2 3 4 5 6 
#
# 1 0.021805 -0.005234 -0.001435 0.000000 0.002188 0.000000
# 2 -0.005234 0.024470 -0.004731 0.000000 -0.003295 0.000000
# 3 -0.001435 -0.004731 0.010934 0.000000 -0.001299 0.000000
# 4 0.000000 0.000000 0.000000 0.109140 0.000000 0.037730
# 5 0.002188 -0.003295 -0.001299 0.000000 0.024923 0.000000
# 6 0.000000 0.000000 0.000000 0.037730 0.000000 0.130518
#
#
# Mechanical properties :
#
#
# Convention : Reuss Voigt Hill
#
# Bulk Modulus (GPa) = 29.06233 33.25418 31.15826
# Shear Modulus (GPa) = 14.04262 22.38313 18.21288
#
# Velocity S-wave (km/s) = 2.63417 3.32567 2.99991
# Velocity P-wave (km/s) = 4.85924 5.58378 5.23406
#
# Compressibility (1/GPa) = 0.03440880
#
# Stress axis : x y z
#
# Youngs Moduli (GPa) = 45.86135 40.86708 91.45494
#
# Poissons Ratio (x) = 0.21389 0.13127
# Poissons Ratio (y) = 0.24003 0.43266
# Poissons Ratio (z) = 0.06583 0.19334
#
# Static dielectric constant tensor:
#      x y z
#    x 3.789890 0.000000 0.176600 
#    y 0.000000 3.411470 0.000000 
#    z 0.176600 0.000000 3.934800 
# 
# 
# High freq. dielectric constant tensor:
#      x y z
#    x 1.794390 0.000000 -0.001090 
#    y 0.000000 1.776280 0.000000 
#    z -0.001090 0.000000 1.801190 
# 
# From -- ./inp_files/77882.got.cif
#   From: 2010.06.25/outbox.cif.g09.slc.cpg/sg10_39_cif.got.tgz:77882.got - 2010.06.27 22:07:45.
