data_PCOD8067444
_publ_section_title
;
Structure prediction by ZEFSAII (Michael W. Deem and Ramdas Pophale) SiO2 
 PCOD8067444
Probable space group: P 2/M
;
_chemical_formula_sum "Si O2"
_cell_formula_units_Z 28
_cell_length_a 28.589438
_cell_length_b 8.688598
_cell_length_c 9.606479
_cell_angle_alpha 90.000000
_cell_angle_beta 38.894932
_cell_angle_gamma 90.000000
_cell_volume 1498.325059
_symmetry_space_group_name_H-M "P 2/M"
_symmetry_group_IT_number 10
_symmetry_cell_setting 'monoclinic'
loop_
_space_group_symop_operation_xyz
x,y,z
-x,y,-z
-x,-y,-z
x,-y,z
loop_
_atom_site_type_symbol
_atom_site_label
_atom_site_fract_x
_atom_site_fract_y
_atom_site_fract_z
Si Si1 0.554195 0.820314 0.696712
Si Si2 0.806267 0.677662 0.188364
Si Si3 0.202458 0.681482 0.243246
Si Si4 0.083162 0.316886 0.299002
Si Si5 0.679891 0.675443 0.256108
Si Si6 0.750226 0.821035 0.589475
Si Si7 0.405992 0.318877 0.103403
O O1 0.606792 0.781775 0.443138
O O2 0.587691 0.731933 0.751581
O O3 0.554111 0.000000 0.728314
O O4 0.470116 0.763221 0.862878
O O5 0.814767 0.500000 0.213136
O O6 0.733524 0.699930 0.263169
O O7 0.799639 0.780732 0.340681
O O8 0.878099 0.735961 0.934831
O O9 0.197848 0.500000 0.283982
O O10 0.130959 0.739005 0.320874
O O11 0.201704 0.776239 0.387235
O O12 0.277439 0.721370 0.983703
O O13 0.082324 0.500000 0.302565
O O14 0.000000 0.247390 0.500000
O O15 0.653070 0.500000 0.310301
O O16 0.674037 0.725252 0.771154
O O17 0.731023 0.000000 0.633099
O O18 0.416774 0.500000 0.067677
#
# Coordination Sequence:
#
# PCOD8067444 Si02
#       7
#     4   4   4   4   4   4   4
#     4  11  20  31  50  79 109 137 176 225 272 317
#     4   9  17  31  55  81 106 139 177 219 264 317
#     4   9  19  35  56  80 108 143 178 218 268 321
#     4   8  15  32  60  90 111 132 174 225 263 306
#     4   9  17  32  53  76 102 139 185 225 263 317
#     4  12  23  35  51  77 110 143 180 225 270 320
#     4  11  21  34  52  73 103 142 182 226 270 315
#
# _framework density 18.687535
#
# number of rings (size 3 to 8) (size 9 to 14) (size 15 to 20)
#    0.000    2.143    1.429    6.429    0.000    0.571 
#    0.000    3.571    0.000   10.286    0.000    0.000 
#    0.000    0.000    0.000    0.000    0.000    0.000 
#
# Total GULP energy -347202.321406 kJ/mol
# GULP energy per Si atom -12400.082907 kJ/mol
# Density = 1.864500 g / cm^3
# Si number density = 18.687535 Si / 1000 Ang^3
#
#
#
# Elastic Constant Matrix: (Units=GPa)
#
#
# Indices 1 2 3 4 5 6 
#
# 1 77.5946 18.2414 49.0021 0.0000 3.7917 0.0000
# 2 18.2414 63.5227 27.7247 0.0000 3.3847 0.0000
# 3 49.0021 27.7247 121.1882 0.0000 -11.0085 0.0000
# 4 0.0000 0.0000 0.0000 8.7101 0.0000 -1.6506
# 5 3.7917 3.3847 -11.0085 0.0000 32.3713 0.0000
# 6 0.0000 0.0000 0.0000 -1.6506 0.0000 10.0961
#
#
#
# Elastic Compliance Matrix: (Units=1/GPa)
#
#
# Indices 1 2 3 4 5 6 
#
# 1 0.018156 -0.001774 -0.007338 0.000000 -0.004437 0.000000
# 2 -0.001774 0.018009 -0.003668 0.000000 -0.002922 0.000000
# 3 -0.007338 -0.003668 0.012559 0.000000 0.005514 0.000000
# 4 0.000000 0.000000 0.000000 0.118479 0.000000 0.019370
# 5 -0.004437 -0.002922 0.005514 0.000000 0.033592 0.000000
# 6 0.000000 0.000000 0.000000 0.019370 0.000000 0.102215
#
#
# Mechanical properties :
#
#
# Convention : Reuss Voigt Hill
#
# Bulk Modulus (GPa) = 43.17435 50.24909 46.71172
# Shear Modulus (GPa) = 14.86808 21.39132 18.12970
#
# Velocity S-wave (km/s) = 2.82372 3.38699 3.11810
# Velocity P-wave (km/s) = 5.81246 6.49947 6.16554
#
# Compressibility (1/GPa) = 0.02316190
#
# Stress axis : x y z
#
# Youngs Moduli (GPa) = 55.07932 55.52923 79.62535
#
# Poissons Ratio (x) = 0.09853 0.58431
# Poissons Ratio (y) = 0.09773 0.29206
# Poissons Ratio (z) = 0.40419 0.20367
#
# Static dielectric constant tensor:
#      x y z
#    x 3.257740 0.000000 -0.131640 
#    y 0.000000 3.198500 0.000000 
#    z -0.131640 0.000000 3.697320 
# 
# 
# High freq. dielectric constant tensor:
#      x y z
#    x 1.697480 0.000000 -0.001710 
#    y 0.000000 1.709950 0.000000 
#    z -0.001710 0.000000 1.731420 
# 
# From -- ./inp_files/37080.got.cif
#   From: 2010.06.25/outbox.cif.g09.slc.cpg/sg10_19_cif.got.tgz:37080.got - 2010.06.27 22:07:45.
