data_PCOD8067079
_publ_section_title
;
Structure prediction by ZEFSAII (Michael W. Deem and Ramdas Pophale) SiO2 
 PCOD8067079
Probable space group: P 2/M
;
_chemical_formula_sum "Si O2"
_cell_formula_units_Z 26
_cell_length_a 15.104468
_cell_length_b 7.492570
_cell_length_c 22.373845
_cell_angle_alpha 90.000000
_cell_angle_beta 31.358693
_cell_angle_gamma 90.000000
_cell_volume 1317.677896
_symmetry_space_group_name_H-M "P 2/M"
_symmetry_group_IT_number 10
_symmetry_cell_setting 'monoclinic'
loop_
_space_group_symop_operation_xyz
x,y,z
-x,y,-z
-x,-y,-z
x,-y,z
loop_
_atom_site_type_symbol
_atom_site_label
_atom_site_fract_x
_atom_site_fract_y
_atom_site_fract_z
Si Si1 0.866341 0.795287 0.896518
Si Si2 0.095702 0.500000 0.714289
Si Si3 0.930051 0.795382 0.104277
Si Si4 0.814969 0.210619 0.534929
Si Si5 0.501955 0.788914 0.931788
Si Si6 0.318198 0.500000 0.471877
Si Si7 0.801581 0.789444 0.677919
Si Si8 0.699396 0.500000 0.286561
O O1 0.982132 0.677036 0.786513
O O2 0.918538 0.765265 0.935298
O O3 0.892264 0.000000 0.861449
O O4 0.670912 0.735905 0.002596
O O5 0.170412 0.500000 0.605639
O O6 0.246610 0.500000 0.675585
O O7 0.768502 0.676103 0.213722
O O8 0.868386 0.000000 0.138982
O O9 0.000000 0.734963 0.000000
O O10 0.695322 0.321095 0.559688
O O11 0.763868 0.267317 0.631589
O O12 0.010190 0.270740 0.410758
O O13 0.788248 0.000000 0.539204
O O14 0.660074 0.704829 0.803662
O O15 0.523767 0.000000 0.922264
O O16 0.500000 0.709100 0.000000
O O17 0.497715 0.500000 0.401251
O O18 0.793826 0.000000 0.685372
#
# Coordination Sequence:
#
# PCOD8067079 Si02
#       8
#     4   2   4   4   4   2   4   2
#     4   9  19  36  56  80 110 146 183 224 282 338
#     4  10  23  41  56  75 110 146 186 235 281 340
#     4   9  18  35  61  87 111 144 182 224 277 339
#     4   9  20  38  58  81 111 149 189 228 277 332
#     4   9  17  29  53  85 113 145 183 222 271 331
#     4  12  25  36  58  86 102 142 197 238 281 322
#     4   8  16  34  56  80 116 152 180 224 280 330
#     4  10  22  40  55  78 116 146 180 231 289 330
#
# _framework density 19.731680999999998
#
# number of rings (size 3 to 8) (size 9 to 14) (size 15 to 20)
#    0.000    2.769    0.000    1.385    2.154    3.692 
#    0.000    5.000    0.000    4.615    0.000    0.000 
#    0.000    0.000    0.000    0.000    0.000    0.000 
#
# Total GULP energy -322381.301233 kJ/mol
# GULP energy per Si atom -12399.280817 kJ/mol
# Density = 1.968677 g / cm^3
# Si number density = 19.731681 Si / 1000 Ang^3
#
#
#
# Elastic Constant Matrix: (Units=GPa)
#
#
# Indices 1 2 3 4 5 6 
#
# 1 85.3836 28.7009 59.0531 0.0000 -1.2246 0.0000
# 2 28.7009 72.5241 26.3121 0.0000 0.2483 0.0000
# 3 59.0531 26.3121 137.0704 0.0000 5.4951 0.0000
# 4 0.0000 0.0000 0.0000 13.8938 0.0000 -2.4989
# 5 -1.2246 0.2483 5.4951 0.0000 34.1378 0.0000
# 6 0.0000 0.0000 0.0000 -2.4989 0.0000 22.7611
#
#
#
# Elastic Compliance Matrix: (Units=1/GPa)
#
#
# Indices 1 2 3 4 5 6 
#
# 1 0.018137 -0.004646 -0.006995 0.000000 0.001810 0.000000
# 2 -0.004646 0.016015 -0.001068 0.000000 -0.000111 0.000000
# 3 -0.006995 -0.001068 0.010592 0.000000 -0.001948 0.000000
# 4 0.000000 0.000000 0.000000 0.073425 0.000000 0.008061
# 5 0.001810 -0.000111 -0.001948 0.000000 0.029672 0.000000
# 6 0.000000 0.000000 0.000000 0.008061 0.000000 0.044820
#
#
# Mechanical properties :
#
#
# Convention : Reuss Voigt Hill
#
# Bulk Modulus (GPa) = 51.74226 58.12337 54.93282
# Shear Modulus (GPa) = 22.26963 26.21933 24.24448
#
# Velocity S-wave (km/s) = 3.36314 3.64922 3.50910
# Velocity P-wave (km/s) = 6.43124 6.87579 6.65723
#
# Compressibility (1/GPa) = 0.01932656
#
# Stress axis : x y z
#
# Youngs Moduli (GPa) = 55.13524 62.44099 94.41003
#
# Poissons Ratio (x) = 0.29011 0.66036
# Poissons Ratio (y) = 0.25617 0.10084
# Poissons Ratio (z) = 0.38565 0.06669
#
# Static dielectric constant tensor:
#      x y z
#    x 3.551310 0.000000 0.085460 
#    y 0.000000 3.469230 0.000000 
#    z 0.085460 0.000000 3.794190 
# 
# 
# High freq. dielectric constant tensor:
#      x y z
#    x 1.767820 0.000000 0.005700 
#    y 0.000000 1.765330 0.000000 
#    z 0.005700 0.000000 1.761510 
# 
# From -- ./inp_files/84688.got.cif
#   From: 2010.06.25/outbox.cif.g09.slc.cpg/sg10_43_cif.got.tgz:84688.got - 2010.06.27 22:07:45.
