data_PCOD8067380
_publ_section_title
;
Structure prediction by ZEFSAII (Michael W. Deem and Ramdas Pophale) SiO2 
 PCOD8067380
Probable space group: P 2/M
;
_chemical_formula_sum "Si O2"
_cell_formula_units_Z 18
_cell_length_a 13.044920
_cell_length_b 11.386973
_cell_length_c 10.174837
_cell_angle_alpha 90.000000
_cell_angle_beta 145.828874
_cell_angle_gamma 90.000000
_cell_volume 848.898361
_symmetry_space_group_name_H-M "P 2/M"
_symmetry_group_IT_number 10
_symmetry_cell_setting 'monoclinic'
loop_
_space_group_symop_operation_xyz
x,y,z
-x,y,-z
-x,-y,-z
x,-y,z
loop_
_atom_site_type_symbol
_atom_site_label
_atom_site_fract_x
_atom_site_fract_y
_atom_site_fract_z
Si Si1 0.468750 0.863414 0.117643
Si Si2 0.254988 0.500000 0.988577
Si Si3 0.621234 0.500000 0.252926
Si Si4 0.708603 0.500000 0.683686
Si Si5 0.766654 0.702192 0.541427
Si Si6 0.100305 0.258333 0.742747
O O1 0.261445 0.834948 0.936461
O O2 0.508126 0.000000 0.177592
O O3 0.500000 0.823424 0.000000
O O4 0.603760 0.796884 0.362732
O O5 0.184171 0.388541 0.832793
O O6 0.478658 0.500000 0.226299
O O7 0.181568 0.500000 0.060805
O O8 0.744413 0.615549 0.391325
O O9 0.500000 0.500000 0.000000
O O10 0.500000 0.500000 0.500000
O O11 0.764400 0.620845 0.668834
O O12 0.962314 0.761813 0.720229
O O13 0.000000 0.230184 0.500000
#
# Coordination Sequence:
#
# PCOD8067380 Si02
#       6
#     4   2   2   2   4   4
#     4  11  23  41  63  90 125 164 211 265 314 368
#     4  12  22  37  62  93 130 162 201 248 301 383
#     4  11  18  33  60  87 128 156 186 246 316 372
#     4  11  21  41  64  91 128 170 209 244 308 374
#     4  11  22  38  61  91 125 165 204 252 306 375
#     4  12  23  38  61  95 130 161 200 254 319 372
#
# _framework density 21.203951
#
# number of rings (size 3 to 8) (size 9 to 14) (size 15 to 20)
#    0.000    0.667    6.667    3.667    0.000    3.111 
#    0.000    0.000    0.000    6.000    0.000    7.778 
#    0.000    0.000    0.000    0.000    0.000    0.000 
#
# Total GULP energy -223157.236869 kJ/mol
# GULP energy per Si atom -12397.624270 kJ/mol
# Density = 2.115569 g / cm^3
# Si number density = 21.203951 Si / 1000 Ang^3
#
#
#
# Elastic Constant Matrix: (Units=GPa)
#
#
# Indices 1 2 3 4 5 6 
#
# 1 114.3830 15.3989 33.1218 0.0000 10.9471 0.0000
# 2 15.3989 84.4279 23.2074 0.0000 -0.4710 0.0000
# 3 33.1218 23.2074 59.0378 0.0000 20.8765 0.0000
# 4 0.0000 0.0000 0.0000 15.3665 0.0000 4.7036
# 5 10.9471 -0.4710 20.8765 0.0000 46.8170 0.0000
# 6 0.0000 0.0000 0.0000 4.7036 0.0000 21.7118
#
#
#
# Elastic Compliance Matrix: (Units=1/GPa)
#
#
# Indices 1 2 3 4 5 6 
#
# 1 0.010447 -0.000315 -0.005785 0.000000 0.000133 0.000000
# 2 -0.000315 0.013634 -0.006242 0.000000 0.002994 0.000000
# 3 -0.005785 -0.006242 0.026333 0.000000 -0.010453 0.000000
# 4 0.000000 0.000000 0.000000 0.069698 0.000000 -0.015099
# 5 0.000133 0.002994 -0.010453 0.000000 0.026020 0.000000
# 6 0.000000 0.000000 0.000000 -0.015099 0.000000 0.049329
#
#
# Mechanical properties :
#
#
# Convention : Reuss Voigt Hill
#
# Bulk Modulus (GPa) = 38.86094 44.58941 41.72517
# Shear Modulus (GPa) = 21.86065 29.18711 25.52388
#
# Velocity S-wave (km/s) = 3.21436 3.71414 3.47325
# Velocity P-wave (km/s) = 5.66949 6.28232 5.98376
#
# Compressibility (1/GPa) = 0.02573278
#
# Stress axis : x y z
#
# Youngs Moduli (GPa) = 95.71939 73.34474 37.97452
#
# Poissons Ratio (x) = 0.02308 0.21967
# Poissons Ratio (y) = 0.03012 0.23703
# Poissons Ratio (z) = 0.55370 0.45780
#
# Static dielectric constant tensor:
#      x y z
#    x 8.457300 0.000000 0.170890 
#    y 0.000000 3.964060 0.000000 
#    z 0.170890 0.000000 3.944350 
# 
# 
# High freq. dielectric constant tensor:
#      x y z
#    x 1.828020 0.000000 0.022200 
#    y 0.000000 1.804910 0.000000 
#    z 0.022200 0.000000 1.837560 
# 
# From -- ./inp_files/50887.got.cif
#   From: 2010.06.25/outbox.cif.g09.slc.cpg/sg10_26_cif.got.tgz:50887.got - 2010.06.27 22:07:45.
