data_PCOD8067093
_publ_section_title
;
Structure prediction by ZEFSAII (Michael W. Deem and Ramdas Pophale) SiO2 
 PCOD8067093
Probable space group: P 2/M
;
_chemical_formula_sum "Si O2"
_cell_formula_units_Z 28
_cell_length_a 11.781412
_cell_length_b 8.542200
_cell_length_c 15.675584
_cell_angle_alpha 90.000000
_cell_angle_beta 56.518660
_cell_angle_gamma 90.000000
_cell_volume 1315.803335
_symmetry_space_group_name_H-M "P 2/M"
_symmetry_group_IT_number 10
_symmetry_cell_setting 'monoclinic'
loop_
_space_group_symop_operation_xyz
x,y,z
-x,y,-z
-x,-y,-z
x,-y,z
loop_
_atom_site_type_symbol
_atom_site_label
_atom_site_fract_x
_atom_site_fract_y
_atom_site_fract_z
Si Si1 0.856479 0.682884 0.822605
Si Si2 0.411810 0.818177 0.616397
Si Si3 0.134958 0.685783 0.988175
Si Si4 0.149600 0.318497 0.466148
Si Si5 0.131830 0.821127 0.648862
Si Si6 0.581680 0.683328 0.204809
Si Si7 0.678191 0.181651 0.754116
O O1 0.822689 0.500000 0.831818
O O2 0.854559 0.748206 0.919607
O O3 0.740096 0.775346 0.820092
O O4 0.005175 0.709445 0.720976
O O5 0.500000 0.755546 0.500000
O O6 0.251977 0.790669 0.666218
O O7 0.453525 0.721752 0.682618
O O8 0.444887 0.000000 0.618635
O O9 0.123695 0.500000 0.994339
O O10 0.266164 0.741071 0.880451
O O11 0.000000 0.757731 0.000000
O O12 0.155705 0.500000 0.487828
O O13 0.191592 0.217441 0.530847
O O14 0.251661 0.284980 0.347507
O O15 0.000000 0.266299 0.500000
O O16 0.082273 0.000000 0.672509
O O17 0.564966 0.500000 0.195295
O O18 0.481154 0.775150 0.182510
O O19 0.701591 0.000000 0.725735
#
# Coordination Sequence:
#
# PCOD8067093 Si02
#       7
#     4   4   4   4   4   4   4
#     4  11  22  39  63  90 121 158 208 259 303 361
#     4  10  22  40  60  87 124 164 203 244 301 370
#     4   9  20  40  66  94 122 156 201 256 312 362
#     4  11  22  37  60  90 123 161 208 256 300 356
#     4  11  22  36  59  91 127 165 204 251 310 368
#     4  11  23  41  66  93 122 160 208 258 310 363
#     4  12  25  41  61  88 127 166 204 251 312 376
#
# _framework density 21.279776999999999
#
# number of rings (size 3 to 8) (size 9 to 14) (size 15 to 20)
#    0.000    1.286    1.429    4.714    0.000    4.857 
#    0.000    5.714    0.000    5.143    0.000    0.000 
#    0.000    0.000    0.000    0.000    0.000    0.000 
#
# Total GULP energy -347386.774078 kJ/mol
# GULP energy per Si atom -12406.670503 kJ/mol
# Density = 2.123134 g / cm^3
# Si number density = 21.279777 Si / 1000 Ang^3
#
#
#
# Elastic Constant Matrix: (Units=GPa)
#
#
# Indices 1 2 3 4 5 6 
#
# 1 141.8428 32.2361 52.0532 0.0000 3.6988 0.0000
# 2 32.2361 55.1606 9.0548 0.0000 2.3076 0.0000
# 3 52.0532 9.0548 114.8602 0.0000 8.1924 0.0000
# 4 0.0000 0.0000 0.0000 13.3206 0.0000 0.9840
# 5 3.6988 2.3076 8.1924 0.0000 37.8261 0.0000
# 6 0.0000 0.0000 0.0000 0.9840 0.0000 33.2255
#
#
#
# Elastic Compliance Matrix: (Units=1/GPa)
#
#
# Indices 1 2 3 4 5 6 
#
# 1 0.009644 -0.004990 -0.003993 0.000000 0.000226 0.000000
# 2 -0.004990 0.020973 0.000675 0.000000 -0.000938 0.000000
# 3 -0.003993 0.000675 0.010602 0.000000 -0.001947 0.000000
# 4 0.000000 0.000000 0.000000 0.075236 0.000000 -0.002228
# 5 0.000226 -0.000938 -0.001947 0.000000 0.026893 0.000000
# 6 0.000000 0.000000 0.000000 -0.002228 0.000000 0.030163
#
#
# Mechanical properties :
#
#
# Convention : Reuss Voigt Hill
#
# Bulk Modulus (GPa) = 40.64661 55.39465 48.02063
# Shear Modulus (GPa) = 25.21073 31.44242 28.32658
#
# Velocity S-wave (km/s) = 3.44572 3.84809 3.65245
# Velocity P-wave (km/s) = 5.91381 6.76992 6.35630
#
# Compressibility (1/GPa) = 0.02460230
#
# Stress axis : x y z
#
# Youngs Moduli (GPa) = 103.69641 47.67951 94.32613
#
# Poissons Ratio (x) = 0.23791 0.37665
# Poissons Ratio (y) = 0.51742 -0.06365
# Poissons Ratio (z) = 0.41407 -0.03217
#
# Static dielectric constant tensor:
#      x y z
#    x 4.131690 0.000000 0.013630 
#    y 0.000000 3.568590 0.000000 
#    z 0.013630 0.000000 3.808250 
# 
# 
# High freq. dielectric constant tensor:
#      x y z
#    x 1.851250 0.000000 0.002660 
#    y 0.000000 1.820400 0.000000 
#    z 0.002660 0.000000 1.830040 
# 
# From -- ./inp_files/63673.got.cif
#   From: 2010.06.25/outbox.cif.g09.slc.cpg/sg10_32_cif.got.tgz:63673.got - 2010.06.27 22:07:45.
