data_PCOD8067445
_publ_section_title
;
Structure prediction by ZEFSAII (Michael W. Deem and Ramdas Pophale) SiO2 
 PCOD8067445
Probable space group: P 2/M
;
_chemical_formula_sum "Si O2"
_cell_formula_units_Z 28
_cell_length_a 13.253954
_cell_length_b 9.236723
_cell_length_c 13.629243
_cell_angle_alpha 90.000000
_cell_angle_beta 60.906815
_cell_angle_gamma 90.000000
_cell_volume 1458.015348
_symmetry_space_group_name_H-M "P 2/M"
_symmetry_group_IT_number 10
_symmetry_cell_setting 'monoclinic'
loop_
_space_group_symop_operation_xyz
x,y,z
-x,y,-z
-x,-y,-z
x,-y,z
loop_
_atom_site_type_symbol
_atom_site_label
_atom_site_fract_x
_atom_site_fract_y
_atom_site_fract_z
Si Si1 0.251509 0.668195 0.721662
Si Si2 0.973171 0.331805 0.278338
Si Si3 0.173437 0.828702 0.261708
Si Si4 0.843639 0.337148 0.540174
Si Si5 0.616187 0.337148 0.540174
Si Si6 0.564856 0.828702 0.261707
Si Si7 0.563284 0.172063 0.873433
O O1 0.257779 0.500000 0.746343
O O2 0.117792 0.712678 0.764416
O O3 0.324556 0.702467 0.589864
O O4 0.306612 0.761285 0.784703
O O5 0.004122 0.500000 0.253657
O O6 0.914421 0.297534 0.410136
O O7 0.091315 0.238715 0.215297
O O8 0.124009 0.773684 0.389227
O O9 0.304612 0.772116 0.187021
O O10 0.165548 0.000000 0.260049
O O11 0.873901 0.500000 0.560980
O O12 0.708134 0.323831 0.583732
O O13 0.565119 0.500000 0.560980
O O14 0.513237 0.226316 0.610773
O O15 0.508367 0.772115 0.187021
O O16 0.574403 0.000000 0.260049
O O17 0.564191 0.000000 0.871618
O O18 0.500000 0.232524 0.000000
#
# Coordination Sequence:
#
# PCOD8067445 Si02
#       7
#     4   4   4   4   4   4   4
#     4   9  19  34  50  71 103 143 175 196 237 306
#     4   9  19  34  50  71 103 143 175 196 237 306
#     4  11  20  31  51  76 100 129 169 217 262 297
#     4   9  17  30  48  70 101 141 175 200 238 302
#     4   9  17  30  48  70 101 141 175 200 238 302
#     4  11  20  31  51  76 100 129 169 217 262 297
#     4   9  20  38  55  73 101 135 169 211 268 319
#
# _framework density 19.204186
#
# number of rings (size 3 to 8) (size 9 to 14) (size 15 to 20)
#    0.000    2.429    1.429    3.429    0.000    5.143 
#    0.000    2.857    0.000    7.714    0.000    6.000 
#    0.000    0.000    0.000    0.000    0.000    0.000 
#
# Total GULP energy -347048.878507 kJ/mol
# GULP energy per Si atom -12394.602804 kJ/mol
# Density = 1.916048 g / cm^3
# Si number density = 19.204186 Si / 1000 Ang^3
#
#
#
# Elastic Constant Matrix: (Units=GPa)
#
#
# Indices 1 2 3 4 5 6 
#
# 1 195.7406 65.0324 32.8075 0.0000 0.0000 0.0000
# 2 65.0324 65.9296 17.5554 0.0000 -0.0001 0.0000
# 3 32.8075 17.5554 31.5626 0.0000 0.0001 0.0000
# 4 0.0000 0.0000 0.0000 46.6394 0.0000 0.0001
# 5 0.0000 -0.0001 0.0001 0.0000 13.4731 0.0000
# 6 0.0000 0.0000 0.0000 0.0001 0.0000 37.3915
#
#
#
# Elastic Compliance Matrix: (Units=1/GPa)
#
#
# Indices 1 2 3 4 5 6 
#
# 1 0.008152 -0.006791 -0.004697 0.000000 0.000000 0.000000
# 2 -0.006791 0.023461 -0.005991 0.000000 0.000000 0.000000
# 3 -0.004697 -0.005991 0.039897 0.000000 0.000000 0.000000
# 4 0.000000 0.000000 0.000000 0.021441 0.000000 0.000000
# 5 0.000000 0.000000 0.000000 0.000000 0.074222 0.000000
# 6 0.000000 0.000000 0.000000 0.000000 0.000000 0.026744
#
#
# Mechanical properties :
#
#
# Convention : Reuss Voigt Hill
#
# Bulk Modulus (GPa) = 27.35670 58.22485 42.79077
# Shear Modulus (GPa) = 20.74187 31.35663 26.04925
#
# Velocity S-wave (km/s) = 3.29001 4.04518 3.68698
# Velocity P-wave (km/s) = 5.35801 7.22514 6.36046
#
# Compressibility (1/GPa) = 0.03655411
#
# Stress axis : x y z
#
# Youngs Moduli (GPa) = 122.66827 42.62384 25.06449
#
# Poissons Ratio (x) = 0.28944 0.11772
# Poissons Ratio (y) = 0.83298 0.15016
# Poissons Ratio (z) = 0.57613 0.25535
#
# Static dielectric constant tensor:
#      x y z
#    x 4.132950 0.000000 0.000000 
#    y 0.000000 3.250360 0.000000 
#    z 0.000000 0.000000 3.087940 
# 
# 
# High freq. dielectric constant tensor:
#      x y z
#    x 1.780290 0.000000 0.000000 
#    y 0.000000 1.724270 0.000000 
#    z 0.000000 0.000000 1.688720 
# 
# From -- ./inp_files/65923.got.cif
#   From: 2010.06.25/outbox.cif.g09.slc.cpg/sg10_33_cif.got.tgz:65923.got - 2010.06.27 22:07:45.
