data_PCOD8067003
_publ_section_title
;
Structure prediction by ZEFSAII (Michael W. Deem and Ramdas Pophale) SiO2 
 PCOD8067003
Probable space group: P 2/M
;
_chemical_formula_sum "Si O2"
_cell_formula_units_Z 32
_cell_length_a 9.356033
_cell_length_b 21.802773
_cell_length_c 15.898981
_cell_angle_alpha 90.000000
_cell_angle_beta 31.157408
_cell_angle_gamma 90.000000
_cell_volume 1677.998815
_symmetry_space_group_name_H-M "P 2/M"
_symmetry_group_IT_number 10
_symmetry_cell_setting 'monoclinic'
loop_
_space_group_symop_operation_xyz
x,y,z
-x,y,-z
-x,-y,-z
x,-y,z
loop_
_atom_site_type_symbol
_atom_site_label
_atom_site_fract_x
_atom_site_fract_y
_atom_site_fract_z
Si Si1 0.722161 0.930171 0.087782
Si Si2 0.686061 0.634887 0.664809
Si Si3 0.730545 0.352947 0.456418
Si Si4 0.233603 0.214688 0.582827
Si Si5 0.254214 0.828105 0.060919
Si Si6 0.695121 0.745172 0.114514
Si Si7 0.305959 0.847049 0.382390
Si Si8 0.735249 0.428795 0.813321
O O1 0.455335 0.909286 0.276939
O O2 0.670918 0.000000 0.086276
O O3 0.763079 0.889550 0.984952
O O4 0.000000 0.922470 0.000000
O O5 0.613053 0.617786 0.603919
O O6 0.452911 0.680801 0.813013
O O7 0.667306 0.583073 0.747576
O O8 0.000000 0.661071 0.500000
O O9 0.500000 0.358642 0.500000
O O10 0.836726 0.282277 0.419657
O O11 0.997350 0.390652 0.292622
O O12 0.500000 0.229633 0.500000
O O13 0.275154 0.158950 0.497137
O O14 0.020196 0.183881 0.751671
O O15 0.500000 0.838165 0.000000
O O16 0.298200 0.767487 0.984174
O O17 0.506467 0.791161 0.260950
O O18 0.000000 0.741189 0.000000
O O19 0.000000 0.841094 0.500000
O O20 0.804488 0.500000 0.786658
O O21 0.500000 0.410605 0.000000
#
# Coordination Sequence:
#
# PCOD8067003 Si02
#       8
#     4   4   4   4   4   4   4   4
#     4  10  22  43  64  83 116 165 212 247 294 363
#     4  10  22  38  62  88 121 163 203 252 300 369
#     4  10  23  37  61  93 126 163 203 255 311 372
#     4  11  21  35  56  87 125 151 190 247 307 363
#     4  11  24  35  57  90 118 159 192 248 306 354
#     4  11  22  36  57  86 123 159 195 237 301 369
#     4  11  21  37  60  85 122 152 197 244 296 359
#     4  10  24  44  64  88 121 163 210 262 306 363
#
# _framework density 19.070336000000001
#
# number of rings (size 3 to 8) (size 9 to 14) (size 15 to 20)
#    0.000    1.500    1.250    4.875    8.750    3.000 
#    0.000    0.625    0.000    4.125    0.000    0.000 
#    0.000    0.000    0.000    0.000    0.000    0.000 
#
# Total GULP energy -396474.534681 kJ/mol
# GULP energy per Si atom -12389.829209 kJ/mol
# Density = 1.902693 g / cm^3
# Si number density = 19.070336 Si / 1000 Ang^3
#
#
#
# Elastic Constant Matrix: (Units=GPa)
#
#
# Indices 1 2 3 4 5 6 
#
# 1 112.2595 44.6019 51.3896 0.0000 10.0289 0.0000
# 2 44.6019 103.0977 61.3711 0.0000 -3.5245 0.0000
# 3 51.3896 61.3711 149.8388 0.0000 11.9175 0.0000
# 4 0.0000 0.0000 0.0000 28.7557 0.0000 -10.3142
# 5 10.0289 -3.5245 11.9175 0.0000 42.2133 0.0000
# 6 0.0000 0.0000 0.0000 -10.3142 0.0000 28.6250
#
#
#
# Elastic Compliance Matrix: (Units=1/GPa)
#
#
# Indices 1 2 3 4 5 6 
#
# 1 0.011664 -0.003788 -0.002254 0.000000 -0.002451 0.000000
# 2 -0.003788 0.014345 -0.004852 0.000000 0.003468 0.000000
# 3 -0.002254 -0.004852 0.009640 0.000000 -0.002591 0.000000
# 4 0.000000 0.000000 0.000000 0.039937 0.000000 0.014390
# 5 -0.002451 0.003468 -0.002591 0.000000 0.025293 0.000000
# 6 0.000000 0.000000 0.000000 0.014390 0.000000 0.040120
#
#
# Mechanical properties :
#
#
# Convention : Reuss Voigt Hill
#
# Bulk Modulus (GPa) = 72.14416 75.54681 73.84549
# Shear Modulus (GPa) = 29.86733 33.77435 31.82084
#
# Velocity S-wave (km/s) = 3.96178 4.21294 4.08929
# Velocity P-wave (km/s) = 7.67074 7.96028 7.81685
#
# Compressibility (1/GPa) = 0.01386114
#
# Stress axis : x y z
#
# Youngs Moduli (GPa) = 85.73624 69.70976 103.73195
#
# Poissons Ratio (x) = 0.26407 0.23379
# Poissons Ratio (y) = 0.32478 0.50332
# Poissons Ratio (z) = 0.19323 0.33824
#
# Static dielectric constant tensor:
#      x y z
#    x 3.675070 0.000000 0.146020 
#    y 0.000000 3.358390 0.000000 
#    z 0.146020 0.000000 3.939250 
# 
# 
# High freq. dielectric constant tensor:
#      x y z
#    x 1.752600 0.000000 0.004890 
#    y 0.000000 1.720910 0.000000 
#    z 0.004890 0.000000 1.759700 
# 
# From -- ./inp_files/62686.got.cif
#   From: 2010.06.25/outbox.cif.g09.slc.cpg/sg10_32_cif.got.tgz:62686.got - 2010.06.27 22:07:45.
