data_PCOD8067824
_publ_section_title
;
Structure prediction by ZEFSAII (Michael W. Deem and Ramdas Pophale) SiO2 
 PCOD8067824
Probable space group: P 2/M
;
_chemical_formula_sum "Si O2"
_cell_formula_units_Z 24
_cell_length_a 9.633354
_cell_length_b 13.684437
_cell_length_c 14.780010
_cell_angle_alpha 90.000000
_cell_angle_beta 141.308464
_cell_angle_gamma 90.000000
_cell_volume 1218.001126
_symmetry_space_group_name_H-M "P 2/M"
_symmetry_group_IT_number 10
_symmetry_cell_setting 'monoclinic'
loop_
_space_group_symop_operation_xyz
x,y,z
-x,y,-z
-x,-y,-z
x,-y,z
loop_
_atom_site_type_symbol
_atom_site_label
_atom_site_fract_x
_atom_site_fract_y
_atom_site_fract_z
Si Si1 0.936910 0.113827 0.565682
Si Si2 0.043036 0.886363 0.126613
Si Si3 0.661530 0.610503 0.377507
Si Si4 0.492568 0.220099 0.393956
Si Si5 0.759011 0.797175 0.134362
Si Si6 0.133489 0.610493 0.707824
O O1 0.713860 0.160738 0.487714
O O2 0.000000 0.158577 0.500000
O O3 0.138214 0.134916 0.735704
O O4 0.894322 0.000000 0.535884
O O5 0.288892 0.851967 0.275408
O O6 0.864077 0.823435 0.091105
O O7 0.019851 0.000000 0.141074
O O8 0.000000 0.868090 0.000000
O O9 0.580765 0.500000 0.354117
O O10 0.475839 0.685445 0.319673
O O11 0.697189 0.627102 0.289054
O O12 0.886478 0.631870 0.547251
O O13 0.500000 0.258922 0.500000
O O14 0.806105 0.683208 0.180027
O O15 0.500000 0.819584 0.000000
O O16 0.153723 0.500000 0.754910
#
# Coordination Sequence:
#
# PCOD8067824 Si02
#       6
#     4   4   4   4   4   4
#     4  11  24  40  63  94 122 160 215 267 312 366
#     4  11  27  46  62  87 127 174 212 252 317 379
#     4   9  18  34  64  97 125 158 205 259 312 371
#     4  12  22  39  66  91 126 164 205 264 313 371
#     4  12  25  41  65  94 126 167 208 266 312 376
#     4   9  18  37  63  94 126 159 205 259 314 370
#
# _framework density 19.704416999999999
#
# number of rings (size 3 to 8) (size 9 to 14) (size 15 to 20)
#    0.000    1.333    3.333    3.000    4.667    2.667 
#    0.000    0.833    0.000    1.000    0.000    0.000 
#    0.000    0.000    0.000    0.000    0.000    0.000 
#
# Total GULP energy -297682.553507 kJ/mol
# GULP energy per Si atom -12403.439729 kJ/mol
# Density = 1.965957 g / cm^3
# Si number density = 19.704417 Si / 1000 Ang^3
#
#
#
# Elastic Constant Matrix: (Units=GPa)
#
#
# Indices 1 2 3 4 5 6 
#
# 1 135.9443 72.6964 49.6676 0.0000 -1.8819 0.0000
# 2 72.6964 122.2148 37.2609 0.0000 -2.9516 0.0000
# 3 49.6676 37.2609 79.1480 0.0000 4.9196 0.0000
# 4 0.0000 0.0000 0.0000 61.6057 0.0000 -10.7703
# 5 -1.8819 -2.9516 4.9196 0.0000 31.2389 0.0000
# 6 0.0000 0.0000 0.0000 -10.7703 0.0000 26.7312
#
#
#
# Elastic Compliance Matrix: (Units=1/GPa)
#
#
# Indices 1 2 3 4 5 6 
#
# 1 0.012294 -0.005742 -0.005074 0.000000 0.000997 0.000000
# 2 -0.005742 0.012318 -0.002269 0.000000 0.001175 0.000000
# 3 -0.005074 -0.002269 0.017086 0.000000 -0.003211 0.000000
# 4 0.000000 0.000000 0.000000 0.017462 0.000000 0.007036
# 5 0.000997 0.001175 -0.003211 0.000000 0.032688 0.000000
# 6 0.000000 0.000000 0.000000 0.007036 0.000000 0.040244
#
#
# Mechanical properties :
#
#
# Convention : Reuss Voigt Hill
#
# Bulk Modulus (GPa) = 64.39462 72.95077 68.67269
# Shear Modulus (GPa) = 30.59281 35.76064 33.17673
#
# Velocity S-wave (km/s) = 3.94456 4.26473 4.10777
# Velocity P-wave (km/s) = 7.31419 7.83285 7.57796
#
# Compressibility (1/GPa) = 0.01552925
#
# Stress axis : x y z
#
# Youngs Moduli (GPa) = 81.34168 81.18362 58.52718
#
# Poissons Ratio (x) = 0.46614 0.29694
# Poissons Ratio (y) = 0.46704 0.13279
# Poissons Ratio (z) = 0.41270 0.18419
#
# Static dielectric constant tensor:
#      x y z
#    x 3.755820 0.000000 -0.111390 
#    y 0.000000 3.814340 0.000000 
#    z -0.111390 0.000000 3.451840 
# 
# 
# High freq. dielectric constant tensor:
#      x y z
#    x 1.773080 0.000000 -0.005940 
#    y 0.000000 1.783440 0.000000 
#    z -0.005940 0.000000 1.747420 
# 
# From -- ./inp_files/29288.got.cif
#   From: 2010.06.25/outbox.cif.g09.slc.cpg/sg10_15_cif.got.tgz:29288.got - 2010.06.27 22:07:45.
