data_PCOD8067804
_publ_section_title
;
Structure prediction by ZEFSAII (Michael W. Deem and Ramdas Pophale) SiO2 
 PCOD8067804
Probable space group: P 2/M
;
_chemical_formula_sum "Si O2"
_cell_formula_units_Z 32
_cell_length_a 10.598321
_cell_length_b 12.824937
_cell_length_c 11.361507
_cell_angle_alpha 90.000000
_cell_angle_beta 71.000980
_cell_angle_gamma 90.000000
_cell_volume 1460.161432
_symmetry_space_group_name_H-M "P 2/M"
_symmetry_group_IT_number 10
_symmetry_cell_setting 'monoclinic'
loop_
_space_group_symop_operation_xyz
x,y,z
-x,y,-z
-x,-y,-z
x,-y,z
loop_
_atom_site_type_symbol
_atom_site_label
_atom_site_fract_x
_atom_site_fract_y
_atom_site_fract_z
Si Si1 0.707556 0.382025 0.355179
Si Si2 0.344310 0.191648 0.052549
Si Si3 0.844310 0.691648 0.552549
Si Si4 0.449058 0.185332 0.639805
Si Si5 0.792444 0.882025 0.144821
Si Si6 0.792795 0.381235 0.815025
Si Si7 0.292795 0.881235 0.315025
Si Si8 0.949058 0.685332 0.139805
O O1 0.655993 0.500000 0.382758
O O2 0.774427 0.342538 0.454437
O O3 0.581700 0.309220 0.361406
O O4 0.815893 0.375807 0.217539
O O5 0.319583 0.315020 0.082002
O O6 0.275825 0.127143 0.179485
O O7 0.500000 0.166580 0.000000
O O8 0.274427 0.157462 0.954437
O O9 0.775825 0.627143 0.679485
O O10 0.819583 0.815020 0.582003
O O11 0.000000 0.666580 0.500000
O O12 0.500000 0.139996 0.500000
O O13 0.315893 0.124193 0.717538
O O14 0.562300 0.167802 0.702105
O O15 0.918300 0.809220 0.138594
O O16 0.844007 0.000000 0.117242
O O17 0.780539 0.500000 0.860820
O O18 0.937700 0.332198 0.797896
O O19 0.280539 0.000000 0.360820
O O20 0.000000 0.639996 0.000000
#
# Coordination Sequence:
#
# PCOD8067804 Si02
#       8
#     4   4   4   4   4   4   4   4
#     4  11  24  42  66  93 126 169 209 259 314 363
#     4  11  23  43  65  94 128 159 216 261 300 381
#     4  11  23  43  65  94 128 159 216 261 300 381
#     4  11  23  43  61  96 127 162 211 258 306 382
#     4  11  24  42  66  93 126 169 209 259 314 363
#     4  11  24  42  67  93 126 168 206 260 318 366
#     4  11  24  42  67  93 126 168 206 260 318 366
#     4  11  23  43  61  96 127 162 211 258 306 382
#
# _framework density 21.915385000000001
#
# number of rings (size 3 to 8) (size 9 to 14) (size 15 to 20)
#    0.000    1.000    5.000    1.500    0.000    4.000 
#    0.000    1.250    0.000    0.000    0.000    0.000 
#    0.000    0.000    0.000    0.000    0.000    0.000 
#
# Total GULP energy -396906.331128 kJ/mol
# GULP energy per Si atom -12403.322848 kJ/mol
# Density = 2.186550 g / cm^3
# Si number density = 21.915385 Si / 1000 Ang^3
#
#
#
# Elastic Constant Matrix: (Units=GPa)
#
#
# Indices 1 2 3 4 5 6 
#
# 1 30.9709 20.3198 3.0498 0.0000 11.7300 0.0000
# 2 20.3198 161.5516 31.3509 0.0000 16.6483 0.0000
# 3 3.0498 31.3509 111.3570 0.0000 7.1973 0.0000
# 4 0.0000 0.0000 0.0000 13.7052 0.0000 -0.7526
# 5 11.7300 16.6483 7.1973 0.0000 24.9963 0.0000
# 6 0.0000 0.0000 0.0000 -0.7526 0.0000 19.5158
#
#
#
# Elastic Compliance Matrix: (Units=1/GPa)
#
#
# Indices 1 2 3 4 5 6 
#
# 1 0.041042 -0.003587 0.000995 0.000000 -0.017157 0.000000
# 2 -0.003587 0.007258 -0.001774 0.000000 -0.002639 0.000000
# 3 0.000995 -0.001774 0.009585 0.000000 -0.002045 0.000000
# 4 0.000000 0.000000 0.000000 0.073120 0.000000 0.002820
# 5 -0.017157 -0.002639 -0.002045 0.000000 0.050404 0.000000
# 6 0.000000 0.000000 0.000000 0.002820 0.000000 0.051349
#
#
# Mechanical properties :
#
#
# Convention : Reuss Voigt Hill
#
# Bulk Modulus (GPa) = 20.34567 45.92449 33.13508
# Shear Modulus (GPa) = 19.38928 28.25406 23.82167
#
# Velocity S-wave (km/s) = 2.97767 3.59449 3.30052
# Velocity P-wave (km/s) = 4.59630 6.18288 5.44766
#
# Compressibility (1/GPa) = 0.04915050
#
# Stress axis : x y z
#
# Youngs Moduli (GPa) = 24.36530 137.78830 104.33408
#
# Poissons Ratio (x) = 0.49427 -0.10379
# Poissons Ratio (y) = 0.08740 0.18513
# Poissons Ratio (z) = -0.02424 0.24449
#
# Static dielectric constant tensor:
#      x y z
#    x 3.855250 0.000000 0.017510 
#    y 0.000000 3.888440 0.000000 
#    z 0.017510 0.000000 4.137080 
# 
# 
# High freq. dielectric constant tensor:
#      x y z
#    x 1.850810 0.000000 0.003480 
#    y 0.000000 1.853500 0.000000 
#    z 0.003480 0.000000 1.878550 
# 
# From -- ./inp_files/46999.got.cif
#   From: 2010.06.25/outbox.cif.g09.slc.cpg/sg10_24_cif.got.tgz:46999.got - 2010.06.27 22:07:45.
