data_PCOD8067017
_publ_section_title
;
Structure prediction by ZEFSAII (Michael W. Deem and Ramdas Pophale) SiO2 
 PCOD8067017
Probable space group: P 2/M
;
_chemical_formula_sum "Si O2"
_cell_formula_units_Z 32
_cell_length_a 14.264611
_cell_length_b 9.094009
_cell_length_c 14.384815
_cell_angle_alpha 90.000000
_cell_angle_beta 117.551734
_cell_angle_gamma 90.000000
_cell_volume 1654.413856
_symmetry_space_group_name_H-M "P 2/M"
_symmetry_group_IT_number 10
_symmetry_cell_setting 'monoclinic'
loop_
_space_group_symop_operation_xyz
x,y,z
-x,y,-z
-x,-y,-z
x,-y,z
loop_
_atom_site_type_symbol
_atom_site_label
_atom_site_fract_x
_atom_site_fract_y
_atom_site_fract_z
Si Si1 0.791411 0.174272 0.017954
Si Si2 0.016777 0.325834 0.792753
Si Si3 0.575183 0.329044 0.949655
Si Si4 0.608522 0.834893 0.605571
Si Si5 0.062367 0.674492 0.441394
Si Si6 0.502789 0.670287 0.712892
Si Si7 0.705245 0.672780 0.488488
Si Si8 0.113563 0.337903 0.099589
O O1 0.881108 0.238780 0.125832
O O2 0.794457 0.000000 0.022733
O O3 0.679644 0.231261 0.003820
O O4 0.809603 0.226089 0.919312
O O5 0.040866 0.500000 0.809767
O O6 0.992356 0.269975 0.678108
O O7 0.911532 0.288782 0.805984
O O8 0.607405 0.500000 0.970572
O O9 0.511986 0.294726 0.825885
O O10 0.500000 0.283328 0.000000
O O11 0.500000 0.830413 0.500000
O O12 0.593332 0.757927 0.698487
O O13 0.694213 0.748705 0.583863
O O14 0.648213 0.000000 0.641027
O O15 0.056299 0.500000 0.441142
O O16 0.183958 0.725661 0.504073
O O17 0.000000 0.743745 0.500000
O O18 0.520787 0.500000 0.698969
O O19 0.386194 0.720069 0.625759
O O20 0.703941 0.500000 0.506693
O O21 0.166726 0.500000 0.120447
O O22 0.000000 0.343926 0.000000
#
# Coordination Sequence:
#
# PCOD8067017 Si02
#       8
#     4   4   4   4   4   4   4   4
#     4  11  22  35  54  80 109 140 173 217 269 315
#     4   9  18  34  56  80 108 142 176 214 262 314
#     4  10  22  39  57  77 102 138 183 223 261 311
#     4   9  17  30  50  77 107 138 171 207 254 313
#     4   9  18  32  53  81 107 134 175 222 260 299
#     4   9  18  33  54  79 106 135 169 214 263 309
#     4   9  17  31  52  79 108 136 170 214 261 306
#     4   8  15  30  52  78 107 138 173 213 260 316
#
# _framework density 19.342196999999999
#
# number of rings (size 3 to 8) (size 9 to 14) (size 15 to 20)
#    0.000    2.750    0.000    2.250    0.000    6.500 
#    0.000    6.875    0.000    4.500    0.000    0.000 
#    0.000    0.000    0.000    0.000    0.000    0.000 
#
# Total GULP energy -396742.619441 kJ/mol
# GULP energy per Si atom -12398.206858 kJ/mol
# Density = 1.929817 g / cm^3
# Si number density = 19.342197 Si / 1000 Ang^3
#
#
#
# Elastic Constant Matrix: (Units=GPa)
#
#
# Indices 1 2 3 4 5 6 
#
# 1 133.1882 40.9856 65.8692 0.0000 -20.1318 0.0000
# 2 40.9856 69.0708 39.4080 0.0000 -4.1789 0.0000
# 3 65.8692 39.4080 110.8991 0.0000 -22.9529 0.0000
# 4 0.0000 0.0000 0.0000 8.2869 0.0000 3.3141
# 5 -20.1318 -4.1789 -22.9529 0.0000 34.5951 0.0000
# 6 0.0000 0.0000 0.0000 3.3141 0.0000 10.5438
#
#
#
# Elastic Compliance Matrix: (Units=1/GPa)
#
#
# Indices 1 2 3 4 5 6 
#
# 1 0.011573 -0.003914 -0.004853 0.000000 0.003042 0.000000
# 2 -0.003914 0.019660 -0.005380 0.000000 -0.003472 0.000000
# 3 -0.004853 -0.005380 0.015177 0.000000 0.006595 0.000000
# 4 0.000000 0.000000 0.000000 0.138021 0.000000 -0.043382
# 5 0.003042 -0.003472 0.006595 0.000000 0.034632 0.000000
# 6 0.000000 0.000000 0.000000 -0.043382 0.000000 0.108478
#
#
# Mechanical properties :
#
#
# Convention : Reuss Voigt Hill
#
# Bulk Modulus (GPa) = 55.20445 67.29818 61.25131
# Shear Modulus (GPa) = 13.81699 21.81152 17.81426
#
# Velocity S-wave (km/s) = 2.67562 3.36172 3.03810
# Velocity P-wave (km/s) = 6.17642 7.06662 6.63646
#
# Compressibility (1/GPa) = 0.01811448
#
# Stress axis : x y z
#
# Youngs Moduli (GPa) = 86.41139 50.86493 65.89070
#
# Poissons Ratio (x) = 0.19908 0.31978
# Poissons Ratio (y) = 0.33821 0.35450
# Poissons Ratio (z) = 0.41937 0.27366
#
# Static dielectric constant tensor:
#      x y z
#    x 3.709260 0.000000 -0.219920 
#    y 0.000000 3.307840 0.000000 
#    z -0.219920 0.000000 3.610000 
# 
# 
# High freq. dielectric constant tensor:
#      x y z
#    x 1.752150 0.000000 -0.004800 
#    y 0.000000 1.724120 0.000000 
#    z -0.004800 0.000000 1.750700 
# 
# From -- ./inp_files/66592.got.cif
#   From: 2010.06.25/outbox.cif.g09.slc.cpg/sg10_34_cif.got.tgz:66592.got - 2010.06.27 22:07:45.
