data_PCOD8067693
_publ_section_title
;
Structure prediction by ZEFSAII (Michael W. Deem and Ramdas Pophale) SiO2 
 PCOD8067693
Probable space group: P 2/M
;
_chemical_formula_sum "Si O2"
_cell_formula_units_Z 24
_cell_length_a 14.164659
_cell_length_b 13.641013
_cell_length_c 12.231833
_cell_angle_alpha 90.000000
_cell_angle_beta 32.488738
_cell_angle_gamma 90.000000
_cell_volume 1269.482707
_symmetry_space_group_name_H-M "P 2/M"
_symmetry_group_IT_number 10
_symmetry_cell_setting 'monoclinic'
loop_
_space_group_symop_operation_xyz
x,y,z
-x,y,-z
-x,-y,-z
x,-y,z
loop_
_atom_site_type_symbol
_atom_site_label
_atom_site_fract_x
_atom_site_fract_y
_atom_site_fract_z
Si Si1 0.320216 0.738758 0.856936
Si Si2 0.137315 0.306662 0.443806
Si Si3 0.796835 0.387097 0.227940
Si Si4 0.711064 0.765525 0.492190
Si Si5 0.984081 0.888619 0.887654
Si Si6 0.793007 0.609724 0.837698
O O1 0.310586 0.666296 0.762994
O O2 0.508659 0.792328 0.668171
O O3 0.170832 0.821027 0.006201
O O4 0.311548 0.678312 0.977029
O O5 0.259994 0.247603 0.406023
O O6 0.259292 0.366812 0.238280
O O7 0.000000 0.242091 0.500000
O O8 0.005764 0.377461 0.642505
O O9 0.735107 0.500000 0.298091
O O10 0.764467 0.332689 0.374311
O O11 0.000000 0.379957 0.000000
O O12 0.828109 0.857806 0.343755
O O13 0.943653 0.000000 0.893491
O O14 0.000000 0.874439 0.000000
O O15 0.739353 0.500000 0.920470
#
# Coordination Sequence:
#
# PCOD8067693 Si02
#       6
#     4   4   4   4   4   4
#     4  12  22  37  61  89 124 152 196 246 297 356
#     4   8  18  36  59  80 118 161 202 240 282 333
#     4  11  22  37  58  83 123 167 196 230 288 358
#     4  12  22  38  61  90 119 156 197 244 300 355
#     4  11  23  43  64  86 117 154 197 248 310 361
#     4   9  18  35  58  84 122 164 203 238 278 337
#
# _framework density 18.905338
#
# number of rings (size 3 to 8) (size 9 to 14) (size 15 to 20)
#    1.000    0.333    5.000    2.000    0.000    6.000 
#    0.000    2.500    0.000    4.500    0.000    5.833 
#    0.000    0.000    0.000    0.000    0.000    0.000 
#
# Total GULP energy -297395.432216 kJ/mol
# GULP energy per Si atom -12391.476342 kJ/mol
# Density = 1.886231 g / cm^3
# Si number density = 18.905338 Si / 1000 Ang^3
#
#
#
# Elastic Constant Matrix: (Units=GPa)
#
#
# Indices 1 2 3 4 5 6 
#
# 1 93.1425 33.0359 38.6029 0.0000 -0.2281 0.0000
# 2 33.0359 88.7582 37.1459 0.0000 2.2918 0.0000
# 3 38.6029 37.1459 86.4784 0.0000 -4.7746 0.0000
# 4 0.0000 0.0000 0.0000 17.0911 0.0000 8.9348
# 5 -0.2281 2.2918 -4.7746 0.0000 30.7635 0.0000
# 6 0.0000 0.0000 0.0000 8.9348 0.0000 25.7456
#
#
#
# Elastic Compliance Matrix: (Units=1/GPa)
#
#
# Indices 1 2 3 4 5 6 
#
# 1 0.013857 -0.003107 -0.004875 0.000000 -0.000422 0.000000
# 2 -0.003107 0.014550 -0.004967 0.000000 -0.001878 0.000000
# 3 -0.004875 -0.004967 0.016029 0.000000 0.002822 0.000000
# 4 0.000000 0.000000 0.000000 0.071478 0.000000 -0.024806
# 5 -0.000422 -0.001878 0.002822 0.000000 0.033081 0.000000
# 6 0.000000 0.000000 0.000000 -0.024806 0.000000 0.047450
#
#
# Mechanical properties :
#
#
# Convention : Reuss Voigt Hill
#
# Bulk Modulus (GPa) = 53.93737 53.99426 53.96581
# Shear Modulus (GPa) = 21.87980 25.35967 23.61974
#
# Velocity S-wave (km/s) = 3.40565 3.66649 3.53848
# Velocity P-wave (km/s) = 6.63753 6.82250 6.73065
#
# Compressibility (1/GPa) = 0.01854002
#
# Stress axis : x y z
#
# Youngs Moduli (GPa) = 72.16368 68.72872 62.38814
#
# Poissons Ratio (x) = 0.21352 0.30412
# Poissons Ratio (y) = 0.22420 0.30986
# Poissons Ratio (z) = 0.35177 0.34135
#
# Static dielectric constant tensor:
#      x y z
#    x 3.575240 0.000000 0.176050 
#    y 0.000000 3.259390 0.000000 
#    z 0.176050 0.000000 3.552730 
# 
# 
# High freq. dielectric constant tensor:
#      x y z
#    x 1.733820 0.000000 0.008030 
#    y 0.000000 1.696690 0.000000 
#    z 0.008030 0.000000 1.739010 
# 
# From -- ./inp_files/51334.got.cif
#   From: 2010.06.25/outbox.cif.g09.slc.cpg/sg10_26_cif.got.tgz:51334.got - 2010.06.27 22:07:45.
