data_PCOD8067964
_publ_section_title
;
Structure prediction by ZEFSAII (Michael W. Deem and Ramdas Pophale) SiO2 
 PCOD8067964
Probable space group: P 2/M
;
_chemical_formula_sum "Si O2"
_cell_formula_units_Z 32
_cell_length_a 11.810478
_cell_length_b 9.778287
_cell_length_c 18.044151
_cell_angle_alpha 90.000000
_cell_angle_beta 90.000094
_cell_angle_gamma 90.000000
_cell_volume 2083.851216
_symmetry_space_group_name_H-M "P 2/M"
_symmetry_group_IT_number 10
_symmetry_cell_setting 'monoclinic'
loop_
_space_group_symop_operation_xyz
x,y,z
-x,y,-z
-x,-y,-z
x,-y,z
loop_
_atom_site_type_symbol
_atom_site_label
_atom_site_fract_x
_atom_site_fract_y
_atom_site_fract_z
Si Si1 0.365643 0.846974 0.581969
Si Si2 0.365644 0.153026 0.418030
Si Si3 0.238508 0.337462 0.859424
Si Si4 0.367750 0.340336 0.714480
Si Si5 0.626543 0.663290 0.000000
Si Si6 0.238509 0.662538 0.140575
Si Si7 0.367751 0.659664 0.285520
Si Si8 1.000000 0.662745 0.915494
O O1 0.500000 0.843393 0.580895
O O2 0.320246 0.805731 0.500000
O O3 0.321169 0.739756 0.642658
O O4 0.323786 0.000000 0.602223
O O5 0.321170 0.260244 0.357341
O O6 0.323786 0.000000 0.397776
O O7 0.243212 0.500000 0.860464
O O8 0.293464 0.284713 0.783124
O O9 0.109771 0.285027 0.870143
O O10 0.311391 0.278862 0.927466
O O11 0.347723 0.500000 0.699843
O O12 0.499999 0.310645 0.730853
O O13 0.627953 0.500000 0.000001
O O14 0.688609 0.721139 0.927467
O O15 0.500000 0.720991 0.000000
O O16 0.243214 0.500000 0.139536
O O17 0.293465 0.715288 0.216875
O O18 0.109772 0.714973 0.129857
O O19 0.347725 0.500000 0.300156
O O20 1.000000 0.500000 0.919892
O O21 0.000000 0.719800 0.000000
#
# Coordination Sequence:
#
# PCOD8067964 Si02
#       8
#     4   4   4   4   4   4   4   4
#     4   8  14  25  40  57  78 105 134 159 186 229
#     4   8  14  25  40  57  78 105 134 159 186 229
#     4   9  15  22  32  49  74 103 134 164 195 229
#     4   9  16  24  35  56  85 108 126 156 199 240
#     4   9  14  19  29  45  70 103 131 156 192 235
#     4   9  15  22  32  49  74 103 134 164 195 229
#     4   9  16  24  35  56  85 108 126 156 199 240
#     4   9  14  22  34  48  70 103 138 170 197 225
#
# _framework density 15.356184000000001
#
# number of rings (size 3 to 8) (size 9 to 14) (size 15 to 20)
#    0.000    3.250    1.250    1.500    0.000    3.500 
#    0.000    2.500    0.000    0.000    0.000    2.625 
#    0.000   13.000    0.000    0.000    0.000    0.000 
#
# Total GULP energy -396567.246294 kJ/mol
# GULP energy per Si atom -12392.726447 kJ/mol
# Density = 1.532123 g / cm^3
# Si number density = 15.356184 Si / 1000 Ang^3
#
#
#
# Elastic Constant Matrix: (Units=GPa)
#
#
# Indices 1 2 3 4 5 6 
#
# 1 92.9037 20.4614 61.5518 0.0000 -0.0004 0.0000
# 2 20.4614 32.7921 48.5751 0.0000 -0.0003 0.0000
# 3 61.5518 48.5751 160.8631 0.0000 -0.0008 0.0000
# 4 0.0000 0.0000 0.0000 3.4080 0.0000 0.0000
# 5 -0.0004 -0.0003 -0.0008 0.0000 9.3347 0.0000
# 6 0.0000 0.0000 0.0000 0.0000 0.0000 4.4789
#
#
#
# Elastic Compliance Matrix: (Units=1/GPa)
#
#
# Indices 1 2 3 4 5 6 
#
# 1 0.014460 -0.001496 -0.005081 0.000000 0.000000 0.000000
# 2 -0.001496 0.055330 -0.016135 0.000000 0.000000 0.000000
# 3 -0.005081 -0.016135 0.013033 0.000000 0.000000 0.000000
# 4 0.000000 0.000000 0.000000 0.293424 0.000000 0.000003
# 5 0.000000 0.000000 0.000000 0.000000 0.107127 0.000000
# 6 0.000000 0.000000 0.000000 0.000003 0.000000 0.223270
#
#
# Mechanical properties :
#
#
# Convention : Reuss Voigt Hill
#
# Bulk Modulus (GPa) = 26.73940 60.85948 43.79944
# Shear Modulus (GPa) = 6.53992 13.84236 10.19114
#
# Velocity S-wave (km/s) = 2.06593 3.00562 2.57894
# Velocity P-wave (km/s) = 4.81055 7.19465 6.11982
#
# Compressibility (1/GPa) = 0.03739800
#
# Stress axis : x y z
#
# Youngs Moduli (GPa) = 69.15793 18.07344 76.72840
#
# Poissons Ratio (x) = 0.02703 0.38986
# Poissons Ratio (y) = 0.10345 1.23804
# Poissons Ratio (z) = 0.35140 0.29162
#
# Static dielectric constant tensor:
#      x y z
#    x 2.870370 0.000000 0.000000 
#    y 0.000000 2.535150 0.000000 
#    z 0.000000 0.000000 3.261870 
# 
# 
# High freq. dielectric constant tensor:
#      x y z
#    x 1.560230 0.000000 0.000000 
#    y 0.000000 1.533470 0.000000 
#    z 0.000000 0.000000 1.599010 
# 
# From -- ./inp_files/53235.got.cif
#   From: 2010.06.25/outbox.cif.g09.slc.cpg/sg10_27_cif.got.tgz:53235.got - 2010.06.27 22:07:45.
