data_PCOD8067925
_publ_section_title
;
Structure prediction by ZEFSAII (Michael W. Deem and Ramdas Pophale) SiO2 
 PCOD8067925
Probable space group: P 2/M
;
_chemical_formula_sum "Si O2"
_cell_formula_units_Z 28
_cell_length_a 22.309524
_cell_length_b 9.673993
_cell_length_c 24.635162
_cell_angle_alpha 90.000000
_cell_angle_beta 17.203804
_cell_angle_gamma 90.000000
_cell_volume 1572.562007
_symmetry_space_group_name_H-M "P 2/M"
_symmetry_group_IT_number 10
_symmetry_cell_setting 'monoclinic'
loop_
_space_group_symop_operation_xyz
x,y,z
-x,y,-z
-x,-y,-z
x,-y,z
loop_
_atom_site_type_symbol
_atom_site_label
_atom_site_fract_x
_atom_site_fract_y
_atom_site_fract_z
Si Si1 0.139397 0.846673 0.927304
Si Si2 0.156832 0.337084 0.114393
Si Si3 0.439293 0.153326 0.494005
Si Si4 0.276734 0.339449 0.547599
Si Si5 0.204484 0.335767 0.295516
Si Si6 0.359292 0.335296 0.046901
Si Si7 0.696268 0.660550 0.128066
O O1 0.366346 0.858649 0.711219
O O2 0.138324 0.744632 0.979626
O O3 0.058555 0.000000 0.013622
O O4 0.000000 0.784151 0.000000
O O5 0.168776 0.500000 0.110432
O O6 0.257670 0.269941 0.080775
O O7 0.922802 0.290614 0.312082
O O8 0.281853 0.290635 0.953032
O O9 0.500000 0.215844 0.500000
O O10 0.284484 0.255374 0.597569
O O11 0.342021 0.000000 0.585797
O O12 0.264318 0.500000 0.574438
O O13 0.466702 0.308729 0.344432
O O14 0.191327 0.500000 0.308680
O O15 0.228664 0.285336 0.212127
O O16 0.000000 0.272794 0.500000
O O17 0.406298 0.285314 0.152906
O O18 0.356872 0.500000 0.047695
O O19 0.751952 0.500000 0.086808
#
# Coordination Sequence:
#
# PCOD8067925 Si02
#       7
#     4   4   4   4   4   4   4
#     4   9  18  31  46  64  84 107 139 180 224 269
#     4   9  17  28  42  59  83 116 150 184 222 262
#     4   9  18  31  46  64  84 107 139 180 224 269
#     4   9  18  31  44  61  85 112 144 180 218 264
#     4   8  13  21  34  53  79 110 145 181 213 246
#     4   8  14  23  34  53  79 108 146 184 212 248
#     4   9  18  31  44  61  85 112 144 180 218 264
#
# _framework density 17.805339
#
# number of rings (size 3 to 8) (size 9 to 14) (size 15 to 20)
#    0.000    3.286    0.000    0.857    2.000    1.714 
#    0.000    5.714    0.000    0.000    0.000    0.000 
#    0.000    0.000    0.000   10.286    0.000   72.571 
#
# Total GULP energy -346978.538816 kJ/mol
# GULP energy per Si atom -12392.090672 kJ/mol
# Density = 1.776481 g / cm^3
# Si number density = 17.805339 Si / 1000 Ang^3
#
#
#
# Elastic Constant Matrix: (Units=GPa)
#
#
# Indices 1 2 3 4 5 6 
#
# 1 188.6759 41.6276 72.4493 0.0000 -13.5663 0.0000
# 2 41.6276 31.5384 22.1828 0.0000 -3.9493 0.0000
# 3 72.4493 22.1828 110.1524 0.0000 -2.3834 0.0000
# 4 0.0000 0.0000 0.0000 3.5473 0.0000 0.6095
# 5 -13.5663 -3.9493 -2.3834 0.0000 26.9920 0.0000
# 6 0.0000 0.0000 0.0000 0.6095 0.0000 0.5337
#
#
#
# Elastic Compliance Matrix: (Units=1/GPa)
#
#
# Indices 1 2 3 4 5 6 
#
# 1 0.008987 -0.008605 -0.004115 0.000000 0.002895 0.000000
# 2 -0.008605 0.045799 -0.003519 0.000000 0.002065 0.000000
# 3 -0.004115 -0.003519 0.012462 0.000000 -0.001483 0.000000
# 4 0.000000 0.000000 0.000000 0.350724 0.000000 -0.400537
# 5 0.002895 0.002065 -0.001483 0.000000 0.038674 0.000000
# 6 0.000000 0.000000 0.000000 -0.400537 0.000000 2.331283
#
#
# Mechanical properties :
#
#
# Convention : Reuss Voigt Hill
#
# Bulk Modulus (GPa) = 28.76120 66.98735 47.87428
# Shear Modulus (GPa) = 1.76554 19.15505 10.46030
#
# Velocity S-wave (km/s) = 0.99686 3.28350 2.42643
# Velocity P-wave (km/s) = 4.18487 7.21657 5.89882
#
# Compressibility (1/GPa) = 0.03476906
#
# Stress axis : x y z
#
# Youngs Moduli (GPa) = 111.27221 21.83477 80.24623
#
# Poissons Ratio (x) = 0.18788 0.33025
# Poissons Ratio (y) = 0.95748 0.28237
# Poissons Ratio (z) = 0.45793 0.07683
#
# Static dielectric constant tensor:
#      x y z
#    x 3.592170 0.000000 -0.046230 
#    y 0.000000 3.030660 0.000000 
#    z -0.046230 0.000000 3.364790 
# 
# 
# High freq. dielectric constant tensor:
#      x y z
#    x 1.689630 0.000000 0.001450 
#    y 0.000000 1.628360 0.000000 
#    z 0.001450 0.000000 1.696770 
# 
# From -- ./inp_files/90366.got.cif
#   From: 2010.06.25/outbox.cif.g09.slc.cpg/sg10_46_cif.got.tgz:90366.got - 2010.06.27 22:07:45.
