data_PCOD8067768
_publ_section_title
;
Structure prediction by ZEFSAII (Michael W. Deem and Ramdas Pophale) SiO2 
 PCOD8067768
Probable space group: P 2/M
;
_chemical_formula_sum "Si O2"
_cell_formula_units_Z 24
_cell_length_a 14.225594
_cell_length_b 13.556107
_cell_length_c 12.538956
_cell_angle_alpha 90.000000
_cell_angle_beta 30.042986
_cell_angle_gamma 90.000000
_cell_volume 1210.599926
_symmetry_space_group_name_H-M "P 2/M"
_symmetry_group_IT_number 10
_symmetry_cell_setting 'monoclinic'
loop_
_space_group_symop_operation_xyz
x,y,z
-x,y,-z
-x,-y,-z
x,-y,z
loop_
_atom_site_type_symbol
_atom_site_label
_atom_site_fract_x
_atom_site_fract_y
_atom_site_fract_z
Si Si1 0.289290 0.617023 0.708566
Si Si2 0.284373 0.112833 0.430451
Si Si3 0.989025 0.384110 0.834240
Si Si4 0.987865 0.251100 0.629064
Si Si5 0.286133 0.883326 0.007488
Si Si6 0.000228 0.112165 0.113986
O O1 0.500000 0.661692 0.500000
O O2 0.294183 0.500000 0.693027
O O3 0.170731 0.655522 0.722105
O O4 0.192166 0.644385 0.916510
O O5 0.171631 0.182778 0.461732
O O6 0.201684 0.122777 0.631350
O O7 0.264620 0.000000 0.409813
O O8 0.499855 0.145538 0.221589
O O9 0.000187 0.500000 0.802845
O O10 0.979407 0.334297 0.728002
O O11 0.000000 0.301072 0.500000
O O12 0.802236 0.180443 0.809667
O O13 0.163629 0.843448 0.027396
O O14 0.257596 0.000000 0.056281
O O15 0.057563 0.000000 0.037457
O O16 0.000000 0.168052 0.000000
#
# Coordination Sequence:
#
# PCOD8067768 Si02
#       6
#     4   4   4   4   4   4
#     4   8  15  33  62  87 107 136 174 222 274 322
#     4   9  19  36  55  75 103 142 187 231 275 321
#     4   9  19  36  58  85 114 142 177 218 267 330
#     4  11  23  37  54  78 112 147 184 233 276 319
#     4   9  19  36  55  75 103 142 187 231 275 321
#     4   8  14  27  49  75 104 136 171 214 266 326
#
# _framework density 19.824881999999999
#
# number of rings (size 3 to 8) (size 9 to 14) (size 15 to 20)
#    0.000    3.000    0.000    2.500    0.000    4.333 
#   12.000    5.000    0.000    0.000    0.000    7.000 
#    0.000    0.000    0.000    0.000    0.000    0.000 
#
# Total GULP energy -297398.690582 kJ/mol
# GULP energy per Si atom -12391.612108 kJ/mol
# Density = 1.977976 g / cm^3
# Si number density = 19.824882 Si / 1000 Ang^3
#
#
#
# Elastic Constant Matrix: (Units=GPa)
#
#
# Indices 1 2 3 4 5 6 
#
# 1 98.3876 29.5002 95.2298 0.0000 15.7155 0.0000
# 2 29.5002 60.2606 35.6732 0.0000 8.4809 0.0000
# 3 95.2298 35.6732 152.1374 0.0000 -15.4424 0.0000
# 4 0.0000 0.0000 0.0000 13.7017 0.0000 6.9725
# 5 15.7155 8.4809 -15.4424 0.0000 49.2422 0.0000
# 6 0.0000 0.0000 0.0000 6.9725 0.0000 20.4638
#
#
#
# Elastic Compliance Matrix: (Units=1/GPa)
#
#
# Indices 1 2 3 4 5 6 
#
# 1 0.039596 -0.000590 -0.026771 0.000000 -0.020931 0.000000
# 2 -0.000590 0.020491 -0.004931 0.000000 -0.004887 0.000000
# 3 -0.026771 -0.004931 0.026276 0.000000 0.017634 0.000000
# 4 0.000000 0.000000 0.000000 0.088292 0.000000 -0.030083
# 5 -0.020931 -0.004887 0.017634 0.000000 0.033359 0.000000
# 6 0.000000 0.000000 0.000000 -0.030083 0.000000 0.059117
#
#
# Mechanical properties :
#
#
# Convention : Reuss Voigt Hill
#
# Bulk Modulus (GPa) = 45.91826 70.17690 58.04758
# Shear Modulus (GPa) = 14.75029 26.70702 20.72866
#
# Velocity S-wave (km/s) = 2.73065 3.67433 3.23706
# Velocity P-wave (km/s) = 5.75796 7.31274 6.58143
#
# Compressibility (1/GPa) = 0.02177783
#
# Stress axis : x y z
#
# Youngs Moduli (GPa) = 25.25500 48.80300 38.05686
#
# Poissons Ratio (x) = 0.02881 1.01883
# Poissons Ratio (y) = 0.01491 0.18767
# Poissons Ratio (z) = 0.67611 0.24066
#
# Static dielectric constant tensor:
#      x y z
#    x 3.614480 0.000000 -0.111210 
#    y 0.000000 3.428830 0.000000 
#    z -0.111210 0.000000 3.859470 
# 
# 
# High freq. dielectric constant tensor:
#      x y z
#    x 1.755260 0.000000 -0.004250 
#    y 0.000000 1.762930 0.000000 
#    z -0.004250 0.000000 1.771470 
# 
# From -- ./inp_files/51529.got.cif
#   From: 2010.06.25/outbox.cif.g09.slc.cpg/sg10_26_cif.got.tgz:51529.got - 2010.06.27 22:07:45.
