data_PCOD8067499
_publ_section_title
;
Structure prediction by ZEFSAII (Michael W. Deem and Ramdas Pophale) SiO2 
 PCOD8067499
Probable space group: P 2/M
;
_chemical_formula_sum "Si O2"
_cell_formula_units_Z 32
_cell_length_a 18.435679
_cell_length_b 14.360194
_cell_length_c 11.728168
_cell_angle_alpha 90.000000
_cell_angle_beta 29.159806
_cell_angle_gamma 90.000000
_cell_volume 1512.860722
_symmetry_space_group_name_H-M "P 2/M"
_symmetry_group_IT_number 10
_symmetry_cell_setting 'monoclinic'
loop_
_space_group_symop_operation_xyz
x,y,z
-x,y,-z
-x,-y,-z
x,-y,z
loop_
_atom_site_type_symbol
_atom_site_label
_atom_site_fract_x
_atom_site_fract_y
_atom_site_fract_z
Si Si1 0.648250 0.396246 0.349862
Si Si2 0.897114 0.662141 0.853292
Si Si3 0.232539 0.606288 0.406359
Si Si4 0.032956 0.851510 0.133104
Si Si5 0.875434 0.897715 0.578591
Si Si6 0.723229 0.285303 0.870873
Si Si7 0.774707 0.895762 0.325241
Si Si8 0.385760 0.721596 0.393800
O O1 0.500000 0.351145 0.500000
O O2 0.614070 0.500000 0.440673
O O3 0.692838 0.336337 0.397948
O O4 0.775233 0.402820 0.079609
O O5 0.905315 0.752063 0.919783
O O6 0.850649 0.690195 0.788380
O O7 0.054362 0.610953 0.643278
O O8 0.279703 0.500000 0.372424
O O9 0.289016 0.631737 0.203164
O O10 0.307066 0.682328 0.387939
O O11 0.961943 0.901123 0.339877
O O12 0.905549 0.845894 0.214440
O O13 0.175280 0.901963 0.877271
O O14 0.759098 0.812407 0.754816
O O15 0.000000 0.882239 0.500000
O O16 0.797431 0.000000 0.700152
O O17 0.563463 0.285073 0.149590
O O18 0.635546 0.830776 0.547385
O O19 0.739574 0.000000 0.416728
#
# Coordination Sequence:
#
# PCOD8067499 Si02
#       8
#     4   4   4   4   4   4   4   4
#     4  11  24  43  68  97 131 175 218 266 336 402
#     4  12  22  43  70  95 132 172 216 278 328 387
#     4  12  27  45  67  98 131 172 226 277 326 388
#     4  11  20  39  66  92 129 164 215 271 326 379
#     4  11  21  37  63  94 127 166 214 268 322 384
#     4  12  25  43  66  94 135 178 218 266 337 393
#     4  11  23  40  67  97 129 173 218 266 332 396
#     4  12  25  44  67  95 138 175 215 278 332 390
#
# _framework density 21.151979999999998
#
# number of rings (size 3 to 8) (size 9 to 14) (size 15 to 20)
#    0.000    0.500    6.250    3.000    0.000    4.000 
#    0.000    1.250    0.000    4.125    0.000    0.000 
#    0.000    0.000    0.000    0.000    0.000    0.000 
#
# Total GULP energy -396583.116621 kJ/mol
# GULP energy per Si atom -12393.222394 kJ/mol
# Density = 2.110384 g / cm^3
# Si number density = 21.151980 Si / 1000 Ang^3
#
#
#
# Elastic Constant Matrix: (Units=GPa)
#
#
# Indices 1 2 3 4 5 6 
#
# 1 89.1283 37.3101 23.8375 0.0000 15.8757 0.0000
# 2 37.3101 107.3078 14.1582 0.0000 3.1546 0.0000
# 3 23.8375 14.1582 87.7961 0.0000 5.5686 0.0000
# 4 0.0000 0.0000 0.0000 22.2623 0.0000 -2.3980
# 5 15.8757 3.1546 5.5686 0.0000 31.7794 0.0000
# 6 0.0000 0.0000 0.0000 -2.3980 0.0000 27.0027
#
#
#
# Elastic Compliance Matrix: (Units=1/GPa)
#
#
# Indices 1 2 3 4 5 6 
#
# 1 0.015138 -0.004682 -0.002938 0.000000 -0.006583 0.000000
# 2 -0.004682 0.010985 -0.000586 0.000000 0.001351 0.000000
# 3 -0.002938 -0.000586 0.012322 0.000000 -0.000634 0.000000
# 4 0.000000 0.000000 0.000000 0.045353 0.000000 0.004028
# 5 -0.006583 0.001351 -0.000634 0.000000 0.034732 0.000000
# 6 0.000000 0.000000 0.000000 0.004028 0.000000 0.037391
#
#
# Mechanical properties :
#
#
# Convention : Reuss Voigt Hill
#
# Bulk Modulus (GPa) = 45.38527 48.31599 46.85063
# Shear Modulus (GPa) = 27.82774 30.13729 28.98251
#
# Velocity S-wave (km/s) = 3.63107 3.77874 3.70564
# Velocity P-wave (km/s) = 6.25163 6.47537 6.36448
#
# Compressibility (1/GPa) = 0.02203358
#
# Stress axis : x y z
#
# Youngs Moduli (GPa) = 66.05876 91.03692 81.15399
#
# Poissons Ratio (x) = 0.42626 0.23839
# Poissons Ratio (y) = 0.30931 0.04754
# Poissons Ratio (z) = 0.19405 0.05333
#
# Static dielectric constant tensor:
#      x y z
#    x 3.798800 0.000000 0.098450 
#    y 0.000000 3.884060 0.000000 
#    z 0.098450 0.000000 3.756770 
# 
# 
# High freq. dielectric constant tensor:
#      x y z
#    x 1.828970 0.000000 0.016820 
#    y 0.000000 1.834160 0.000000 
#    z 0.016820 0.000000 1.826810 
# 
# From -- ./inp_files/54013.got.cif
#   From: 2010.06.25/outbox.cif.g09.slc.cpg/sg10_28_cif.got.tgz:54013.got - 2010.06.27 22:07:45.
