data_PCOD8067200
_publ_section_title
;
Structure prediction by ZEFSAII (Michael W. Deem and Ramdas Pophale) SiO2 
 PCOD8067200
Probable space group: P 2/M
;
_chemical_formula_sum "Si O2"
_cell_formula_units_Z 32
_cell_length_a 11.857927
_cell_length_b 8.653586
_cell_length_c 28.700411
_cell_angle_alpha 90.000000
_cell_angle_beta 149.013628
_cell_angle_gamma 90.000000
_cell_volume 1516.213554
_symmetry_space_group_name_H-M "P 2/M"
_symmetry_group_IT_number 10
_symmetry_cell_setting 'monoclinic'
loop_
_space_group_symop_operation_xyz
x,y,z
-x,y,-z
-x,-y,-z
x,-y,z
loop_
_atom_site_type_symbol
_atom_site_label
_atom_site_fract_x
_atom_site_fract_y
_atom_site_fract_z
Si Si1 0.953401 0.675409 0.688945
Si Si2 0.888608 0.820124 0.412859
Si Si3 0.237218 0.325508 0.474357
Si Si4 0.131316 0.178717 0.170009
Si Si5 0.407796 0.182202 0.829229
Si Si6 0.462049 0.680822 0.219735
Si Si7 0.639620 0.816910 0.006067
Si Si8 0.670135 0.824485 0.660723
O O1 0.975271 0.500000 0.714297
O O2 0.178699 0.730419 0.746321
O O3 0.768260 0.689763 0.583438
O O4 0.888961 0.783261 0.709467
O O5 0.665426 0.728653 0.324433
O O6 0.000000 0.761433 0.500000
O O7 0.061603 0.792503 0.433197
O O8 0.828118 0.000000 0.394322
O O9 0.176089 0.500000 0.467824
O O10 0.478916 0.289526 0.577779
O O11 0.235985 0.276761 0.165347
O O12 0.284160 0.199096 0.268967
O O13 0.118178 0.000000 0.150024
O O14 0.889309 0.243982 0.095840
O O15 0.540417 0.229447 0.830164
O O16 0.536018 0.237005 0.920626
O O17 0.367648 0.000000 0.815077
O O18 0.472602 0.500000 0.213505
O O19 0.639314 0.000000 0.010391
O O20 0.500000 0.746801 0.000000
O O21 0.601328 0.000000 0.625731
#
# Coordination Sequence:
#
# PCOD8067200 Si02
#       8
#     4   4   4   4   4   4   4   4
#     4  11  23  39  59  87 125 165 205 253 311 375
#     4  11  23  39  61  88 119 160 213 265 308 362
#     4  11  23  38  57  85 123 165 205 252 311 371
#     4  10  22  42  65  91 124 160 206 259 310 368
#     4  11  22  39  67  95 122 162 210 262 313 367
#     4  12  25  41  61  89 127 167 207 254 313 375
#     4   9  19  39  68  99 126 156 202 258 314 370
#     4  11  23  38  61  90 121 162 210 261 310 364
#
# _framework density 21.105207
#
# number of rings (size 3 to 8) (size 9 to 14) (size 15 to 20)
#    0.000    1.250    1.250    4.875    0.000   10.500 
#    0.000    3.750    0.000    2.625    0.000    0.000 
#    0.000    0.000    0.000    0.000    0.000    0.000 
#
# Total GULP energy -396977.289094 kJ/mol
# GULP energy per Si atom -12405.540284 kJ/mol
# Density = 2.105717 g / cm^3
# Si number density = 21.105207 Si / 1000 Ang^3
#
#
#
# Elastic Constant Matrix: (Units=GPa)
#
#
# Indices 1 2 3 4 5 6 
#
# 1 122.1487 16.3972 40.3841 0.0000 4.6618 0.0000
# 2 16.3972 55.1876 30.4633 0.0000 -8.4352 0.0000
# 3 40.3841 30.4633 102.3397 0.0000 -0.7826 0.0000
# 4 0.0000 0.0000 0.0000 7.4186 0.0000 7.8606
# 5 4.6618 -8.4352 -0.7826 0.0000 36.9523 0.0000
# 6 0.0000 0.0000 0.0000 7.8606 0.0000 23.9934
#
#
#
# Elastic Compliance Matrix: (Units=1/GPa)
#
#
# Indices 1 2 3 4 5 6 
#
# 1 0.009536 -0.001180 -0.003424 0.000000 -0.001545 0.000000
# 2 -0.001180 0.022720 -0.006258 0.000000 0.005203 0.000000
# 3 -0.003424 -0.006258 0.012980 0.000000 -0.000722 0.000000
# 4 0.000000 0.000000 0.000000 0.206470 0.000000 -0.067643
# 5 -0.001545 0.005203 -0.000722 0.000000 0.028429 0.000000
# 6 0.000000 0.000000 0.000000 -0.067643 0.000000 0.063839
#
#
# Mechanical properties :
#
#
# Convention : Reuss Voigt Hill
#
# Bulk Modulus (GPa) = 42.52871 50.46280 46.49575
# Shear Modulus (GPa) = 13.38566 26.50161 19.94364
#
# Velocity S-wave (km/s) = 2.52113 3.54742 3.07736
# Velocity P-wave (km/s) = 5.35438 6.38286 5.89111
#
# Compressibility (1/GPa) = 0.02351353
#
# Stress axis : x y z
#
# Youngs Moduli (GPa) = 104.86625 44.01422 77.04400
#
# Poissons Ratio (x) = 0.05192 0.26377
# Poissons Ratio (y) = 0.12370 0.48212
# Poissons Ratio (z) = 0.35903 0.27543
#
# Static dielectric constant tensor:
#      x y z
#    x 3.906850 0.000000 -0.026410 
#    y 0.000000 3.638950 0.000000 
#    z -0.026410 0.000000 3.833250 
# 
# 
# High freq. dielectric constant tensor:
#      x y z
#    x 1.838950 0.000000 -0.000910 
#    y 0.000000 1.815610 0.000000 
#    z -0.000910 0.000000 1.826880 
# 
# From -- ./inp_files/95052.got.cif
#   From: 2010.06.25/outbox.cif.g09.slc.cpg/sg10_48_cif.got.tgz:95052.got - 2010.06.27 22:07:45.
