data_PCOD8067989
_publ_section_title
;
Structure prediction by ZEFSAII (Michael W. Deem and Ramdas Pophale) SiO2 
 PCOD8067989
Probable space group: P 2/M
;
_chemical_formula_sum "Si O2"
_cell_formula_units_Z 32
_cell_length_a 23.056055
_cell_length_b 9.148123
_cell_length_c 11.526432
_cell_angle_alpha 90.000000
_cell_angle_beta 130.345389
_cell_angle_gamma 90.000000
_cell_volume 1852.915421
_symmetry_space_group_name_H-M "P 2/M"
_symmetry_group_IT_number 10
_symmetry_cell_setting 'monoclinic'
loop_
_space_group_symop_operation_xyz
x,y,z
-x,y,-z
-x,-y,-z
x,-y,z
loop_
_atom_site_type_symbol
_atom_site_label
_atom_site_fract_x
_atom_site_fract_y
_atom_site_fract_z
Si Si1 0.202792 0.829034 0.791455
Si Si2 0.867814 0.665130 0.107064
Si Si3 0.728947 0.170647 0.352257
Si Si4 0.576540 0.827952 0.032111
Si Si5 0.294057 0.338440 0.227440
Si Si6 0.231219 0.172352 0.346130
Si Si7 0.925127 0.827990 0.971521
Si Si8 0.352686 0.671793 0.068895
O O1 0.134782 0.744558 0.770142
O O2 0.202707 0.800130 0.652055
O O3 0.195876 0.000000 0.811639
O O4 0.283502 0.771183 0.937695
O O5 0.896277 0.500000 0.161800
O O6 0.784171 0.671917 0.944980
O O7 0.925928 0.748034 0.096966
O O8 0.647513 0.229750 0.201684
O O9 0.751487 0.242085 0.505078
O O10 0.719004 0.000000 0.359436
O O11 0.582900 0.000000 0.012707
O O12 0.500000 0.789072 0.000000
O O13 0.575313 0.736385 0.909022
O O14 0.304211 0.500000 0.293040
O O15 0.294255 0.227573 0.335387
O O16 0.360886 0.305484 0.219485
O O17 0.147256 0.223061 0.198226
O O18 0.236708 0.000000 0.356114
O O19 0.923446 0.000000 0.993103
O O20 0.000000 0.779264 0.000000
O O21 0.339194 0.500000 0.024314
#
# Coordination Sequence:
#
# PCOD8067989 Si02
#       8
#     4   4   4   4   4   4   4   4
#     4   9  15  25  42  62  85 110 139 176 213 248
#     4   9  16  26  41  62  86 110 140 177 214 249
#     4   8  15  27  43  64  86 108 136 171 210 249
#     4   9  17  29  45  64  86 111 139 173 211 250
#     4   8  15  26  39  59  85 108 134 172 209 241
#     4   9  16  27  44  63  84 110 138 170 208 250
#     4   9  17  28  43  64  87 111 141 175 210 250
#     4   9  16  26  41  62  87 111 139 176 212 247
#
# _framework density 17.270081999999999
#
# number of rings (size 3 to 8) (size 9 to 14) (size 15 to 20)
#    0.000    3.250    0.000    2.625    0.000    4.000 
#    0.000    3.125    0.000    1.500    0.000   10.500 
#    0.000    0.000    0.000    0.000    0.000    0.000 
#
# Total GULP energy -396475.401037 kJ/mol
# GULP energy per Si atom -12389.856282 kJ/mol
# Density = 1.723077 g / cm^3
# Si number density = 17.270082 Si / 1000 Ang^3
#
#
#
# Elastic Constant Matrix: (Units=GPa)
#
#
# Indices 1 2 3 4 5 6 
#
# 1 154.4502 52.8850 48.6319 0.0000 -31.0113 0.0000
# 2 52.8850 60.0619 23.8401 0.0000 -15.1197 0.0000
# 3 48.6319 23.8401 53.9636 0.0000 -22.6612 0.0000
# 4 0.0000 0.0000 0.0000 8.2580 0.0000 -4.4627
# 5 -31.0113 -15.1197 -22.6612 0.0000 26.3907 0.0000
# 6 0.0000 0.0000 0.0000 -4.4627 0.0000 25.4286
#
#
#
# Elastic Compliance Matrix: (Units=1/GPa)
#
#
# Indices 1 2 3 4 5 6 
#
# 1 0.011440 -0.006722 -0.005180 0.000000 0.005144 0.000000
# 2 -0.006722 0.024791 -0.003514 0.000000 0.003287 0.000000
# 3 -0.005180 -0.003514 0.033390 0.000000 0.020571 0.000000
# 4 0.000000 0.000000 0.000000 0.133783 0.000000 0.023479
# 5 0.005144 0.003287 0.020571 0.000000 0.063484 0.000000
# 6 0.000000 0.000000 0.000000 0.023479 0.000000 0.043446
#
#
# Mechanical properties :
#
#
# Convention : Reuss Voigt Hill
#
# Bulk Modulus (GPa) = 25.78062 57.68775 41.73418
# Shear Modulus (GPa) = 14.12048 21.55671 17.83860
#
# Velocity S-wave (km/s) = 2.86252 3.53684 3.21739
# Velocity P-wave (km/s) = 5.08780 7.08200 6.16605
#
# Compressibility (1/GPa) = 0.03878883
#
# Stress axis : x y z
#
# Youngs Moduli (GPa) = 87.41136 40.33802 29.94892
#
# Poissons Ratio (x) = 0.27116 0.15514
# Poissons Ratio (y) = 0.58759 0.10524
# Poissons Ratio (z) = 0.45279 0.14174
#
# Static dielectric constant tensor:
#      x y z
#    x 3.632390 0.000000 -0.455120 
#    y 0.000000 3.169060 0.000000 
#    z -0.455120 0.000000 3.027830 
# 
# 
# High freq. dielectric constant tensor:
#      x y z
#    x 1.675970 0.000000 -0.036530 
#    y 0.000000 1.659100 0.000000 
#    z -0.036530 0.000000 1.611240 
# 
# From -- ./inp_files/54851.got.cif
#   From: 2010.06.25/outbox.cif.g09.slc.cpg/sg10_28_cif.got.tgz:54851.got - 2010.06.27 22:07:45.
