data_PCOD8067587
_publ_section_title
;
Structure prediction by ZEFSAII (Michael W. Deem and Ramdas Pophale) SiO2 
 PCOD8067587
Probable space group: P 2/M
;
_chemical_formula_sum "Si O2"
_cell_formula_units_Z 30
_cell_length_a 11.831842
_cell_length_b 14.608614
_cell_length_c 12.198635
_cell_angle_alpha 90.000000
_cell_angle_beta 47.975363
_cell_angle_gamma 90.000000
_cell_volume 1566.310472
_symmetry_space_group_name_H-M "P 2/M"
_symmetry_group_IT_number 10
_symmetry_cell_setting 'monoclinic'
loop_
_space_group_symop_operation_xyz
x,y,z
-x,y,-z
-x,-y,-z
x,-y,z
loop_
_atom_site_type_symbol
_atom_site_label
_atom_site_fract_x
_atom_site_fract_y
_atom_site_fract_z
Si Si1 0.000000 0.790592 0.000000
Si Si2 0.400190 0.894717 0.400867
Si Si3 0.871087 0.644971 0.925924
Si Si4 0.802690 0.398346 0.355114
Si Si5 0.340562 0.704880 0.362746
Si Si6 0.275747 0.103280 0.718018
Si Si7 0.367921 0.600782 0.748968
Si Si8 0.325538 0.393024 0.146301
O O1 0.085583 0.737803 0.041239
O O2 0.870669 0.845048 0.145573
O O3 0.342066 0.816390 0.353447
O O4 0.581930 0.885363 0.292618
O O5 0.323126 0.866838 0.565444
O O6 0.358427 0.000000 0.392181
O O7 0.775499 0.660157 0.877168
O O8 0.024287 0.592123 0.796202
O O9 0.767341 0.586985 0.076019
O O10 0.748894 0.500000 0.424577
O O11 0.783732 0.328919 0.468157
O O12 0.699277 0.361490 0.321736
O O13 0.507296 0.671821 0.291319
O O14 0.293873 0.660689 0.278623
O O15 0.222646 0.000000 0.748027
O O16 0.441456 0.500000 0.685695
O O17 0.278162 0.500000 0.187771
O O18 0.500000 0.385036 0.000000
#
# Coordination Sequence:
#
# PCOD8067587 Si02
#       8
#     2   4   4   4   4   4   4   4
#     4  12  21  34  59  92 118 154 198 242 294 350
#     4   9  20  37  60  87 118 152 189 240 303 357
#     4  12  23  37  58  85 120 161 196 240 290 351
#     4  11  23  36  54  87 122 154 196 248 297 336
#     4  12  23  37  63  86 115 154 205 246 290 345
#     4   9  19  35  57  87 122 152 186 243 304 356
#     4  11  21  36  56  84 119 159 198 237 286 344
#     4  11  24  42  60  81 115 162 209 244 283 347
#
# _framework density 19.153289999999998
#
# number of rings (size 3 to 8) (size 9 to 14) (size 15 to 20)
#    0.000    1.200    2.667    5.400    3.733    2.667 
#    0.000    1.333    0.000    2.000    0.000    2.800 
#    0.000    0.000    0.000    0.000    0.000    0.000 
#
# Total GULP energy -371876.470030 kJ/mol
# GULP energy per Si atom -12395.882334 kJ/mol
# Density = 1.910970 g / cm^3
# Si number density = 19.153290 Si / 1000 Ang^3
#
#
#
# Elastic Constant Matrix: (Units=GPa)
#
#
# Indices 1 2 3 4 5 6 
#
# 1 94.9248 37.9048 26.2020 0.0000 14.5608 0.0000
# 2 37.9048 93.1968 35.1803 0.0000 7.9351 0.0000
# 3 26.2020 35.1803 78.9741 0.0000 -1.8528 0.0000
# 4 0.0000 0.0000 0.0000 23.9537 0.0000 -2.9990
# 5 14.5608 7.9351 -1.8528 0.0000 38.6399 0.0000
# 6 0.0000 0.0000 0.0000 -2.9990 0.0000 13.8581
#
#
#
# Elastic Compliance Matrix: (Units=1/GPa)
#
#
# Indices 1 2 3 4 5 6 
#
# 1 0.013626 -0.004111 -0.002793 0.000000 -0.004424 0.000000
# 2 -0.004111 0.014479 -0.005125 0.000000 -0.001670 0.000000
# 3 -0.002793 -0.005125 0.015940 0.000000 0.002869 0.000000
# 4 0.000000 0.000000 0.000000 0.042910 0.000000 0.009286
# 5 -0.004424 -0.001670 0.002869 0.000000 0.028028 0.000000
# 6 0.000000 0.000000 0.000000 0.009286 0.000000 0.074169
#
#
# Mechanical properties :
#
#
# Convention : Reuss Voigt Hill
#
# Bulk Modulus (GPa) = 50.03581 51.74111 50.88846
# Shear Modulus (GPa) = 22.74057 26.47759 24.60908
#
# Velocity S-wave (km/s) = 3.44945 3.72210 3.58837
# Velocity P-wave (km/s) = 6.48425 6.74870 6.61780
#
# Compressibility (1/GPa) = 0.01998569
#
# Stress axis : x y z
#
# Youngs Moduli (GPa) = 73.38998 69.06687 62.73694
#
# Poissons Ratio (x) = 0.28391 0.17525
# Poissons Ratio (y) = 0.30168 0.32153
# Poissons Ratio (z) = 0.20501 0.35398
#
# Static dielectric constant tensor:
#      x y z
#    x 3.382930 0.000000 -0.058710 
#    y 0.000000 3.479780 0.000000 
#    z -0.058710 0.000000 3.584430 
# 
# 
# High freq. dielectric constant tensor:
#      x y z
#    x 1.720930 0.000000 -0.011890 
#    y 0.000000 1.741060 0.000000 
#    z -0.011890 0.000000 1.755650 
# 
# From -- ./inp_files/47638.got.cif
#   From: 2010.06.25/outbox.cif.g09.slc.cpg/sg10_24_cif.got.tgz:47638.got - 2010.06.27 22:07:45.
