data_PCOD8067389
_publ_section_title
;
Structure prediction by ZEFSAII (Michael W. Deem and Ramdas Pophale) SiO2 
 PCOD8067389
Probable space group: P 2/M
;
_chemical_formula_sum "Si O2"
_cell_formula_units_Z 24
_cell_length_a 14.848405
_cell_length_b 21.418026
_cell_length_c 12.704930
_cell_angle_alpha 90.000000
_cell_angle_beta 18.627746
_cell_angle_gamma 90.000000
_cell_volume 1290.598724
_symmetry_space_group_name_H-M "P 2/M"
_symmetry_group_IT_number 10
_symmetry_cell_setting 'monoclinic'
loop_
_space_group_symop_operation_xyz
x,y,z
-x,y,-z
-x,-y,-z
x,-y,z
loop_
_atom_site_type_symbol
_atom_site_label
_atom_site_fract_x
_atom_site_fract_y
_atom_site_fract_z
Si Si1 0.794466 0.929197 0.905201
Si Si2 0.667012 0.857016 0.710714
Si Si3 0.811872 0.883059 0.114936
Si Si4 0.082959 0.236284 0.719354
Si Si5 0.698117 0.567529 0.377738
Si Si6 0.455733 0.308768 0.673772
O O1 0.088177 0.905921 0.529226
O O2 0.740062 0.000000 0.929447
O O3 0.535530 0.886565 0.153640
O O4 0.823207 0.926545 0.999685
O O5 0.811503 0.794023 0.506800
O O6 0.500000 0.838795 0.000000
O O7 0.500000 0.876195 0.500000
O O8 0.000000 0.913281 0.000000
O O9 0.921379 0.814255 0.967867
O O10 0.355279 0.256433 0.482080
O O11 0.868853 0.294112 0.935771
O O12 0.500000 0.554690 0.500000
O O13 0.729041 0.500000 0.403932
O O14 0.555103 0.622584 0.606523
O O15 0.000000 0.591102 0.000000
O O16 0.500000 0.308136 0.500000
#
# Coordination Sequence:
#
# PCOD8067389 Si02
#       6
#     4   4   4   4   4   4
#     4  11  24  39  57  81 101 127 171 208 249 320
#     4  11  24  41  58  75 100 130 163 219 277 310
#     4  11  21  34  52  74 106 139 162 198 249 299
#     4  11  21  33  50  74  99 127 172 210 246 306
#     4   9  17  28  42  66 104 146 179 203 233 278
#     4  11  19  29  49  75 104 138 170 202 241 291
#
# _framework density 18.596018999999998
#
# number of rings (size 3 to 8) (size 9 to 14) (size 15 to 20)
#    0.000    1.333    0.000   10.000    0.000    2.667 
#    0.000    0.000    0.000    0.000    0.000    0.000 
#    0.000    4.000    0.000    0.000    0.000    0.000 
#
# Total GULP energy -297547.055918 kJ/mol
# GULP energy per Si atom -12397.793997 kJ/mol
# Density = 1.855369 g / cm^3
# Si number density = 18.596019 Si / 1000 Ang^3
#
#
#
# Elastic Constant Matrix: (Units=GPa)
#
#
# Indices 1 2 3 4 5 6 
#
# 1 64.3078 23.6305 38.3032 0.0000 -7.8520 0.0000
# 2 23.6305 98.5475 36.3277 0.0000 8.2152 0.0000
# 3 38.3032 36.3277 114.0548 0.0000 1.0917 0.0000
# 4 0.0000 0.0000 0.0000 23.6175 0.0000 -7.9132
# 5 -7.8520 8.2152 1.0917 0.0000 35.3077 0.0000
# 6 0.0000 0.0000 0.0000 -7.9132 0.0000 15.0965
#
#
#
# Elastic Compliance Matrix: (Units=1/GPa)
#
#
# Indices 1 2 3 4 5 6 
#
# 1 0.021067 -0.003279 -0.006085 0.000000 0.005636 0.000000
# 2 -0.003279 0.012244 -0.002765 0.000000 -0.003493 0.000000
# 3 -0.006085 -0.002765 0.011702 0.000000 -0.001072 0.000000
# 4 0.000000 0.000000 0.000000 0.051362 0.000000 0.026923
# 5 0.005636 -0.003493 -0.001072 0.000000 0.030422 0.000000
# 6 0.000000 0.000000 0.000000 0.026923 0.000000 0.080353
#
#
# Mechanical properties :
#
#
# Convention : Reuss Voigt Hill
#
# Bulk Modulus (GPa) = 48.17823 52.60367 50.39095
# Shear Modulus (GPa) = 20.97961 26.71423 23.84692
#
# Velocity S-wave (km/s) = 3.36248 3.79431 3.58490
# Velocity P-wave (km/s) = 6.40618 6.89526 6.65521
#
# Compressibility (1/GPa) = 0.02075626
#
# Stress axis : x y z
#
# Youngs Moduli (GPa) = 47.46686 81.67193 85.45364
#
# Poissons Ratio (x) = 0.26776 0.51997
# Poissons Ratio (y) = 0.15562 0.23632
# Poissons Ratio (z) = 0.28883 0.22586
#
# Static dielectric constant tensor:
#      x y z
#    x 3.239080 0.000000 -0.335590 
#    y 0.000000 3.768980 0.000000 
#    z -0.335590 0.000000 3.457950 
# 
# 
# High freq. dielectric constant tensor:
#      x y z
#    x 1.699660 0.000000 -0.040440 
#    y 0.000000 1.716200 0.000000 
#    z -0.040440 0.000000 1.724430 
# 
# From -- ./inp_files/52051.got.cif
#   From: 2010.06.25/outbox.cif.g09.slc.cpg/sg10_27_cif.got.tgz:52051.got - 2010.06.27 22:07:45.
