data_PCOD8067881
_publ_section_title
;
Structure prediction by ZEFSAII (Michael W. Deem and Ramdas Pophale) SiO2 
 PCOD8067881
Probable space group: P 2/M
;
_chemical_formula_sum "Si O2"
_cell_formula_units_Z 32
_cell_length_a 14.518119
_cell_length_b 9.172116
_cell_length_c 15.640538
_cell_angle_alpha 90.000000
_cell_angle_beta 90.000000
_cell_angle_gamma 90.000000
_cell_volume 2082.723312
_symmetry_space_group_name_H-M "P 2/M"
_symmetry_group_IT_number 10
_symmetry_cell_setting 'monoclinic'
loop_
_space_group_symop_operation_xyz
x,y,z
-x,y,-z
-x,-y,-z
x,-y,z
loop_
_atom_site_type_symbol
_atom_site_label
_atom_site_fract_x
_atom_site_fract_y
_atom_site_fract_z
Si Si1 0.710662 0.326435 0.165342
Si Si2 0.289338 0.673565 0.165341
Si Si3 0.390572 0.164271 0.500000
Si Si4 0.603708 0.326132 0.000000
Si Si5 0.392930 0.670829 0.667596
Si Si6 0.899430 0.673279 0.096480
Si Si7 0.100570 0.673279 0.096480
Si Si8 0.607069 0.329171 0.667596
O O1 0.705407 0.500000 0.165359
O O2 0.665537 0.267575 0.252521
O O3 0.816754 0.270719 0.157532
O O4 0.654203 0.265377 0.084343
O O5 0.294593 0.500000 0.165359
O O6 0.345797 0.734624 0.084343
O O7 0.183246 0.729281 0.157532
O O8 0.334463 0.732425 0.252521
O O9 0.500000 0.166852 0.500000
O O10 0.354760 0.246819 0.584200
O O11 0.354760 0.246819 0.415800
O O12 0.352045 0.000000 0.500000
O O13 0.605420 0.500000 1.000000
O O14 0.500000 0.266306 0.000000
O O15 0.377384 0.500000 0.652843
O O16 0.500000 0.704830 0.685326
O O17 0.897727 0.500000 0.094572
O O18 1.000000 0.727639 0.130023
O O19 0.882969 0.730762 0.000000
O O20 0.102273 0.500000 0.094572
O O21 0.622616 0.500000 0.652843
#
# Coordination Sequence:
#
# PCOD8067881 Si02
#       8
#     4   4   4   4   4   4   4   4
#     4   9  14  20  30  48  74 103 130 156 187 223
#     4   9  14  20  30  48  74 103 130 156 187 223
#     4   9  17  29  43  57  74  99 130 162 195 231
#     4   9  14  18  25  41  70 104 131 152 178 218
#     4   9  16  25  38  57  80 103 127 158 195 230
#     4   8  12  18  28  43  68 103 135 158 184 221
#     4   8  12  18  28  43  68 103 135 158 184 221
#     4   9  16  25  38  57  80 103 127 158 195 230
#
# _framework density 15.3645
#
# number of rings (size 3 to 8) (size 9 to 14) (size 15 to 20)
#    0.000    3.250    1.250    1.875    0.000    4.500 
#    0.000    0.000    0.000    0.000    0.000    1.750 
#    0.000   13.000    0.000    2.750    0.000    2.500 
#
# Total GULP energy -396540.047090 kJ/mol
# GULP energy per Si atom -12391.876472 kJ/mol
# Density = 1.532953 g / cm^3
# Si number density = 15.364500 Si / 1000 Ang^3
#
#
#
# Elastic Constant Matrix: (Units=GPa)
#
#
# Indices 1 2 3 4 5 6 
#
# 1 118.1841 17.6645 73.3799 0.0000 -1.2818 0.0000
# 2 17.6645 22.8388 29.0892 0.0000 0.9689 0.0000
# 3 73.3799 29.0892 146.4379 0.0000 3.6778 0.0000
# 4 0.0000 0.0000 0.0000 0.9127 0.0000 -0.2225
# 5 -1.2818 0.9689 3.6778 0.0000 15.2666 0.0000
# 6 0.0000 0.0000 0.0000 -0.2225 0.0000 3.5361
#
#
#
# Elastic Compliance Matrix: (Units=1/GPa)
#
#
# Indices 1 2 3 4 5 6 
#
# 1 0.012470 -0.002293 -0.005858 0.000000 0.002604 0.000000
# 2 -0.002293 0.059050 -0.010546 0.000000 -0.001400 0.000000
# 3 -0.005858 -0.010546 0.011927 0.000000 -0.002696 0.000000
# 4 0.000000 0.000000 0.000000 1.112661 0.000000 0.070005
# 5 0.002604 -0.001400 -0.002696 0.000000 0.066459 0.000000
# 6 0.000000 0.000000 0.000000 0.070005 0.000000 0.287204
#
#
# Mechanical properties :
#
#
# Convention : Reuss Voigt Hill
#
# Bulk Modulus (GPa) = 21.71465 58.63644 40.17555
# Shear Modulus (GPa) = 3.12009 15.09824 9.10917
#
# Velocity S-wave (km/s) = 1.42658 3.13816 2.43754
# Velocity P-wave (km/s) = 4.10818 7.16779 5.84185
#
# Compressibility (1/GPa) = 0.04605187
#
# Stress axis : x y z
#
# Youngs Moduli (GPa) = 80.19313 16.93483 83.84314
#
# Poissons Ratio (x) = 0.03884 0.49119
# Poissons Ratio (y) = 0.18392 0.88417
# Poissons Ratio (z) = 0.46981 0.17859
#
# Static dielectric constant tensor:
#      x y z
#    x 3.169560 0.000000 -0.010840 
#    y 0.000000 2.403950 0.000000 
#    z -0.010840 0.000000 3.041740 
# 
# 
# High freq. dielectric constant tensor:
#      x y z
#    x 1.578350 0.000000 0.000310 
#    y 0.000000 1.526390 0.000000 
#    z 0.000310 0.000000 1.581960 
# 
# From -- ./inp_files/61561.got.cif
#   From: 2010.06.25/outbox.cif.g09.slc.cpg/sg10_31_cif.got.tgz:61561.got - 2010.06.27 22:07:45.
