data_PCOD8067831
_publ_section_title
;
Structure prediction by ZEFSAII (Michael W. Deem and Ramdas Pophale) SiO2 
 PCOD8067831
Probable space group: P 2/M
;
_chemical_formula_sum "Si O2"
_cell_formula_units_Z 16
_cell_length_a 13.295271
_cell_length_b 7.550269
_cell_length_c 9.937669
_cell_angle_alpha 90.000000
_cell_angle_beta 129.716557
_cell_angle_gamma 90.000000
_cell_volume 767.347097
_symmetry_space_group_name_H-M "P 2/M"
_symmetry_group_IT_number 10
_symmetry_cell_setting 'monoclinic'
loop_
_space_group_symop_operation_xyz
x,y,z
-x,y,-z
-x,-y,-z
x,-y,z
loop_
_atom_site_type_symbol
_atom_site_label
_atom_site_fract_x
_atom_site_fract_y
_atom_site_fract_z
Si Si1 0.110389 0.290888 0.698143
Si Si2 0.620637 0.199938 0.193452
Si Si3 0.600373 0.500000 0.387143
Si Si4 0.690997 0.500000 0.758106
Si Si5 0.114678 0.202477 0.999579
O O1 0.129028 0.500000 0.710032
O O2 0.248125 0.200936 0.782230
O O3 0.000000 0.226803 0.500000
O O4 0.063891 0.225577 0.804276
O O5 0.637409 0.324768 0.336453
O O6 0.592675 0.000000 0.219377
O O7 0.500000 0.269291 0.000000
O O8 0.689567 0.500000 0.595724
O O9 0.450080 0.500000 0.296798
O O10 0.759478 0.323006 0.869161
O O11 0.153764 0.000000 0.063044
O O12 0.000000 0.266853 0.000000
#
# Coordination Sequence:
#
# PCOD8067831 Si02
#       5
#     4   4   2   2   4
#     4  11  24  41  69 101 132 170 219 275 326 386
#     4  11  24  42  68  98 132 171 219 270 327 390
#     4  11  25  42  66  97 126 175 218 266 326 383
#     4  11  25  44  66  92 134 170 218 270 319 388
#     4  11  25  43  67  95 131 176 216 262 327 391
#
# _framework density 20.851061000000001
#
# number of rings (size 3 to 8) (size 9 to 14) (size 15 to 20)
#    0.000    1.000    2.500    3.000    3.500    6.000 
#    0.000    2.500    0.000    0.000    0.000    0.000 
#    0.000    0.000    0.000    0.000    0.000    0.000 
#
# Total GULP energy -198530.256159 kJ/mol
# GULP energy per Si atom -12408.141010 kJ/mol
# Density = 2.080360 g / cm^3
# Si number density = 20.851061 Si / 1000 Ang^3
#
#
#
# Elastic Constant Matrix: (Units=GPa)
#
#
# Indices 1 2 3 4 5 6 
#
# 1 115.6562 15.0976 64.3198 0.0000 -13.4724 0.0000
# 2 15.0976 103.2133 33.0425 0.0000 -7.7579 0.0000
# 3 64.3198 33.0425 133.3436 0.0000 -12.0107 0.0000
# 4 0.0000 0.0000 0.0000 31.0620 0.0000 87.5441
# 5 -13.4724 -7.7579 -12.0107 0.0000 43.1241 0.0000
# 6 0.0000 0.0000 0.0000 87.5441 0.0000 247.6187
#
#
#
# Elastic Compliance Matrix: (Units=1/GPa)
#
#
# Indices 1 2 3 4 5 6 
#
# 1 0.012020 0.000218 -0.005652 0.000000 0.002220 0.000000
# 2 0.000218 0.010588 -0.002617 0.000000 0.001244 0.000000
# 3 -0.005652 -0.002617 0.010947 0.000000 0.000813 0.000000
# 4 0.000000 0.000000 0.000000 8.983739 0.000000 -3.176148
# 5 0.002220 0.001244 0.000813 0.000000 0.024333 0.000000
# 6 0.000000 0.000000 0.000000 -3.176148 0.000000 1.126947
#
#
# Mechanical properties :
#
#
# Convention : Reuss Voigt Hill
#
# Bulk Modulus (GPa) = 57.29445 64.12588 60.71017
# Shear Modulus (GPa) = 0.49065 80.34451 40.41758
#
# Velocity S-wave (km/s) = 0.48562 6.21420 4.40750
# Velocity P-wave (km/s) = 5.27750 9.07245 7.42164
#
# Compressibility (1/GPa) = 0.01745370
#
# Stress axis : x y z
#
# Youngs Moduli (GPa) = 83.19716 94.44625 91.34670
#
# Poissons Ratio (x) = -0.02060 0.51628
# Poissons Ratio (y) = -0.01814 0.23904
# Poissons Ratio (z) = 0.47022 0.24715
#
# Static dielectric constant tensor:
#      x y z
#    x 3.850980 0.000000 -0.103030 
#    y 0.000000 3.812430 0.000000 
#    z -0.103030 0.000000 3.886350 
# 
# 
# High freq. dielectric constant tensor:
#      x y z
#    x 1.825770 0.000000 -0.003190 
#    y 0.000000 1.829820 0.000000 
#    z -0.003190 0.000000 1.818180 
# 
# From -- ./inp_files/22561.got.cif
#   From: 2010.06.25/outbox.cif.g09.slc.cpg/sg10_12_cif.got.tgz:22561.got - 2010.06.27 22:07:45.
