data_PCOD8067268
_publ_section_title
;
Structure prediction by ZEFSAII (Michael W. Deem and Ramdas Pophale) SiO2 
 PCOD8067268
Probable space group: P 2/M
;
_chemical_formula_sum "Si O2"
_cell_formula_units_Z 32
_cell_length_a 20.507320
_cell_length_b 8.950288
_cell_length_c 26.308821
_cell_angle_alpha 90.000000
_cell_angle_beta 161.305388
_cell_angle_gamma 90.000000
_cell_volume 1547.774700
_symmetry_space_group_name_H-M "P 2/M"
_symmetry_group_IT_number 10
_symmetry_cell_setting 'monoclinic'
loop_
_space_group_symop_operation_xyz
x,y,z
-x,y,-z
-x,-y,-z
x,-y,z
loop_
_atom_site_type_symbol
_atom_site_label
_atom_site_fract_x
_atom_site_fract_y
_atom_site_fract_z
Si Si1 0.462748 0.325362 0.531664
Si Si2 0.946892 0.330526 0.341546
Si Si3 0.957194 0.173126 0.783301
Si Si4 0.353485 0.330575 0.698191
Si Si5 0.195688 0.170905 0.857939
Si Si6 0.656495 0.824700 0.206197
Si Si7 0.744637 0.322465 0.924505
Si Si8 0.762403 0.824703 0.831359
O O1 0.500000 0.296952 0.500000
O O2 0.455390 0.500000 0.539759
O O3 0.248933 0.249985 0.388021
O O4 0.642387 0.248252 0.695915
O O5 0.871792 0.500000 0.289662
O O6 0.936758 0.273415 0.276592
O O7 0.803855 0.235132 0.272087
O O8 0.181757 0.314249 0.528977
O O9 0.122083 0.192701 0.860876
O O10 0.916815 0.000000 0.766627
O O11 0.045222 0.254470 0.898474
O O12 0.375608 0.500000 0.733571
O O13 0.282046 0.233860 0.693137
O O14 0.563778 0.275186 0.828960
O O15 0.172705 0.000000 0.823489
O O16 0.427525 0.225480 0.024792
O O17 0.677597 0.000000 0.223072
O O18 0.766461 0.500000 0.935138
O O19 0.690907 0.251944 0.830611
O O20 0.713324 0.000000 0.797178
O O21 0.000000 0.792690 0.000000
#
# Coordination Sequence:
#
# PCOD8067268 Si02
#       8
#     4   4   4   4   4   4   4   4
#     4  11  25  44  68  99 134 171 212 258 311 371
#     4  11  24  39  59  88 123 161 207 261 316 376
#     4  11  23  42  66  94 128 168 213 263 318 377
#     4  10  23  41  60  88 124 162 205 258 315 374
#     4  10  23  41  60  88 123 161 206 259 315 375
#     4  11  22  40  63  88 119 160 209 259 315 377
#     4  11  23  41  66  94 127 169 214 263 318 377
#     4  11  25  44  68  99 134 172 212 258 311 370
#
# _framework density 20.674844
#
# number of rings (size 3 to 8) (size 9 to 14) (size 15 to 20)
#    0.000    1.250    1.250    3.750    1.750   10.500 
#    0.000    0.000    0.000    0.000    0.000    0.000 
#    0.000    0.000    0.000    0.000    0.000    0.000 
#
# Total GULP energy -397012.527600 kJ/mol
# GULP energy per Si atom -12406.641487 kJ/mol
# Density = 2.062779 g / cm^3
# Si number density = 20.674844 Si / 1000 Ang^3
#
#
#
# Elastic Constant Matrix: (Units=GPa)
#
#
# Indices 1 2 3 4 5 6 
#
# 1 73.3592 43.8407 33.1528 0.0000 -15.3534 0.0000
# 2 43.8407 111.3989 62.5186 0.0000 -10.3013 0.0000
# 3 33.1528 62.5186 117.2354 0.0000 -11.7729 0.0000
# 4 0.0000 0.0000 0.0000 39.7661 0.0000 -3.7922
# 5 -15.3534 -10.3013 -11.7729 0.0000 39.4661 0.0000
# 6 0.0000 0.0000 0.0000 -3.7922 0.0000 36.7047
#
#
#
# Elastic Compliance Matrix: (Units=1/GPa)
#
#
# Indices 1 2 3 4 5 6 
#
# 1 0.019149 -0.006141 -0.001601 0.000000 0.005369 0.000000
# 2 -0.006141 0.014850 -0.006219 0.000000 -0.000368 0.000000
# 3 -0.001601 -0.006219 0.012447 0.000000 0.001467 0.000000
# 4 0.000000 0.000000 0.000000 0.025397 0.000000 0.002624
# 5 0.005369 -0.000368 0.001467 0.000000 0.027768 0.000000
# 6 0.000000 0.000000 0.000000 0.002624 0.000000 0.027516
#
#
# Mechanical properties :
#
#
# Convention : Reuss Voigt Hill
#
# Bulk Modulus (GPa) = 53.98913 64.55751 59.27332
# Shear Modulus (GPa) = 31.01292 34.01947 32.51620
#
# Velocity S-wave (km/s) = 3.87723 4.06082 3.97008
# Velocity P-wave (km/s) = 6.79809 7.29931 7.05315
#
# Compressibility (1/GPa) = 0.01852225
#
# Stress axis : x y z
#
# Youngs Moduli (GPa) = 52.22299 67.34067 80.34332
#
# Poissons Ratio (x) = 0.41353 0.12864
# Poissons Ratio (y) = 0.32069 0.49969
# Poissons Ratio (z) = 0.08362 0.41882
#
# Static dielectric constant tensor:
#      x y z
#    x 3.697040 0.000000 -0.010390 
#    y 0.000000 3.864760 0.000000 
#    z -0.010390 0.000000 3.859060 
# 
# 
# High freq. dielectric constant tensor:
#      x y z
#    x 1.814290 0.000000 -0.002750 
#    y 0.000000 1.818330 0.000000 
#    z -0.002750 0.000000 1.820320 
# 
# From -- ./inp_files/93790.got.cif
#   From: 2010.06.25/outbox.cif.g09.slc.cpg/sg10_47_cif.got.tgz:93790.got - 2010.06.27 22:07:45.
