data_PCOD8067417
_publ_section_title
;
Structure prediction by ZEFSAII (Michael W. Deem and Ramdas Pophale) SiO2 
 PCOD8067417
Probable space group: P 2/M
;
_chemical_formula_sum "Si O2"
_cell_formula_units_Z 24
_cell_length_a 31.193107
_cell_length_b 8.956386
_cell_length_c 19.265137
_cell_angle_alpha 90.000000
_cell_angle_beta 17.362527
_cell_angle_gamma 90.000000
_cell_volume 1606.151692
_symmetry_space_group_name_H-M "P 2/M"
_symmetry_group_IT_number 10
_symmetry_cell_setting 'monoclinic'
loop_
_space_group_symop_operation_xyz
x,y,z
-x,y,-z
-x,-y,-z
x,-y,z
loop_
_atom_site_type_symbol
_atom_site_label
_atom_site_fract_x
_atom_site_fract_y
_atom_site_fract_z
Si Si1 0.614089 0.669224 0.024240
Si Si2 0.405632 0.176046 0.080639
Si Si3 0.413152 0.824242 0.788919
Si Si4 0.859660 0.331015 0.548930
Si Si5 0.817378 0.676765 0.952261
Si Si6 0.617237 0.335761 0.378525
O O1 0.559906 0.500000 0.120072
O O2 0.583229 0.767950 0.138485
O O3 0.531188 0.742734 0.086164
O O4 0.785137 0.670692 0.740781
O O5 0.240003 0.230694 0.348333
O O6 0.409895 0.000000 0.062982
O O7 0.500000 0.226969 0.000000
O O8 0.564101 0.778237 0.519508
O O9 0.399226 0.000000 0.809107
O O10 0.276421 0.755687 0.961525
O O11 0.865408 0.500000 0.510735
O O12 0.019761 0.264702 0.306363
O O13 0.804446 0.500000 0.959264
O O14 0.762649 0.718372 0.114819
O O15 0.500000 0.347005 0.500000
O O16 0.638757 0.500000 0.379017
#
# Coordination Sequence:
#
# PCOD8067417 Si02
#       6
#     4   4   4   4   4   4
#     4   9  18  31  46  64  87 115 150 180 210 257
#     4   9  17  30  47  67  91 113 136 173 219 264
#     4  11  20  28  41  63  92 120 149 184 218 254
#     4   8  17  30  46  66  87 114 148 180 211 256
#     4   9  17  31  46  62  87 119 153 184 214 249
#     4   8  15  28  45  60  80 115 154 185 213 249
#
# _framework density 14.942549
#
# number of rings (size 3 to 8) (size 9 to 14) (size 15 to 20)
#    1.000    2.000    0.000    3.000    0.000    5.667 
#    0.000    3.333    0.000    0.000    0.000    1.167 
#    0.000    9.333    0.000    0.000    0.000    0.000 
#
# Total GULP energy -297316.546188 kJ/mol
# GULP energy per Si atom -12388.189425 kJ/mol
# Density = 1.490854 g / cm^3
# Si number density = 14.942549 Si / 1000 Ang^3
#
#
#
# Elastic Constant Matrix: (Units=GPa)
#
#
# Indices 1 2 3 4 5 6 
#
# 1 94.8106 46.2230 45.0252 0.0000 7.6469 0.0000
# 2 46.2230 77.2574 27.6634 0.0000 4.6928 0.0000
# 3 45.0252 27.6634 48.2433 0.0000 18.9014 0.0000
# 4 0.0000 0.0000 0.0000 14.4765 0.0000 2.0950
# 5 7.6469 4.6928 18.9014 0.0000 11.5552 0.0000
# 6 0.0000 0.0000 0.0000 2.0950 0.0000 24.6974
#
#
#
# Elastic Compliance Matrix: (Units=1/GPa)
#
#
# Indices 1 2 3 4 5 6 
#
# 1 0.035561 -0.003811 -0.062345 0.000000 0.079995 0.000000
# 2 -0.003811 0.019531 -0.015379 0.000000 0.019746 0.000000
# 3 -0.062345 -0.015379 0.192471 0.000000 -0.267331 0.000000
# 4 0.000000 0.000000 0.000000 0.069936 0.000000 -0.005932
# 5 0.079995 0.019746 -0.267331 0.000000 0.462868 0.000000
# 6 0.000000 0.000000 0.000000 -0.005932 0.000000 0.040993
#
#
# Mechanical properties :
#
#
# Convention : Reuss Voigt Hill
#
# Bulk Modulus (GPa) = 11.83523 50.90383 31.36953
# Shear Modulus (GPa) = 4.93780 16.90581 10.92181
#
# Velocity S-wave (km/s) = 1.81981 3.36726 2.70649
# Velocity P-wave (km/s) = 3.51472 7.01842 5.55029
#
# Compressibility (1/GPa) = 0.08449351
#
# Stress axis : x y z
#
# Youngs Moduli (GPa) = 28.12068 51.19989 5.19558
#
# Poissons Ratio (x) = 0.19514 0.32392
# Poissons Ratio (y) = 0.10718 0.07990
# Poissons Ratio (z) = 1.75319 0.78738
#
# Static dielectric constant tensor:
#      x y z
#    x 2.615870 0.000000 0.137160 
#    y 0.000000 2.864760 0.000000 
#    z 0.137160 0.000000 3.096090 
# 
# 
# High freq. dielectric constant tensor:
#      x y z
#    x 1.538640 0.000000 0.015750 
#    y 0.000000 1.577620 0.000000 
#    z 0.015750 0.000000 1.557870 
# 
# From -- ./inp_files/80585.got.cif
#   From: 2010.06.25/outbox.cif.g09.slc.cpg/sg10_41_cif.got.tgz:80585.got - 2010.06.27 22:07:45.
