data_PCOD8067569
_publ_section_title
;
Structure prediction by ZEFSAII (Michael W. Deem and Ramdas Pophale) SiO2 
 PCOD8067569
Probable space group: P 2/M
;
_chemical_formula_sum "Si O2"
_cell_formula_units_Z 32
_cell_length_a 11.636816
_cell_length_b 9.072374
_cell_length_c 16.776226
_cell_angle_alpha 90.000000
_cell_angle_beta 94.249699
_cell_angle_gamma 90.000000
_cell_volume 1766.256104
_symmetry_space_group_name_H-M "P 2/M"
_symmetry_group_IT_number 10
_symmetry_cell_setting 'monoclinic'
loop_
_space_group_symop_operation_xyz
x,y,z
-x,y,-z
-x,-y,-z
x,-y,z
loop_
_atom_site_type_symbol
_atom_site_label
_atom_site_fract_x
_atom_site_fract_y
_atom_site_fract_z
Si Si1 0.575262 0.825751 0.331069
Si Si2 0.759475 0.172103 0.217535
Si Si3 0.330611 0.825141 0.257391
Si Si4 0.602553 0.327678 0.896964
Si Si5 0.655290 0.329110 0.075556
Si Si6 0.260458 0.169602 0.526426
Si Si7 0.824984 0.674012 0.629128
Si Si8 0.060334 0.167841 0.643965
O O1 0.655370 0.759585 0.265173
O O2 0.444381 0.773943 0.312220
O O3 0.624817 0.778048 0.419994
O O4 0.587444 0.000000 0.325843
O O5 0.755040 0.246541 0.130336
O O6 0.879980 0.204865 0.268192
O O7 0.742672 0.000000 0.204431
O O8 0.337583 0.770079 0.167301
O O9 0.221520 0.749212 0.292859
O O10 0.315395 0.000000 0.257192
O O11 0.610051 0.500000 0.875275
O O12 0.470473 0.277472 0.900950
O O13 0.670151 0.294743 0.982709
O O14 0.670083 0.500000 0.092465
O O15 0.250601 0.272541 0.449364
O O16 0.150454 0.188679 0.577455
O O17 0.271601 0.000000 0.498674
O O18 0.815977 0.500000 0.636487
O O19 0.956914 0.720371 0.623779
O O20 0.013718 0.000000 0.641328
#
# Coordination Sequence:
#
# PCOD8067569 Si02
#       8
#     4   4   4   4   4   4   4   4
#     4   8  16  31  52  78 103 131 167 210 258 304
#     4   9  16  30  53  81 107 129 168 219 257 296
#     4  11  21  35  55  75 102 139 179 215 253 304
#     4   9  18  32  48  74 111 145 172 202 245 302
#     4   9  17  29  49  77 111 144 169 198 249 310
#     4   9  18  36  59  78 100 130 169 216 263 307
#     4  12  25  37  50  73 105 138 175 215 259 311
#     4   9  19  36  58  79 101 132 172 219 263 302
#
# _framework density 18.117419000000002
#
# number of rings (size 3 to 8) (size 9 to 14) (size 15 to 20)
#    0.000    2.500    1.250    4.125    0.000    3.500 
#    0.000    6.875    0.000    0.750    0.000    5.250 
#    0.000    0.000    0.000    0.000    0.000    0.000 
#
# Total GULP energy -396753.718183 kJ/mol
# GULP energy per Si atom -12398.553693 kJ/mol
# Density = 1.807618 g / cm^3
# Si number density = 18.117419 Si / 1000 Ang^3
#
#
#
# Elastic Constant Matrix: (Units=GPa)
#
#
# Indices 1 2 3 4 5 6 
#
# 1 25.6648 16.5250 15.3490 0.0000 -1.7956 0.0000
# 2 16.5250 71.1815 43.7179 0.0000 0.3138 0.0000
# 3 15.3490 43.7179 103.8043 0.0000 7.9436 0.0000
# 4 0.0000 0.0000 0.0000 31.6346 0.0000 -4.2849
# 5 -1.7956 0.3138 7.9436 0.0000 22.4497 0.0000
# 6 0.0000 0.0000 0.0000 -4.2849 0.0000 10.3152
#
#
#
# Elastic Compliance Matrix: (Units=1/GPa)
#
#
# Indices 1 2 3 4 5 6 
#
# 1 0.047141 -0.008688 -0.003710 0.000000 0.005204 0.000000
# 2 -0.008688 0.020704 -0.007564 0.000000 0.001692 0.000000
# 3 -0.003710 -0.007564 0.013755 0.000000 -0.005058 0.000000
# 4 0.000000 0.000000 0.000000 0.033496 0.000000 0.013914
# 5 0.005204 0.001692 -0.005058 0.000000 0.046726 0.000000
# 6 0.000000 0.000000 0.000000 0.013914 0.000000 0.102724
#
#
# Mechanical properties :
#
#
# Convention : Reuss Voigt Hill
#
# Bulk Modulus (GPa) = 23.99529 39.09270 31.54399
# Shear Modulus (GPa) = 15.70537 21.21714 18.46125
#
# Velocity S-wave (km/s) = 2.94745 3.42583 3.19561
# Velocity P-wave (km/s) = 4.98562 6.10514 5.57356
#
# Compressibility (1/GPa) = 0.04167485
#
# Stress axis : x y z
#
# Youngs Moduli (GPa) = 21.21305 48.29962 72.70129
#
# Poissons Ratio (x) = 0.41965 0.26969
# Poissons Ratio (y) = 0.18431 0.54995
# Poissons Ratio (z) = 0.07869 0.36536
#
# Static dielectric constant tensor:
#      x y z
#    x 3.205590 0.000000 0.181470 
#    y 0.000000 3.101300 0.000000 
#    z 0.181470 0.000000 3.420320 
# 
# 
# High freq. dielectric constant tensor:
#      x y z
#    x 1.677550 0.000000 0.013900 
#    y 0.000000 1.683620 0.000000 
#    z 0.013900 0.000000 1.707250 
# 
# From -- ./inp_files/63796.got.cif
#   From: 2010.06.25/outbox.cif.g09.slc.cpg/sg10_32_cif.got.tgz:63796.got - 2010.06.27 22:07:45.
