data_PCOD8067641
_publ_section_title
;
Structure prediction by ZEFSAII (Michael W. Deem and Ramdas Pophale) SiO2 
 PCOD8067641
Probable space group: P 2/M
;
_chemical_formula_sum "Si O2"
_cell_formula_units_Z 18
_cell_length_a 9.364377
_cell_length_b 9.649078
_cell_length_c 22.126409
_cell_angle_alpha 90.000000
_cell_angle_beta 153.878358
_cell_angle_gamma 90.000000
_cell_volume 880.243786
_symmetry_space_group_name_H-M "P 2/M"
_symmetry_group_IT_number 10
_symmetry_cell_setting 'monoclinic'
loop_
_space_group_symop_operation_xyz
x,y,z
-x,y,-z
-x,-y,-z
x,-y,z
loop_
_atom_site_type_symbol
_atom_site_label
_atom_site_fract_x
_atom_site_fract_y
_atom_site_fract_z
Si Si1 0.984364 0.000000 0.564747
Si Si2 0.221019 0.231793 0.849848
Si Si3 0.294979 0.500000 0.155236
Si Si4 0.312809 0.000000 0.365990
Si Si5 0.096066 0.500000 0.214353
Si Si6 0.707762 0.500000 0.519816
Si Si7 0.757370 0.276369 0.278440
O O1 0.597526 0.000000 0.425718
O O2 0.000000 0.000000 0.500000
O O3 0.171268 0.869988 0.664057
O O4 0.367062 0.257499 0.838044
O O5 0.099547 0.371405 0.834078
O O6 0.500000 0.168952 0.000000
O O7 0.912085 0.133160 0.726740
O O8 0.111940 0.500000 0.148965
O O9 0.502191 0.360572 0.222407
O O10 0.000000 0.500000 0.000000
O O11 0.500000 0.000000 0.500000
O O12 0.474404 0.500000 0.374106
O O13 0.500000 0.500000 0.500000
O O14 0.910571 0.360323 0.596596
#
# Coordination Sequence:
#
# PCOD8067641 Si02
#       7
#     2   4   2   2   2   2   4
#     4  12  28  44  67  97 138 174 220 278 340 396
#     4  12  24  43  71 103 133 173 224 278 333 396
#     4  11  26  46  64  95 141 183 217 269 336 408
#     4  12  25  46  71  97 131 177 225 278 333 391
#     4  12  24  38  72 101 134 175 225 269 338 400
#     4  11  21  39  68 102 130 170 222 280 335 383
#     4  11  24  44  67  96 138 175 221 280 331 392
#
# _framework density 20.448879999999999
#
# number of rings (size 3 to 8) (size 9 to 14) (size 15 to 20)
#    0.000    0.444    4.444    4.000    6.222    0.889 
#    0.000    0.556    0.000    0.000    0.000    0.000 
#    0.000    0.000    0.000    0.000    0.000    0.000 
#
# Total GULP energy -223203.728199 kJ/mol
# GULP energy per Si atom -12400.207122 kJ/mol
# Density = 2.040234 g / cm^3
# Si number density = 20.448880 Si / 1000 Ang^3
#
#
#
# Elastic Constant Matrix: (Units=GPa)
#
#
# Indices 1 2 3 4 5 6 
#
# 1 146.4673 62.3480 37.2834 0.0000 -24.3615 0.0000
# 2 62.3480 161.5066 53.1527 0.0000 -1.5376 0.0000
# 3 37.2834 53.1527 141.1267 0.0000 -19.0239 0.0000
# 4 0.0000 0.0000 0.0000 -294.0602 0.0000 -90.9623
# 5 -24.3615 -1.5376 -19.0239 0.0000 42.7358 0.0000
# 6 0.0000 0.0000 0.0000 -90.9623 0.0000 2.2150
#
#
#
# Elastic Compliance Matrix: (Units=1/GPa)
#
#
# Indices 1 2 3 4 5 6 
#
# 1 0.009190 -0.003332 -0.000514 0.000000 0.004890 0.000000
# 2 -0.003332 0.008315 -0.002625 0.000000 -0.002769 0.000000
# 3 -0.000514 -0.002625 0.008679 0.000000 0.003476 0.000000
# 4 0.000000 0.000000 0.000000 -0.000248 0.000000 -0.010191
# 5 0.004890 -0.002769 0.003476 0.000000 0.027635 0.000000
# 6 0.000000 0.000000 0.000000 -0.010191 0.000000 0.032946
#
#
# Mechanical properties :
#
#
# Convention : Reuss Voigt Hill
#
# Bulk Modulus (GPa) = 75.51149 83.85209 79.68179
# Shear Modulus (GPa) = 48.13584 -30.06745 9.03419
#
# Velocity S-wave (km/s) = 4.85703 -3.83870 2.10417
# Velocity P-wave (km/s) = 8.27414 4.63111 6.70480
#
# Compressibility (1/GPa) = 0.01324302
#
# Stress axis : x y z
#
# Youngs Moduli (GPa) = 108.81403 120.25735 115.22467
#
# Poissons Ratio (x) = 0.40071 0.05919
# Poissons Ratio (y) = 0.36258 0.30244
# Poissons Ratio (z) = 0.05590 0.31565
#
# Static dielectric constant tensor:
#      x y z
#    x 4.568670 0.000000 0.475170 
#    y 0.000000 3.824220 0.000000 
#    z 0.475170 0.000000 4.036450 
# 
# 
# High freq. dielectric constant tensor:
#      x y z
#    x 1.806730 0.000000 -0.005760 
#    y 0.000000 1.812000 0.000000 
#    z -0.005760 0.000000 1.813230 
# 
# From -- ./inp_files/34162.got.cif
#   From: 2010.06.25/outbox.cif.g09.slc.cpg/sg10_18_cif.got.tgz:34162.got - 2010.06.27 22:07:45.
