data_PCOD8067695
_publ_section_title
;
Structure prediction by ZEFSAII (Michael W. Deem and Ramdas Pophale) SiO2 
 PCOD8067695
Probable space group: P 2/M
;
_chemical_formula_sum "Si O2"
_cell_formula_units_Z 28
_cell_length_a 32.545247
_cell_length_b 8.601813
_cell_length_c 31.696235
_cell_angle_alpha 90.000000
_cell_angle_beta 9.201807
_cell_angle_gamma 90.000000
_cell_volume 1418.950257
_symmetry_space_group_name_H-M "P 2/M"
_symmetry_group_IT_number 10
_symmetry_cell_setting 'monoclinic'
loop_
_space_group_symop_operation_xyz
x,y,z
-x,y,-z
-x,-y,-z
x,-y,z
loop_
_atom_site_type_symbol
_atom_site_label
_atom_site_fract_x
_atom_site_fract_y
_atom_site_fract_z
Si Si1 0.118281 0.814619 0.145171
Si Si2 0.690142 0.814580 0.429577
Si Si3 0.166109 0.814644 0.001674
Si Si4 0.594380 0.814990 0.716876
Si Si5 0.024584 0.317710 0.426229
Si Si6 0.737973 0.814545 0.286080
Si Si7 0.453651 0.815695 0.139065
O O1 0.856542 0.749716 0.430913
O O2 0.118273 0.000000 0.145201
O O3 0.142198 0.750549 0.073412
O O4 0.356021 0.749718 0.931434
O O5 0.428136 0.750644 0.715622
O O6 0.714059 0.750522 0.357827
O O7 0.690211 0.000000 0.429368
O O8 0.928106 0.750643 0.215653
O O9 0.166084 0.000000 0.001754
O O10 0.570398 0.753372 0.788823
O O11 0.594797 0.000000 0.715617
O O12 0.028580 0.500000 0.414219
O O13 0.000000 0.275383 0.500000
O O14 0.784790 0.244954 0.645591
O O15 0.284798 0.244957 0.145578
O O16 0.500000 0.750799 0.500000
O O17 0.737905 0.000000 0.286280
O O18 0.000000 0.750798 0.000000
O O19 0.454289 0.000000 0.137176
#
# Coordination Sequence:
#
# PCOD8067695 Si02
#       7
#     4   4   4   4   4   4   4
#     4   9  15  24  37  54  79 108 134 164 213 273
#     4   9  15  21  27  37  52  71 104 147 189 245
#     4   9  15  21  30  43  60  85 114 146 189 249
#     4   9  17  28  43  65  91 116 145 185 229 275
#     4  11  24  41  59  81 112 147 179 215 264 317
#     4   9  15  21  27  33  43  63  93 136 193 249
#     4  11  22  37  59  85 110 139 179 223 262 305
#
# _framework density 19.732897999999999
#
# number of rings (size 3 to 8) (size 9 to 14) (size 15 to 20)
#    0.000    2.429    0.000    3.857    0.000   12.000 
#    0.000    0.000    0.000    0.000    0.000    0.000 
#    0.000    0.000    0.000    0.000    0.000    0.000 
#
# Total GULP energy -347219.991744 kJ/mol
# GULP energy per Si atom -12400.713991 kJ/mol
# Density = 1.968798 g / cm^3
# Si number density = 19.732898 Si / 1000 Ang^3
#
#
#
# Elastic Constant Matrix: (Units=GPa)
#
#
# Indices 1 2 3 4 5 6 
#
# 1 216.3139 34.7730 125.1856 0.0000 -2.1766 0.0000
# 2 34.7730 16.4500 24.3651 0.0000 1.8639 0.0000
# 3 125.1856 24.3651 233.4383 0.0000 -0.8929 0.0000
# 4 0.0000 0.0000 0.0000 7.8754 0.0000 -1.9383
# 5 -2.1766 1.8639 -0.8929 0.0000 51.4069 0.0000
# 6 0.0000 0.0000 0.0000 -1.9383 0.0000 -2.9526
#
#
#
# Elastic Compliance Matrix: (Units=1/GPa)
#
#
# Indices 1 2 3 4 5 6 
#
# 1 0.008706 -0.013703 -0.003236 0.000000 0.000809 0.000000
# 2 -0.013703 0.093862 -0.002464 0.000000 -0.004026 0.000000
# 3 -0.003236 -0.002464 0.006276 0.000000 0.000061 0.000000
# 4 0.000000 0.000000 0.000000 0.109316 0.000000 -0.071762
# 5 0.000809 -0.004026 0.000061 0.000000 0.019634 0.000000
# 6 0.000000 0.000000 0.000000 -0.071762 0.000000 -0.291572
#
#
# Mechanical properties :
#
#
# Convention : Reuss Voigt Hill
#
# Bulk Modulus (GPa) = 14.27758 92.76106 53.51932
# Shear Modulus (GPa) = 597.07778 30.05783 313.56780
#
# Velocity S-wave (km/s) = 17.41369 3.90710 12.61947
# Velocity P-wave (km/s) = 20.28711 8.21366 15.47629
#
# Compressibility (1/GPa) = 0.07003987
#
# Stress axis : x y z
#
# Youngs Moduli (GPa) = 114.85794 10.65392 159.32944
#
# Poissons Ratio (x) = 0.14599 0.51552
# Poissons Ratio (y) = 1.57394 0.39252
# Poissons Ratio (z) = 0.37163 0.02625
#
# Static dielectric constant tensor:
#      x y z
#    x 3.913810 0.000000 0.016090 
#    y 0.000000 2.823820 0.000000 
#    z 0.016090 0.000000 3.823960 
# 
# 
# High freq. dielectric constant tensor:
#      x y z
#    x 1.791960 0.000000 -0.000100 
#    y 0.000000 1.689930 0.000000 
#    z -0.000100 0.000000 1.792500 
# 
# From -- ./inp_files/96000.got.cif
#   From: 2010.06.25/outbox.cif.g09.slc.cpg/sg10_48_cif.got.tgz:96000.got - 2010.06.27 22:07:45.
