data_PCOD8067457
_publ_section_title
;
Structure prediction by ZEFSAII (Michael W. Deem and Ramdas Pophale) SiO2 
 PCOD8067457
Probable space group: P 2/M
;
_chemical_formula_sum "Si O2"
_cell_formula_units_Z 32
_cell_length_a 8.974428
_cell_length_b 14.230759
_cell_length_c 27.952783
_cell_angle_alpha 90.000000
_cell_angle_beta 31.385633
_cell_angle_gamma 90.000000
_cell_volume 1859.204619
_symmetry_space_group_name_H-M "P 2/M"
_symmetry_group_IT_number 10
_symmetry_cell_setting 'monoclinic'
loop_
_space_group_symop_operation_xyz
x,y,z
-x,y,-z
-x,-y,-z
x,-y,z
loop_
_atom_site_type_symbol
_atom_site_label
_atom_site_fract_x
_atom_site_fract_y
_atom_site_fract_z
Si Si1 0.792639 0.753520 0.891822
Si Si2 0.294215 0.745856 0.511115
Si Si3 0.384000 0.107472 0.632461
Si Si4 0.653316 0.252049 0.723181
Si Si5 0.628707 0.607248 0.361001
Si Si6 0.291936 0.892464 0.767108
Si Si7 0.111124 0.248400 0.241531
Si Si8 0.735270 0.607498 0.222731
O O1 0.723387 0.753314 0.854240
O O2 0.982236 0.843917 0.853287
O O3 0.957875 0.658628 0.861486
O O4 0.500000 0.759831 0.000000
O O5 0.500000 0.741290 0.500000
O O6 0.350591 0.842053 0.466368
O O7 0.355915 0.656543 0.460104
O O8 0.969814 0.741651 0.615762
O O9 0.428517 0.117048 0.677049
O O10 0.088925 0.156870 0.697895
O O11 0.371598 0.000000 0.619037
O O12 0.504968 0.157276 0.745505
O O13 0.657062 0.248642 0.779754
O O14 0.477590 0.344131 0.756314
O O15 0.645619 0.500000 0.373347
O O16 0.592068 0.616448 0.314105
O O17 0.918082 0.658261 0.298526
O O18 0.253304 0.000000 0.793278
O O19 0.783822 0.500000 0.194193
#
# Coordination Sequence:
#
# PCOD8067457 Si02
#       8
#     4   4   4   4   4   4   4   4
#     4   9  18  36  63  81  96 128 169 210 249 305
#     4  11  20  32  46  76 104 135 179 221 249 285
#     4   9  18  34  51  69  99 139 180 214 245 291
#     4  11  20  33  50  73 107 139 166 209 263 299
#     4   9  18  34  51  69  99 139 180 214 245 291
#     4   9  20  36  53  75 105 137 168 205 256 308
#     4   9  18  34  51  77 104 131 168 208 257 303
#     4   9  20  36  53  75 105 137 168 205 256 308
#
# _framework density 17.211662
#
# number of rings (size 3 to 8) (size 9 to 14) (size 15 to 20)
#    0.000    2.500    2.500    2.250    0.000    5.000 
#    0.000    5.000    0.000    1.500    0.000    0.000 
#    0.000    0.000    0.000    0.000    0.000    0.000 
#
# Total GULP energy -396817.675739 kJ/mol
# GULP energy per Si atom -12400.552367 kJ/mol
# Density = 1.717249 g / cm^3
# Si number density = 17.211662 Si / 1000 Ang^3
#
#
#
# Elastic Constant Matrix: (Units=GPa)
#
#
# Indices 1 2 3 4 5 6 
#
# 1 105.6225 18.5459 6.1285 0.0000 1.5241 0.0000
# 2 18.5459 101.8539 -15.7928 0.0000 2.7002 0.0000
# 3 6.1285 -15.7928 56.3748 0.0000 3.2942 0.0000
# 4 0.0000 0.0000 0.0000 9.1701 0.0000 0.9769
# 5 1.5241 2.7002 3.2942 0.0000 16.2545 0.0000
# 6 0.0000 0.0000 0.0000 0.9769 0.0000 15.8533
#
#
#
# Elastic Compliance Matrix: (Units=1/GPa)
#
#
# Indices 1 2 3 4 5 6 
#
# 1 0.009927 -0.002055 -0.001640 0.000000 -0.000257 0.000000
# 2 -0.002055 0.010776 0.003376 0.000000 -0.002282 0.000000
# 3 -0.001640 0.003376 0.019112 0.000000 -0.004280 0.000000
# 4 0.000000 0.000000 0.000000 0.109770 0.000000 -0.006764
# 5 -0.000257 -0.002282 -0.004280 0.000000 0.062792 0.000000
# 6 0.000000 0.000000 0.000000 -0.006764 0.000000 0.063495
#
#
# Mechanical properties :
#
#
# Convention : Reuss Voigt Hill
#
# Bulk Modulus (GPa) = 25.52517 31.29047 28.40782
# Shear Modulus (GPa) = 17.26690 25.25354 21.26022
#
# Velocity S-wave (km/s) = 3.17078 3.83460 3.51838
# Velocity P-wave (km/s) = 5.31672 6.15019 5.74858
#
# Compressibility (1/GPa) = 0.03917702
#
# Stress axis : x y z
#
# Youngs Moduli (GPa) = 100.73148 92.79838 52.32197
#
# Poissons Ratio (x) = 0.19071 0.08580
# Poissons Ratio (y) = 0.20701 -0.17661
# Poissons Ratio (z) = 0.16519 -0.31324
#
# Static dielectric constant tensor:
#      x y z
#    x 3.307470 0.000000 0.042300 
#    y 0.000000 3.501680 0.000000 
#    z 0.042300 0.000000 3.067240 
# 
# 
# High freq. dielectric constant tensor:
#      x y z
#    x 1.661730 0.000000 0.009810 
#    y 0.000000 1.672840 0.000000 
#    z 0.009810 0.000000 1.639850 
# 
# From -- ./inp_files/29068.got.cif
#   From: 2010.06.25/outbox.cif.g09.slc.cpg/sg10_15_cif.got.tgz:29068.got - 2010.06.27 22:07:45.
