data_PCOD8067983
_publ_section_title
;
Structure prediction by ZEFSAII (Michael W. Deem and Ramdas Pophale) SiO2 
 PCOD8067983
Probable space group: P 2/M
;
_chemical_formula_sum "Si O2"
_cell_formula_units_Z 32
_cell_length_a 29.039721
_cell_length_b 14.950081
_cell_length_c 14.632755
_cell_angle_alpha 90.000000
_cell_angle_beta 159.808234
_cell_angle_gamma 90.000000
_cell_volume 2192.737931
_symmetry_space_group_name_H-M "P 2/M"
_symmetry_group_IT_number 10
_symmetry_cell_setting 'monoclinic'
loop_
_space_group_symop_operation_xyz
x,y,z
-x,y,-z
-x,-y,-z
x,-y,z
loop_
_atom_site_type_symbol
_atom_site_label
_atom_site_fract_x
_atom_site_fract_y
_atom_site_fract_z
Si Si1 0.621483 0.245316 0.848276
Si Si2 0.144274 0.606528 0.243511
Si Si3 0.823521 0.099634 0.256542
Si Si4 0.408710 0.600722 0.073092
Si Si5 0.680503 0.754386 0.749386
Si Si6 0.115291 0.900285 0.842295
Si Si7 0.284569 0.601215 0.323354
Si Si8 0.635012 0.606494 0.209404
O O1 0.643620 0.337415 0.943093
O O2 0.466285 0.216106 0.558203
O O3 0.677456 0.264215 0.851647
O O4 0.703547 0.168090 0.053834
O O5 0.146279 0.500000 0.250934
O O6 0.186282 0.636800 0.219879
O O7 0.243464 0.645518 0.504987
O O8 0.000000 0.645702 0.000000
O O9 0.846736 0.097619 0.192359
O O10 0.960036 0.129572 0.562218
O O11 0.782174 0.000000 0.212481
O O12 0.360945 0.500000 0.006389
O O13 0.568008 0.603774 0.359962
O O14 0.347871 0.635699 0.864157
O O15 0.728744 0.663936 0.789954
O O16 0.786397 0.832260 0.921983
O O17 0.134484 0.000000 0.919363
O O18 0.247888 0.500000 0.224709
O O19 0.629239 0.500000 0.203714
O O20 0.500000 0.647307 0.000000
#
# Coordination Sequence:
#
# PCOD8067983 Si02
#       8
#     4   4   4   4   4   4   4   4
#     4   9  17  27  39  60  86 109 138 173 198 224
#     4   9  16  26  40  58  78  98 128 174 216 242
#     4   8  14  26  43  59  77 103 132 166 209 247
#     4   9  16  26  41  59  81 111 144 170 195 235
#     4   9  17  27  40  59  84 112 140 168 196 232
#     4   8  14  26  43  59  76 103 135 165 205 250
#     4   9  16  27  41  57  81 114 143 166 198 239
#     4   9  14  24  42  58  72  99 135 169 209 245
#
# _framework density 14.593627
#
# number of rings (size 3 to 8) (size 9 to 14) (size 15 to 20)
#    0.000    3.250    1.250    0.750    0.000    1.000 
#    2.250    5.000    0.000    0.000    0.000    3.500 
#    0.000    2.000    0.000    0.125    0.000    0.000 
#
# Total GULP energy -396606.223987 kJ/mol
# GULP energy per Si atom -12393.944500 kJ/mol
# Density = 1.456041 g / cm^3
# Si number density = 14.593627 Si / 1000 Ang^3
#
#
#
# Elastic Constant Matrix: (Units=GPa)
#
#
# Indices 1 2 3 4 5 6 
#
# 1 61.9188 40.0472 43.3320 0.0000 2.1366 0.0000
# 2 40.0472 80.0421 51.3940 0.0000 0.6515 0.0000
# 3 43.3320 51.3940 94.2336 0.0000 1.5502 0.0000
# 4 0.0000 0.0000 0.0000 17.3172 0.0000 2.7011
# 5 2.1366 0.6515 1.5502 0.0000 16.5197 0.0000
# 6 0.0000 0.0000 0.0000 2.7011 0.0000 2.4969
#
#
#
# Elastic Compliance Matrix: (Units=1/GPa)
#
#
# Indices 1 2 3 4 5 6 
#
# 1 0.027263 -0.008613 -0.007799 0.000000 -0.002455 0.000000
# 2 -0.008613 0.021948 -0.008026 0.000000 0.001001 0.000000
# 3 -0.007799 -0.008026 0.018582 0.000000 -0.000419 0.000000
# 4 0.000000 0.000000 0.000000 0.069467 0.000000 -0.075146
# 5 -0.002455 0.001001 -0.000419 0.000000 0.060851 0.000000
# 6 0.000000 0.000000 0.000000 -0.075146 0.000000 0.481778
#
#
# Mechanical properties :
#
#
# Convention : Reuss Voigt Hill
#
# Bulk Modulus (GPa) = 52.86041 56.19345 54.52693
# Shear Modulus (GPa) = 6.80206 14.02817 10.41512
#
# Velocity S-wave (km/s) = 2.16127 3.10377 2.67437
# Velocity P-wave (km/s) = 6.52138 7.17172 6.85427
#
# Compressibility (1/GPa) = 0.01891775
#
# Stress axis : x y z
#
# Youngs Moduli (GPa) = 36.67932 45.56203 53.81446
#
# Poissons Ratio (x) = 0.39243 0.41969
# Poissons Ratio (y) = 0.31592 0.43192
# Poissons Ratio (z) = 0.28606 0.36569
#
# Static dielectric constant tensor:
#      x y z
#    x 2.637850 0.000000 0.041540 
#    y 0.000000 2.751130 0.000000 
#    z 0.041540 0.000000 3.031720 
# 
# 
# High freq. dielectric constant tensor:
#      x y z
#    x 1.532080 0.000000 0.002260 
#    y 0.000000 1.525700 0.000000 
#    z 0.002260 0.000000 1.559640 
# 
# From -- ./inp_files/61544.got.cif
#   From: 2010.06.25/outbox.cif.g09.slc.cpg/sg10_31_cif.got.tgz:61544.got - 2010.06.27 22:07:45.
