data_PCOD8067580
_publ_section_title
;
Structure prediction by ZEFSAII (Michael W. Deem and Ramdas Pophale) SiO2 
 PCOD8067580
Probable space group: P 2/M
;
_chemical_formula_sum "Si O2"
_cell_formula_units_Z 32
_cell_length_a 15.524574
_cell_length_b 17.286893
_cell_length_c 12.426243
_cell_angle_alpha 90.000000
_cell_angle_beta 26.836247
_cell_angle_gamma 90.000000
_cell_volume 1505.492377
_symmetry_space_group_name_H-M "P 2/M"
_symmetry_group_IT_number 10
_symmetry_cell_setting 'monoclinic'
loop_
_space_group_symop_operation_xyz
x,y,z
-x,y,-z
-x,-y,-z
x,-y,z
loop_
_atom_site_type_symbol
_atom_site_label
_atom_site_fract_x
_atom_site_fract_y
_atom_site_fract_z
Si Si1 0.369720 0.799237 0.432438
Si Si2 0.775978 0.085380 0.233070
Si Si3 0.092279 0.085921 0.285977
Si Si4 0.778514 0.821246 0.035945
Si Si5 0.473554 0.913828 0.148855
Si Si6 0.045614 0.591331 0.275514
Si Si7 0.974035 0.692674 0.151125
Si Si8 0.295874 0.591745 0.191405
O O1 0.327308 0.851521 0.581195
O O2 0.595349 0.778061 0.187660
O O3 0.337622 0.852752 0.361855
O O4 0.241226 0.721462 0.579522
O O5 0.720559 0.103902 0.171052
O O6 0.698751 0.000000 0.347237
O O7 0.000000 0.089946 0.000000
O O8 0.000000 0.115873 0.500000
O O9 0.007901 0.000000 0.354728
O O10 0.059035 0.150885 0.231756
O O11 0.320161 0.080492 0.028603
O O12 0.883544 0.764408 0.000994
O O13 0.378329 0.000000 0.253389
O O14 0.500000 0.881474 0.000000
O O15 0.049923 0.500000 0.252403
O O16 0.044252 0.629494 0.159358
O O17 0.856591 0.617958 0.549633
O O18 0.226929 0.617871 0.147986
O O19 0.000000 0.659748 0.000000
O O20 0.308870 0.500000 0.175737
O O21 0.500000 0.627953 0.000000
#
# Coordination Sequence:
#
# PCOD8067580 Si02
#       8
#     4   4   4   4   4   4   4   4
#     4  11  22  39  57  79 114 156 199 253 310 367
#     4  11  21  35  59  86 108 145 204 263 314 364
#     4   9  19  34  53  78 108 147 191 243 308 370
#     4  11  22  39  57  79 113 156 202 253 315 368
#     4   9  19  34  53  78 107 145 190 239 300 368
#     4   9  20  39  65  96 128 164 202 247 305 371
#     4  12  25  42  58  86 124 163 213 259 310 365
#     4   8  15  35  68 102 130 152 187 243 301 360
#
# _framework density 21.255503999999998
#
# number of rings (size 3 to 8) (size 9 to 14) (size 15 to 20)
#    0.000    2.000    2.500    1.875    1.750    3.250 
#    2.250    0.625    0.000    0.000    0.000    5.250 
#    0.000    0.000    0.000    0.000    0.000    0.000 
#
# Total GULP energy -396514.525439 kJ/mol
# GULP energy per Si atom -12391.078920 kJ/mol
# Density = 2.120713 g / cm^3
# Si number density = 21.255504 Si / 1000 Ang^3
#
#
#
# Elastic Constant Matrix: (Units=GPa)
#
#
# Indices 1 2 3 4 5 6 
#
# 1 134.6830 40.0767 52.7648 0.0000 16.3787 0.0000
# 2 40.0767 48.4263 21.1884 0.0000 9.7249 0.0000
# 3 52.7648 21.1884 85.4132 0.0000 5.7266 0.0000
# 4 0.0000 0.0000 0.0000 -4.7969 0.0000 60.5934
# 5 16.3787 9.7249 5.7266 0.0000 51.7372 0.0000
# 6 0.0000 0.0000 0.0000 60.5934 0.0000 -83.7137
#
#
#
# Elastic Compliance Matrix: (Units=1/GPa)
#
#
# Indices 1 2 3 4 5 6 
#
# 1 0.011899 -0.007087 -0.005470 0.000000 -0.001829 0.000000
# 2 -0.007087 0.028128 -0.002414 0.000000 -0.002777 0.000000
# 3 -0.005470 -0.002414 0.015655 0.000000 0.000453 0.000000
# 4 0.000000 0.000000 0.000000 0.025601 0.000000 0.018530
# 5 -0.001829 -0.002777 0.000453 0.000000 0.020379 0.000000
# 6 0.000000 0.000000 0.000000 0.018530 0.000000 0.001467
#
#
# Mechanical properties :
#
#
# Convention : Reuss Voigt Hill
#
# Bulk Modulus (GPa) = 38.84732 55.17582 47.01157
# Shear Modulus (GPa) = 35.29785 2.94483 19.12134
#
# Velocity S-wave (km/s) = 4.07952 1.17833 3.00258
# Velocity P-wave (km/s) = 6.36444 5.27882 5.84688
#
# Compressibility (1/GPa) = 0.02574180
#
# Stress axis : x y z
#
# Youngs Moduli (GPa) = 84.04017 35.55119 63.87553
#
# Poissons Ratio (x) = 0.25194 0.34941
# Poissons Ratio (y) = 0.59556 0.15418
# Poissons Ratio (z) = 0.45971 0.08581
#
# Static dielectric constant tensor:
#      x y z
#    x 4.135660 0.000000 -0.164200 
#    y 0.000000 3.459000 0.000000 
#    z -0.164200 0.000000 3.952730 
# 
# 
# High freq. dielectric constant tensor:
#      x y z
#    x 1.846990 0.000000 -0.002010 
#    y 0.000000 1.788220 0.000000 
#    z -0.002010 0.000000 1.834120 
# 
# From -- ./inp_files/51970.got.cif
#   From: 2010.06.25/outbox.cif.g09.slc.cpg/sg10_26_cif.got.tgz:51970.got - 2010.06.27 22:07:45.
