data_PCOD8067705
_publ_section_title
;
Structure prediction by ZEFSAII (Michael W. Deem and Ramdas Pophale) SiO2 
 PCOD8067705
Probable space group: P 2/M
;
_chemical_formula_sum "Si O2"
_cell_formula_units_Z 20
_cell_length_a 23.575053
_cell_length_b 8.428885
_cell_length_c 5.074870
_cell_angle_alpha 90.000000
_cell_angle_beta 108.724477
_cell_angle_gamma 90.000000
_cell_volume 955.061385
_symmetry_space_group_name_H-M "P 2/M"
_symmetry_group_IT_number 10
_symmetry_cell_setting 'monoclinic'
loop_
_space_group_symop_operation_xyz
x,y,z
-x,y,-z
-x,-y,-z
x,-y,z
loop_
_atom_site_type_symbol
_atom_site_label
_atom_site_fract_x
_atom_site_fract_y
_atom_site_fract_z
Si Si1 0.964649 0.188981 0.198157
Si Si2 0.370502 0.316056 0.787813
Si Si3 0.767227 0.315666 0.418884
Si Si4 0.431611 0.815887 0.378795
Si Si5 0.171013 0.185204 0.988252
O O1 0.896655 0.250725 0.094413
O O2 0.000000 0.258639 0.500000
O O3 0.964656 0.000000 0.204728
O O4 0.000000 0.255291 0.000000
O O5 0.378910 0.500000 0.867120
O O6 0.301644 0.264475 0.707414
O O7 0.392300 0.283949 0.524418
O O8 0.408887 0.213765 0.049555
O O9 0.775693 0.500000 0.367642
O O10 0.805474 0.213038 0.271294
O O11 0.788606 0.280863 0.746346
O O12 0.500000 0.758983 0.500000
O O13 0.425610 0.000000 0.441008
O O14 0.174023 0.000000 0.060831
#
# Coordination Sequence:
#
# PCOD8067705 Si02
#       5
#     4   4   4   4   4
#     4   9  17  31  53  82 114 145 184 239 291 334
#     4  11  24  41  62  87 116 157 202 237 281 347
#     4  11  24  41  59  84 122 159 190 237 299 347
#     4  11  24  41  62  90 122 153 188 239 299 345
#     4  11  22  37  62  91 114 149 202 245 284 345
#
# _framework density 20.941063
#
# number of rings (size 3 to 8) (size 9 to 14) (size 15 to 20)
#    0.000    1.400    0.000    5.400    0.000   15.200 
#    0.000    0.000    0.000   12.000    0.000    0.000 
#    0.000    0.000    0.000    0.000    0.000    0.000 
#
# Total GULP energy -248152.849014 kJ/mol
# GULP energy per Si atom -12407.642451 kJ/mol
# Density = 2.089340 g / cm^3
# Si number density = 20.941063 Si / 1000 Ang^3
#
#
#
# Elastic Constant Matrix: (Units=GPa)
#
#
# Indices 1 2 3 4 5 6 
#
# 1 132.8191 39.0751 30.6350 0.0000 4.0934 0.0000
# 2 39.0751 38.8324 21.7159 0.0000 13.1768 0.0000
# 3 30.6350 21.7159 121.3641 0.0000 6.6899 0.0000
# 4 0.0000 0.0000 0.0000 17.3610 0.0000 -28.1012
# 5 4.0934 13.1768 6.6899 0.0000 46.2769 0.0000
# 6 0.0000 0.0000 0.0000 -28.1012 0.0000 -20.7505
#
#
#
# Elastic Compliance Matrix: (Units=1/GPa)
#
#
# Indices 1 2 3 4 5 6 
#
# 1 0.011012 -0.011409 -0.000871 0.000000 0.002400 0.000000
# 2 -0.011409 0.043245 -0.004269 0.000000 -0.010687 0.000000
# 3 -0.000871 -0.004269 0.009226 0.000000 -0.000041 0.000000
# 4 0.000000 0.000000 0.000000 0.018045 0.000000 -0.024437
# 5 0.002400 -0.010687 -0.000041 0.000000 0.024446 0.000000
# 6 0.000000 0.000000 0.000000 -0.024437 0.000000 -0.015097
#
#
# Mechanical properties :
#
#
# Convention : Reuss Voigt Hill
#
# Bulk Modulus (GPa) = 32.90936 52.87419 42.89178
# Shear Modulus (GPa) = 37.28494 22.01680 29.65087
#
# Velocity S-wave (km/s) = 4.22414 3.24600 3.76695
# Velocity P-wave (km/s) = 6.28812 6.27316 6.28065
#
# Compressibility (1/GPa) = 0.03038649
#
# Stress axis : x y z
#
# Youngs Moduli (GPa) = 90.80751 23.12380 108.39419
#
# Poissons Ratio (x) = 0.26381 0.09438
# Poissons Ratio (y) = 1.03600 0.46274
# Poissons Ratio (z) = 0.07906 0.09872
#
# Static dielectric constant tensor:
#      x y z
#    x 3.914070 0.000000 0.103040 
#    y 0.000000 3.462840 0.000000 
#    z 0.103040 0.000000 3.799390 
# 
# 
# High freq. dielectric constant tensor:
#      x y z
#    x 1.836290 0.000000 0.001880 
#    y 0.000000 1.802450 0.000000 
#    z 0.001880 0.000000 1.835170 
# 
# From -- ./inp_files/12084.got.cif
#   From: 2010.06.25/outbox.cif.g09.slc.cpg/sg10_7_cif.got.tgz:12084.got - 2010.06.27 22:07:45.
