data_PCOD8067973
_publ_section_title
;
Structure prediction by ZEFSAII (Michael W. Deem and Ramdas Pophale) SiO2 
 PCOD8067973
Probable space group: P 2/M
;
_chemical_formula_sum "Si O2"
_cell_formula_units_Z 32
_cell_length_a 20.912954
_cell_length_b 9.793022
_cell_length_c 20.912893
_cell_angle_alpha 90.000000
_cell_angle_beta 153.801569
_cell_angle_gamma 90.000000
_cell_volume 1890.856290
_symmetry_space_group_name_H-M "P 2/M"
_symmetry_group_IT_number 10
_symmetry_cell_setting 'monoclinic'
loop_
_space_group_symop_operation_xyz
x,y,z
-x,y,-z
-x,-y,-z
x,-y,z
loop_
_atom_site_type_symbol
_atom_site_label
_atom_site_fract_x
_atom_site_fract_y
_atom_site_fract_z
Si Si1 0.005710 0.842589 0.821473
Si Si2 0.618110 0.342967 0.554493
Si Si3 0.945507 0.657033 0.881889
Si Si4 0.241336 0.842403 0.929705
Si Si5 0.570281 0.157596 0.258653
Si Si6 0.678517 0.842590 0.494282
Si Si7 0.631264 0.346829 0.203886
Si Si8 0.703887 0.346829 0.131268
O O1 0.026268 0.750472 0.902568
O O2 0.850131 0.817524 0.649860
O O3 0.126212 0.795870 0.879194
O O4 0.026631 0.000000 0.860298
O O5 0.500000 0.296671 0.500000
O O6 0.595655 0.500000 0.513804
O O7 0.774015 0.319178 0.725984
O O8 0.597427 0.249529 0.473728
O O9 0.986194 0.500000 0.904344
O O10 0.000000 0.703328 0.000000
O O11 0.209889 0.756865 0.837047
O O12 0.221345 0.000000 0.893414
O O13 0.399787 0.812726 0.100200
O O14 0.620791 0.204131 0.373776
O O15 0.662944 0.243132 0.290105
O O16 0.606573 0.000000 0.278644
O O17 0.639694 0.000000 0.473364
O O18 0.673614 0.500000 0.263426
O O19 0.723469 0.304949 0.223471
O O20 0.463867 0.340558 0.036130
O O21 0.763426 0.500000 0.173619
#
# Coordination Sequence:
#
# PCOD8067973 Si02
#       8
#     4   4   4   4   4   4   4   4
#     4   9  18  32  47  63  87 118 146 172 209 257
#     4   9  18  32  48  66  88 113 142 176 213 253
#     4   9  18  32  48  66  88 113 142 176 213 253
#     4   9  17  28  43  65  89 111 141 181 217 249
#     4   9  17  28  43  65  89 111 141 181 217 249
#     4   9  18  32  47  63  87 118 146 172 209 257
#     4   8  14  25  41  62  88 115 142 175 216 258
#     4   8  14  25  41  62  88 115 142 175 216 258
#
# _framework density 16.923549000000001
#
# number of rings (size 3 to 8) (size 9 to 14) (size 15 to 20)
#    0.000    3.250    0.000    0.750    0.000    3.000 
#    0.000    2.500    0.000    0.750    0.000    5.250 
#    0.000    0.000    0.000    0.000    0.000    0.000 
#
# Total GULP energy -396755.630960 kJ/mol
# GULP energy per Si atom -12398.613468 kJ/mol
# Density = 1.688503 g / cm^3
# Si number density = 16.923549 Si / 1000 Ang^3
#
#
#
# Elastic Constant Matrix: (Units=GPa)
#
#
# Indices 1 2 3 4 5 6 
#
# 1 175.2486 96.9236 56.2464 0.0000 -20.1808 0.0000
# 2 96.9236 90.1527 38.5581 0.0000 -16.8480 0.0000
# 3 56.2464 38.5581 45.0324 0.0000 -17.4063 0.0000
# 4 0.0000 0.0000 0.0000 17.7376 0.0000 -6.3773
# 5 -20.1808 -16.8480 -17.4063 0.0000 25.3426 0.0000
# 6 0.0000 0.0000 0.0000 -6.3773 0.0000 39.8283
#
#
#
# Elastic Compliance Matrix: (Units=1/GPa)
#
#
# Indices 1 2 3 4 5 6 
#
# 1 0.015918 -0.013679 -0.009238 0.000000 -0.002763 0.000000
# 2 -0.013679 0.029319 -0.006391 0.000000 0.004209 0.000000
# 3 -0.009238 -0.006391 0.047284 0.000000 0.020872 0.000000
# 4 0.000000 0.000000 0.000000 0.059821 0.000000 0.009579
# 5 -0.002763 0.004209 0.020872 0.000000 0.054393 0.000000
# 6 0.000000 0.000000 0.000000 0.009579 0.000000 0.026642
#
#
# Mechanical properties :
#
#
# Convention : Reuss Voigt Hill
#
# Bulk Modulus (GPa) = 29.49413 77.09889 53.29651
# Shear Modulus (GPa) = 16.48553 24.49539 20.49046
#
# Velocity S-wave (km/s) = 3.12447 3.80862 3.48338
# Velocity P-wave (km/s) = 5.52106 8.06206 6.90938
#
# Compressibility (1/GPa) = 0.03390506
#
# Stress axis : x y z
#
# Youngs Moduli (GPa) = 62.82016 34.10739 21.14865
#
# Poissons Ratio (x) = 0.46657 0.19537
# Poissons Ratio (y) = 0.85934 0.13517
# Poissons Ratio (z) = 0.58031 0.21799
#
# Static dielectric constant tensor:
#      x y z
#    x 3.342410 0.000000 -0.120080 
#    y 0.000000 3.257540 0.000000 
#    z -0.120080 0.000000 2.926400 
# 
# 
# High freq. dielectric constant tensor:
#      x y z
#    x 1.655830 0.000000 -0.009390 
#    y 0.000000 1.653350 0.000000 
#    z -0.009390 0.000000 1.623300 
# 
# From -- ./inp_files/86140.got.cif
#   From: 2010.06.25/outbox.cif.g09.slc.cpg/sg10_44_cif.got.tgz:86140.got - 2010.06.27 22:07:45.
