data_PCOD8067310
_publ_section_title
;
Structure prediction by ZEFSAII (Michael W. Deem and Ramdas Pophale) SiO2 
 PCOD8067310
Probable space group: P 2/M
;
_chemical_formula_sum "Si O2"
_cell_formula_units_Z 28
_cell_length_a 15.029019
_cell_length_b 8.792908
_cell_length_c 11.814679
_cell_angle_alpha 90.000000
_cell_angle_beta 61.258004
_cell_angle_gamma 90.000000
_cell_volume 1368.934373
_symmetry_space_group_name_H-M "P 2/M"
_symmetry_group_IT_number 10
_symmetry_cell_setting 'monoclinic'
loop_
_space_group_symop_operation_xyz
x,y,z
-x,y,-z
-x,-y,-z
x,-y,z
loop_
_atom_site_type_symbol
_atom_site_label
_atom_site_fract_x
_atom_site_fract_y
_atom_site_fract_z
Si Si1 0.617714 0.675239 0.426080
Si Si2 0.683626 0.675225 0.132350
Si Si3 0.185397 0.820293 0.117510
Si Si4 0.296390 0.676439 0.246724
Si Si5 0.997577 0.824394 0.374262
Si Si6 0.504422 0.170173 0.864161
Si Si7 0.226175 0.825076 0.501430
O O1 0.500000 0.732115 0.500000
O O2 0.620013 0.500000 0.463258
O O3 0.672607 0.698061 0.272697
O O4 0.685398 0.772101 0.469699
O O5 0.670518 0.500000 0.106680
O O6 0.599191 0.775660 0.125214
O O7 0.791448 0.738323 0.017656
O O8 0.276773 0.775344 0.146359
O O9 0.081618 0.753948 0.237185
O O10 0.182573 0.000000 0.098820
O O11 0.286619 0.500000 0.223281
O O12 0.406909 0.716449 0.230190
O O13 0.219249 0.725481 0.391769
O O14 0.888037 0.804408 0.379872
O O15 0.000000 0.751810 0.500000
O O16 0.027778 0.000000 0.369731
O O17 0.527468 0.000000 0.806630
O O18 0.500000 0.176722 0.000000
O O19 0.246594 0.000000 0.457375
#
# Coordination Sequence:
#
# PCOD8067310 Si02
#       7
#     4   4   4   4   4   4   4
#     4  10  23  44  65  87 120 163 205 248 304 367
#     4  11  23  39  60  87 123 161 199 251 312 366
#     4  11  21  37  60  86 120 159 201 248 299 360
#     4  12  23  35  55  86 124 159 195 243 305 367
#     4   9  18  36  61  89 123 159 200 252 307 356
#     4  11  22  35  55  84 117 154 198 246 296 357
#     4  11  22  39  65  92 118 156 207 257 304 356
#
# _framework density 20.453866000000001
#
# number of rings (size 3 to 8) (size 9 to 14) (size 15 to 20)
#    0.000    1.286    2.857    3.857    0.000    3.143 
#    0.000    4.286    0.000    4.286    0.000    0.000 
#    0.000    0.000    0.000    0.000    0.000    0.000 
#
# Total GULP energy -347116.453956 kJ/mol
# GULP energy per Si atom -12397.016213 kJ/mol
# Density = 2.040731 g / cm^3
# Si number density = 20.453866 Si / 1000 Ang^3
#
#
#
# Elastic Constant Matrix: (Units=GPa)
#
#
# Indices 1 2 3 4 5 6 
#
# 1 78.5084 19.5331 21.8341 0.0000 -12.8344 0.0000
# 2 19.5331 79.9969 25.7443 0.0000 -0.1703 0.0000
# 3 21.8341 25.7443 111.5484 0.0000 -18.9060 0.0000
# 4 0.0000 0.0000 0.0000 33.3146 0.0000 -4.4156
# 5 -12.8344 -0.1703 -18.9060 0.0000 31.3865 0.0000
# 6 0.0000 0.0000 0.0000 -4.4156 0.0000 14.5850
#
#
#
# Elastic Compliance Matrix: (Units=1/GPa)
#
#
# Indices 1 2 3 4 5 6 
#
# 1 0.014738 -0.003182 -0.001261 0.000000 0.005250 0.000000
# 2 -0.003182 0.014305 -0.003214 0.000000 -0.003160 0.000000
# 3 -0.001261 -0.003214 0.010984 0.000000 0.006084 0.000000
# 4 0.000000 0.000000 0.000000 0.031272 0.000000 0.009467
# 5 0.005250 -0.003160 0.006084 0.000000 0.037655 0.000000
# 6 0.000000 0.000000 0.000000 0.009467 0.000000 0.071430
#
#
# Mechanical properties :
#
#
# Convention : Reuss Voigt Hill
#
# Bulk Modulus (GPa) = 40.46254 44.91965 42.69110
# Shear Modulus (GPa) = 24.51761 29.38670 26.95215
#
# Velocity S-wave (km/s) = 3.46595 3.79454 3.63396
# Velocity P-wave (km/s) = 5.98685 6.41928 6.20683
#
# Compressibility (1/GPa) = 0.02471422
#
# Stress axis : x y z
#
# Youngs Moduli (GPa) = 67.85196 69.90547 91.03845
#
# Poissons Ratio (x) = 0.22242 0.11477
# Poissons Ratio (y) = 0.21589 0.29261
# Poissons Ratio (z) = 0.08554 0.22469
#
# Static dielectric constant tensor:
#      x y z
#    x 4.342950 0.000000 0.140680 
#    y 0.000000 3.605710 0.000000 
#    z 0.140680 0.000000 4.358830 
# 
# 
# High freq. dielectric constant tensor:
#      x y z
#    x 1.780500 0.000000 -0.020160 
#    y 0.000000 1.788680 0.000000 
#    z -0.020160 0.000000 1.809590 
# 
# From -- ./inp_files/49633.got.cif
#   From: 2010.06.25/outbox.cif.g09.slc.cpg/sg10_25_cif.got.tgz:49633.got - 2010.06.27 22:07:45.
