data_PCOD8067155
_publ_section_title
;
Structure prediction by ZEFSAII (Michael W. Deem and Ramdas Pophale) SiO2 
 PCOD8067155
Probable space group: P 2/M
;
_chemical_formula_sum "Si O2"
_cell_formula_units_Z 20
_cell_length_a 26.335043
_cell_length_b 9.110304
_cell_length_c 15.988345
_cell_angle_alpha 90.000000
_cell_angle_beta 164.044827
_cell_angle_gamma 90.000000
_cell_volume 1054.439754
_symmetry_space_group_name_H-M "P 2/M"
_symmetry_group_IT_number 10
_symmetry_cell_setting 'monoclinic'
loop_
_space_group_symop_operation_xyz
x,y,z
-x,y,-z
-x,-y,-z
x,-y,z
loop_
_atom_site_type_symbol
_atom_site_label
_atom_site_fract_x
_atom_site_fract_y
_atom_site_fract_z
Si Si1 0.161925 0.165123 0.516679
Si Si2 0.238799 0.670068 0.485984
Si Si3 0.111193 0.833939 0.052295
Si Si4 0.179874 0.173447 0.734213
Si Si5 0.451537 0.670917 0.659281
O O1 0.292586 0.265175 0.663065
O O2 0.155842 0.227550 0.600649
O O3 0.242186 0.000000 0.643157
O O4 0.952875 0.166685 0.147113
O O5 0.190437 0.500000 0.418402
O O6 0.402356 0.697919 0.679073
O O7 0.056043 0.754315 0.161642
O O8 0.300373 0.744972 0.360086
O O9 0.137451 0.000000 0.127190
O O10 0.000000 0.222722 0.500000
O O11 0.211222 0.000000 0.789588
O O12 0.353036 0.254644 0.050036
O O13 0.460546 0.500000 0.651611
#
# Coordination Sequence:
#
# PCOD8067155 Si02
#       5
#     4   4   4   4   4
#     4   8  18  35  55  80 108 139 177 220 268 316
#     4   9  18  32  53  81 115 145 172 211 264 322
#     4   9  18  33  55  83 112 142 175 216 265 317
#     4  10  22  41  60  76 101 141 187 230 269 312
#     4  11  22  34  53  83 114 144 178 215 264 323
#
# _framework density 18.967419
#
# number of rings (size 3 to 8) (size 9 to 14) (size 15 to 20)
#    1.200    1.400    0.000    1.800    0.000    7.600 
#    0.000    5.000    0.000    6.000    0.000    0.000 
#    0.000    0.000    0.000    0.000    0.000    0.000 
#
# Total GULP energy -247844.469370 kJ/mol
# GULP energy per Si atom -12392.223469 kJ/mol
# Density = 1.892425 g / cm^3
# Si number density = 18.967419 Si / 1000 Ang^3
#
#
#
# Elastic Constant Matrix: (Units=GPa)
#
#
# Indices 1 2 3 4 5 6 
#
# 1 27.6054 17.2198 20.1921 0.0000 0.2091 0.0000
# 2 17.2198 90.8636 40.8582 0.0000 12.8811 0.0000
# 3 20.1921 40.8582 83.9904 0.0000 28.9265 0.0000
# 4 0.0000 0.0000 0.0000 26.5447 0.0000 5.2762
# 5 0.2091 12.8811 28.9265 0.0000 18.8780 0.0000
# 6 0.0000 0.0000 0.0000 5.2762 0.0000 17.1880
#
#
#
# Elastic Compliance Matrix: (Units=1/GPa)
#
#
# Indices 1 2 3 4 5 6 
#
# 1 0.058644 -0.005379 -0.026515 0.000000 0.043649 0.000000
# 2 -0.005379 0.014612 -0.005086 0.000000 -0.002118 0.000000
# 3 -0.026515 -0.005086 0.041201 0.000000 -0.059368 0.000000
# 4 0.000000 0.000000 0.000000 0.040120 0.000000 -0.012316
# 5 0.043649 -0.002118 -0.059368 0.000000 0.144902 0.000000
# 6 0.000000 0.000000 0.000000 -0.012316 0.000000 0.061961
#
#
# Mechanical properties :
#
#
# Convention : Reuss Voigt Hill
#
# Bulk Modulus (GPa) = 24.69231 39.88886 32.29059
# Shear Modulus (GPa) = 11.13840 20.80142 15.96991
#
# Velocity S-wave (km/s) = 2.42593 3.31523 2.90481
# Velocity P-wave (km/s) = 4.57093 5.97747 5.32088
#
# Compressibility (1/GPa) = 0.04049845
#
# Stress axis : x y z
#
# Youngs Moduli (GPa) = 17.05210 68.43724 24.27132
#
# Poissons Ratio (x) = 0.36811 0.64355
# Poissons Ratio (y) = 0.09172 0.12343
# Poissons Ratio (z) = 0.45213 0.34804
#
# Static dielectric constant tensor:
#      x y z
#    x 3.255930 0.000000 -0.099820 
#    y 0.000000 3.445940 0.000000 
#    z -0.099820 0.000000 3.231780 
# 
# 
# High freq. dielectric constant tensor:
#      x y z
#    x 1.707760 0.000000 -0.015650 
#    y 0.000000 1.742430 0.000000 
#    z -0.015650 0.000000 1.726030 
# 
# From -- ./inp_files/58059.got.cif
#   From: 2010.06.25/outbox.cif.g09.slc.cpg/sg10_30_cif.got.tgz:58059.got - 2010.06.27 22:07:45.
