data_PCOD8067810
_publ_section_title
;
Structure prediction by ZEFSAII (Michael W. Deem and Ramdas Pophale) SiO2 
 PCOD8067810
Probable space group: P 2/M
;
_chemical_formula_sum "Si O2"
_cell_formula_units_Z 24
_cell_length_a 25.098825
_cell_length_b 7.875254
_cell_length_c 19.284614
_cell_angle_alpha 90.000000
_cell_angle_beta 160.445523
_cell_angle_gamma 90.000000
_cell_volume 1275.817289
_symmetry_space_group_name_H-M "P 2/M"
_symmetry_group_IT_number 10
_symmetry_cell_setting 'monoclinic'
loop_
_space_group_symop_operation_xyz
x,y,z
-x,y,-z
-x,-y,-z
x,-y,z
loop_
_atom_site_type_symbol
_atom_site_label
_atom_site_fract_x
_atom_site_fract_y
_atom_site_fract_z
Si Si1 0.745829 0.500000 0.160587
Si Si2 0.972467 0.809161 0.278272
Si Si3 0.156008 0.693170 0.154686
Si Si4 0.465878 0.197326 0.603040
Si Si5 0.223475 0.805985 0.086203
Si Si6 0.922859 0.500000 0.514346
Si Si7 0.645233 0.187108 0.959679
O O1 0.778878 0.500000 0.283067
O O2 0.643674 0.331719 0.016787
O O3 0.908816 0.500000 0.317830
O O4 0.093380 0.671212 0.459224
O O5 0.813491 0.815394 0.128221
O O6 0.049548 0.000000 0.371232
O O7 0.923560 0.739237 0.141380
O O8 0.122137 0.500000 0.092371
O O9 0.304163 0.703658 0.388388
O O10 0.189868 0.792780 0.125766
O O11 0.000000 0.772276 0.000000
O O12 0.606546 0.276341 0.726768
O O13 0.436535 0.000000 0.550457
O O14 0.508082 0.227563 0.735290
O O15 0.241248 0.000000 0.084991
O O16 0.615176 0.000000 0.956168
#
# Coordination Sequence:
#
# PCOD8067810 Si02
#       7
#     2   4   4   4   4   2   4
#     4   9  16  24  38  63  93 126 158 187 233 291
#     4   8  15  27  42  63  91 121 157 199 235 277
#     4  11  24  35  44  68 102 129 158 199 246 294
#     4   9  18  33  52  71  91 123 168 207 239 283
#     4   9  18  33  52  71  91 123 168 207 239 283
#     4   9  16  24  38  63  93 126 158 187 233 291
#     4   8  15  27  42  63  91 121 157 199 235 277
#
# _framework density 18.81147
#
# number of rings (size 3 to 8) (size 9 to 14) (size 15 to 20)
#    0.000    3.000    0.000    3.000    2.333    4.667 
#    0.000    3.333    0.000    0.000    0.000    0.000 
#    0.000    2.667    0.000    7.333    0.000    7.333 
#
# Total GULP energy -297441.956464 kJ/mol
# GULP energy per Si atom -12393.414853 kJ/mol
# Density = 1.876865 g / cm^3
# Si number density = 18.811470 Si / 1000 Ang^3
#
#
#
# Elastic Constant Matrix: (Units=GPa)
#
#
# Indices 1 2 3 4 5 6 
#
# 1 47.4534 30.9412 65.3071 0.0000 -14.4615 0.0000
# 2 30.9412 95.3026 47.9042 0.0000 -21.3702 0.0000
# 3 65.3071 47.9042 95.8143 0.0000 -28.1802 0.0000
# 4 0.0000 0.0000 0.0000 24.1972 0.0000 -11.7372
# 5 -14.4615 -21.3702 -28.1802 0.0000 29.9361 0.0000
# 6 0.0000 0.0000 0.0000 -11.7372 0.0000 20.3809
#
#
#
# Elastic Compliance Matrix: (Units=1/GPa)
#
#
# Indices 1 2 3 4 5 6 
#
# 1 0.526531 0.000872 -0.393185 0.000000 -0.115144 0.000000
# 2 0.000872 0.014515 -0.006472 0.000000 0.004691 0.000000
# 3 -0.393185 -0.006472 0.310377 0.000000 0.097612 0.000000
# 4 0.000000 0.000000 0.000000 0.057347 0.000000 0.033026
# 5 -0.115144 0.004691 0.097612 0.000000 0.073016 0.000000
# 6 0.000000 0.000000 0.000000 0.033026 0.000000 0.068085
#
#
# Mechanical properties :
#
#
# Convention : Reuss Voigt Hill
#
# Bulk Modulus (GPa) = 18.56925 58.54170 38.55548
# Shear Modulus (GPa) = 2.68040 21.19736 11.93888
#
# Velocity S-wave (km/s) = 1.19498 3.36047 2.52198
# Velocity P-wave (km/s) = 3.43462 6.80035 5.38709
#
# Compressibility (1/GPa) = 0.05385246
#
# Stress axis : x y z
#
# Youngs Moduli (GPa) = 1.89922 68.89622 3.22189
#
# Poissons Ratio (x) = -0.06009 1.26680
# Poissons Ratio (y) = -0.00166 0.02085
# Poissons Ratio (z) = 0.74675 0.44588
#
# Static dielectric constant tensor:
#      x y z
#    x 3.051770 0.000000 -0.312520 
#    y 0.000000 3.604110 0.000000 
#    z -0.312520 0.000000 3.343950 
# 
# 
# High freq. dielectric constant tensor:
#      x y z
#    x 1.682680 0.000000 -0.036210 
#    y 0.000000 1.735110 0.000000 
#    z -0.036210 0.000000 1.707990 
# 
# From -- ./inp_files/33815.got.cif
#   From: 2010.06.25/outbox.cif.g09.slc.cpg/sg10_17_cif.got.tgz:33815.got - 2010.06.27 22:07:45.
