data_PCOD8067624
_publ_section_title
;
Structure prediction by ZEFSAII (Michael W. Deem and Ramdas Pophale) SiO2 
 PCOD8067624
Probable space group: P 2/M
;
_chemical_formula_sum "Si O2"
_cell_formula_units_Z 28
_cell_length_a 9.634653
_cell_length_b 31.536329
_cell_length_c 4.972810
_cell_angle_alpha 90.000000
_cell_angle_beta 120.839746
_cell_angle_gamma 90.000000
_cell_volume 1297.305428
_symmetry_space_group_name_H-M "P 2/M"
_symmetry_group_IT_number 10
_symmetry_cell_setting 'monoclinic'
loop_
_space_group_symop_operation_xyz
x,y,z
-x,y,-z
-x,-y,-z
x,-y,z
loop_
_atom_site_type_symbol
_atom_site_label
_atom_site_fract_x
_atom_site_fract_y
_atom_site_fract_z
Si Si1 0.611856 0.954181 0.363112
Si Si2 0.182933 0.548948 0.093988
Si Si3 0.815248 0.822543 0.897443
Si Si4 0.811351 0.685124 0.366901
Si Si5 0.688206 0.268024 0.745014
Si Si6 0.314120 0.867693 0.730472
Si Si7 0.682921 0.593736 0.276275
O O1 0.500000 0.939924 0.500000
O O2 0.734709 0.915445 0.418460
O O3 0.699058 0.000000 0.510977
O O4 0.500000 0.961676 0.000000
O O5 0.223503 0.500000 0.082973
O O6 0.304152 0.566433 0.440021
O O7 0.203047 0.574013 0.837535
O O8 0.000000 0.556134 0.000000
O O9 0.757882 0.776006 0.928651
O O10 0.706944 0.835733 0.536691
O O11 0.796670 0.854538 0.129003
O O12 0.000000 0.822735 0.000000
O O13 0.783218 0.720161 0.568117
O O14 0.740482 0.640986 0.402108
O O15 0.000000 0.681365 0.500000
O O16 0.716884 0.696868 0.001252
O O17 0.500000 0.264324 0.500000
O O18 0.500000 0.866507 0.000000
O O19 0.500000 0.593087 0.000000
#
# Coordination Sequence:
#
# PCOD8067624 Si02
#       7
#     4   4   4   4   4   4   4
#     4   9  17  31  55  88 120 151 196 254 306 354
#     4  11  24  43  66  93 127 167 209 254 308 368
#     4  12  25  41  60  87 124 163 201 246 307 369
#     4  12  25  44  67  93 126 163 203 250 308 368
#     4  12  25  44  66  92 122 158 206 256 305 359
#     4  11  21  38  62  89 118 156 205 254 301 356
#     4  12  25  42  65  95 128 164 207 255 306 361
#
# _framework density 21.583199
#
# number of rings (size 3 to 8) (size 9 to 14) (size 15 to 20)
#    0.000    0.714    0.000    9.857    0.000    2.857 
#    0.000    0.000    0.000    2.571    0.000    0.000 
#    0.000    0.000    0.000    0.000    0.000    0.000 
#
# Total GULP energy -347334.919707 kJ/mol
# GULP energy per Si atom -12404.818561 kJ/mol
# Density = 2.153407 g / cm^3
# Si number density = 21.583199 Si / 1000 Ang^3
#
#
#
# Elastic Constant Matrix: (Units=GPa)
#
#
# Indices 1 2 3 4 5 6 
#
# 1 70.8700 40.3679 22.7175 0.0000 -3.9048 0.0000
# 2 40.3679 119.4994 32.3586 0.0000 7.9409 0.0000
# 3 22.7175 32.3586 76.4722 0.0000 -19.2464 0.0000
# 4 0.0000 0.0000 0.0000 20.8020 0.0000 -1.9484
# 5 -3.9048 7.9409 -19.2464 0.0000 38.1229 0.0000
# 6 0.0000 0.0000 0.0000 -1.9484 0.0000 49.0564
#
#
#
# Elastic Compliance Matrix: (Units=1/GPa)
#
#
# Indices 1 2 3 4 5 6 
#
# 1 0.018210 -0.005550 -0.002636 0.000000 0.001691 0.000000
# 2 -0.005550 0.011892 -0.004754 0.000000 -0.005446 0.000000
# 3 -0.002636 -0.004754 0.018389 0.000000 0.010004 0.000000
# 4 0.000000 0.000000 0.000000 0.048252 0.000000 0.001916
# 5 0.001691 -0.005446 0.010004 0.000000 0.032589 0.000000
# 6 0.000000 0.000000 0.000000 0.001916 0.000000 0.020461
#
#
# Mechanical properties :
#
#
# Convention : Reuss Voigt Hill
#
# Bulk Modulus (GPa) = 44.22467 50.85885 47.54176
# Shear Modulus (GPa) = 27.29128 33.02279 30.15703
#
# Velocity S-wave (km/s) = 3.55979 3.91579 3.74203
# Velocity P-wave (km/s) = 6.11809 6.63776 6.38321
#
# Compressibility (1/GPa) = 0.02261181
#
# Stress axis : x y z
#
# Youngs Moduli (GPa) = 54.91589 84.08841 54.38046
#
# Poissons Ratio (x) = 0.46669 0.14332
# Poissons Ratio (y) = 0.30479 0.25852
# Poissons Ratio (z) = 0.14473 0.39975
#
# Static dielectric constant tensor:
#      x y z
#    x 3.590830 0.000000 0.099920 
#    y 0.000000 4.424230 0.000000 
#    z 0.099920 0.000000 3.590790 
# 
# 
# High freq. dielectric constant tensor:
#      x y z
#    x 1.843250 0.000000 -0.018430 
#    y 0.000000 1.866630 0.000000 
#    z -0.018430 0.000000 1.852780 
# 
# From -- ./inp_files/5552.got.cif
#   From: 2010.06.25/outbox.cif.g09.slc.cpg/sg10_3_cif.got.tgz:5552.got - 2010.06.27 22:07:45.
