data_PCOD8067334
_publ_section_title
;
Structure prediction by ZEFSAII (Michael W. Deem and Ramdas Pophale) SiO2 
 PCOD8067334
Probable space group: P 2/M
;
_chemical_formula_sum "Si O2"
_cell_formula_units_Z 26
_cell_length_a 17.824991
_cell_length_b 10.396804
_cell_length_c 9.252874
_cell_angle_alpha 90.000000
_cell_angle_beta 53.778262
_cell_angle_gamma 90.000000
_cell_volume 1383.366829
_symmetry_space_group_name_H-M "P 2/M"
_symmetry_group_IT_number 10
_symmetry_cell_setting 'monoclinic'
loop_
_space_group_symop_operation_xyz
x,y,z
-x,y,-z
-x,-y,-z
x,-y,z
loop_
_atom_site_type_symbol
_atom_site_label
_atom_site_fract_x
_atom_site_fract_y
_atom_site_fract_z
Si Si1 0.742168 0.744968 0.590247
Si Si2 0.500000 0.203513 0.500000
Si Si3 0.103738 0.347383 0.397553
Si Si4 0.645629 0.000000 0.795692
Si Si5 0.683279 0.348081 0.366401
Si Si6 0.259735 0.650928 0.007653
Si Si7 0.594318 0.642905 0.945644
Si Si8 0.472552 0.000000 0.779784
O O1 0.847661 0.711896 0.515689
O O2 0.736684 0.736932 0.424293
O O3 0.711501 0.878709 0.695321
O O4 0.669401 0.637616 0.731112
O O5 0.579394 0.298761 0.465500
O O6 0.466787 0.121425 0.677047
O O7 0.099624 0.500000 0.418024
O O8 0.000000 0.290569 0.500000
O O9 0.164471 0.301275 0.190067
O O10 0.568378 0.000000 0.758765
O O11 0.608035 0.000000 0.004686
O O12 0.683059 0.500000 0.400518
O O13 0.743390 0.315258 0.155922
O O14 0.268984 0.500000 0.026076
O O15 0.353236 0.710705 0.977889
O O16 0.561488 0.500000 0.025871
O O17 0.500000 0.719636 0.000000
#
# Coordination Sequence:
#
# PCOD8067334 Si02
#       8
#     4   2   4   2   4   4   4   2
#     4  11  22  36  55  80 112 151 192 239 281 333
#     4  11  23  38  56  80 115 161 198 236 272 337
#     4   9  18  37  64  89 112 140 182 240 303 358
#     4  11  24  40  57  78 107 158 210 248 269 315
#     4  11  22  34  53  84 122 154 185 232 289 349
#     4   8  17  31  48  77 113 144 177 218 276 344
#     4   9  18  30  48  74 106 142 182 227 279 332
#     4  10  24  42  56  76 110 161 213 239 272 314
#
# _framework density 18.794726000000001
#
# number of rings (size 3 to 8) (size 9 to 14) (size 15 to 20)
#    0.000    2.154    1.538    2.538    8.615    0.000 
#    0.000    1.154    0.000    3.692    0.000    1.077 
#    0.000    0.000    0.000    0.000    0.000    0.000 
#
# Total GULP energy -322144.163568 kJ/mol
# GULP energy per Si atom -12390.160137 kJ/mol
# Density = 1.875195 g / cm^3
# Si number density = 18.794726 Si / 1000 Ang^3
#
#
#
# Elastic Constant Matrix: (Units=GPa)
#
#
# Indices 1 2 3 4 5 6 
#
# 1 158.7565 27.9252 78.7777 0.0000 -8.5486 0.0000
# 2 27.9252 59.0679 32.2825 0.0000 2.0209 0.0000
# 3 78.7777 32.2825 110.6908 0.0000 15.3019 0.0000
# 4 0.0000 0.0000 0.0000 19.0818 0.0000 0.3000
# 5 -8.5486 2.0209 15.3019 0.0000 37.0464 0.0000
# 6 0.0000 0.0000 0.0000 0.3000 0.0000 13.4775
#
#
#
# Elastic Compliance Matrix: (Units=1/GPa)
#
#
# Indices 1 2 3 4 5 6 
#
# 1 0.010916 -0.000792 -0.008370 0.000000 0.006019 0.000000
# 2 -0.000792 0.020267 -0.005482 0.000000 0.000976 0.000000
# 3 -0.008370 -0.005482 0.017833 0.000000 -0.008998 0.000000
# 4 0.000000 0.000000 0.000000 0.052424 0.000000 -0.001167
# 5 0.006019 0.000976 -0.008998 0.000000 0.032046 0.000000
# 6 0.000000 0.000000 0.000000 -0.001167 0.000000 0.074224
#
#
# Mechanical properties :
#
#
# Convention : Reuss Voigt Hill
#
# Bulk Modulus (GPa) = 50.68786 67.38736 59.03761
# Shear Modulus (GPa) = 20.52777 26.55645 23.54211
#
# Velocity S-wave (km/s) = 3.30844 3.76303 3.54304
# Velocity P-wave (km/s) = 6.45152 7.40357 6.94388
#
# Compressibility (1/GPa) = 0.01972859
#
# Stress axis : x y z
#
# Youngs Moduli (GPa) = 91.61279 49.34182 56.07474
#
# Poissons Ratio (x) = 0.03909 0.46932
# Poissons Ratio (y) = 0.07258 0.30739
# Poissons Ratio (z) = 0.76675 0.27048
#
# Static dielectric constant tensor:
#      x y z
#    x 3.502870 0.000000 0.140140 
#    y 0.000000 3.302250 0.000000 
#    z 0.140140 0.000000 3.548750 
# 
# 
# High freq. dielectric constant tensor:
#      x y z
#    x 1.720740 0.000000 0.020170 
#    y 0.000000 1.710640 0.000000 
#    z 0.020170 0.000000 1.720690 
# 
# From -- ./inp_files/28172.got.cif
#   From: 2010.06.25/outbox.cif.g09.slc.cpg/sg10_15_cif.got.tgz:28172.got - 2010.06.27 22:07:45.
