data_PCOD8067960
_publ_section_title
;
Structure prediction by ZEFSAII (Michael W. Deem and Ramdas Pophale) SiO2 
 PCOD8067960
Probable space group: P 2/M
;
_chemical_formula_sum "Si O2"
_cell_formula_units_Z 32
_cell_length_a 23.853952
_cell_length_b 9.908355
_cell_length_c 7.927382
_cell_angle_alpha 90.000000
_cell_angle_beta 109.402152
_cell_angle_gamma 90.000000
_cell_volume 1767.258852
_symmetry_space_group_name_H-M "P 2/M"
_symmetry_group_IT_number 10
_symmetry_cell_setting 'monoclinic'
loop_
_space_group_symop_operation_xyz
x,y,z
-x,y,-z
-x,-y,-z
x,-y,z
loop_
_atom_site_type_symbol
_atom_site_label
_atom_site_fract_x
_atom_site_fract_y
_atom_site_fract_z
Si Si1 0.625758 0.650207 0.429799
Si Si2 0.276488 0.850385 0.475549
Si Si3 0.723435 0.149615 0.922717
Si Si4 0.067250 0.838933 0.567066
Si Si5 0.856179 0.160602 0.044401
Si Si6 0.374319 0.349795 0.178430
Si Si7 0.143757 0.160602 0.331445
Si Si8 0.499963 0.340553 0.808868
O O1 0.630048 0.500000 0.351310
O O2 0.675170 0.748088 0.395733
O O3 0.638925 0.637682 0.638908
O O4 0.560236 0.714843 0.337224
O O5 0.285387 0.860941 0.285287
O O6 0.210443 0.794475 0.449102
O O7 0.285361 0.000000 0.563636
O O8 0.789470 0.205499 0.028516
O O9 0.675060 0.251927 0.954572
O O10 0.714523 0.000000 0.992993
O O11 0.098985 0.782814 0.429147
O O12 0.000000 0.784991 0.500000
O O13 0.069334 0.000000 0.569171
O O14 0.099096 0.782770 0.768348
O O15 0.873304 0.215855 0.873585
O O16 0.858345 0.000000 0.040836
O O17 0.370062 0.500000 0.091378
O O18 0.439859 0.285192 0.217053
O O19 0.141619 0.000000 0.323546
O O20 0.499944 0.500000 0.787059
O O21 0.500000 0.292098 0.000000
#
# Coordination Sequence:
#
# PCOD8067960 Si02
#       8
#     4   4   4   4   4   4   4   4
#     4   9  16  27  45  65  81 102 138 179 212 247
#     4   8  14  26  43  61  83 111 139 168 210 260
#     4   8  14  26  43  61  83 111 139 168 210 260
#     4   9  16  24  36  58  85 112 145 178 208 251
#     4   8  14  25  39  55  80 113 143 173 213 258
#     4   9  16  27  45  65  81 102 138 179 212 247
#     4   8  14  25  39  55  80 113 143 173 213 258
#     4   9  17  29  42  57  82 112 136 165 212 262
#
# _framework density 18.107137000000002
#
# number of rings (size 3 to 8) (size 9 to 14) (size 15 to 20)
#    0.000    3.500    0.000    1.875    0.000    2.000 
#    2.250    3.125    0.000    3.750    0.000    0.000 
#    0.000    2.000    0.000    9.750    0.000   10.000 
#
# Total GULP energy -396481.659465 kJ/mol
# GULP energy per Si atom -12390.051858 kJ/mol
# Density = 1.806592 g / cm^3
# Si number density = 18.107137 Si / 1000 Ang^3
#
#
#
# Elastic Constant Matrix: (Units=GPa)
#
#
# Indices 1 2 3 4 5 6 
#
# 1 140.6581 41.9676 68.3965 0.0000 28.7749 0.0000
# 2 41.9676 39.2394 24.1875 0.0000 13.3407 0.0000
# 3 68.3965 24.1875 83.3339 0.0000 14.5031 0.0000
# 4 0.0000 0.0000 0.0000 6.2165 0.0000 1.8483
# 5 28.7749 13.3407 14.5031 0.0000 27.6857 0.0000
# 6 0.0000 0.0000 0.0000 1.8483 0.0000 8.6889
#
#
#
# Elastic Compliance Matrix: (Units=1/GPa)
#
#
# Indices 1 2 3 4 5 6 
#
# 1 0.015538 -0.008597 -0.008987 0.000000 -0.007299 0.000000
# 2 -0.008597 0.039352 -0.002884 0.000000 -0.008517 0.000000
# 3 -0.008987 -0.002884 0.020186 0.000000 0.000156 0.000000
# 4 0.000000 0.000000 0.000000 0.171722 0.000000 -0.036529
# 5 -0.007299 -0.008517 0.000156 0.000000 0.047728 0.000000
# 6 0.000000 0.000000 0.000000 -0.036529 0.000000 0.122860
#
#
# Mechanical properties :
#
#
# Convention : Reuss Voigt Hill
#
# Bulk Modulus (GPa) = 29.29087 59.14830 44.21959
# Shear Modulus (GPa) = 10.64506 17.09687 13.87096
#
# Velocity S-wave (km/s) = 2.42728 3.07613 2.77076
# Velocity P-wave (km/s) = 4.90583 6.73449 5.89154
#
# Compressibility (1/GPa) = 0.03414033
#
# Stress axis : x y z
#
# Youngs Moduli (GPa) = 64.36005 25.41150 49.53925
#
# Poissons Ratio (x) = 0.21846 0.44521
# Poissons Ratio (y) = 0.55329 0.14286
# Poissons Ratio (z) = 0.57841 0.07328
#
# Static dielectric constant tensor:
#      x y z
#    x 3.544230 0.000000 0.136170 
#    y 0.000000 3.162560 0.000000 
#    z 0.136170 0.000000 3.361240 
# 
# 
# High freq. dielectric constant tensor:
#      x y z
#    x 1.703870 0.000000 0.008840 
#    y 0.000000 1.631380 0.000000 
#    z 0.008840 0.000000 1.691990 
# 
# From -- ./inp_files/34630.got.cif
#   From: 2010.06.25/outbox.cif.g09.slc.cpg/sg10_18_cif.got.tgz:34630.got - 2010.06.27 22:07:45.
