data_PCOD8067862
_publ_section_title
;
Structure prediction by ZEFSAII (Michael W. Deem and Ramdas Pophale) SiO2 
 PCOD8067862
Probable space group: P 2/M
;
_chemical_formula_sum "Si O2"
_cell_formula_units_Z 32
_cell_length_a 15.503790
_cell_length_b 9.104786
_cell_length_c 15.503793
_cell_angle_alpha 90.000000
_cell_angle_beta 55.323189
_cell_angle_gamma 90.000000
_cell_volume 1799.762300
_symmetry_space_group_name_H-M "P 2/M"
_symmetry_group_IT_number 10
_symmetry_cell_setting 'monoclinic'
loop_
_space_group_symop_operation_xyz
x,y,z
-x,y,-z
-x,-y,-z
x,-y,z
loop_
_atom_site_type_symbol
_atom_site_label
_atom_site_fract_x
_atom_site_fract_y
_atom_site_fract_z
Si Si1 0.357964 0.326745 0.414323
Si Si2 0.324276 0.832856 0.608822
Si Si3 0.085677 0.673255 0.142036
Si Si4 0.434127 0.171044 0.723626
Si Si5 0.891179 0.167144 0.175724
Si Si6 0.162853 0.168634 0.449623
Si Si7 0.050377 0.831366 0.337147
Si Si8 0.776374 0.828956 0.065873
O O1 0.361156 0.500000 0.409268
O O2 0.350528 0.276074 0.517096
O O3 0.463644 0.264381 0.310897
O O4 0.259936 0.272111 0.414774
O O5 0.399834 0.794738 0.645269
O O6 0.203858 0.811944 0.703858
O O7 0.343597 0.000000 0.567092
O O8 0.090732 0.500000 0.138845
O O9 0.085226 0.727889 0.240064
O O10 0.982904 0.723926 0.149472
O O11 0.189104 0.735619 0.036356
O O12 0.341337 0.217659 0.841337
O O13 0.459626 0.000000 0.719652
O O14 0.854731 0.205261 0.100166
O O15 0.932909 0.000000 0.156403
O O16 0.132080 0.191909 0.367920
O O17 0.065972 0.212692 0.565972
O O18 0.194176 0.000000 0.449114
O O19 0.050886 0.000000 0.305824
O O20 0.780348 0.000000 0.040374
#
# Coordination Sequence:
#
# PCOD8067862 Si02
#       8
#     4   4   4   4   4   4   4   4
#     4  12  23  31  47  77 109 138 164 198 253 312
#     4   9  18  33  52  73  99 134 176 216 248 285
#     4  12  23  31  47  77 109 138 164 198 253 312
#     4   9  19  36  55  72  94 132 180 221 251 283
#     4   9  18  33  52  73  99 134 176 216 248 285
#     4   9  19  37  59  79  99 128 168 210 248 290
#     4   9  19  37  59  79  99 128 168 210 248 290
#     4   9  19  36  55  72  94 132 180 221 251 283
#
# _framework density 17.780127
#
# number of rings (size 3 to 8) (size 9 to 14) (size 15 to 20)
#    0.000    2.250    0.000    6.000    0.000    9.000 
#    0.000    3.750    0.000    0.750    0.000    5.250 
#    0.000    0.000    0.000    0.000    0.000    0.000 
#
# Total GULP energy -396875.361923 kJ/mol
# GULP energy per Si atom -12402.355060 kJ/mol
# Density = 1.773966 g / cm^3
# Si number density = 17.780127 Si / 1000 Ang^3
#
#
#
# Elastic Constant Matrix: (Units=GPa)
#
#
# Indices 1 2 3 4 5 6 
#
# 1 94.7723 59.9468 52.6169 0.0000 -16.5547 0.0000
# 2 59.9468 116.4519 68.3987 0.0000 -7.3192 0.0000
# 3 52.6169 68.3987 115.3846 0.0000 -1.2958 0.0000
# 4 0.0000 0.0000 0.0000 1.6048 0.0000 0.6899
# 5 -16.5547 -7.3192 -1.2958 0.0000 17.4208 0.0000
# 6 0.0000 0.0000 0.0000 0.6899 0.0000 2.4009
#
#
#
# Elastic Compliance Matrix: (Units=1/GPa)
#
#
# Indices 1 2 3 4 5 6 
#
# 1 0.020370 -0.006310 -0.005366 0.000000 0.016307 0.000000
# 2 -0.006310 0.015571 -0.006352 0.000000 0.000074 0.000000
# 3 -0.005366 -0.006352 0.014804 0.000000 -0.006667 0.000000
# 4 0.000000 0.000000 0.000000 0.710963 0.000000 -0.204286
# 5 0.016307 0.000074 -0.006667 0.000000 0.072434 0.000000
# 6 0.000000 0.000000 0.000000 -0.204286 0.000000 0.475217
#
#
# Mechanical properties :
#
#
# Convention : Reuss Voigt Hill
#
# Bulk Modulus (GPa) = 68.07214 76.50375 72.28794
# Shear Modulus (GPa) = 3.70285 13.99505 8.84895
#
# Velocity S-wave (km/s) = 1.44468 2.80861 2.23331
# Velocity P-wave (km/s) = 6.41494 7.32385 6.88441
#
# Compressibility (1/GPa) = 0.01469030
#
# Stress axis : x y z
#
# Youngs Moduli (GPa) = 49.09135 64.22251 67.54889
#
# Poissons Ratio (x) = 0.40522 0.36245
# Poissons Ratio (y) = 0.30975 0.42908
# Poissons Ratio (z) = 0.26341 0.40795
#
# Static dielectric constant tensor:
#      x y z
#    x 3.201600 0.000000 -0.116740 
#    y 0.000000 3.108020 0.000000 
#    z -0.116740 0.000000 3.336400 
# 
# 
# High freq. dielectric constant tensor:
#      x y z
#    x 1.676720 0.000000 -0.010410 
#    y 0.000000 1.674820 0.000000 
#    z -0.010410 0.000000 1.688740 
# 
# From -- ./inp_files/66482.got.cif
#   From: 2010.06.25/outbox.cif.g09.slc.cpg/sg10_34_cif.got.tgz:66482.got - 2010.06.27 22:07:45.
