data_PCOD8067263
_publ_section_title
;
Structure prediction by ZEFSAII (Michael W. Deem and Ramdas Pophale) SiO2 
 PCOD8067263
Probable space group: P 2/M
;
_chemical_formula_sum "Si O2"
_cell_formula_units_Z 32
_cell_length_a 14.977116
_cell_length_b 8.667556
_cell_length_c 12.295598
_cell_angle_alpha 90.000000
_cell_angle_beta 87.826447
_cell_angle_gamma 90.000000
_cell_volume 1595.004566
_symmetry_space_group_name_H-M "P 2/M"
_symmetry_group_IT_number 10
_symmetry_cell_setting 'monoclinic'
loop_
_space_group_symop_operation_xyz
x,y,z
-x,y,-z
-x,-y,-z
x,-y,z
loop_
_atom_site_type_symbol
_atom_site_label
_atom_site_fract_x
_atom_site_fract_y
_atom_site_fract_z
Si Si1 0.735923 0.681707 0.109628
Si Si2 0.983320 0.178268 0.323298
Si Si3 0.061503 0.318134 0.900993
Si Si4 0.857868 0.820769 0.525295
Si Si5 0.670510 0.321520 0.521955
Si Si6 0.369512 0.179463 0.701002
Si Si7 0.555626 0.320337 0.736285
Si Si8 0.596683 0.819320 0.950360
O O1 0.726489 0.500000 0.090376
O O2 0.837179 0.741174 0.089061
O O3 0.706714 0.723765 0.233505
O O4 0.673720 0.773464 0.029817
O O5 0.978270 0.274613 0.213824
O O6 0.904756 0.225812 0.409856
O O7 0.077648 0.212344 0.376247
O O8 0.974446 0.000000 0.293436
O O9 0.060918 0.500000 0.909015
O O10 0.000000 0.246914 0.000000
O O11 0.772623 0.713761 0.545417
O O12 0.830172 0.000000 0.523258
O O13 0.659237 0.500000 0.491659
O O14 0.634672 0.218495 0.425506
O O15 0.611350 0.276549 0.627691
O O16 0.465771 0.220856 0.744526
O O17 0.351342 0.000000 0.720968
O O18 0.530925 0.500000 0.739957
O O19 0.614101 0.273490 0.838118
O O20 0.601898 0.000000 0.926799
O O21 0.500000 0.770371 0.000000
#
# Coordination Sequence:
#
# PCOD8067263 Si02
#       8
#     4   4   4   4   4   4   4   4
#     4  11  23  40  65  91 119 160 202 246 301 355
#     4   9  19  37  61  87 116 152 195 240 293 353
#     4  10  23  41  59  85 121 157 197 245 295 349
#     4   9  19  37  60  87 118 152 191 241 297 352
#     4  11  24  39  57  87 122 156 198 242 294 357
#     4  12  24  39  61  88 119 155 198 247 297 352
#     4  11  24  41  61  85 118 159 198 243 296 354
#     4  11  23  40  63  91 120 153 199 251 297 350
#
# _framework density 20.062639000000001
#
# number of rings (size 3 to 8) (size 9 to 14) (size 15 to 20)
#    0.000    1.500    1.250    4.500    0.000    9.250 
#    0.000    5.000    0.000    0.000    0.000    0.000 
#    0.000    0.000    0.000    0.000    0.000    0.000 
#
# Total GULP energy -396972.959845 kJ/mol
# GULP energy per Si atom -12405.404995 kJ/mol
# Density = 2.001698 g / cm^3
# Si number density = 20.062639 Si / 1000 Ang^3
#
#
#
# Elastic Constant Matrix: (Units=GPa)
#
#
# Indices 1 2 3 4 5 6 
#
# 1 73.2201 23.7941 56.3294 0.0000 -9.4621 0.0000
# 2 23.7941 40.8987 25.2358 0.0000 -5.9378 0.0000
# 3 56.3294 25.2358 132.9958 0.0000 -1.1598 0.0000
# 4 0.0000 0.0000 0.0000 34.3695 0.0000 8.4039
# 5 -9.4621 -5.9378 -1.1598 0.0000 31.6257 0.0000
# 6 0.0000 0.0000 0.0000 8.4039 0.0000 23.9163
#
#
#
# Elastic Compliance Matrix: (Units=1/GPa)
#
#
# Indices 1 2 3 4 5 6 
#
# 1 0.023225 -0.007603 -0.008349 0.000000 0.005215 0.000000
# 2 -0.007603 0.030999 -0.002632 0.000000 0.003449 0.000000
# 3 -0.008349 -0.002632 0.011532 0.000000 -0.002569 0.000000
# 4 0.000000 0.000000 0.000000 0.031830 0.000000 -0.011185
# 5 0.005215 0.003449 -0.002569 0.000000 0.033733 0.000000
# 6 0.000000 0.000000 0.000000 -0.011185 0.000000 0.045743
#
#
# Mechanical properties :
#
#
# Convention : Reuss Voigt Hill
#
# Bulk Modulus (GPa) = 34.97906 50.87036 42.92471
# Shear Modulus (GPa) = 22.34557 27.43267 24.88912
#
# Velocity S-wave (km/s) = 3.34097 3.70178 3.52599
# Velocity P-wave (km/s) = 5.68819 6.60922 6.16593
#
# Compressibility (1/GPa) = 0.02858853
#
# Stress axis : x y z
#
# Youngs Moduli (GPa) = 43.05733 32.25957 86.71590
#
# Poissons Ratio (x) = 0.24528 0.72395
# Poissons Ratio (y) = 0.32738 0.22819
# Poissons Ratio (z) = 0.35946 0.08489
#
# Static dielectric constant tensor:
#      x y z
#    x 3.763920 0.000000 -0.086760 
#    y 0.000000 3.519270 0.000000 
#    z -0.086760 0.000000 3.747750 
# 
# 
# High freq. dielectric constant tensor:
#      x y z
#    x 1.786340 0.000000 0.004380 
#    y 0.000000 1.781340 0.000000 
#    z 0.004380 0.000000 1.793590 
# 
# From -- ./inp_files/49949.got.cif
#   From: 2010.06.25/outbox.cif.g09.slc.cpg/sg10_25_cif.got.tgz:49949.got - 2010.06.27 22:07:45.
