data_PCOD8067942
_publ_section_title
;
Structure prediction by ZEFSAII (Michael W. Deem and Ramdas Pophale) SiO2 
 PCOD8067942
Probable space group: P 2/M
;
_chemical_formula_sum "Si O2"
_cell_formula_units_Z 32
_cell_length_a 7.295238
_cell_length_b 9.229330
_cell_length_c 22.778207
_cell_angle_alpha 90.000000
_cell_angle_beta 95.115842
_cell_angle_gamma 90.000000
_cell_volume 1527.550883
_symmetry_space_group_name_H-M "P 2/M"
_symmetry_group_IT_number 10
_symmetry_cell_setting 'monoclinic'
loop_
_space_group_symop_operation_xyz
x,y,z
-x,y,-z
-x,-y,-z
x,-y,z
loop_
_atom_site_type_symbol
_atom_site_label
_atom_site_fract_x
_atom_site_fract_y
_atom_site_fract_z
Si Si1 0.379255 0.166723 0.647916
Si Si2 0.779080 0.339180 0.774229
Si Si3 0.280171 0.838136 0.993865
Si Si4 0.202089 0.170381 0.337813
Si Si5 0.664790 0.829321 0.130845
Si Si6 0.956070 0.831694 0.435682
Si Si7 0.340203 0.663832 0.758331
Si Si8 0.717857 0.670440 0.897809
O O1 0.587927 0.215270 0.641591
O O2 0.259423 0.191057 0.585568
O O3 0.282321 0.258871 0.696355
O O4 0.373371 0.000000 0.667887
O O5 0.842793 0.500000 0.758632
O O6 0.862104 0.234239 0.726980
O O7 0.559049 0.328817 0.769651
O O8 0.843865 0.301697 0.843023
O O9 0.188304 0.728465 0.038944
O O10 0.217719 0.000000 0.009475
O O11 0.500000 0.826185 0.000000
O O12 0.215009 0.801923 0.925098
O O13 0.080819 0.236370 0.387295
O O14 0.174584 0.000000 0.331796
O O15 0.754571 0.747938 0.189560
O O16 0.464720 0.763654 0.114655
O O17 0.645965 0.000000 0.143602
O O18 0.000000 0.757730 0.500000
O O19 0.008383 0.000000 0.441219
O O20 0.266149 0.500000 0.756241
O O21 0.671229 0.500000 0.902047
#
# Coordination Sequence:
#
# PCOD8067942 Si02
#       8
#     4   4   4   4   4   4   4   4
#     4   9  17  30  49  71  96 127 159 194 237 280
#     4   8  15  26  39  58  85 117 152 195 243 281
#     4   8  14  21  28  43  72 111 151 193 240 287
#     4   9  17  29  48  72  94 124 163 195 233 283
#     4   9  15  22  32  49  77 113 153 195 241 290
#     4   9  18  32  50  75 104 127 154 196 235 273
#     4   9  16  26  41  61  85 115 154 198 240 283
#     4   9  15  21  31  49  75 111 154 197 242 288
#
# _framework density 20.948564999999999
#
# number of rings (size 3 to 8) (size 9 to 14) (size 15 to 20)
#    0.000    3.250    0.000    2.625    0.000    6.750 
#    0.000    3.125    0.000    1.500    0.000    3.500 
#    0.000    1.000    0.000   11.375    0.000   28.125 
#
# Total GULP energy -396482.257411 kJ/mol
# GULP energy per Si atom -12390.070544 kJ/mol
# Density = 2.090089 g / cm^3
# Si number density = 20.948565 Si / 1000 Ang^3
#
#
#
# Elastic Constant Matrix: (Units=GPa)
#
#
# Indices 1 2 3 4 5 6 
#
# 1 26.6781 3.4718 19.4808 0.0000 -15.4738 0.0000
# 2 3.4718 83.4621 56.0279 0.0000 -10.2922 0.0000
# 3 19.4808 56.0279 156.0764 0.0000 -21.6394 0.0000
# 4 0.0000 0.0000 0.0000 15.5388 0.0000 -0.2126
# 5 -15.4738 -10.2922 -21.6394 0.0000 22.7073 0.0000
# 6 0.0000 0.0000 0.0000 -0.2126 0.0000 -0.0495
#
#
#
# Elastic Compliance Matrix: (Units=1/GPa)
#
#
# Indices 1 2 3 4 5 6 
#
# 1 0.064325 0.005264 -0.004045 0.000000 0.042365 0.000000
# 2 0.005264 0.016297 -0.005745 0.000000 0.005499 0.000000
# 3 -0.004045 -0.005745 0.009484 0.000000 0.003678 0.000000
# 4 0.000000 0.000000 0.000000 0.060781 0.000000 -0.261190
# 5 0.042365 0.005499 0.003678 0.000000 0.078906 0.000000
# 6 0.000000 0.000000 0.000000 -0.261190 0.000000-19.090569
#
#
# Mechanical properties :
#
#
# Convention : Reuss Voigt Hill
#
# Bulk Modulus (GPa) = 12.33735 47.13086 29.73410
# Shear Modulus (GPa) = -0.26561 20.12174 9.92807
#
# Velocity S-wave (km/s) = -0.35646 3.10261 2.17935
# Velocity P-wave (km/s) = 2.39431 5.94828 4.53403
#
# Compressibility (1/GPa) = 0.08105469
#
# Stress axis : x y z
#
# Youngs Moduli (GPa) = 15.54610 61.36030 105.43864
#
# Poissons Ratio (x) = -0.32298 0.42645
# Poissons Ratio (y) = -0.08183 0.60573
# Poissons Ratio (z) = 0.06288 0.35251
#
# Static dielectric constant tensor:
#      x y z
#    x 3.300080 0.000000 -0.123390 
#    y 0.000000 3.650610 0.000000 
#    z -0.123390 0.000000 4.568040 
# 
# 
# High freq. dielectric constant tensor:
#      x y z
#    x 1.784090 0.000000 -0.004020 
#    y 0.000000 1.796300 0.000000 
#    z -0.004020 0.000000 1.832570 
# 
# From -- ./inp_files/87721.got.cif
#   From: 2010.06.25/outbox.cif.g09.slc.cpg/sg10_44_cif.got.tgz:87721.got - 2010.06.27 22:07:45.
