data_PCOD8067775
_publ_section_title
;
Structure prediction by ZEFSAII (Michael W. Deem and Ramdas Pophale) SiO2 
 PCOD8067775
Probable space group: P 2/M
;
_chemical_formula_sum "Si O2"
_cell_formula_units_Z 24
_cell_length_a 11.631376
_cell_length_b 8.536970
_cell_length_c 12.490711
_cell_angle_alpha 90.000000
_cell_angle_beta 90.316448
_cell_angle_gamma 90.000000
_cell_volume 1240.267566
_symmetry_space_group_name_H-M "P 2/M"
_symmetry_group_IT_number 10
_symmetry_cell_setting 'monoclinic'
loop_
_space_group_symop_operation_xyz
x,y,z
-x,y,-z
-x,-y,-z
x,-y,z
loop_
_atom_site_type_symbol
_atom_site_label
_atom_site_fract_x
_atom_site_fract_y
_atom_site_fract_z
Si Si1 0.723070 0.820074 0.299767
Si Si2 0.862374 0.681378 0.116450
Si Si3 0.259352 0.180188 0.319873
Si Si4 0.131063 0.318390 0.515723
Si Si5 0.507552 0.682142 0.623208
Si Si6 0.874447 0.318490 0.870533
O O1 0.774284 0.785548 0.183264
O O2 0.819442 0.784374 0.388248
O O3 0.612077 0.713455 0.318456
O O4 0.686177 0.000000 0.307214
O O5 0.841736 0.500000 0.143335
O O6 0.992773 0.727292 0.147110
O O7 0.838460 0.715448 0.992121
O O8 0.199562 0.289558 0.407198
O O9 0.394163 0.219751 0.316434
O O10 0.205091 0.211999 0.203907
O O11 0.241323 0.000000 0.350878
O O12 0.141922 0.500000 0.547236
O O13 0.000000 0.267237 0.500000
O O14 0.500000 0.737188 0.500000
O O15 0.538163 0.500000 0.630775
O O16 0.855291 0.500000 0.841993
#
# Coordination Sequence:
#
# PCOD8067775 Si02
#       6
#     4   4   4   4   4   4
#     4  12  24  37  58  88 121 151 188 242 300 349
#     4   9  19  38  63  88 117 157 201 240 282 341
#     4  12  24  37  58  88 121 151 188 242 300 349
#     4  11  23  38  57  82 115 155 197 237 280 343
#     4  11  23  41  64  83 109 156 204 240 284 347
#     4   9  19  38  63  88 117 157 201 240 282 341
#
# _framework density 19.350663999999998
#
# number of rings (size 3 to 8) (size 9 to 14) (size 15 to 20)
#    0.000    1.333    1.667    6.000    0.000    7.333 
#    0.000    2.500    0.000    5.000    0.000    0.000 
#    0.000    0.000    0.000    0.000    0.000    0.000 
#
# Total GULP energy -297770.228236 kJ/mol
# GULP energy per Si atom -12407.092843 kJ/mol
# Density = 1.930662 g / cm^3
# Si number density = 19.350664 Si / 1000 Ang^3
#
#
#
# Elastic Constant Matrix: (Units=GPa)
#
#
# Indices 1 2 3 4 5 6 
#
# 1 92.6011 18.3506 33.7799 0.0000 -12.3818 0.0000
# 2 18.3506 61.2585 20.2112 0.0000 2.1575 0.0000
# 3 33.7799 20.2112 88.6537 0.0000 -9.7963 0.0000
# 4 0.0000 0.0000 0.0000 24.6568 0.0000 -0.4750
# 5 -12.3818 2.1575 -9.7963 0.0000 28.9746 0.0000
# 6 0.0000 0.0000 0.0000 -0.4750 0.0000 16.0068
#
#
#
# Elastic Compliance Matrix: (Units=1/GPa)
#
#
# Indices 1 2 3 4 5 6 
#
# 1 0.013428 -0.002882 -0.003949 0.000000 0.004618 0.000000
# 2 -0.002882 0.018489 -0.003537 0.000000 -0.003804 0.000000
# 3 -0.003949 -0.003537 0.013955 0.000000 0.003294 0.000000
# 4 0.000000 0.000000 0.000000 0.040580 0.000000 0.001204
# 5 0.004618 -0.003804 0.003294 0.000000 0.037883 0.000000
# 6 0.000000 0.000000 0.000000 0.001204 0.000000 0.062509
#
#
# Mechanical properties :
#
#
# Convention : Reuss Voigt Hill
#
# Bulk Modulus (GPa) = 39.78573 43.02186 41.40379
# Shear Modulus (GPa) = 23.15246 25.27242 24.21244
#
# Velocity S-wave (km/s) = 3.46275 3.61782 3.54113
# Velocity P-wave (km/s) = 6.04918 6.30337 6.17758
#
# Compressibility (1/GPa) = 0.02513464
#
# Stress axis : x y z
#
# Youngs Moduli (GPa) = 74.46976 54.08720 71.65883
#
# Poissons Ratio (x) = 0.15589 0.28300
# Poissons Ratio (y) = 0.21464 0.25347
# Poissons Ratio (z) = 0.29410 0.19132
#
# Static dielectric constant tensor:
#      x y z
#    x 3.545810 0.000000 0.044490 
#    y 0.000000 3.435500 0.000000 
#    z 0.044490 0.000000 3.509290 
# 
# 
# High freq. dielectric constant tensor:
#      x y z
#    x 1.754800 0.000000 -0.001040 
#    y 0.000000 1.752780 0.000000 
#    z -0.001040 0.000000 1.751300 
# 
# From -- ./inp_files/45123.got.cif
#   From: 2010.06.25/outbox.cif.g09.slc.cpg/sg10_23_cif.got.tgz:45123.got - 2010.06.27 22:07:45.
