data_PCOD8067337
_publ_section_title
;
Structure prediction by ZEFSAII (Michael W. Deem and Ramdas Pophale) SiO2 
 PCOD8067337
Probable space group: P 2/M
;
_chemical_formula_sum "Si O2"
_cell_formula_units_Z 28
_cell_length_a 17.025396
_cell_length_b 13.669653
_cell_length_c 9.482576
_cell_angle_alpha 90.000000
_cell_angle_beta 43.140198
_cell_angle_gamma 90.000000
_cell_volume 1509.041460
_symmetry_space_group_name_H-M "P 2/M"
_symmetry_group_IT_number 10
_symmetry_cell_setting 'monoclinic'
loop_
_space_group_symop_operation_xyz
x,y,z
-x,y,-z
-x,-y,-z
x,-y,z
loop_
_atom_site_type_symbol
_atom_site_label
_atom_site_fract_x
_atom_site_fract_y
_atom_site_fract_z
Si Si1 0.020805 0.113401 0.633552
Si Si2 0.335428 0.389040 0.332210
Si Si3 0.457545 0.114353 0.202883
Si Si4 0.810315 0.885125 0.112049
Si Si5 0.595051 0.389163 0.072101
Si Si6 0.594023 0.218776 0.264363
Si Si7 0.788407 0.798401 0.432212
O O1 0.000000 0.144336 0.500000
O O2 0.124427 0.178439 0.556083
O O3 0.056005 0.000000 0.599360
O O4 0.905941 0.135682 0.870375
O O5 0.302140 0.500000 0.416228
O O6 0.461064 0.362322 0.226574
O O7 0.242180 0.316953 0.524029
O O8 0.335423 0.375927 0.163713
O O9 0.538247 0.150643 0.220802
O O10 0.325641 0.138676 0.399390
O O11 0.473552 0.000000 0.175982
O O12 0.500000 0.162260 0.000000
O O13 0.690770 0.843314 0.214397
O O14 0.845984 0.828665 0.208379
O O15 0.797534 0.000000 0.161017
O O16 0.607844 0.500000 0.109713
O O17 0.646019 0.316460 0.123372
O O18 0.500000 0.253145 0.500000
#
# Coordination Sequence:
#
# PCOD8067337 Si02
#       7
#     4   4   4   4   4   4   4
#     4  10  24  42  61  86 111 151 204 248 286 339
#     4   9  18  34  59  88 115 148 194 245 291 345
#     4  11  23  34  52  84 118 153 190 236 288 346
#     4  11  24  40  58  83 122 162 194 236 287 348
#     4   9  18  34  55  83 120 156 193 235 289 348
#     4  12  22  35  55  87 124 156 188 235 291 353
#     4  12  21  38  63  84 113 155 199 240 290 354
#
# _framework density 18.554822999999999
#
# number of rings (size 3 to 8) (size 9 to 14) (size 15 to 20)
#    0.000    1.429    2.857    3.857    4.000    2.000 
#    0.000    0.714    0.000    3.000    0.000    0.000 
#    0.000    0.000    0.000    0.000    0.000    0.000 
#
# Total GULP energy -347289.597298 kJ/mol
# GULP energy per Si atom -12403.199903 kJ/mol
# Density = 1.851259 g / cm^3
# Si number density = 18.554823 Si / 1000 Ang^3
#
#
#
# Elastic Constant Matrix: (Units=GPa)
#
#
# Indices 1 2 3 4 5 6 
#
# 1 95.1467 36.9221 29.2239 0.0000 9.9436 0.0000
# 2 36.9221 107.7983 41.6190 0.0000 6.5703 0.0000
# 3 29.2239 41.6190 80.4726 0.0000 15.0934 0.0000
# 4 0.0000 0.0000 0.0000 18.2098 0.0000 -1.5314
# 5 9.9436 6.5703 15.0934 0.0000 27.7962 0.0000
# 6 0.0000 0.0000 0.0000 -1.5314 0.0000 11.7001
#
#
#
# Elastic Compliance Matrix: (Units=1/GPa)
#
#
# Indices 1 2 3 4 5 6 
#
# 1 0.012803 -0.003271 -0.002498 0.000000 -0.002450 0.000000
# 2 -0.003271 0.012435 -0.005468 0.000000 0.001200 0.000000
# 3 -0.002498 -0.005468 0.017538 0.000000 -0.007337 0.000000
# 4 0.000000 0.000000 0.000000 0.055527 0.000000 0.007268
# 5 -0.002450 0.001200 -0.007337 0.000000 0.040553 0.000000
# 6 0.000000 0.000000 0.000000 0.007268 0.000000 0.086421
#
#
# Mechanical properties :
#
#
# Convention : Reuss Voigt Hill
#
# Bulk Modulus (GPa) = 49.25936 55.43861 52.34899
# Shear Modulus (GPa) = 19.64492 23.25138 21.44815
#
# Velocity S-wave (km/s) = 3.25737 3.54378 3.40359
# Velocity P-wave (km/s) = 6.38380 6.83284 6.61213
#
# Compressibility (1/GPa) = 0.02030071
#
# Stress axis : x y z
#
# Youngs Moduli (GPa) = 78.10754 80.41722 57.01908
#
# Poissons Ratio (x) = 0.26307 0.14243
# Poissons Ratio (y) = 0.25552 0.31180
# Poissons Ratio (z) = 0.19511 0.43975
#
# Static dielectric constant tensor:
#      x y z
#    x 3.425970 0.000000 0.194240 
#    y 0.000000 3.474940 0.000000 
#    z 0.194240 0.000000 3.489150 
# 
# 
# High freq. dielectric constant tensor:
#      x y z
#    x 1.709830 0.000000 0.019100 
#    y 0.000000 1.722400 0.000000 
#    z 0.019100 0.000000 1.716310 
# 
# From -- ./inp_files/24935.got.cif
#   From: 2010.06.25/outbox.cif.g09.slc.cpg/sg10_13_cif.got.tgz:24935.got - 2010.06.27 22:07:45.
