data_PCOD8067900
_publ_section_title
;
Structure prediction by ZEFSAII (Michael W. Deem and Ramdas Pophale) SiO2 
 PCOD8067900
Probable space group: P 2/M
;
_chemical_formula_sum "Si O2"
_cell_formula_units_Z 32
_cell_length_a 21.178173
_cell_length_b 9.800699
_cell_length_c 9.877944
_cell_angle_alpha 90.000000
_cell_angle_beta 76.513795
_cell_angle_gamma 90.000000
_cell_volume 1993.740857
_symmetry_space_group_name_H-M "P 2/M"
_symmetry_group_IT_number 10
_symmetry_cell_setting 'monoclinic'
loop_
_space_group_symop_operation_xyz
x,y,z
-x,y,-z
-x,-y,-z
x,-y,z
loop_
_atom_site_type_symbol
_atom_site_label
_atom_site_fract_x
_atom_site_fract_y
_atom_site_fract_z
Si Si1 0.318765 0.337595 0.939849
Si Si2 0.824046 0.651548 0.677155
Si Si3 0.939826 0.158096 0.936944
Si Si4 0.060174 0.158097 0.376770
Si Si5 0.427808 0.662294 0.384621
Si Si6 0.572192 0.662294 0.312428
Si Si7 0.681235 0.337595 0.758613
Si Si8 0.175954 0.651548 0.001200
O O1 0.323701 0.500000 0.943102
O O2 0.374088 0.274410 0.815093
O O3 0.329466 0.277506 0.085267
O O4 0.247368 0.297935 0.917648
O O5 0.839516 0.500000 0.611757
O O6 0.878475 0.756560 0.599260
O O7 0.752632 0.702065 0.665015
O O8 0.822753 0.645241 0.838623
O O9 0.956076 0.191297 0.771962
O O10 0.878475 0.243441 0.022265
O O11 0.922506 0.000000 0.964501
O O12 0.000000 0.201252 0.000000
O O13 0.000000 0.201253 0.500000
O O14 0.077493 0.000000 0.387008
O O15 0.423512 0.500000 0.385301
O O16 0.500000 0.708300 0.301905
O O17 0.413806 0.716210 0.543097
O O18 0.374088 0.725590 0.310820
O O19 0.576488 0.500000 0.308813
O O20 0.676299 0.500000 0.766802
O O21 0.160485 0.500000 0.951272
#
# Coordination Sequence:
#
# PCOD8067900 Si02
#       8
#     4   4   4   4   4   4   4   4
#     4   8  13  21  33  48  66  91 123 154 182 215
#     4   8  14  25  40  57  78 103 128 156 192 230
#     4   9  17  29  44  60  78 101 128 157 190 228
#     4   9  17  29  44  60  78 101 128 157 190 228
#     4   8  13  20  29  43  67  98 125 148 180 221
#     4   8  13  20  29  43  67  98 125 148 180 221
#     4   8  13  21  33  48  66  91 123 154 182 215
#     4   8  14  25  40  57  78 103 128 156 192 230
#
# _framework density 16.050231
#
# number of rings (size 3 to 8) (size 9 to 14) (size 15 to 20)
#    0.000    3.750    0.000    2.250    0.000    1.000 
#    0.000    3.750    0.000    1.500    0.000    0.000 
#    0.000    1.000    0.000   12.500    0.000   14.500 
#
# Total GULP energy -396517.320439 kJ/mol
# GULP energy per Si atom -12391.166264 kJ/mol
# Density = 1.601370 g / cm^3
# Si number density = 16.050231 Si / 1000 Ang^3
#
#
#
# Elastic Constant Matrix: (Units=GPa)
#
#
# Indices 1 2 3 4 5 6 
#
# 1 159.0923 42.8871 70.1407 0.0000 -18.5019 0.0000
# 2 42.8871 30.4048 26.9333 0.0000 -10.0459 0.0000
# 3 70.1407 26.9333 90.4540 0.0000 -24.7189 0.0000
# 4 0.0000 0.0000 0.0000 7.0273 0.0000 2.2479
# 5 -18.5019 -10.0459 -24.7189 0.0000 25.8696 0.0000
# 6 0.0000 0.0000 0.0000 2.2479 0.0000 3.4576
#
#
#
# Elastic Compliance Matrix: (Units=1/GPa)
#
#
# Indices 1 2 3 4 5 6 
#
# 1 0.012122 -0.012170 -0.006359 0.000000 -0.002132 0.000000
# 2 -0.012170 0.057657 -0.005401 0.000000 0.008525 0.000000
# 3 -0.006359 -0.005401 0.021354 0.000000 0.013759 0.000000
# 4 0.000000 0.000000 0.000000 0.179664 0.000000 -0.116804
# 5 -0.002132 0.008525 0.013759 0.000000 0.053588 0.000000
# 6 0.000000 0.000000 0.000000 -0.116804 0.000000 0.365156
#
#
# Mechanical properties :
#
#
# Convention : Reuss Voigt Hill
#
# Bulk Modulus (GPa) = 23.10873 62.20815 42.65844
# Shear Modulus (GPa) = 6.65048 16.60357 11.62703
#
# Velocity S-wave (km/s) = 2.03778 3.21982 2.69442
# Velocity P-wave (km/s) = 4.46830 7.25710 6.02624
#
# Compressibility (1/GPa) = 0.04327369
#
# Stress axis : x y z
#
# Youngs Moduli (GPa) = 82.49603 17.34394 46.82921
#
# Poissons Ratio (x) = 0.21108 0.29776
# Poissons Ratio (y) = 1.00399 0.25292
# Poissons Ratio (z) = 0.52455 0.09367
#
# Static dielectric constant tensor:
#      x y z
#    x 3.367310 0.000000 -0.155500 
#    y 0.000000 2.647120 0.000000 
#    z -0.155500 0.000000 3.120360 
# 
# 
# High freq. dielectric constant tensor:
#      x y z
#    x 1.623490 0.000000 -0.014340 
#    y 0.000000 1.557910 0.000000 
#    z -0.014340 0.000000 1.600720 
# 
# From -- ./inp_files/53368.got.cif
#   From: 2010.06.25/outbox.cif.g09.slc.cpg/sg10_27_cif.got.tgz:53368.got - 2010.06.27 22:07:45.
