data_PCOD8067009
_publ_section_title
;
Structure prediction by ZEFSAII (Michael W. Deem and Ramdas Pophale) SiO2 
 PCOD8067009
Probable space group: P 2/M
;
_chemical_formula_sum "Si O2"
_cell_formula_units_Z 30
_cell_length_a 11.545740
_cell_length_b 17.205622
_cell_length_c 8.858507
_cell_angle_alpha 90.000000
_cell_angle_beta 66.730754
_cell_angle_gamma 90.000000
_cell_volume 1616.615767
_symmetry_space_group_name_H-M "P 2/M"
_symmetry_group_IT_number 10
_symmetry_cell_setting 'monoclinic'
loop_
_space_group_symop_operation_xyz
x,y,z
-x,y,-z
-x,-y,-z
x,-y,z
loop_
_atom_site_type_symbol
_atom_site_label
_atom_site_fract_x
_atom_site_fract_y
_atom_site_fract_z
Si Si1 0.303480 0.683216 0.462581
Si Si2 0.121615 0.223308 0.340875
Si Si3 0.454857 0.911603 0.785407
Si Si4 0.703482 0.911932 0.844415
Si Si5 0.500000 0.201496 0.500000
Si Si6 0.381273 0.589877 0.153534
Si Si7 0.871657 0.640329 0.881449
Si Si8 0.141513 0.589453 0.780748
O O1 0.205826 0.728018 0.410197
O O2 0.386679 0.745575 0.504536
O O3 0.390493 0.631507 0.309731
O O4 0.235476 0.625201 0.611558
O O5 0.181424 0.142929 0.256449
O O6 0.098795 0.274039 0.200927
O O7 0.000000 0.201264 0.500000
O O8 0.595392 0.902672 0.775871
O O9 0.437167 0.852602 0.658458
O O10 0.432225 0.000000 0.742404
O O11 0.352878 0.888718 0.964286
O O12 0.754044 0.000000 0.821399
O O13 0.401705 0.500000 0.173346
O O14 0.248107 0.602714 0.139323
O O15 0.500000 0.624134 0.000000
O O16 0.998633 0.590137 0.789514
O O17 0.845382 0.641456 0.074483
O O18 0.178813 0.500000 0.794965
#
# Coordination Sequence:
#
# PCOD8067009 Si02
#       8
#     4   4   4   4   2   4   4   4
#     4  11  25  37  55  89 115 154 195 239 297 347
#     4  11  21  40  58  85 122 153 193 238 284 349
#     4   9  19  37  62  88 115 151 194 237 280 337
#     4   9  19  37  61  88 117 155 194 230 282 344
#     4  12  23  36  57  90 124 152 184 240 305 342
#     4  10  22  40  57  79 113 154 194 240 292 353
#     4  10  22  38  64  85 110 151 200 245 296 342
#     4  11  22  41  62  86 113 150 202 253 295 342
#
# _framework density 18.557285
#
# number of rings (size 3 to 8) (size 9 to 14) (size 15 to 20)
#    0.000    1.733    2.667    3.000    3.733    1.333 
#    0.000    2.667    0.000    0.000    0.000    3.733 
#    0.000    0.000    0.000    0.000    0.000    0.000 
#
# Total GULP energy -371977.126248 kJ/mol
# GULP energy per Si atom -12399.237542 kJ/mol
# Density = 1.851505 g / cm^3
# Si number density = 18.557285 Si / 1000 Ang^3
#
#
#
# Elastic Constant Matrix: (Units=GPa)
#
#
# Indices 1 2 3 4 5 6 
#
# 1 63.9368 43.3742 53.9566 0.0000 0.5324 0.0000
# 2 43.3742 114.5101 83.8871 0.0000 -3.2469 0.0000
# 3 53.9566 83.8871 156.2752 0.0000 -5.5672 0.0000
# 4 0.0000 0.0000 0.0000 41.6011 0.0000 -2.1528
# 5 0.5324 -3.2469 -5.5672 0.0000 26.9545 0.0000
# 6 0.0000 0.0000 0.0000 -2.1528 0.0000 31.2455
#
#
#
# Elastic Compliance Matrix: (Units=1/GPa)
#
#
# Indices 1 2 3 4 5 6 
#
# 1 0.023762 -0.004937 -0.005634 0.000000 -0.002228 0.000000
# 2 -0.004937 0.015419 -0.006551 0.000000 0.000602 0.000000
# 3 -0.005634 -0.006551 0.011924 0.000000 0.001785 0.000000
# 4 0.000000 0.000000 0.000000 0.024124 0.000000 0.001662
# 5 -0.002228 0.000602 0.001785 0.000000 0.037585 0.000000
# 6 0.000000 0.000000 0.000000 0.001662 0.000000 0.032119
#
#
# Mechanical properties :
#
#
# Convention : Reuss Voigt Hill
#
# Bulk Modulus (GPa) = 59.30208 77.46200 68.38204
# Shear Modulus (GPa) = 27.05683 30.19382 28.62533
#
# Velocity S-wave (km/s) = 3.82254 4.03806 3.93178
# Velocity P-wave (km/s) = 7.17691 7.97333 7.58558
#
# Compressibility (1/GPa) = 0.01686281
#
# Stress axis : x y z
#
# Youngs Moduli (GPa) = 42.08329 64.85609 83.86429
#
# Poissons Ratio (x) = 0.32018 0.47246
# Poissons Ratio (y) = 0.20776 0.54937
# Poissons Ratio (z) = 0.23708 0.42485
#
# Static dielectric constant tensor:
#      x y z
#    x 3.199610 0.000000 0.074690 
#    y 0.000000 3.454390 0.000000 
#    z 0.074690 0.000000 3.687520 
# 
# 
# High freq. dielectric constant tensor:
#      x y z
#    x 1.707830 0.000000 -0.000720 
#    y 0.000000 1.723480 0.000000 
#    z -0.000720 0.000000 1.734050 
# 
# From -- ./inp_files/25835.got.cif
#   From: 2010.06.25/outbox.cif.g09.slc.cpg/sg10_13_cif.got.tgz:25835.got - 2010.06.27 22:07:45.
