data_PCOD8067317
_publ_section_title
;
Structure prediction by ZEFSAII (Michael W. Deem and Ramdas Pophale) SiO2 
 PCOD8067317
Probable space group: P 2/M
;
_chemical_formula_sum "Si O2"
_cell_formula_units_Z 24
_cell_length_a 8.595660
_cell_length_b 11.369568
_cell_length_c 23.748208
_cell_angle_alpha 90.000000
_cell_angle_beta 149.497492
_cell_angle_gamma 90.000000
_cell_volume 1178.026831
_symmetry_space_group_name_H-M "P 2/M"
_symmetry_group_IT_number 10
_symmetry_cell_setting 'monoclinic'
loop_
_space_group_symop_operation_xyz
x,y,z
-x,y,-z
-x,-y,-z
x,-y,z
loop_
_atom_site_type_symbol
_atom_site_label
_atom_site_fract_x
_atom_site_fract_y
_atom_site_fract_z
Si Si1 0.092967 0.131227 0.786718
Si Si2 0.854042 0.233259 0.821527
Si Si3 0.798395 0.000000 0.513074
Si Si4 0.278337 0.789261 0.052740
Si Si5 0.514434 0.000000 0.301600
Si Si6 0.816084 0.775120 0.587985
Si Si7 0.586177 0.362401 0.244888
O O1 0.454931 0.125428 0.885768
O O2 0.995537 0.228885 0.802810
O O3 0.924288 0.162212 0.677822
O O4 0.999279 0.000000 0.779005
O O5 0.681283 0.111147 0.779824
O O6 0.599792 0.333936 0.755221
O O7 0.133303 0.262505 0.950510
O O8 0.701247 0.878629 0.511145
O O9 0.614487 0.000000 0.397618
O O10 0.166611 0.000000 0.631621
O O11 0.415891 0.688064 0.136270
O O12 0.000000 0.854318 0.000000
O O13 0.500000 0.701585 0.500000
O O14 0.074077 0.691402 0.642354
O O15 0.618368 0.500000 0.246747
#
# Coordination Sequence:
#
# PCOD8067317 Si02
#       7
#     4   4   2   4   2   4   4
#     4  11  22  35  58  93 132 164 194 245 304 376
#     4  11  21  38  58  93 124 163 200 250 311 367
#     4  11  21  38  61  92 131 169 197 248 312 375
#     4   9  22  38  59  88 122 162 204 248 298 369
#     4  11  22  34  61  93 130 163 199 253 309 372
#     4  11  22  38  63  94 125 161 209 249 309 374
#     4  10  23  45  65  85 117 165 219 264 305 356
#
# _framework density 20.373051
#
# number of rings (size 3 to 8) (size 9 to 14) (size 15 to 20)
#    0.000    1.500    3.333    1.750    1.167    4.333 
#    0.000    3.333    0.000   15.000    0.000    0.000 
#    0.000    0.000    0.000    0.000    0.000    0.000 
#
# Total GULP energy -297349.269206 kJ/mol
# GULP energy per Si atom -12389.552884 kJ/mol
# Density = 2.032668 g / cm^3
# Si number density = 20.373051 Si / 1000 Ang^3
#
#
#
# Elastic Constant Matrix: (Units=GPa)
#
#
# Indices 1 2 3 4 5 6 
#
# 1 109.5005 24.4088 26.0176 0.0000 21.1608 0.0000
# 2 24.4088 85.7025 18.7477 0.0000 7.0267 0.0000
# 3 26.0176 18.7477 74.0972 0.0000 35.9971 0.0000
# 4 0.0000 0.0000 0.0000 5.8223 0.0000 -5.1451
# 5 21.1608 7.0267 35.9971 0.0000 37.9802 0.0000
# 6 0.0000 0.0000 0.0000 -5.1451 0.0000 16.5135
#
#
#
# Elastic Compliance Matrix: (Units=1/GPa)
#
#
# Indices 1 2 3 4 5 6 
#
# 1 0.010811 -0.002503 -0.000856 0.000000 -0.004750 0.000000
# 2 -0.002503 0.012964 -0.003546 0.000000 0.002357 0.000000
# 3 -0.000856 -0.003546 0.026213 0.000000 -0.023711 0.000000
# 4 0.000000 0.000000 0.000000 0.237008 0.000000 0.073844
# 5 -0.004750 0.002357 -0.023711 0.000000 0.051013 0.000000
# 6 0.000000 0.000000 0.000000 0.073844 0.000000 0.083564
#
#
# Mechanical properties :
#
#
# Convention : Reuss Voigt Hill
#
# Bulk Modulus (GPa) = 27.64068 45.29426 36.46747
# Shear Modulus (GPa) = 11.17466 25.40495 18.28981
#
# Velocity S-wave (km/s) = 2.34455 3.53510 2.99949
# Velocity P-wave (km/s) = 4.57449 6.24046 5.47126
#
# Compressibility (1/GPa) = 0.03617856
#
# Stress axis : x y z
#
# Youngs Moduli (GPa) = 92.49509 77.13941 38.14966
#
# Poissons Ratio (x) = 0.19305 0.03264
# Poissons Ratio (y) = 0.23148 0.13529
# Poissons Ratio (z) = 0.07913 0.27356
#
# Static dielectric constant tensor:
#      x y z
#    x 4.135070 0.000000 0.364840 
#    y 0.000000 3.233390 0.000000 
#    z 0.364840 0.000000 4.002620 
# 
# 
# High freq. dielectric constant tensor:
#      x y z
#    x 1.815480 0.000000 0.019440 
#    y 0.000000 1.740650 0.000000 
#    z 0.019440 0.000000 1.818020 
# 
# From -- ./inp_files/88135.got.cif
#   From: 2010.06.25/outbox.cif.g09.slc.cpg/sg10_45_cif.got.tgz:88135.got - 2010.06.27 22:07:45.
