data_PCOD8067702
_publ_section_title
;
Structure prediction by ZEFSAII (Michael W. Deem and Ramdas Pophale) SiO2 
 PCOD8067702
Probable space group: P 2/M
;
_chemical_formula_sum "Si O2"
_cell_formula_units_Z 28
_cell_length_a 25.311797
_cell_length_b 8.516201
_cell_length_c 9.518274
_cell_angle_alpha 90.000000
_cell_angle_beta 139.031910
_cell_angle_gamma 90.000000
_cell_volume 1345.214689
_symmetry_space_group_name_H-M "P 2/M"
_symmetry_group_IT_number 10
_symmetry_cell_setting 'monoclinic'
loop_
_space_group_symop_operation_xyz
x,y,z
-x,y,-z
-x,-y,-z
x,-y,z
loop_
_atom_site_type_symbol
_atom_site_label
_atom_site_fract_x
_atom_site_fract_y
_atom_site_fract_z
Si Si1 0.998855 0.687367 0.657657
Si Si2 0.409396 0.181425 0.846559
Si Si3 0.147627 0.686129 0.138842
Si Si4 0.323567 0.683199 0.920621
Si Si5 0.591046 0.817749 0.657179
Si Si6 0.324101 0.681034 0.426076
Si Si7 0.151463 0.686598 0.464249
O O1 0.000162 0.500000 0.657742
O O2 0.000000 0.752231 0.500000
O O3 0.920192 0.751039 0.581030
O O4 0.075946 0.752919 0.898079
O O5 0.389786 0.216848 0.968721
O O6 0.350169 0.292086 0.638800
O O7 0.395309 0.000000 0.781067
O O8 0.500000 0.233133 0.000000
O O9 0.141753 0.500000 0.139209
O O10 0.230859 0.733622 0.229279
O O11 0.142719 0.754920 0.288102
O O12 0.332482 0.500000 0.906490
O O13 0.234554 0.743704 0.701884
O O14 0.343866 0.718946 0.122904
O O15 0.500000 0.756416 0.500000
O O16 0.617608 0.789143 0.550447
O O17 0.596674 0.000000 0.706822
O O18 0.334816 0.500000 0.405296
O O19 0.148139 0.500000 0.452997
#
# Coordination Sequence:
#
# PCOD8067702 Si02
#       7
#     4   4   4   4   4   4   4
#     4   9  17  27  47  79 116 155 188 225 281 343
#     4  11  23  39  59  84 117 156 196 239 289 351
#     4   9  17  31  50  79 117 151 185 232 288 341
#     4  11  22  37  60  89 118 150 195 248 296 342
#     4  11  25  43  59  80 115 158 200 241 295 361
#     4  11  22  37  60  89 118 150 195 248 296 342
#     4   9  17  31  50  79 117 151 185 232 288 341
#
# _framework density 20.814522
#
# number of rings (size 3 to 8) (size 9 to 14) (size 15 to 20)
#    0.000    1.857    1.429    3.000    2.000    7.429 
#    0.000    0.000    0.000    0.000    0.000    6.000 
#    0.000    0.000    0.000    0.000    0.000    0.000 
#
# Total GULP energy -347259.595766 kJ/mol
# GULP energy per Si atom -12402.128420 kJ/mol
# Density = 2.076715 g / cm^3
# Si number density = 20.814522 Si / 1000 Ang^3
#
#
#
# Elastic Constant Matrix: (Units=GPa)
#
#
# Indices 1 2 3 4 5 6 
#
# 1 127.1762 27.7473 37.8339 0.0000 7.3519 0.0000
# 2 27.7473 29.6616 26.6679 0.0000 11.0763 0.0000
# 3 37.8339 26.6679 129.0378 0.0000 5.1478 0.0000
# 4 0.0000 0.0000 0.0000 16.3708 0.0000 -9.9961
# 5 7.3519 11.0763 5.1478 0.0000 37.8080 0.0000
# 6 0.0000 0.0000 0.0000 -9.9961 0.0000 8.3805
#
#
#
# Elastic Compliance Matrix: (Units=1/GPa)
#
#
# Indices 1 2 3 4 5 6 
#
# 1 0.010054 -0.008598 -0.001200 0.000000 0.000727 0.000000
# 2 -0.008598 0.053898 -0.008099 0.000000 -0.013016 0.000000
# 3 -0.001200 -0.008099 0.009724 0.000000 0.001282 0.000000
# 4 0.000000 0.000000 0.000000 0.224846 0.000000 0.268195
# 5 0.000727 -0.013016 0.001282 0.000000 0.029947 0.000000
# 6 0.000000 0.000000 0.000000 0.268195 0.000000 0.439226
#
#
# Mechanical properties :
#
#
# Convention : Reuss Voigt Hill
#
# Bulk Modulus (GPa) = 26.39699 52.26375 39.33037
# Shear Modulus (GPa) = 6.12658 25.42029 15.77343
#
# Velocity S-wave (km/s) = 1.71750 3.49847 2.75582
# Velocity P-wave (km/s) = 4.07954 6.44072 5.39098
#
# Compressibility (1/GPa) = 0.03788311
#
# Stress axis : x y z
#
# Youngs Moduli (GPa) = 99.46383 18.55345 102.83696
#
# Poissons Ratio (x) = 0.15952 0.12340
# Poissons Ratio (y) = 0.85517 0.83287
# Poissons Ratio (z) = 0.11935 0.15026
#
# Static dielectric constant tensor:
#      x y z
#    x 3.836540 0.000000 0.070840 
#    y 0.000000 3.141560 0.000000 
#    z 0.070840 0.000000 3.909250 
# 
# 
# High freq. dielectric constant tensor:
#      x y z
#    x 1.827020 0.000000 0.000640 
#    y 0.000000 1.765240 0.000000 
#    z 0.000640 0.000000 1.826110 
# 
# From -- ./inp_files/37341.got.cif
#   From: 2010.06.25/outbox.cif.g09.slc.cpg/sg10_19_cif.got.tgz:37341.got - 2010.06.27 22:07:45.
