data_PCOD8067905
_publ_section_title
;
Structure prediction by ZEFSAII (Michael W. Deem and Ramdas Pophale) SiO2 
 PCOD8067905
Probable space group: P 2/M
;
_chemical_formula_sum "Si O2"
_cell_formula_units_Z 32
_cell_length_a 9.956080
_cell_length_b 9.371869
_cell_length_c 22.708361
_cell_angle_alpha 90.000000
_cell_angle_beta 116.003923
_cell_angle_gamma 90.000000
_cell_volume 1904.346882
_symmetry_space_group_name_H-M "P 2/M"
_symmetry_group_IT_number 10
_symmetry_cell_setting 'monoclinic'
loop_
_space_group_symop_operation_xyz
x,y,z
-x,y,-z
-x,-y,-z
x,-y,z
loop_
_atom_site_type_symbol
_atom_site_label
_atom_site_fract_x
_atom_site_fract_y
_atom_site_fract_z
Si Si1 0.592239 0.332975 0.188141
Si Si2 0.200717 0.669552 0.300254
Si Si3 0.899790 0.669552 0.300253
Si Si4 0.715958 0.332975 0.811859
Si Si5 0.045263 0.669827 0.445771
Si Si6 0.537296 0.165814 0.941444
Si Si7 0.154408 0.834186 0.058556
Si Si8 0.346279 0.330173 0.445771
O O1 0.605976 0.500000 0.176999
O O2 0.741758 0.270551 0.247118
O O3 0.456251 0.300654 0.206251
O O4 0.569741 0.253400 0.122276
O O5 0.204191 0.500000 0.299836
O O6 0.252478 0.729448 0.247118
O O7 0.314337 0.723892 0.372985
O O8 0.032742 0.722573 0.282742
O O9 0.895479 0.500000 0.299835
O O10 0.931633 0.723891 0.372985
O O11 0.751978 0.500000 0.823001
O O12 0.825188 0.253400 0.877724
O O13 0.039662 0.500000 0.447531
O O14 0.212540 0.720969 0.462540
O O15 0.000000 0.736870 0.500000
O O16 0.711021 0.197926 0.961021
O O17 0.499864 0.000000 0.925841
O O18 0.500000 0.217151 0.000000
O O19 0.148181 0.000000 0.074159
O O20 0.000000 0.782848 0.000000
O O21 0.500000 0.263130 0.500000
O O22 0.355399 0.500000 0.447531
#
# Coordination Sequence:
#
# PCOD8067905 Si02
#       8
#     4   4   4   4   4   4   4   4
#     4   9  17  28  42  61  83 106 134 167 200 236
#     4   8  14  24  36  52  77 107 136 166 201 239
#     4   8  14  24  36  52  77 107 136 166 201 239
#     4   9  17  28  42  61  83 106 134 167 200 236
#     4   8  13  20  30  46  70 101 135 166 195 231
#     4   9  18  32  47  62  82 107 133 163 200 240
#     4   9  18  32  47  62  82 107 133 163 200 240
#     4   8  13  20  30  46  70 101 135 166 195 231
#
# _framework density 16.803661000000002
#
# number of rings (size 3 to 8) (size 9 to 14) (size 15 to 20)
#    0.000    3.500    0.000    1.500    0.000    2.500 
#    0.000    5.000    0.000    0.000    0.000    0.000 
#    0.000    1.000    0.000    2.250    0.000    4.500 
#
# Total GULP energy -396633.425251 kJ/mol
# GULP energy per Si atom -12394.794539 kJ/mol
# Density = 1.676542 g / cm^3
# Si number density = 16.803661 Si / 1000 Ang^3
#
#
#
# Elastic Constant Matrix: (Units=GPa)
#
#
# Indices 1 2 3 4 5 6 
#
# 1 116.4812 22.8421 115.1385 0.0000 -3.4858 0.0000
# 2 22.8421 16.4213 31.9477 0.0000 -0.3734 0.0000
# 3 115.1385 31.9477 179.0825 0.0000 0.9186 0.0000
# 4 0.0000 0.0000 0.0000 -0.8588 0.0000 0.4841
# 5 -3.4858 -0.3734 0.9186 0.0000 42.9892 0.0000
# 6 0.0000 0.0000 0.0000 0.4841 0.0000 10.9467
#
#
#
# Elastic Compliance Matrix: (Units=1/GPa)
#
#
# Indices 1 2 3 4 5 6 
#
# 1 0.024041 -0.005050 -0.014567 0.000000 0.002217 0.000000
# 2 -0.005050 0.094386 -0.013595 0.000000 0.000701 0.000000
# 3 -0.014567 -0.013595 0.017384 0.000000 -0.001671 0.000000
# 4 0.000000 0.000000 0.000000 -1.136098 0.000000 0.050246
# 5 0.002217 0.000701 -0.001671 0.000000 0.023483 0.000000
# 6 0.000000 0.000000 0.000000 0.050246 0.000000 0.089129
#
#
# Mechanical properties :
#
#
# Convention : Reuss Voigt Hill
#
# Bulk Modulus (GPa) = 14.41210 72.42685 43.41947
# Shear Modulus (GPa) = -6.26471 20.08587 6.91058
#
# Velocity S-wave (km/s) = -1.93295 3.46110 2.03014
# Velocity P-wave (km/s) = 1.90097 7.69205 5.60274
#
# Compressibility (1/GPa) = 0.06938616
#
# Stress axis : x y z
#
# Youngs Moduli (GPa) = 41.59519 10.59481 57.52502
#
# Poissons Ratio (x) = 0.05351 0.83799
# Poissons Ratio (y) = 0.21006 0.78204
# Poissons Ratio (z) = 0.60593 0.14403
#
# Static dielectric constant tensor:
#      x y z
#    x 3.360840 0.000000 -0.003500 
#    y 0.000000 2.615640 0.000000 
#    z -0.003500 0.000000 3.446160 
# 
# 
# High freq. dielectric constant tensor:
#      x y z
#    x 1.652100 0.000000 -0.000160 
#    y 0.000000 1.586790 0.000000 
#    z -0.000160 0.000000 1.655930 
# 
# From -- ./inp_files/82502.got.cif
#   From: 2010.06.25/outbox.cif.g09.slc.cpg/sg10_42_cif.got.tgz:82502.got - 2010.06.27 22:07:45.
