data_PCOD8067504
_publ_section_title
;
Structure prediction by ZEFSAII (Michael W. Deem and Ramdas Pophale) SiO2 
 PCOD8067504
Probable space group: P 2/M
;
_chemical_formula_sum "Si O2"
_cell_formula_units_Z 24
_cell_length_a 21.489029
_cell_length_b 7.803690
_cell_length_c 13.038810
_cell_angle_alpha 90.000000
_cell_angle_beta 141.511871
_cell_angle_gamma 90.000000
_cell_volume 1360.790221
_symmetry_space_group_name_H-M "P 2/M"
_symmetry_group_IT_number 10
_symmetry_cell_setting 'monoclinic'
loop_
_space_group_symop_operation_xyz
x,y,z
-x,y,-z
-x,-y,-z
x,-y,z
loop_
_atom_site_type_symbol
_atom_site_label
_atom_site_fract_x
_atom_site_fract_y
_atom_site_fract_z
Si Si1 0.390238 0.198245 0.361750
Si Si2 0.119030 0.194330 0.354337
Si Si3 0.228423 0.804827 0.992005
Si Si4 0.854280 0.500000 0.232218
Si Si5 0.077911 0.500000 0.449923
Si Si6 0.089707 0.190511 0.997742
Si Si7 0.247255 0.690658 0.347051
O O1 0.500000 0.287044 0.500000
O O2 0.340287 0.222981 0.408778
O O3 0.402526 0.000000 0.355990
O O4 0.320179 0.268207 0.179708
O O5 0.116983 0.329233 0.443931
O O6 0.220203 0.211668 0.417703
O O7 0.027506 0.235886 0.157946
O O8 0.110955 0.000000 0.387432
O O9 0.209744 0.671063 0.876089
O O10 0.128853 0.804404 0.931964
O O11 0.247841 0.000000 0.975953
O O12 0.871802 0.500000 0.374922
O O13 0.958025 0.500000 0.302940
O O14 0.107060 0.000000 0.066321
O O15 0.150880 0.319159 0.148030
O O16 0.278767 0.500000 0.417512
#
# Coordination Sequence:
#
# PCOD8067504 Si02
#       7
#     4   4   4   2   2   4   4
#     4   9  19  35  53  78 110 139 169 205 250 310
#     4  11  21  35  50  70 103 139 177 214 253 302
#     4   9  18  33  53  76 104 139 173 207 255 308
#     4  11  22  36  54  73 104 135 178 226 262 303
#     4  11  24  36  50  76 100 138 183 222 264 298
#     4   9  18  30  46  71 101 138 176 203 242 304
#     4  11  21  29  48  76 106 139 170 205 251 310
#
# _framework density 17.636811000000002
#
# number of rings (size 3 to 8) (size 9 to 14) (size 15 to 20)
#    0.000    2.000    2.500    3.000    5.833    3.000 
#    0.000    1.667    0.000    0.000    0.000    2.333 
#    0.000    5.333    0.000    0.000    0.000    0.000 
#
# Total GULP energy -297468.710997 kJ/mol
# GULP energy per Si atom -12394.529625 kJ/mol
# Density = 1.759667 g / cm^3
# Si number density = 17.636811 Si / 1000 Ang^3
#
#
#
# Elastic Constant Matrix: (Units=GPa)
#
#
# Indices 1 2 3 4 5 6 
#
# 1 97.1039 28.3561 47.6595 0.0000 7.6176 0.0000
# 2 28.3561 91.7633 37.3318 0.0000 -9.0347 0.0000
# 3 47.6595 37.3318 67.9353 0.0000 7.7192 0.0000
# 4 0.0000 0.0000 0.0000 16.6050 0.0000 -3.3532
# 5 7.6176 -9.0347 7.7192 0.0000 22.2586 0.0000
# 6 0.0000 0.0000 0.0000 -3.3532 0.0000 16.6011
#
#
#
# Elastic Compliance Matrix: (Units=1/GPa)
#
#
# Indices 1 2 3 4 5 6 
#
# 1 0.015812 -0.000887 -0.010358 0.000000 -0.002179 0.000000
# 2 -0.000887 0.015922 -0.009261 0.000000 0.009978 0.000000
# 3 -0.010358 -0.009261 0.028211 0.000000 -0.009998 0.000000
# 4 0.000000 0.000000 0.000000 0.062783 0.000000 0.012681
# 5 -0.002179 0.009978 -0.009998 0.000000 0.053189 0.000000
# 6 0.000000 0.000000 0.000000 0.012681 0.000000 0.062798
#
#
# Mechanical properties :
#
#
# Convention : Reuss Voigt Hill
#
# Bulk Modulus (GPa) = 52.81509 53.72192 53.26851
# Shear Modulus (GPa) = 17.48022 20.65664 19.06843
#
# Velocity S-wave (km/s) = 3.15162 3.42603 3.29169
# Velocity P-wave (km/s) = 6.57682 6.79533 6.68697
#
# Compressibility (1/GPa) = 0.01893398
#
# Stress axis : x y z
#
# Youngs Moduli (GPa) = 63.24379 62.80798 35.44686
#
# Poissons Ratio (x) = 0.05570 0.36715
# Poissons Ratio (y) = 0.05609 0.32827
# Poissons Ratio (z) = 0.65506 0.58165
#
# Static dielectric constant tensor:
#      x y z
#    x 3.248460 0.000000 0.241490 
#    y 0.000000 3.302990 0.000000 
#    z 0.241490 0.000000 3.079730 
# 
# 
# High freq. dielectric constant tensor:
#      x y z
#    x 1.666250 0.000000 0.006870 
#    y 0.000000 1.690890 0.000000 
#    z 0.006870 0.000000 1.634970 
# 
# From -- ./inp_files/48898.got.cif
#   From: 2010.06.25/outbox.cif.g09.slc.cpg/sg10_25_cif.got.tgz:48898.got - 2010.06.27 22:07:45.
