data_PCOD8067330
_publ_section_title
;
Structure prediction by ZEFSAII (Michael W. Deem and Ramdas Pophale) SiO2 
 PCOD8067330
Probable space group: P 2/M
;
_chemical_formula_sum "Si O2"
_cell_formula_units_Z 24
_cell_length_a 8.637032
_cell_length_b 21.022715
_cell_length_c 8.637066
_cell_angle_alpha 90.000000
_cell_angle_beta 49.564020
_cell_angle_gamma 90.000000
_cell_volume 1193.655684
_symmetry_space_group_name_H-M "P 2/M"
_symmetry_group_IT_number 10
_symmetry_cell_setting 'monoclinic'
loop_
_space_group_symop_operation_xyz
x,y,z
-x,y,-z
-x,-y,-z
x,-y,z
loop_
_atom_site_type_symbol
_atom_site_label
_atom_site_fract_x
_atom_site_fract_y
_atom_site_fract_z
Si Si1 0.281472 0.070809 0.718526
Si Si2 0.867441 0.500000 0.434965
Si Si3 0.898071 0.742563 0.898066
Si Si4 0.131989 0.157946 0.559263
Si Si5 0.565031 0.500000 0.132563
Si Si6 0.440730 0.157943 0.868018
Si Si7 0.902788 0.398156 0.902792
O O1 0.500000 0.066850 0.500000
O O2 0.127042 0.106609 0.701962
O O3 0.298034 0.106606 0.872960
O O4 0.195820 0.000000 0.804172
O O5 0.626635 0.500000 0.626632
O O6 0.000000 0.500000 0.500000
O O7 0.929510 0.436898 0.302687
O O8 0.858448 0.671018 0.858453
O O9 0.041381 0.776089 0.679167
O O10 0.679179 0.776094 0.041362
O O11 0.000000 0.745896 0.000000
O O12 0.360663 0.172372 0.360654
O O13 0.000000 0.131733 0.500000
O O14 0.500000 0.500000 0.000000
O O15 0.697309 0.436897 0.070495
O O16 0.500000 0.131728 0.000000
O O17 0.000000 0.380904 0.000000
#
# Coordination Sequence:
#
# PCOD8067330 Si02
#       7
#     4   2   4   4   2   4   4
#     4   9  20  39  63  89 124 163 207 261 312 371
#     4  11  21  41  64  89 126 163 199 252 303 357
#     4  11  23  42  63  89 126 163 207 257 311 371
#     4  11  22  39  62  89 125 165 207 259 313 369
#     4  11  21  41  64  89 126 163 199 252 303 357
#     4  11  22  39  62  89 125 165 207 259 313 369
#     4  10  24  41  62  94 125 158 206 257 303 364
#
# _framework density 20.106301999999999
#
# number of rings (size 3 to 8) (size 9 to 14) (size 15 to 20)
#    0.000    1.500    5.000    1.000    0.000    4.667 
#    0.000    5.000    0.000    0.000    0.000    0.000 
#    0.000    0.000    0.000    0.000    0.000    0.000 
#
# Total GULP energy -297547.938323 kJ/mol
# GULP energy per Si atom -12397.830763 kJ/mol
# Density = 2.006054 g / cm^3
# Si number density = 20.106302 Si / 1000 Ang^3
#
#
#
# Elastic Constant Matrix: (Units=GPa)
#
#
# Indices 1 2 3 4 5 6 
#
# 1 114.5636 63.7164 44.4928 0.0000 18.3229 0.0000
# 2 63.7164 190.7092 62.2314 0.0000 0.8936 0.0000
# 3 44.4928 62.2314 119.1969 0.0000 -21.0663 0.0000
# 4 0.0000 0.0000 0.0000 9.8737 0.0000 2.1212
# 5 18.3229 0.8936 -21.0663 0.0000 43.1359 0.0000
# 6 0.0000 0.0000 0.0000 2.1212 0.0000 13.4339
#
#
#
# Elastic Compliance Matrix: (Units=1/GPa)
#
#
# Indices 1 2 3 4 5 6 
#
# 1 0.013570 -0.002860 -0.005013 0.000000 -0.008153 0.000000
# 2 -0.002860 0.007070 -0.002665 0.000000 -0.000233 0.000000
# 3 -0.005013 -0.002665 0.013175 0.000000 0.008619 0.000000
# 4 0.000000 0.000000 0.000000 0.104835 0.000000 -0.016554
# 5 -0.008153 -0.000233 0.008619 0.000000 0.030860 0.000000
# 6 0.000000 0.000000 0.000000 -0.016554 0.000000 0.077052
#
#
# Mechanical properties :
#
#
# Convention : Reuss Voigt Hill
#
# Bulk Modulus (GPa) = 78.49494 85.03900 81.76697
# Shear Modulus (GPa) = 18.39011 30.22399 24.30705
#
# Velocity S-wave (km/s) = 3.02759 3.88133 3.48073
# Velocity P-wave (km/s) = 7.16564 7.90398 7.54385
#
# Compressibility (1/GPa) = 0.01273967
#
# Stress axis : x y z
#
# Youngs Moduli (GPa) = 73.69022 141.44946 75.89907
#
# Poissons Ratio (x) = 0.40451 0.38051
# Poissons Ratio (y) = 0.21073 0.20225
# Poissons Ratio (z) = 0.36944 0.37693
#
# Static dielectric constant tensor:
#      x y z
#    x 3.696720 0.000000 0.057720 
#    y 0.000000 3.495480 0.000000 
#    z 0.057720 0.000000 3.599870 
# 
# 
# High freq. dielectric constant tensor:
#      x y z
#    x 1.794550 0.000000 0.001870 
#    y 0.000000 1.780020 0.000000 
#    z 0.001870 0.000000 1.791410 
# 
# From -- ./inp_files/20162.got.cif
#   From: 2010.06.25/outbox.cif.g09.slc.cpg/sg10_11_cif.got.tgz:20162.got - 2010.06.27 22:07:45.
