data_PCOD8067952
_publ_section_title
;
Structure prediction by ZEFSAII (Michael W. Deem and Ramdas Pophale) SiO2 
 PCOD8067952
Probable space group: P 2/M
;
_chemical_formula_sum "Si O2"
_cell_formula_units_Z 28
_cell_length_a 19.862990
_cell_length_b 7.802328
_cell_length_c 22.204446
_cell_angle_alpha 90.000000
_cell_angle_beta 26.562563
_cell_angle_gamma 90.000000
_cell_volume 1538.813704
_symmetry_space_group_name_H-M "P 2/M"
_symmetry_group_IT_number 10
_symmetry_cell_setting 'monoclinic'
loop_
_space_group_symop_operation_xyz
x,y,z
-x,y,-z
-x,-y,-z
x,-y,z
loop_
_atom_site_type_symbol
_atom_site_label
_atom_site_fract_x
_atom_site_fract_y
_atom_site_fract_z
Si Si1 0.236840 0.500000 0.839010
Si Si2 0.075994 0.703779 0.349167
Si Si3 0.005739 0.190184 0.159707
Si Si4 0.325246 0.190181 0.840127
Si Si5 0.774455 0.296222 0.650642
Si Si6 0.841319 0.296281 0.847723
Si Si7 0.084982 0.500000 0.839097
Si Si8 0.536534 0.296279 0.152577
O O1 0.331330 0.330725 0.782093
O O2 0.217083 0.500000 0.782867
O O3 0.076026 0.500000 0.999956
O O4 0.078491 0.500000 0.344911
O O5 0.191214 0.768034 0.308826
O O6 0.126825 0.779005 0.244196
O O7 0.907524 0.767697 0.499882
O O8 0.895736 0.330723 0.217783
O O9 0.028818 0.225337 0.212089
O O10 0.936957 0.000000 0.205224
O O11 0.166598 0.206884 0.999916
O O12 0.453132 0.225321 0.787681
O O13 0.347443 0.000000 0.794639
O O14 0.768431 0.500000 0.654908
O O15 0.615449 0.220983 0.755464
O O16 0.848518 0.500000 0.843442
O O17 0.676732 0.231535 0.000153
O O18 0.535151 0.500000 0.156882
#
# Coordination Sequence:
#
# PCOD8067952 Si02
#       8
#     2   4   4   4   4   4   2   4
#     4   9  16  26  40  60  88 119 150 182 217 265
#     4   8  14  24  38  59  87 116 147 186 230 271
#     4   9  16  26  40  59  86 118 149 183 224 265
#     4   9  16  26  40  59  86 118 149 183 224 265
#     4   8  14  24  38  59  87 116 147 186 230 271
#     4   9  15  24  40  60  84 115 150 187 224 264
#     4   9  16  26  40  60  88 119 150 182 217 265
#     4   9  15  24  40  60  84 115 150 187 224 264
#
# _framework density 18.195834999999999
#
# number of rings (size 3 to 8) (size 9 to 14) (size 15 to 20)
#    0.000    3.286    1.429    0.857    0.000    1.143 
#    0.000    5.714    0.000    1.714    0.000    6.000 
#    0.000    2.286    0.000    2.571    0.000    2.857 
#
# Total GULP energy -347016.370602 kJ/mol
# GULP energy per Si atom -12393.441807 kJ/mol
# Density = 1.815442 g / cm^3
# Si number density = 18.195835 Si / 1000 Ang^3
#
#
#
# Elastic Constant Matrix: (Units=GPa)
#
#
# Indices 1 2 3 4 5 6 
#
# 1 177.8545 62.4791 56.0403 0.0000 -1.2144 0.0000
# 2 62.4791 81.9165 19.1275 0.0000 -0.4623 0.0000
# 3 56.0403 19.1275 48.6665 0.0000 -0.2360 0.0000
# 4 0.0000 0.0000 0.0000 2.8139 0.0000 -0.0252
# 5 -1.2144 -0.4623 -0.2360 0.0000 4.9631 0.0000
# 6 0.0000 0.0000 0.0000 -0.0252 0.0000 5.3363
#
#
#
# Elastic Compliance Matrix: (Units=1/GPa)
#
#
# Indices 1 2 3 4 5 6 
#
# 1 0.010963 -0.005953 -0.010276 0.000000 0.001639 0.000000
# 2 -0.005953 0.016678 0.000300 0.000000 0.000111 0.000000
# 3 -0.010276 0.000300 0.032259 0.000000 -0.000952 0.000000
# 4 0.000000 0.000000 0.000000 0.355393 0.000000 0.001681
# 5 0.001639 0.000111 -0.000952 0.000000 0.201854 0.000000
# 6 0.000000 0.000000 0.000000 0.001681 0.000000 0.187404
#
#
# Mechanical properties :
#
#
# Convention : Reuss Voigt Hill
#
# Bulk Modulus (GPa) = 35.66064 64.85903 50.25984
# Shear Modulus (GPa) = 5.91186 14.00869 9.96027
#
# Velocity S-wave (km/s) = 1.80446 2.77769 2.34218
# Velocity P-wave (km/s) = 4.89716 6.78305 5.91574
#
# Compressibility (1/GPa) = 0.02804212
#
# Stress axis : x y z
#
# Youngs Moduli (GPa) = 91.21609 59.95772 30.99915
#
# Poissons Ratio (x) = 0.35692 0.31856
# Poissons Ratio (y) = 0.54300 -0.00931
# Poissons Ratio (z) = 0.93738 -0.01800
#
# Static dielectric constant tensor:
#      x y z
#    x 3.612240 0.000000 -0.005700 
#    y 0.000000 3.225690 0.000000 
#    z -0.005700 0.000000 3.039770 
# 
# 
# High freq. dielectric constant tensor:
#      x y z
#    x 1.709130 0.000000 -0.000670 
#    y 0.000000 1.693770 0.000000 
#    z -0.000670 0.000000 1.641340 
# 
# From -- ./inp_files/77212.got.cif
#   From: 2010.06.25/outbox.cif.g09.slc.cpg/sg10_39_cif.got.tgz:77212.got - 2010.06.27 22:07:45.
