data_PCOD8067194
_publ_section_title
;
Structure prediction by ZEFSAII (Michael W. Deem and Ramdas Pophale) SiO2 
 PCOD8067194
Probable space group: P 2/M
;
_chemical_formula_sum "Si O2"
_cell_formula_units_Z 24
_cell_length_a 21.124531
_cell_length_b 11.554550
_cell_length_c 14.650468
_cell_angle_alpha 90.000000
_cell_angle_beta 161.518683
_cell_angle_gamma 90.000000
_cell_volume 1133.560187
_symmetry_space_group_name_H-M "P 2/M"
_symmetry_group_IT_number 10
_symmetry_cell_setting 'monoclinic'
loop_
_space_group_symop_operation_xyz
x,y,z
-x,y,-z
-x,-y,-z
x,-y,z
loop_
_atom_site_type_symbol
_atom_site_label
_atom_site_fract_x
_atom_site_fract_y
_atom_site_fract_z
Si Si1 0.564433 0.000000 0.232065
Si Si2 0.118148 0.862849 0.038418
Si Si3 0.357899 0.632566 0.047746
Si Si4 0.708015 0.368197 0.252048
Si Si5 0.070172 0.220049 0.779166
Si Si6 0.166215 0.000000 0.572381
Si Si7 0.697842 0.795924 0.532109
O O1 0.564436 0.111649 0.295947
O O2 0.757372 0.000000 0.428476
O O3 0.356696 0.000000 0.896491
O O4 0.178744 0.820927 0.020526
O O5 0.919470 0.793552 0.794870
O O6 0.076806 0.000000 0.986301
O O7 0.293910 0.829325 0.349108
O O8 0.343078 0.500000 0.061805
O O9 0.589523 0.672146 0.369720
O O10 0.267813 0.642117 0.823395
O O11 0.233451 0.718234 0.940930
O O12 0.709383 0.500000 0.287306
O O13 0.888545 0.307328 0.551321
O O14 0.500000 0.309121 0.000000
O O15 0.971851 0.110066 0.594649
#
# Coordination Sequence:
#
# PCOD8067194 Si02
#       7
#     2   4   4   4   4   2   4
#     4  11  20  37  66  97 130 159 204 275 326 372
#     4  11  21  41  67  96 127 166 210 265 317 381
#     4  11  26  44  63  92 130 169 211 263 316 375
#     4  10  22  41  67  92 121 167 217 262 314 375
#     4  12  22  40  61  92 133 168 206 257 319 379
#     4  11  24  34  61 102 133 163 207 263 324 385
#     4  11  20  41  67  93 125 169 214 261 323 370
#
# _framework density 21.172232999999999
#
# number of rings (size 3 to 8) (size 9 to 14) (size 15 to 20)
#    0.000    1.000    4.167    3.500    2.333    2.667 
#    0.000    8.333    0.000    0.000    0.000    0.000 
#    0.000    0.000    0.000    0.000    0.000    0.000 
#
# Total GULP energy -297655.217058 kJ/mol
# GULP energy per Si atom -12402.300711 kJ/mol
# Density = 2.112404 g / cm^3
# Si number density = 21.172233 Si / 1000 Ang^3
#
#
#
# Elastic Constant Matrix: (Units=GPa)
#
#
# Indices 1 2 3 4 5 6 
#
# 1 78.8384 36.2602 25.6608 0.0000 -7.3845 0.0000
# 2 36.2602 113.3612 43.3093 0.0000 2.6234 0.0000
# 3 25.6608 43.3093 69.4178 0.0000 -13.1686 0.0000
# 4 0.0000 0.0000 0.0000 26.3181 0.0000 12.7421
# 5 -7.3845 2.6234 -13.1686 0.0000 38.3856 0.0000
# 6 0.0000 0.0000 0.0000 12.7421 0.0000 31.4297
#
#
#
# Elastic Compliance Matrix: (Units=1/GPa)
#
#
# Indices 1 2 3 4 5 6 
#
# 1 0.015659 -0.003961 -0.002882 0.000000 0.002294 0.000000
# 2 -0.003961 0.013040 -0.007472 0.000000 -0.004216 0.000000
# 3 -0.002882 -0.007472 0.021525 0.000000 0.007341 0.000000
# 4 0.000000 0.000000 0.000000 0.047276 0.000000 -0.019167
# 5 0.002294 -0.004216 0.007341 0.000000 0.029299 0.000000
# 6 0.000000 0.000000 0.000000 -0.019167 0.000000 0.039587
#
#
# Mechanical properties :
#
#
# Convention : Reuss Voigt Hill
#
# Bulk Modulus (GPa) = 46.30628 52.45312 49.37970
# Shear Modulus (GPa) = 24.72627 29.65250 27.18938
#
# Velocity S-wave (km/s) = 3.42111 3.74643 3.58746
# Velocity P-wave (km/s) = 6.12569 6.59868 6.36658
#
# Compressibility (1/GPa) = 0.02159534
#
# Stress axis : x y z
#
# Youngs Moduli (GPa) = 63.86184 76.68543 46.45797
#
# Poissons Ratio (x) = 0.30373 0.13390
# Poissons Ratio (y) = 0.25294 0.34711
# Poissons Ratio (z) = 0.18406 0.57296
#
# Static dielectric constant tensor:
#      x y z
#    x 3.843630 0.000000 -0.230500 
#    y 0.000000 3.866120 0.000000 
#    z -0.230500 0.000000 3.857610 
# 
# 
# High freq. dielectric constant tensor:
#      x y z
#    x 1.826440 0.000000 -0.010600 
#    y 0.000000 1.827270 0.000000 
#    z -0.010600 0.000000 1.828870 
# 
# From -- ./inp_files/70594.got.cif
#   From: 2010.06.25/outbox.cif.g09.slc.cpg/sg10_36_cif.got.tgz:70594.got - 2010.06.27 22:07:45.
