data_PCOD8067182
_publ_section_title
;
Structure prediction by ZEFSAII (Michael W. Deem and Ramdas Pophale) SiO2 
 PCOD8067182
Probable space group: P 2/M
;
_chemical_formula_sum "Si O2"
_cell_formula_units_Z 28
_cell_length_a 8.829472
_cell_length_b 8.297182
_cell_length_c 28.256174
_cell_angle_alpha 90.000000
_cell_angle_beta 39.243668
_cell_angle_gamma 90.000000
_cell_volume 1309.548080
_symmetry_space_group_name_H-M "P 2/M"
_symmetry_group_IT_number 10
_symmetry_cell_setting 'monoclinic'
loop_
_space_group_symop_operation_xyz
x,y,z
-x,y,-z
-x,-y,-z
x,-y,z
loop_
_atom_site_type_symbol
_atom_site_label
_atom_site_fract_x
_atom_site_fract_y
_atom_site_fract_z
Si Si1 0.015587 0.684130 0.854829
Si Si2 0.457746 0.186395 0.281188
Si Si3 0.699386 0.814904 0.850630
Si Si4 0.266084 0.685469 0.422539
Si Si5 0.909028 0.315273 0.706165
Si Si6 0.423986 0.814434 0.570347
Si Si7 0.835862 0.187970 0.995324
O O1 0.972250 0.500000 0.850580
O O2 0.293591 0.722557 0.783760
O O3 0.868585 0.797467 0.855072
O O4 0.927678 0.709648 0.929222
O O5 0.359522 0.202230 0.357944
O O6 0.275065 0.266521 0.289518
O O7 0.493203 0.000000 0.259742
O O8 0.791185 0.705265 0.785872
O O9 0.699243 0.000000 0.833986
O O10 0.433546 0.758357 0.928245
O O11 0.268705 0.500000 0.405331
O O12 0.436282 0.704297 0.426422
O O13 0.000000 0.742410 0.500000
O O14 0.984759 0.500000 0.680991
O O15 0.141373 0.204151 0.645604
O O16 0.500000 0.755748 0.500000
O O17 0.495215 0.000000 0.561148
O O18 0.851567 0.000000 0.978572
O O19 0.000000 0.231482 0.000000
#
# Coordination Sequence:
#
# PCOD8067182 Si02
#       7
#     4   4   4   4   4   4   4
#     4  12  25  41  63  92 127 164 207 259 313 366
#     4  12  25  43  66  91 124 164 209 256 307 371
#     4  11  23  41  65  92 126 167 210 254 306 369
#     4  11  24  42  65  94 128 164 205 257 315 368
#     4  12  25  42  65  94 128 162 204 257 313 369
#     4  11  24  42  65  93 126 166 211 255 304 367
#     4  10  22  41  65  92 123 162 208 257 310 370
#
# _framework density 21.381421
#
# number of rings (size 3 to 8) (size 9 to 14) (size 15 to 20)
#    0.000    0.714    0.000    8.143    0.000    8.857 
#    0.000    0.000    0.000    0.000    0.000    0.000 
#    0.000    0.000    0.000    0.000    0.000    0.000 
#
# Total GULP energy -347492.643411 kJ/mol
# GULP energy per Si atom -12410.451550 kJ/mol
# Density = 2.133276 g / cm^3
# Si number density = 21.381421 Si / 1000 Ang^3
#
#
#
# Elastic Constant Matrix: (Units=GPa)
#
#
# Indices 1 2 3 4 5 6 
#
# 1 142.2559 5.9717 57.8142 0.0000 -8.3013 0.0000
# 2 5.9717 69.2426 18.5198 0.0000 4.7783 0.0000
# 3 57.8142 18.5198 146.5163 0.0000 -5.0587 0.0000
# 4 0.0000 0.0000 0.0000 31.0555 0.0000 4.5468
# 5 -8.3013 4.7783 -5.0587 0.0000 45.1846 0.0000
# 6 0.0000 0.0000 0.0000 4.5468 0.0000 33.5377
#
#
#
# Elastic Compliance Matrix: (Units=1/GPa)
#
#
# Indices 1 2 3 4 5 6 
#
# 1 0.008435 0.000073 -0.003297 0.000000 0.001173 0.000000
# 2 0.000073 0.015095 -0.001999 0.000000 -0.001807 0.000000
# 3 -0.003297 -0.001999 0.008398 0.000000 0.000546 0.000000
# 4 0.000000 0.000000 0.000000 0.032853 0.000000 -0.004454
# 5 0.001173 -0.001807 0.000546 0.000000 0.022599 0.000000
# 6 0.000000 0.000000 0.000000 -0.004454 0.000000 0.030421
#
#
# Mechanical properties :
#
#
# Convention : Reuss Voigt Hill
#
# Bulk Modulus (GPa) = 46.55137 58.06957 52.31047
# Shear Modulus (GPa) = 36.92568 40.33617 38.63093
#
# Velocity S-wave (km/s) = 4.16023 4.34810 4.25520
# Velocity P-wave (km/s) = 6.70043 7.24057 6.97573
#
# Compressibility (1/GPa) = 0.02148164
#
# Stress axis : x y z
#
# Youngs Moduli (GPa) = 118.55466 66.24671 119.07907
#
# Poissons Ratio (x) = -0.00487 0.39262
# Poissons Ratio (y) = -0.00871 0.23809
# Poissons Ratio (z) = 0.39089 0.13245
#
# Static dielectric constant tensor:
#      x y z
#    x 3.951170 0.000000 -0.066140 
#    y 0.000000 3.743920 0.000000 
#    z -0.066140 0.000000 3.991060 
# 
# 
# High freq. dielectric constant tensor:
#      x y z
#    x 1.854630 0.000000 -0.001920 
#    y 0.000000 1.842820 0.000000 
#    z -0.001920 0.000000 1.854810 
# 
# From -- ./inp_files/91994.got.cif
#   From: 2010.06.25/outbox.cif.g09.slc.cpg/sg10_46_cif.got.tgz:91994.got - 2010.06.27 22:07:45.
