data_PCOD8067129
_publ_section_title
;
Structure prediction by ZEFSAII (Michael W. Deem and Ramdas Pophale) SiO2 
 PCOD8067129
Probable space group: P 2/M
;
_chemical_formula_sum "Si O2"
_cell_formula_units_Z 28
_cell_length_a 11.742409
_cell_length_b 8.931733
_cell_length_c 15.543310
_cell_angle_alpha 90.000000
_cell_angle_beta 56.258199
_cell_angle_gamma 90.000000
_cell_volume 1355.577478
_symmetry_space_group_name_H-M "P 2/M"
_symmetry_group_IT_number 10
_symmetry_cell_setting 'monoclinic'
loop_
_space_group_symop_operation_xyz
x,y,z
-x,y,-z
-x,-y,-z
x,-y,z
loop_
_atom_site_type_symbol
_atom_site_label
_atom_site_fract_x
_atom_site_fract_y
_atom_site_fract_z
Si Si1 0.141109 0.824056 0.484277
Si Si2 0.158288 0.326277 0.135668
Si Si3 0.153741 0.173411 0.960763
Si Si4 0.316873 0.670010 0.747800
Si Si5 0.136033 0.671536 0.666492
Si Si6 0.598626 0.176742 0.881072
Si Si7 0.401525 0.671969 0.293021
O O1 0.143103 0.780330 0.582955
O O2 0.263557 0.746695 0.382872
O O3 0.000000 0.770338 0.500000
O O4 0.160398 0.000000 0.467562
O O5 0.194852 0.500000 0.126971
O O6 0.248269 0.236627 0.167086
O O7 0.999801 0.294075 0.221676
O O8 0.196581 0.269399 0.025055
O O9 0.249862 0.214432 0.841368
O O10 0.173453 0.000000 0.975813
O O11 0.000000 0.212579 0.000000
O O12 0.272829 0.500000 0.790690
O O13 0.266443 0.706187 0.672454
O O14 0.481121 0.688027 0.683308
O O15 0.137714 0.500000 0.633281
O O16 0.543024 0.248886 0.816586
O O17 0.602044 0.000000 0.868752
O O18 0.500000 0.227125 0.000000
O O19 0.370189 0.500000 0.285437
#
# Coordination Sequence:
#
# PCOD8067129 Si02
#       7
#     4   4   4   4   4   4   4
#     4  11  25  44  66  91 121 159 201 252 312 369
#     4  11  22  37  62  90 121 162 208 257 305 361
#     4  11  22  35  56  89 128 168 206 249 303 361
#     4  10  22  41  63  90 125 164 206 252 304 366
#     4  10  22  40  63  91 121 156 201 253 305 360
#     4  11  24  41  61  88 126 164 202 252 308 365
#     4  11  24  42  66  92 122 162 206 253 305 364
#
# _framework density 20.655404000000001
#
# number of rings (size 3 to 8) (size 9 to 14) (size 15 to 20)
#    0.000    1.286    1.429    3.857    0.000   10.857 
#    0.000    2.857    0.000    0.000    0.000    0.000 
#    0.000    0.000    0.000    0.000    0.000    0.000 
#
# Total GULP energy -347391.041308 kJ/mol
# GULP energy per Si atom -12406.822904 kJ/mol
# Density = 2.060839 g / cm^3
# Si number density = 20.655404 Si / 1000 Ang^3
#
#
#
# Elastic Constant Matrix: (Units=GPa)
#
#
# Indices 1 2 3 4 5 6 
#
# 1 142.8594 54.2136 50.4105 0.0000 4.9298 0.0000
# 2 54.2136 80.6685 46.6965 0.0000 -1.7445 0.0000
# 3 50.4105 46.6965 99.3008 0.0000 5.1417 0.0000
# 4 0.0000 0.0000 0.0000 37.1423 0.0000 6.0936
# 5 4.9298 -1.7445 5.1417 0.0000 34.9636 0.0000
# 6 0.0000 0.0000 0.0000 6.0936 0.0000 17.7054
#
#
#
# Elastic Compliance Matrix: (Units=1/GPa)
#
#
# Indices 1 2 3 4 5 6 
#
# 1 0.009918 -0.005245 -0.002501 0.000000 -0.001292 0.000000
# 2 -0.005245 0.019953 -0.006862 0.000000 0.002744 0.000000
# 3 -0.002501 -0.006862 0.014678 0.000000 -0.002148 0.000000
# 4 0.000000 0.000000 0.000000 0.028535 0.000000 -0.009821
# 5 -0.001292 0.002744 -0.002148 0.000000 0.029236 0.000000
# 6 0.000000 0.000000 0.000000 -0.009821 0.000000 0.059860
#
#
# Mechanical properties :
#
#
# Convention : Reuss Voigt Hill
#
# Bulk Modulus (GPa) = 65.22471 69.49667 67.36069
# Shear Modulus (GPa) = 25.44420 29.39611 27.42016
#
# Velocity S-wave (km/s) = 3.51357 3.77658 3.64745
# Velocity P-wave (km/s) = 6.93587 7.26193 7.10077
#
# Compressibility (1/GPa) = 0.01533161
#
# Stress axis : x y z
#
# Youngs Moduli (GPa) = 100.83100 50.11710 68.12691
#
# Poissons Ratio (x) = 0.26287 0.17040
# Poissons Ratio (y) = 0.52888 0.46752
# Poissons Ratio (z) = 0.25220 0.34393
#
# Static dielectric constant tensor:
#      x y z
#    x 4.002180 0.000000 0.074980 
#    y 0.000000 3.742220 0.000000 
#    z 0.074980 0.000000 3.640670 
# 
# 
# High freq. dielectric constant tensor:
#      x y z
#    x 1.826020 0.000000 0.003070 
#    y 0.000000 1.813030 0.000000 
#    z 0.003070 0.000000 1.800050 
# 
# From -- ./inp_files/50068.got.cif
#   From: 2010.06.25/outbox.cif.g09.slc.cpg/sg10_26_cif.got.tgz:50068.got - 2010.06.27 22:07:45.
