data_PCOD8067779
_publ_section_title
;
Structure prediction by ZEFSAII (Michael W. Deem and Ramdas Pophale) SiO2 
 PCOD8067779
Probable space group: P 2/M
;
_chemical_formula_sum "Si O2"
_cell_formula_units_Z 24
_cell_length_a 24.041818
_cell_length_b 11.235678
_cell_length_c 11.128031
_cell_angle_alpha 90.000000
_cell_angle_beta 24.086824
_cell_angle_gamma 90.000000
_cell_volume 1226.798845
_symmetry_space_group_name_H-M "P 2/M"
_symmetry_group_IT_number 10
_symmetry_cell_setting 'monoclinic'
loop_
_space_group_symop_operation_xyz
x,y,z
-x,y,-z
-x,-y,-z
x,-y,z
loop_
_atom_site_type_symbol
_atom_site_label
_atom_site_fract_x
_atom_site_fract_y
_atom_site_fract_z
Si Si1 0.459385 0.364290 0.203131
Si Si2 0.339203 0.252223 0.825439
Si Si3 0.000665 0.000000 0.293638
Si Si4 0.222785 0.000000 0.059993
Si Si5 0.262919 0.364154 0.217916
Si Si6 0.025941 0.763089 0.806072
Si Si7 0.217617 0.360010 0.831329
O O1 0.421555 0.500000 0.245623
O O2 0.325542 0.305323 0.523358
O O3 0.500000 0.296748 0.000000
O O4 0.579350 0.355235 0.061144
O O5 0.500000 0.287105 0.500000
O O6 0.248608 0.295423 0.893781
O O7 0.324450 0.111088 0.864893
O O8 0.257436 0.313836 0.094992
O O9 0.999136 0.888727 0.207252
O O10 0.136399 0.000000 0.107025
O O11 0.871652 0.000000 0.635938
O O12 0.210392 0.500000 0.325642
O O13 0.177735 0.284726 0.480364
O O14 0.000000 0.771021 0.000000
O O15 0.930420 0.666862 0.928772
O O16 0.236924 0.500000 0.813041
#
# Coordination Sequence:
#
# PCOD8067779 Si02
#       7
#     4   4   2   2   4   4   4
#     4   9  18  35  57  83 122 169 208 241 293 372
#     4  12  23  41  67  93 126 163 210 267 315 369
#     4  11  23  44  68  88 115 167 218 260 316 367
#     4  11  23  44  68  88 119 163 214 266 318 364
#     4  11  23  38  62  95 129 166 205 253 316 377
#     4  12  25  43  65  91 128 168 212 260 308 371
#     4  11  23  38  62  95 129 166 205 253 316 377
#
# _framework density 19.563108
#
# number of rings (size 3 to 8) (size 9 to 14) (size 15 to 20)
#    0.000    1.000    5.000    2.500    0.000    4.000 
#    0.000    1.667    0.000    0.000    0.000    7.000 
#    0.000    0.000    0.000    0.000    0.000    0.000 
#
# Total GULP energy -297573.483996 kJ/mol
# GULP energy per Si atom -12398.895166 kJ/mol
# Density = 1.951858 g / cm^3
# Si number density = 19.563108 Si / 1000 Ang^3
#
#
#
# Elastic Constant Matrix: (Units=GPa)
#
#
# Indices 1 2 3 4 5 6 
#
# 1 93.3635 22.9196 17.0042 0.0000 21.4664 0.0000
# 2 22.9196 70.3549 22.6010 0.0000 8.7483 0.0000
# 3 17.0042 22.6010 81.4236 0.0000 15.1245 0.0000
# 4 0.0000 0.0000 0.0000 30.3215 0.0000 -0.1835
# 5 21.4664 8.7483 15.1245 0.0000 37.8538 0.0000
# 6 0.0000 0.0000 0.0000 -0.1835 0.0000 16.9126
#
#
#
# Elastic Compliance Matrix: (Units=1/GPa)
#
#
# Indices 1 2 3 4 5 6 
#
# 1 0.013105 -0.003266 -0.000637 0.000000 -0.006422 0.000000
# 2 -0.003266 0.016564 -0.003833 0.000000 -0.000445 0.000000
# 3 -0.000637 -0.003833 0.014309 0.000000 -0.004470 0.000000
# 4 0.000000 0.000000 0.000000 0.032982 0.000000 0.000358
# 5 -0.006422 -0.000445 -0.004470 0.000000 0.031948 0.000000
# 6 0.000000 0.000000 0.000000 0.000358 0.000000 0.059132
#
#
# Mechanical properties :
#
#
# Convention : Reuss Voigt Hill
#
# Bulk Modulus (GPa) = 35.08110 41.13240 38.10675
# Shear Modulus (GPa) = 25.90473 29.19205 27.54839
#
# Velocity S-wave (km/s) = 3.64285 3.86709 3.75664
# Velocity P-wave (km/s) = 5.97202 6.40393 6.19174
#
# Compressibility (1/GPa) = 0.02850538
#
# Stress axis : x y z
#
# Youngs Moduli (GPa) = 76.30485 60.37090 69.88710
#
# Poissons Ratio (x) = 0.19717 0.04454
# Poissons Ratio (y) = 0.24921 0.26789
# Poissons Ratio (z) = 0.04863 0.23141
#
# Static dielectric constant tensor:
#      x y z
#    x 3.607820 0.000000 0.198510 
#    y 0.000000 3.443100 0.000000 
#    z 0.198510 0.000000 3.700210 
# 
# 
# High freq. dielectric constant tensor:
#      x y z
#    x 1.771690 0.000000 0.008520 
#    y 0.000000 1.747560 0.000000 
#    z 0.008520 0.000000 1.775010 
# 
# From -- ./inp_files/57728.got.cif
#   From: 2010.06.25/outbox.cif.g09.slc.cpg/sg10_29_cif.got.tgz:57728.got - 2010.06.27 22:07:45.
