data_PCOD8067114
_publ_section_title
;
Structure prediction by ZEFSAII (Michael W. Deem and Ramdas Pophale) SiO2 
 PCOD8067114
Probable space group: P 2/M
;
_chemical_formula_sum "Si O2"
_cell_formula_units_Z 32
_cell_length_a 18.997151
_cell_length_b 13.807001
_cell_length_c 12.370827
_cell_angle_alpha 90.000000
_cell_angle_beta 28.920743
_cell_angle_gamma 90.000000
_cell_volume 1569.178061
_symmetry_space_group_name_H-M "P 2/M"
_symmetry_group_IT_number 10
_symmetry_cell_setting 'monoclinic'
loop_
_space_group_symop_operation_xyz
x,y,z
-x,y,-z
-x,-y,-z
x,-y,z
loop_
_atom_site_type_symbol
_atom_site_label
_atom_site_fract_x
_atom_site_fract_y
_atom_site_fract_z
Si Si1 0.842244 0.194163 0.155570
Si Si2 0.169026 0.605085 0.757179
Si Si3 0.609639 0.112714 0.622784
Si Si4 0.086078 0.113724 0.168956
Si Si5 0.693298 0.806527 0.958949
Si Si6 0.672772 0.611353 0.667669
Si Si7 0.654651 0.386540 0.928370
Si Si8 0.757945 0.884798 0.641270
O O1 0.778988 0.304791 0.240206
O O2 0.733420 0.124532 0.365737
O O3 0.846720 0.163670 0.026129
O O4 0.000000 0.189256 0.000000
O O5 0.244799 0.500000 0.682792
O O6 0.202959 0.634353 0.586982
O O7 0.000000 0.590469 0.000000
O O8 0.668815 0.156412 0.657431
O O9 0.573198 0.000000 0.683925
O O10 0.464859 0.168599 0.778764
O O11 0.180912 0.140174 0.145235
O O12 0.923755 0.151545 0.408244
O O13 0.088066 0.000000 0.146757
O O14 0.725624 0.689747 0.917615
O O15 0.686845 0.846724 0.845937
O O16 0.656555 0.500000 0.716936
O O17 0.712997 0.651524 0.732495
O O18 0.515379 0.641603 0.834937
O O19 0.689376 0.500000 0.909564
O O20 0.751194 0.000000 0.649166
#
# Coordination Sequence:
#
# PCOD8067114 Si02
#       8
#     4   4   4   4   4   4   4   4
#     4  11  22  38  63  85 113 159 211 242 292 361
#     4   9  18  31  51  82 116 145 188 247 296 338
#     4  11  23  38  60  92 120 151 198 258 302 340
#     4  11  24  43  62  84 118 164 205 243 298 369
#     4  12  24  36  61  91 125 155 194 246 308 355
#     4   8  15  30  51  78 113 150 189 236 287 342
#     4   9  19  33  55  85 119 157 194 234 291 356
#     4  10  22  40  62  85 117 158 200 243 297 361
#
# _framework density 20.39284
#
# number of rings (size 3 to 8) (size 9 to 14) (size 15 to 20)
#    0.000    1.875    1.250    3.750    5.250    3.000 
#    0.000    1.875    0.000    1.500    0.000    4.375 
#    0.000    0.000    0.000    0.000    0.000    0.000 
#
# Total GULP energy -396610.032324 kJ/mol
# GULP energy per Si atom -12394.063510 kJ/mol
# Density = 2.034643 g / cm^3
# Si number density = 20.392840 Si / 1000 Ang^3
#
#
#
# Elastic Constant Matrix: (Units=GPa)
#
#
# Indices 1 2 3 4 5 6 
#
# 1 40.0951 23.6931 16.8187 0.0000 -2.4293 0.0000
# 2 23.6931 71.7269 19.6946 0.0000 2.4970 0.0000
# 3 16.8187 19.6946 109.7296 0.0000 11.5905 0.0000
# 4 0.0000 0.0000 0.0000 14.5132 0.0000 -0.9608
# 5 -2.4293 2.4970 11.5905 0.0000 29.8958 0.0000
# 6 0.0000 0.0000 0.0000 -0.9608 0.0000 20.3154
#
#
#
# Elastic Compliance Matrix: (Units=1/GPa)
#
#
# Indices 1 2 3 4 5 6 
#
# 1 0.032686 -0.009940 -0.003748 0.000000 0.004939 0.000000
# 2 -0.009940 0.017688 -0.001470 0.000000 -0.001715 0.000000
# 3 -0.003748 -0.001470 0.010397 0.000000 -0.004212 0.000000
# 4 0.000000 0.000000 0.000000 0.069119 0.000000 0.003269
# 5 0.004939 -0.001715 -0.004212 0.000000 0.035627 0.000000
# 6 0.000000 0.000000 0.000000 0.003269 0.000000 0.049378
#
#
# Mechanical properties :
#
#
# Convention : Reuss Voigt Hill
#
# Bulk Modulus (GPa) = 32.83452 37.99603 35.41528
# Shear Modulus (GPa) = 19.58004 23.70123 21.64064
#
# Velocity S-wave (km/s) = 3.10198 3.41285 3.26112
# Velocity P-wave (km/s) = 5.38197 5.84830 5.61997
#
# Compressibility (1/GPa) = 0.03045575
#
# Stress axis : x y z
#
# Youngs Moduli (GPa) = 30.59455 56.53395 96.18612
#
# Poissons Ratio (x) = 0.56193 0.36046
# Poissons Ratio (y) = 0.30410 0.14140
# Poissons Ratio (z) = 0.11465 0.08311
#
# Static dielectric constant tensor:
#      x y z
#    x 3.310790 0.000000 -0.017720 
#    y 0.000000 4.039000 0.000000 
#    z -0.017720 0.000000 6.788190 
# 
# 
# High freq. dielectric constant tensor:
#      x y z
#    x 1.746890 0.000000 0.017180 
#    y 0.000000 1.819590 0.000000 
#    z 0.017180 0.000000 1.808710 
# 
# From -- ./inp_files/53983.got.cif
#   From: 2010.06.25/outbox.cif.g09.slc.cpg/sg10_27_cif.got.tgz:53983.got - 2010.06.27 22:07:45.
