data_PCOD8067066
_publ_section_title
;
Structure prediction by ZEFSAII (Michael W. Deem and Ramdas Pophale) SiO2 
 PCOD8067066
Probable space group: P 2/M
;
_chemical_formula_sum "Si O2"
_cell_formula_units_Z 28
_cell_length_a 22.687224
_cell_length_b 13.651472
_cell_length_c 10.064950
_cell_angle_alpha 90.000000
_cell_angle_beta 26.747334
_cell_angle_gamma 90.000000
_cell_volume 1402.942521
_symmetry_space_group_name_H-M "P 2/M"
_symmetry_group_IT_number 10
_symmetry_cell_setting 'monoclinic'
loop_
_space_group_symop_operation_xyz
x,y,z
-x,y,-z
-x,-y,-z
x,-y,z
loop_
_atom_site_type_symbol
_atom_site_label
_atom_site_fract_x
_atom_site_fract_y
_atom_site_fract_z
Si Si1 0.754508 0.248356 0.224448
Si Si2 0.983393 0.203761 0.186702
Si Si3 0.477702 0.112712 0.396593
Si Si4 0.151978 0.612077 0.190153
Si Si5 0.167330 0.389395 0.459141
Si Si6 0.651244 0.704437 0.701241
Si Si7 0.717827 0.888516 0.722816
O O1 0.635626 0.174114 0.444562
O O2 0.720835 0.315826 0.420125
O O3 0.770175 0.317731 0.065948
O O4 0.886043 0.184998 0.990071
O O5 0.953093 0.319627 0.258992
O O6 0.861904 0.140496 0.489100
O O7 0.000000 0.173517 0.000000
O O8 0.500000 0.150964 0.500000
O O9 0.433236 0.000000 0.484363
O O10 0.615082 0.128260 0.046756
O O11 0.167540 0.500000 0.110390
O O12 0.211305 0.626658 0.217883
O O13 0.000000 0.642156 0.500000
O O14 0.118321 0.500000 0.579474
O O15 0.291610 0.366112 0.300705
O O16 0.679227 0.818666 0.678119
O O17 0.500000 0.679952 0.000000
O O18 0.716863 0.000000 0.673221
#
# Coordination Sequence:
#
# PCOD8067066 Si02
#       7
#     4   4   4   4   4   4   4
#     4  12  23  37  66  96 128 162 204 270 309 361
#     4  11  22  39  59  99 129 157 211 254 315 372
#     4  10  24  43  64  92 125 170 215 251 311 380
#     4  10  22  39  62  93 123 162 209 250 309 378
#     4  10  22  41  64  86 125 169 204 250 308 373
#     4  11  23  41  61  95 125 163 212 253 314 370
#     4  10  22  41  64  86 125 169 205 252 307 371
#
# _framework density 19.958051999999999
#
# number of rings (size 3 to 8) (size 9 to 14) (size 15 to 20)
#    0.000    1.429    5.714    0.000    4.000    2.857 
#    0.000    0.000    0.000    5.143    0.000    0.000 
#    0.000    0.000    0.000    0.000    0.000    0.000 
#
# Total GULP energy -347236.396903 kJ/mol
# GULP energy per Si atom -12401.299889 kJ/mol
# Density = 1.991263 g / cm^3
# Si number density = 19.958052 Si / 1000 Ang^3
#
#
#
# Elastic Constant Matrix: (Units=GPa)
#
#
# Indices 1 2 3 4 5 6 
#
# 1 122.5463 29.3694 54.1461 0.0000 -2.0106 0.0000
# 2 29.3694 78.5722 36.5383 0.0000 5.9895 0.0000
# 3 54.1461 36.5383 121.5973 0.0000 -6.1476 0.0000
# 4 0.0000 0.0000 0.0000 20.1074 0.0000 2.1048
# 5 -2.0106 5.9895 -6.1476 0.0000 37.9457 0.0000
# 6 0.0000 0.0000 0.0000 2.1048 0.0000 18.8286
#
#
#
# Elastic Compliance Matrix: (Units=1/GPa)
#
#
# Indices 1 2 3 4 5 6 
#
# 1 0.010430 -0.002047 -0.004018 0.000000 0.000225 0.000000
# 2 -0.002047 0.015562 -0.003926 0.000000 -0.003201 0.000000
# 3 -0.004018 -0.003926 0.011306 0.000000 0.002239 0.000000
# 4 0.000000 0.000000 0.000000 0.050322 0.000000 -0.005625
# 5 0.000225 -0.003201 0.002239 0.000000 0.027233 0.000000
# 6 0.000000 0.000000 0.000000 -0.005625 0.000000 0.053740
#
#
# Mechanical properties :
#
#
# Convention : Reuss Voigt Hill
#
# Bulk Modulus (GPa) = 57.75321 62.53596 60.14458
# Shear Modulus (GPa) = 25.72713 28.88712 27.30713
#
# Velocity S-wave (km/s) = 3.59424 3.80859 3.70297
# Velocity P-wave (km/s) = 6.79889 7.12335 6.96301
#
# Compressibility (1/GPa) = 0.01731506
#
# Stress axis : x y z
#
# Youngs Moduli (GPa) = 95.87982 64.25769 88.44919
#
# Poissons Ratio (x) = 0.13156 0.35536
# Poissons Ratio (y) = 0.19630 0.34729
# Poissons Ratio (z) = 0.38522 0.25230
#
# Static dielectric constant tensor:
#      x y z
#    x 3.738220 0.000000 0.019180 
#    y 0.000000 3.519940 0.000000 
#    z 0.019180 0.000000 3.693920 
# 
# 
# High freq. dielectric constant tensor:
#      x y z
#    x 1.784700 0.000000 0.001030 
#    y 0.000000 1.763620 0.000000 
#    z 0.001030 0.000000 1.783100 
# 
# From -- ./inp_files/35225.got.cif
#   From: 2010.06.25/outbox.cif.g09.slc.cpg/sg10_18_cif.got.tgz:35225.got - 2010.06.27 22:07:45.
