data_PCOD8067953
_publ_section_title
;
Structure prediction by ZEFSAII (Michael W. Deem and Ramdas Pophale) SiO2 
 PCOD8067953
Probable space group: P 2/M
;
_chemical_formula_sum "Si O2"
_cell_formula_units_Z 32
_cell_length_a 23.024132
_cell_length_b 9.327907
_cell_length_c 28.518038
_cell_angle_alpha 90.000000
_cell_angle_beta 17.981291
_cell_angle_gamma 90.000000
_cell_volume 1890.744244
_symmetry_space_group_name_H-M "P 2/M"
_symmetry_group_IT_number 10
_symmetry_cell_setting 'monoclinic'
loop_
_space_group_symop_operation_xyz
x,y,z
-x,y,-z
-x,-y,-z
x,-y,z
loop_
_atom_site_type_symbol
_atom_site_label
_atom_site_fract_x
_atom_site_fract_y
_atom_site_fract_z
Si Si1 0.207626 0.332356 0.849838
Si Si2 0.557474 0.842453 0.265830
Si Si3 0.008736 0.333867 0.296026
Si Si4 0.750026 0.836801 0.561252
Si Si5 0.213114 0.162549 0.602041
Si Si6 0.468206 0.332309 0.470780
Si Si7 0.286264 0.666425 0.160538
Si Si8 0.013891 0.835282 0.437470
O O1 0.197320 0.500000 0.865518
O O2 0.283777 0.268827 0.840427
O O3 0.343509 0.289934 0.702485
O O4 0.000000 0.269345 0.000000
O O5 0.474059 0.812507 0.277326
O O6 0.375633 0.830806 0.438640
O O7 0.648660 0.000000 0.199075
O O8 0.975380 0.500000 0.309259
O O9 0.861780 0.285549 0.448204
O O10 0.973137 0.241269 0.275970
O O11 0.213235 0.307741 0.162942
O O12 0.806626 0.821684 0.572369
O O13 0.802948 0.000000 0.503291
O O14 0.287608 0.245172 0.590901
O O15 0.160569 0.000000 0.656195
O O16 0.500000 0.288671 0.500000
O O17 0.424284 0.500000 0.498890
O O18 0.266224 0.500000 0.189146
O O19 0.169517 0.754442 0.288036
O O20 0.500000 0.719222 0.000000
O O21 0.000000 0.767728 0.500000
O O22 0.078329 0.000000 0.391131
#
# Coordination Sequence:
#
# PCOD8067953 Si02
#       8
#     4   4   4   4   4   4   4   4
#     4   9  17  28  42  61  84 107 132 167 207 244
#     4   8  14  24  39  59  81 107 137 170 207 244
#     4   9  15  24  41  63  85 111 144 180 217 256
#     4   8  14  25  40  60  86 111 139 178 217 250
#     4   9  16  26  41  62  87 111 138 176 217 252
#     4   9  17  29  45  64  85 111 142 173 207 250
#     4   9  18  31  46  66  92 120 150 186 227 269
#     4   9  17  29  46  68  92 119 150 183 221 266
#
# _framework density 16.924551999999998
#
# number of rings (size 3 to 8) (size 9 to 14) (size 15 to 20)
#    0.000    3.250    0.000    1.500    0.000    4.500 
#    0.000    0.000    0.000    1.500    0.000    5.250 
#    0.000    0.000    0.000    0.000    0.000    0.000 
#
# Total GULP energy -396468.514098 kJ/mol
# GULP energy per Si atom -12389.641066 kJ/mol
# Density = 1.688603 g / cm^3
# Si number density = 16.924552 Si / 1000 Ang^3
#
#
#
# Elastic Constant Matrix: (Units=GPa)
#
#
# Indices 1 2 3 4 5 6 
#
# 1 152.3159 56.2535 53.0888 0.0000 -29.9182 0.0000
# 2 56.2535 69.0509 31.9074 0.0000 -15.2962 0.0000
# 3 53.0888 31.9074 57.9841 0.0000 -23.8849 0.0000
# 4 0.0000 0.0000 0.0000 16.7532 0.0000 -7.0931
# 5 -29.9182 -15.2962 -23.8849 0.0000 27.9201 0.0000
# 6 0.0000 0.0000 0.0000 -7.0931 0.0000 27.0134
#
#
#
# Elastic Compliance Matrix: (Units=1/GPa)
#
#
# Indices 1 2 3 4 5 6 
#
# 1 0.011514 -0.005861 -0.005493 0.000000 0.004428 0.000000
# 2 -0.005861 0.022501 -0.006987 0.000000 0.000070 0.000000
# 3 -0.005493 -0.006987 0.034154 0.000000 0.019504 0.000000
# 4 0.000000 0.000000 0.000000 0.067156 0.000000 0.017633
# 5 0.004428 0.000070 0.019504 0.000000 0.057285 0.000000
# 6 0.000000 0.000000 0.000000 0.017633 0.000000 0.041649
#
#
# Mechanical properties :
#
#
# Convention : Reuss Voigt Hill
#
# Bulk Modulus (GPa) = 31.75832 62.42780 47.09306
# Shear Modulus (GPa) = 17.76602 23.54409 20.65506
#
# Velocity S-wave (km/s) = 3.24345 3.73382 3.49724
# Velocity P-wave (km/s) = 5.72992 7.45349 6.64780
#
# Compressibility (1/GPa) = 0.03148781
#
# Stress axis : x y z
#
# Youngs Moduli (GPa) = 86.84895 44.44273 29.27921
#
# Poissons Ratio (x) = 0.26049 0.16082
# Poissons Ratio (y) = 0.50904 0.20456
# Poissons Ratio (z) = 0.47704 0.31051
#
# Static dielectric constant tensor:
#      x y z
#    x 3.569980 0.000000 -0.436480 
#    y 0.000000 3.206040 0.000000 
#    z -0.436480 0.000000 2.835680 
# 
# 
# High freq. dielectric constant tensor:
#      x y z
#    x 1.662390 0.000000 -0.038770 
#    y 0.000000 1.656430 0.000000 
#    z -0.038770 0.000000 1.593400 
# 
# From -- ./inp_files/95745.got.cif
#   From: 2010.06.25/outbox.cif.g09.slc.cpg/sg10_48_cif.got.tgz:95745.got - 2010.06.27 22:07:45.
