data_PCOD8067339
_publ_section_title
;
Structure prediction by ZEFSAII (Michael W. Deem and Ramdas Pophale) SiO2 
 PCOD8067339
Probable space group: P 2/M
;
_chemical_formula_sum "Si O2"
_cell_formula_units_Z 28
_cell_length_a 9.690099
_cell_length_b 8.540166
_cell_length_c 21.261431
_cell_angle_alpha 90.000000
_cell_angle_beta 47.674074
_cell_angle_gamma 90.000000
_cell_volume 1300.838201
_symmetry_space_group_name_H-M "P 2/M"
_symmetry_group_IT_number 10
_symmetry_cell_setting 'monoclinic'
loop_
_space_group_symop_operation_xyz
x,y,z
-x,y,-z
-x,-y,-z
x,-y,z
loop_
_atom_site_type_symbol
_atom_site_label
_atom_site_fract_x
_atom_site_fract_y
_atom_site_fract_z
Si Si1 0.179406 0.820162 0.068412
Si Si2 0.202831 0.318087 0.836678
Si Si3 0.161722 0.678050 0.207082
Si Si4 0.818221 0.682146 0.517301
Si Si5 0.829034 0.178774 0.379802
Si Si6 0.576862 0.818975 0.343778
Si Si7 0.426356 0.679703 0.889426
O O1 0.200553 0.711041 0.122395
O O2 0.983724 0.781534 0.094990
O O3 0.186837 0.000000 0.086832
O O4 0.348007 0.786934 0.969143
O O5 0.151048 0.500000 0.855778
O O6 0.296482 0.283679 0.741020
O O7 0.342631 0.267371 0.848718
O O8 0.090427 0.500000 0.236345
O O9 0.353129 0.704247 0.185929
O O10 0.009069 0.796025 0.280981
O O11 0.784571 0.500000 0.540475
O O12 0.842762 0.708939 0.435508
O O13 0.639398 0.775546 0.597388
O O14 0.000000 0.740874 0.500000
O O15 0.644588 0.214440 0.394597
O O16 0.824555 0.000000 0.405000
O O17 0.606113 0.000000 0.317478
O O18 0.376660 0.500000 0.920427
#
# Coordination Sequence:
#
# PCOD8067339 Si02
#       7
#     4   4   4   4   4   4   4
#     4  12  24  40  62  93 128 167 216 266 318 380
#     4  11  23  41  66  93 126 169 215 264 317 379
#     4  11  23  41  66  93 126 169 215 264 317 379
#     4  11  26  45  68  98 132 169 212 257 307 375
#     4  11  24  43  67  97 131 166 210 263 318 378
#     4  11  24  43  67  97 131 166 210 263 318 378
#     4  10  24  42  62  91 126 167 216 268 321 378
#
# _framework density 21.524583
#
# number of rings (size 3 to 8) (size 9 to 14) (size 15 to 20)
#    0.000    1.000    1.429    4.714    2.000   10.286 
#    0.000    0.000    0.000    0.000    0.000    0.000 
#    0.000    0.000    0.000    0.000    0.000    0.000 
#
# Total GULP energy -347418.321889 kJ/mol
# GULP energy per Si atom -12407.797210 kJ/mol
# Density = 2.147559 g / cm^3
# Si number density = 21.524583 Si / 1000 Ang^3
#
#
#
# Elastic Constant Matrix: (Units=GPa)
#
#
# Indices 1 2 3 4 5 6 
#
# 1 86.7191 15.4541 -4.1170 0.0000 -14.9942 0.0000
# 2 15.4541 51.7585 6.8586 0.0000 -9.3525 0.0000
# 3 -4.1170 6.8586 57.4252 0.0000 -6.8450 0.0000
# 4 0.0000 0.0000 0.0000 34.6443 0.0000 -4.6093
# 5 -14.9942 -9.3525 -6.8450 0.0000 34.6573 0.0000
# 6 0.0000 0.0000 0.0000 -4.6093 0.0000 22.2964
#
#
#
# Elastic Compliance Matrix: (Units=1/GPa)
#
#
# Indices 1 2 3 4 5 6 
#
# 1 0.013095 -0.003232 0.001942 0.000000 0.005177 0.000000
# 2 -0.003232 0.021295 -0.002311 0.000000 0.003892 0.000000
# 3 0.001942 -0.002311 0.018285 0.000000 0.003828 0.000000
# 4 0.000000 0.000000 0.000000 0.029681 0.000000 0.006136
# 5 0.005177 0.003892 0.003828 0.000000 0.032900 0.000000
# 6 0.000000 0.000000 0.000000 0.006136 0.000000 0.046119
#
#
# Mechanical properties :
#
#
# Convention : Reuss Voigt Hill
#
# Bulk Modulus (GPa) = 21.99103 25.81045 23.90074
# Shear Modulus (GPa) = 27.21316 30.16674 28.68995
#
# Velocity S-wave (km/s) = 3.55953 3.74773 3.65484
# Velocity P-wave (km/s) = 5.20889 5.54477 5.37945
#
# Compressibility (1/GPa) = 0.04547310
#
# Stress axis : x y z
#
# Youngs Moduli (GPa) = 76.36684 46.95946 54.68814
#
# Poissons Ratio (x) = 0.15176 -0.10620
# Poissons Ratio (y) = 0.24680 0.12639
# Poissons Ratio (z) = -0.14829 0.10853
#
# Static dielectric constant tensor:
#      x y z
#    x 4.149990 0.000000 -0.093940 
#    y 0.000000 3.800520 0.000000 
#    z -0.093940 0.000000 3.718530 
# 
# 
# High freq. dielectric constant tensor:
#      x y z
#    x 1.859820 0.000000 -0.005340 
#    y 0.000000 1.844820 0.000000 
#    z -0.005340 0.000000 1.844170 
# 
# From -- ./inp_files/82175.got.cif
#   From: 2010.06.25/outbox.cif.g09.slc.cpg/sg10_42_cif.got.tgz:82175.got - 2010.06.27 22:07:45.
