data_PCOD8067153
_publ_section_title
;
Structure prediction by ZEFSAII (Michael W. Deem and Ramdas Pophale) SiO2 
 PCOD8067153
Probable space group: P 2/M
;
_chemical_formula_sum "Si O2"
_cell_formula_units_Z 14
_cell_length_a 4.728144
_cell_length_b 13.710120
_cell_length_c 8.827967
_cell_angle_alpha 90.000000
_cell_angle_beta 64.382156
_cell_angle_gamma 90.000000
_cell_volume 516.004772
_symmetry_space_group_name_H-M "P 2/M"
_symmetry_group_IT_number 10
_symmetry_cell_setting 'monoclinic'
loop_
_space_group_symop_operation_xyz
x,y,z
-x,y,-z
-x,-y,-z
x,-y,z
loop_
_atom_site_type_symbol
_atom_site_label
_atom_site_fract_x
_atom_site_fract_y
_atom_site_fract_z
Si Si1 0.220539 0.270871 0.289195
Si Si2 0.500000 0.815579 0.500000
Si Si3 0.319558 0.889148 0.846543
Si Si4 0.788484 0.392740 0.194916
O O1 0.231095 0.246097 0.470552
O O2 0.388666 0.178821 0.164906
O O3 0.438497 0.366724 0.222302
O O4 0.895557 0.304575 0.283218
O O5 0.296574 0.879955 0.667120
O O6 0.396372 0.000000 0.874934
O O7 0.000000 0.853256 0.000000
O O8 0.787688 0.500000 0.272911
O O9 0.000000 0.394299 0.000000
#
# Coordination Sequence:
#
# PCOD8067153 Si02
#       4
#     4   2   4   4
#     4  10  22  40  67 101 140 181 233 283 354 416
#     4   8  21  38  67 102 146 186 223 292 345 418
#     4   9  18  38  70 104 141 186 233 283 347 419
#     4  11  23  42  69 101 135 183 238 293 351 415
#
# _framework density 27.131529
#
# number of rings (size 3 to 8) (size 9 to 14) (size 15 to 20)
#    1.714    0.571    0.000    3.000    0.000    3.429 
#    0.000    5.714    0.000   11.143    0.000    0.000 
#    0.000    0.000    0.000    0.000    0.000    0.000 
#
# Total GULP energy -173452.494938 kJ/mol
# GULP energy per Si atom -12389.463924 kJ/mol
# Density = 2.706978 g / cm^3
# Si number density = 27.131529 Si / 1000 Ang^3
#
#
#
# Elastic Constant Matrix: (Units=GPa)
#
#
# Indices 1 2 3 4 5 6 
#
# 1 129.9283 19.0065 15.5589 0.0000 5.1638 0.0000
# 2 19.0065 159.4981 2.2482 0.0000 0.7467 0.0000
# 3 15.5589 2.2482 133.6555 0.0000 -10.1279 0.0000
# 4 0.0000 0.0000 0.0000 32.3659 0.0000 2.6962
# 5 5.1638 0.7467 -10.1279 0.0000 20.8938 0.0000
# 6 0.0000 0.0000 0.0000 2.6962 0.0000 -45.7808
#
#
#
# Elastic Compliance Matrix: (Units=1/GPa)
#
#
# Indices 1 2 3 4 5 6 
#
# 1 0.008066 -0.000934 -0.001113 0.000000 -0.002499 0.000000
# 2 -0.000934 0.006381 0.000002 0.000000 0.000004 0.000000
# 3 -0.001113 0.000002 0.007923 0.000000 0.004116 0.000000
# 4 0.000000 0.000000 0.000000 0.030746 0.000000 0.001811
# 5 -0.002499 0.000004 0.004116 0.000000 0.050474 0.000000
# 6 0.000000 0.000000 0.000000 0.001811 0.000000 -0.021737
#
#
# Mechanical properties :
#
#
# Convention : Reuss Voigt Hill
#
# Bulk Modulus (GPa) = 54.70340 55.18991 54.94666
# Shear Modulus (GPa) = 54.32669 27.24700 40.78685
#
# Velocity S-wave (km/s) = 4.47961 3.17244 3.88145
# Velocity P-wave (km/s) = 6.85288 5.81420 6.35480
#
# Compressibility (1/GPa) = 0.01828040
#
# Stress axis : x y z
#
# Youngs Moduli (GPa) = 123.98157 156.71778 126.21038
#
# Poissons Ratio (x) = 0.14634 0.14042
# Poissons Ratio (y) = 0.11577 -0.00021
# Poissons Ratio (z) = 0.13794 -0.00026
#
# Static dielectric constant tensor:
#      x y z
#    x 4.872880 0.000000 -0.255610 
#    y 0.000000 5.020200 0.000000 
#    z -0.255610 0.000000 5.111240 
# 
# 
# High freq. dielectric constant tensor:
#      x y z
#    x 2.102660 0.000000 -0.016080 
#    y 0.000000 2.079480 0.000000 
#    z -0.016080 0.000000 2.129850 
# 
# From -- ./inp_files/14099.got.cif
#   From: 2010.06.25/outbox.cif.g09.slc.cpg/sg10_8_cif.got.tgz:14099.got - 2010.06.27 22:07:45.
