data_PCOD8067300
_publ_section_title
;
Structure prediction by ZEFSAII (Michael W. Deem and Ramdas Pophale) SiO2 
 PCOD8067300
Probable space group: P 2/M
;
_chemical_formula_sum "Si O2"
_cell_formula_units_Z 32
_cell_length_a 11.981148
_cell_length_b 8.806667
_cell_length_c 31.251805
_cell_angle_alpha 90.000000
_cell_angle_beta 151.620436
_cell_angle_gamma 90.000000
_cell_volume 1567.337259
_symmetry_space_group_name_H-M "P 2/M"
_symmetry_group_IT_number 10
_symmetry_cell_setting 'monoclinic'
loop_
_space_group_symop_operation_xyz
x,y,z
-x,y,-z
-x,-y,-z
x,-y,z
loop_
_atom_site_type_symbol
_atom_site_label
_atom_site_fract_x
_atom_site_fract_y
_atom_site_fract_z
Si Si1 0.782194 0.174570 0.484126
Si Si2 0.633659 0.322953 0.819013
Si Si3 0.685836 0.174324 0.354956
Si Si4 0.233101 0.679236 0.910128
Si Si5 0.460530 0.176346 0.843409
Si Si6 0.899586 0.178619 0.048121
Si Si7 0.032284 0.176481 0.758526
Si Si8 0.561211 0.323935 0.569084
O O1 0.663719 0.200944 0.398079
O O2 0.664983 0.285814 0.478664
O O3 0.055527 0.216889 0.574217
O O4 0.749575 0.000000 0.487284
O O5 0.683381 0.500000 0.837479
O O6 0.502173 0.282536 0.730755
O O7 0.472437 0.273068 0.804265
O O8 0.881226 0.236666 0.905597
O O9 0.628826 0.000000 0.324305
O O10 0.229813 0.500000 0.913272
O O11 0.092983 0.747878 0.902665
O O12 0.100324 0.726954 0.822658
O O13 0.500000 0.741962 0.000000
O O14 0.211096 0.212702 0.780488
O O15 0.487742 0.000000 0.840852
O O16 0.663144 0.228769 0.944328
O O17 0.915433 0.000000 0.058801
O O18 0.775050 0.220363 0.656349
O O19 0.040276 0.000000 0.773740
O O20 0.500000 0.282377 0.500000
O O21 0.627691 0.500000 0.596597
#
# Coordination Sequence:
#
# PCOD8067300 Si02
#       8
#     4   4   4   4   4   4   4   4
#     4   9  20  41  68  92 118 157 207 259 310 369
#     4  12  26  39  60  93 128 165 206 256 319 375
#     4   9  20  41  66  92 120 156 205 261 313 368
#     4  11  23  40  65  97 133 168 206 260 323 382
#     4  10  23  43  65  90 121 164 214 261 309 368
#     4  11  23  42  66  90 124 167 214 260 306 366
#     4  11  24  43  68  95 124 168 221 264 311 377
#     4  11  26  44  63  93 134 170 205 261 326 380
#
# _framework density 20.416791
#
# number of rings (size 3 to 8) (size 9 to 14) (size 15 to 20)
#    0.000    1.500    1.250    3.750    3.500    6.000 
#    0.000    1.250    0.000    0.000    0.000    0.000 
#    0.000    0.000    0.000    0.000    0.000    0.000 
#
# Total GULP energy -397040.554525 kJ/mol
# GULP energy per Si atom -12407.517329 kJ/mol
# Density = 2.037032 g / cm^3
# Si number density = 20.416791 Si / 1000 Ang^3
#
#
#
# Elastic Constant Matrix: (Units=GPa)
#
#
# Indices 1 2 3 4 5 6 
#
# 1 100.7207 27.7875 16.7187 0.0000 -2.8979 0.0000
# 2 27.7875 64.5733 24.1061 0.0000 -6.4236 0.0000
# 3 16.7187 24.1061 70.8001 0.0000 -2.4404 0.0000
# 4 0.0000 0.0000 0.0000 21.7516 0.0000 2.2540
# 5 -2.8979 -6.4236 -2.4404 0.0000 27.9404 0.0000
# 6 0.0000 0.0000 0.0000 2.2540 0.0000 12.2959
#
#
#
# Elastic Compliance Matrix: (Units=1/GPa)
#
#
# Indices 1 2 3 4 5 6 
#
# 1 0.011349 -0.004444 -0.001165 0.000000 0.000054 0.000000
# 2 -0.004444 0.019842 -0.005582 0.000000 0.003613 0.000000
# 3 -0.001165 -0.005582 0.016301 0.000000 0.000020 0.000000
# 4 0.000000 0.000000 0.000000 0.046864 0.000000 -0.008591
# 5 0.000054 0.003613 0.000020 0.000000 0.036628 0.000000
# 6 0.000000 0.000000 0.000000 -0.008591 0.000000 0.082903
#
#
# Mechanical properties :
#
#
# Convention : Reuss Voigt Hill
#
# Bulk Modulus (GPa) = 39.82426 41.47986 40.65206
# Shear Modulus (GPa) = 20.43835 23.56304 22.00069
#
# Velocity S-wave (km/s) = 3.16738 3.40089 3.28621
# Velocity P-wave (km/s) = 5.73798 5.98181 5.86116
#
# Compressibility (1/GPa) = 0.02511032
#
# Stress axis : x y z
#
# Youngs Moduli (GPa) = 88.11093 50.39894 61.34729
#
# Poissons Ratio (x) = 0.22395 0.07148
# Poissons Ratio (y) = 0.39153 0.34243
# Poissons Ratio (z) = 0.10267 0.28132
#
# Static dielectric constant tensor:
#      x y z
#    x 3.759860 0.000000 0.038950 
#    y 0.000000 3.586470 0.000000 
#    z 0.038950 0.000000 3.686830 
# 
# 
# High freq. dielectric constant tensor:
#      x y z
#    x 1.809110 0.000000 0.000540 
#    y 0.000000 1.795230 0.000000 
#    z 0.000540 0.000000 1.802960 
# 
# From -- ./inp_files/95058.got.cif
#   From: 2010.06.25/outbox.cif.g09.slc.cpg/sg10_48_cif.got.tgz:95058.got - 2010.06.27 22:07:45.
