data_PCOD8067538
_publ_section_title
;
Structure prediction by ZEFSAII (Michael W. Deem and Ramdas Pophale) SiO2 
 PCOD8067538
Probable space group: P 2/M
;
_chemical_formula_sum "Si O2"
_cell_formula_units_Z 32
_cell_length_a 14.644557
_cell_length_b 14.269952
_cell_length_c 9.566853
_cell_angle_alpha 90.000000
_cell_angle_beta 109.165880
_cell_angle_gamma 90.000000
_cell_volume 1888.438910
_symmetry_space_group_name_H-M "P 2/M"
_symmetry_group_IT_number 10
_symmetry_cell_setting 'monoclinic'
loop_
_space_group_symop_operation_xyz
x,y,z
-x,y,-z
-x,-y,-z
x,-y,z
loop_
_atom_site_type_symbol
_atom_site_label
_atom_site_fract_x
_atom_site_fract_y
_atom_site_fract_z
Si Si1 0.096801 0.601270 0.461673
Si Si2 0.201297 0.891610 0.876274
Si Si3 0.410043 0.888312 0.365130
Si Si4 0.415666 0.109385 0.053256
Si Si5 0.206521 0.891037 0.379543
Si Si6 0.096606 0.399583 0.136144
Si Si7 0.887512 0.799070 0.911507
Si Si8 0.115146 0.204783 0.578725
O O1 0.152097 0.500000 0.506206
O O2 0.071984 0.619026 0.286719
O O3 0.153278 0.691085 0.553936
O O4 0.000000 0.593996 0.500000
O O5 0.141317 0.819351 0.751041
O O6 0.175282 0.000000 0.831186
O O7 0.315577 0.873694 0.921113
O O8 0.172447 0.867570 0.019747
O O9 0.500000 0.849248 0.500000
O O10 0.415046 0.847075 0.209553
O O11 0.312608 0.852437 0.392049
O O12 0.411336 0.000000 0.362826
O O13 0.436230 0.000000 0.081803
O O14 0.500000 0.155132 0.000000
O O15 0.124606 0.838922 0.249527
O O16 0.178633 0.870408 0.525125
O O17 0.200930 0.000000 0.347100
O O18 0.153354 0.500000 0.148955
O O19 0.153583 0.308606 0.105668
O O20 0.000000 0.409107 0.000000
O O21 0.000000 0.799611 0.000000
O O22 0.000000 0.194386 0.500000
#
# Coordination Sequence:
#
# PCOD8067538 Si02
#       8
#     4   4   4   4   4   4   4   4
#     4   9  18  33  51  70  95 127 165 214 263 297
#     4  11  23  36  49  70 104 140 176 210 242 293
#     4   9  18  32  51  72  93 123 165 214 261 298
#     4   9  18  33  51  70  93 125 165 212 263 299
#     4  11  21  34  49  70 102 136 176 210 242 294
#     4   9  18  32  51  73  94 123 166 216 263 297
#     4  11  21  33  50  71  99 140 172 207 247 289
#     4  11  23  35  48  72 102 142 178 208 243 290
#
# _framework density 16.945212999999999
#
# number of rings (size 3 to 8) (size 9 to 14) (size 15 to 20)
#    0.000    2.000    2.500    1.500    7.000    3.000 
#    0.000    0.000    0.000    0.000    0.000    0.000 
#    0.000    6.000    0.000    0.000    0.000    0.000 
#
# Total GULP energy -396514.017939 kJ/mol
# GULP energy per Si atom -12391.063061 kJ/mol
# Density = 1.690664 g / cm^3
# Si number density = 16.945213 Si / 1000 Ang^3
#
#
#
# Elastic Constant Matrix: (Units=GPa)
#
#
# Indices 1 2 3 4 5 6 
#
# 1 76.7532 23.7107 17.6583 0.0000 -6.2284 0.0000
# 2 23.7107 93.2144 25.1607 0.0000 7.5490 0.0000
# 3 17.6583 25.1607 68.8894 0.0000 2.1815 0.0000
# 4 0.0000 0.0000 0.0000 20.5356 0.0000 -6.5441
# 5 -6.2284 7.5490 2.1815 0.0000 22.6822 0.0000
# 6 0.0000 0.0000 0.0000 -6.5441 0.0000 3.3902
#
#
#
# Elastic Compliance Matrix: (Units=1/GPa)
#
#
# Indices 1 2 3 4 5 6 
#
# 1 0.015232 -0.003582 -0.002775 0.000000 0.005642 0.000000
# 2 -0.003582 0.013036 -0.003686 0.000000 -0.004968 0.000000
# 3 -0.002775 -0.003686 0.016609 0.000000 -0.001133 0.000000
# 4 0.000000 0.000000 0.000000 0.126523 0.000000 0.244225
# 5 0.005642 -0.004968 -0.001133 0.000000 0.047399 0.000000
# 6 0.000000 0.000000 0.000000 0.244225 0.000000 0.766388
#
#
# Mechanical properties :
#
#
# Convention : Reuss Voigt Hill
#
# Bulk Modulus (GPa) = 40.33580 41.32407 40.82993
# Shear Modulus (GPa) = 4.93322 20.81009 12.87166
#
# Velocity S-wave (km/s) = 1.70810 3.50820 2.75908
# Velocity P-wave (km/s) = 5.26740 6.39138 5.85642
#
# Compressibility (1/GPa) = 0.02479187
#
# Stress axis : x y z
#
# Youngs Moduli (GPa) = 65.65303 76.70826 60.20746
#
# Poissons Ratio (x) = 0.27480 0.16705
# Poissons Ratio (y) = 0.23520 0.22191
# Poissons Ratio (z) = 0.18216 0.28273
#
# Static dielectric constant tensor:
#      x y z
#    x 3.060140 0.000000 -0.162940 
#    y 0.000000 3.516300 0.000000 
#    z -0.162940 0.000000 3.327520 
# 
# 
# High freq. dielectric constant tensor:
#      x y z
#    x 1.620150 0.000000 -0.013700 
#    y 0.000000 1.634950 0.000000 
#    z -0.013700 0.000000 1.668960 
# 
# From -- ./inp_files/29143.got.cif
#   From: 2010.06.25/outbox.cif.g09.slc.cpg/sg10_15_cif.got.tgz:29143.got - 2010.06.27 22:07:45.
