data_PCOD8067841
_publ_section_title
;
Structure prediction by ZEFSAII (Michael W. Deem and Ramdas Pophale) SiO2 
 PCOD8067841
Probable space group: P 2/M
;
_chemical_formula_sum "Si O2"
_cell_formula_units_Z 16
_cell_length_a 10.862947
_cell_length_b 11.180036
_cell_length_c 8.179411
_cell_angle_alpha 90.000000
_cell_angle_beta 43.932898
_cell_angle_gamma 90.000000
_cell_volume 689.218384
_symmetry_space_group_name_H-M "P 2/M"
_symmetry_group_IT_number 10
_symmetry_cell_setting 'monoclinic'
loop_
_space_group_symop_operation_xyz
x,y,z
-x,y,-z
-x,-y,-z
x,-y,z
loop_
_atom_site_type_symbol
_atom_site_label
_atom_site_fract_x
_atom_site_fract_y
_atom_site_fract_z
Si Si1 0.456848 0.000000 0.237295
Si Si2 0.049997 0.000000 0.758364
Si Si3 0.052347 0.747021 0.268693
Si Si4 0.261790 0.637084 0.616854
Si Si5 0.590855 0.253870 0.202719
O O1 0.547732 0.885202 0.228613
O O2 0.253127 0.000000 0.497469
O O3 0.500000 0.000000 0.000000
O O4 0.958081 0.114420 0.766717
O O5 0.000000 0.000000 0.000000
O O6 0.933010 0.668291 0.260331
O O7 0.000000 0.717767 0.500000
O O8 0.257056 0.706494 0.068719
O O9 0.266908 0.500000 0.668779
O O10 0.318135 0.726112 0.707547
O O11 0.416368 0.664612 0.335136
#
# Coordination Sequence:
#
# PCOD8067841 Si02
#       5
#     2   2   4   4   4
#     4  12  25  45  77 113 152 184 228 303 377 441
#     4  12  24  44  73 109 146 189 235 299 358 444
#     4  12  26  45  71 103 147 185 233 297 368 426
#     4  11  26  47  72 102 139 189 250 296 343 416
#     4  11  24  44  75 102 141 186 233 293 361 427
#
# _framework density 23.214703
#
# number of rings (size 3 to 8) (size 9 to 14) (size 15 to 20)
#    0.000    0.500    2.500    6.375    3.500    6.500 
#    0.000    1.250    0.000    0.000    0.000    0.000 
#    0.000    0.000    0.000    0.000    0.000    0.000 
#
# Total GULP energy -198294.067713 kJ/mol
# GULP energy per Si atom -12393.379232 kJ/mol
# Density = 2.316187 g / cm^3
# Si number density = 23.214703 Si / 1000 Ang^3
#
#
#
# Elastic Constant Matrix: (Units=GPa)
#
#
# Indices 1 2 3 4 5 6 
#
# 1 41.7458 37.2614 4.5728 0.0000 2.5620 0.0000
# 2 37.2614 135.8616 19.7715 0.0000 8.1694 0.0000
# 3 4.5728 19.7715 154.7121 0.0000 -17.1854 0.0000
# 4 0.0000 0.0000 0.0000 11.7394 0.0000 -11.0282
# 5 2.5620 8.1694 -17.1854 0.0000 45.8187 0.0000
# 6 0.0000 0.0000 0.0000 -11.0282 0.0000 8.2898
#
#
#
# Elastic Compliance Matrix: (Units=1/GPa)
#
#
# Indices 1 2 3 4 5 6 
#
# 1 0.031725 -0.008714 0.000158 0.000000 -0.000161 0.000000
# 2 -0.008714 0.010034 -0.001220 0.000000 -0.001759 0.000000
# 3 0.000158 -0.001220 0.006927 0.000000 0.002807 0.000000
# 4 0.000000 0.000000 0.000000 -0.341097 0.000000 -0.453773
# 5 -0.000161 -0.001759 0.002807 0.000000 0.023201 0.000000
# 6 0.000000 0.000000 0.000000 -0.453773 0.000000 -0.483038
#
#
# Mechanical properties :
#
#
# Convention : Reuss Voigt Hill
#
# Bulk Modulus (GPa) = 34.32538 50.61453 42.46996
# Shear Modulus (GPa) = -6.91577 31.21718 12.15070
#
# Velocity S-wave (km/s) = -1.72786 3.67101 2.29029
# Velocity P-wave (km/s) = 3.29203 6.31020 5.03270
#
# Compressibility (1/GPa) = 0.02913296
#
# Stress axis : x y z
#
# Youngs Moduli (GPa) = 31.52066 99.66351 144.37012
#
# Poissons Ratio (x) = 0.86850 -0.02282
# Poissons Ratio (y) = 0.27468 0.17615
# Poissons Ratio (z) = -0.00498 0.12160
#
# Static dielectric constant tensor:
#      x y z
#    x 4.137410 0.000000 -0.428270 
#    y 0.000000 4.077060 0.000000 
#    z -0.428270 0.000000 5.404230 
# 
# 
# High freq. dielectric constant tensor:
#      x y z
#    x 1.906680 0.000000 -0.021170 
#    y 0.000000 1.910930 0.000000 
#    z -0.021170 0.000000 1.952030 
# 
# From -- ./inp_files/23305.got.cif
#   From: 2010.06.25/outbox.cif.g09.slc.cpg/sg10_12_cif.got.tgz:23305.got - 2010.06.27 22:07:45.
