data_PCOD8067621
_publ_section_title
;
Structure prediction by ZEFSAII (Michael W. Deem and Ramdas Pophale) SiO2 
 PCOD8067621
Probable space group: P 2/M
;
_chemical_formula_sum "Si O2"
_cell_formula_units_Z 28
_cell_length_a 19.352465
_cell_length_b 7.639890
_cell_length_c 16.238657
_cell_angle_alpha 90.000000
_cell_angle_beta 144.316548
_cell_angle_gamma 90.000000
_cell_volume 1400.459093
_symmetry_space_group_name_H-M "P 2/M"
_symmetry_group_IT_number 10
_symmetry_cell_setting 'monoclinic'
loop_
_space_group_symop_operation_xyz
x,y,z
-x,y,-z
-x,-y,-z
x,-y,z
loop_
_atom_site_type_symbol
_atom_site_label
_atom_site_fract_x
_atom_site_fract_y
_atom_site_fract_z
Si Si1 0.065311 0.792141 0.643042
Si Si2 0.011403 0.500000 0.879142
Si Si3 0.372803 0.800642 0.411498
Si Si4 0.051386 0.801056 0.301778
Si Si5 0.441655 0.792871 0.816219
Si Si6 0.198494 0.500000 0.194760
Si Si7 0.686741 0.301324 0.468370
Si Si8 0.326026 0.207630 0.871254
O O1 0.199016 0.716227 0.775389
O O2 0.000000 0.713368 0.500000
O O3 0.993879 0.731739 0.654026
O O4 0.069272 0.000000 0.640755
O O5 0.006161 0.677237 0.821792
O O6 0.901106 0.500000 0.832827
O O7 0.137341 0.500000 0.046535
O O8 0.500000 0.743655 0.500000
O O9 0.275372 0.675406 0.276970
O O10 0.374698 0.786331 0.512281
O O11 0.342782 0.000000 0.357065
O O12 0.193498 0.798879 0.439397
O O13 0.009153 0.000000 0.244027
O O14 0.403988 0.701438 0.695280
O O15 0.356256 0.729764 0.807805
O O16 0.434437 0.000000 0.796914
O O17 0.574718 0.729628 0.967477
O O18 0.720023 0.500000 0.523615
O O19 0.326631 0.000000 0.871090
#
# Coordination Sequence:
#
# PCOD8067621 Si02
#       8
#     4   2   4   4   4   2   4   4
#     4   9  17  30  54  85 116 157 202 241 289 345
#     4  11  24  42  63  94 122 158 204 248 298 373
#     4  11  23  42  67  93 120 153 199 249 300 367
#     4  11  21  38  62  86 121 160 200 251 295 347
#     4   9  17  31  57  82 108 153 196 242 296 347
#     4  11  23  44  68  88 127 158 192 253 310 366
#     4  12  22  37  59  85 117 151 194 247 299 355
#     4   8  15  31  51  80 117 149 197 247 288 347
#
# _framework density 19.993444
#
# number of rings (size 3 to 8) (size 9 to 14) (size 15 to 20)
#    0.000    1.857    2.857    3.214    0.000    2.857 
#    2.571    3.214    1.571    0.000    0.000    0.000 
#    0.000    0.000    0.000    0.000    0.000    0.000 
#
# Total GULP energy -347226.611253 kJ/mol
# GULP energy per Si atom -12400.950402 kJ/mol
# Density = 1.994794 g / cm^3
# Si number density = 19.993444 Si / 1000 Ang^3
#
#
#
# Elastic Constant Matrix: (Units=GPa)
#
#
# Indices 1 2 3 4 5 6 
#
# 1 159.1112 22.6969 82.2183 0.0000 8.6313 0.0000
# 2 22.6969 83.4129 37.5692 0.0000 -3.3002 0.0000
# 3 82.2183 37.5692 158.8808 0.0000 -7.1473 0.0000
# 4 0.0000 0.0000 0.0000 24.5780 0.0000 -10.9353
# 5 8.6313 -3.3002 -7.1473 0.0000 30.4796 0.0000
# 6 0.0000 0.0000 0.0000 -10.9353 0.0000 10.5106
#
#
#
# Elastic Compliance Matrix: (Units=1/GPa)
#
#
# Indices 1 2 3 4 5 6 
#
# 1 0.008983 -0.000472 -0.004703 0.000000 -0.003698 0.000000
# 2 -0.000472 0.013458 -0.002897 0.000000 0.000912 0.000000
# 3 -0.004703 -0.002897 0.009560 0.000000 0.003260 0.000000
# 4 0.000000 0.000000 0.000000 0.075752 0.000000 0.078812
# 5 -0.003698 0.000912 0.003260 0.000000 0.034719 0.000000
# 6 0.000000 0.000000 0.000000 0.078812 0.000000 0.177138
#
#
# Mechanical properties :
#
#
# Convention : Reuss Voigt Hill
#
# Bulk Modulus (GPa) = 63.06880 76.26376 69.66628
# Shear Modulus (GPa) = 14.66102 30.37501 22.51802
#
# Velocity S-wave (km/s) = 2.71087 3.90198 3.35964
# Velocity P-wave (km/s) = 6.43519 7.65035 7.06893
#
# Compressibility (1/GPa) = 0.01585570
#
# Stress axis : x y z
#
# Youngs Moduli (GPa) = 111.31774 74.30591 104.60686
#
# Poissons Ratio (x) = 0.03509 0.49201
# Poissons Ratio (y) = 0.05257 0.30303
# Poissons Ratio (z) = 0.52357 0.21525
#
# Static dielectric constant tensor:
#      x y z
#    x 3.804320 0.000000 0.095500 
#    y 0.000000 3.425440 0.000000 
#    z 0.095500 0.000000 3.758170 
# 
# 
# High freq. dielectric constant tensor:
#      x y z
#    x 1.781160 0.000000 0.002030 
#    y 0.000000 1.772460 0.000000 
#    z 0.002030 0.000000 1.776700 
# 
# From -- ./inp_files/68746.got.cif
#   From: 2010.06.25/outbox.cif.g09.slc.cpg/sg10_35_cif.got.tgz:68746.got - 2010.06.27 22:07:45.
