data_PCOD8067565
_publ_section_title
;
Structure prediction by ZEFSAII (Michael W. Deem and Ramdas Pophale) SiO2 
 PCOD8067565
Probable space group: P 2/M
;
_chemical_formula_sum "Si O2"
_cell_formula_units_Z 24
_cell_length_a 12.433249
_cell_length_b 11.318299
_cell_length_c 19.014589
_cell_angle_alpha 90.000000
_cell_angle_beta 151.807118
_cell_angle_gamma 90.000000
_cell_volume 1264.155706
_symmetry_space_group_name_H-M "P 2/M"
_symmetry_group_IT_number 10
_symmetry_cell_setting 'monoclinic'
loop_
_space_group_symop_operation_xyz
x,y,z
-x,y,-z
-x,-y,-z
x,-y,z
loop_
_atom_site_type_symbol
_atom_site_label
_atom_site_fract_x
_atom_site_fract_y
_atom_site_fract_z
Si Si1 0.104556 0.862061 0.872938
Si Si2 0.629717 0.500000 0.268250
Si Si3 0.557128 0.250482 0.184684
Si Si4 0.821598 0.861254 0.842018
Si Si5 0.040881 0.745979 0.688862
Si Si6 0.660056 0.137537 0.384196
Si Si7 0.922138 0.500000 0.566474
O O1 0.073813 0.778717 0.788630
O O2 0.895992 0.833650 0.805094
O O3 0.110302 0.000000 0.854876
O O4 0.337949 0.830606 0.047109
O O5 0.485257 0.385057 0.162163
O O6 0.689808 0.500000 0.386309
O O7 0.866572 0.500000 0.363846
O O8 0.712894 0.247092 0.205401
O O9 0.701658 0.201469 0.333798
O O10 0.569058 0.811358 0.710944
O O11 0.819062 0.000000 0.853342
O O12 0.000000 0.803430 0.000000
O O13 0.872926 0.840022 0.557015
O O14 0.931325 0.615662 0.620854
O O15 0.639118 0.000000 0.357289
#
# Coordination Sequence:
#
# PCOD8067565 Si02
#       7
#     4   2   4   4   4   4   2
#     4  11  23  38  57  84 120 153 182 230 289 340
#     4   9  18  35  59  82 106 149 202 233 261 325
#     4  11  21  36  59  84 114 152 188 229 282 336
#     4   9  18  36  58  78 106 151 198 228 266 334
#     4  11  23  36  56  86 118 150 183 230 289 339
#     4  11  21  34  58  86 111 147 191 234 279 334
#     4   9  18  37  57  78 113 152 192 231 270 329
#
# _framework density 18.985002999999999
#
# number of rings (size 3 to 8) (size 9 to 14) (size 15 to 20)
#    0.000    1.667    3.333    2.000    0.000    5.333 
#    0.000    5.000    0.000    6.000    0.000    0.000 
#    0.000    0.000    0.000    0.000    0.000    0.000 
#
# Total GULP energy -297635.156757 kJ/mol
# GULP energy per Si atom -12401.464865 kJ/mol
# Density = 1.894179 g / cm^3
# Si number density = 18.985003 Si / 1000 Ang^3
#
#
#
# Elastic Constant Matrix: (Units=GPa)
#
#
# Indices 1 2 3 4 5 6 
#
# 1 73.7405 42.7402 14.6366 0.0000 -10.3650 0.0000
# 2 42.7402 90.5535 15.5843 0.0000 -3.6169 0.0000
# 3 14.6366 15.5843 52.3507 0.0000 -12.7684 0.0000
# 4 0.0000 0.0000 0.0000 25.5100 0.0000 -12.2101
# 5 -10.3650 -3.6169 -12.7684 0.0000 17.7094 0.0000
# 6 0.0000 0.0000 0.0000 -12.2101 0.0000 11.5004
#
#
#
# Elastic Compliance Matrix: (Units=1/GPa)
#
#
# Indices 1 2 3 4 5 6 
#
# 1 0.020301 -0.009090 -0.000637 0.000000 0.009566 0.000000
# 2 -0.009090 0.015710 -0.003216 0.000000 -0.004430 0.000000
# 3 -0.000637 -0.003216 0.024251 0.000000 0.016455 0.000000
# 4 0.000000 0.000000 0.000000 0.079705 0.000000 0.084624
# 5 0.009566 -0.004430 0.016455 0.000000 0.073026 0.000000
# 6 0.000000 0.000000 0.000000 0.084624 0.000000 0.176800
#
#
# Mechanical properties :
#
#
# Convention : Reuss Voigt Hill
#
# Bulk Modulus (GPa) = 29.08962 40.28521 34.68741
# Shear Modulus (GPa) = 11.70589 20.52286 16.11437
#
# Velocity S-wave (km/s) = 2.48581 3.29143 2.91657
# Velocity P-wave (km/s) = 4.85744 5.97580 5.44541
#
# Compressibility (1/GPa) = 0.03437652
#
# Stress axis : x y z
#
# Youngs Moduli (GPa) = 49.25947 63.65339 41.23599
#
# Poissons Ratio (x) = 0.57861 0.02625
# Poissons Ratio (y) = 0.44777 0.13261
# Poissons Ratio (z) = 0.03136 0.20470
#
# Static dielectric constant tensor:
#      x y z
#    x 3.461720 0.000000 0.057490 
#    y 0.000000 3.478760 0.000000 
#    z 0.057490 0.000000 3.367810 
# 
# 
# High freq. dielectric constant tensor:
#      x y z
#    x 1.730350 0.000000 -0.006500 
#    y 0.000000 1.728900 0.000000 
#    z -0.006500 0.000000 1.732330 
# 
# From -- ./inp_files/46558.got.cif
#   From: 2010.06.25/outbox.cif.g09.slc.cpg/sg10_24_cif.got.tgz:46558.got - 2010.06.27 22:07:45.
