data_PCOD8067160
_publ_section_title
;
Structure prediction by ZEFSAII (Michael W. Deem and Ramdas Pophale) SiO2 
 PCOD8067160
Probable space group: P 2/M
;
_chemical_formula_sum "Si O2"
_cell_formula_units_Z 24
_cell_length_a 17.975043
_cell_length_b 16.190924
_cell_length_c 11.615372
_cell_angle_alpha 90.000000
_cell_angle_beta 159.178268
_cell_angle_gamma 90.000000
_cell_volume 1201.620361
_symmetry_space_group_name_H-M "P 2/M"
_symmetry_group_IT_number 10
_symmetry_cell_setting 'monoclinic'
loop_
_space_group_symop_operation_xyz
x,y,z
-x,y,-z
-x,-y,-z
x,-y,z
loop_
_atom_site_type_symbol
_atom_site_label
_atom_site_fract_x
_atom_site_fract_y
_atom_site_fract_z
Si Si1 0.738912 0.228993 0.354467
Si Si2 0.605455 0.793248 0.772271
Si Si3 0.042373 0.342028 0.684561
Si Si4 0.224462 0.737126 0.340167
Si Si5 0.274895 0.407251 0.228458
Si Si6 0.032549 0.095477 0.681410
O O1 0.767541 0.280124 0.513500
O O2 0.874012 0.145315 0.534963
O O3 0.821497 0.294897 0.381522
O O4 0.500000 0.202911 0.000000
O O5 0.500000 0.767715 0.500000
O O6 0.414240 0.799371 0.585692
O O7 0.770849 0.724611 0.051604
O O8 0.727611 0.880024 0.940845
O O9 0.000000 0.387619 0.500000
O O10 0.100339 0.402216 0.873995
O O11 0.232644 0.654036 0.274226
O O12 0.000000 0.781689 0.000000
O O13 0.500000 0.387315 0.500000
O O14 0.267896 0.500000 0.268369
O O15 0.000000 0.116161 0.500000
O O16 0.998215 0.000000 0.659187
#
# Coordination Sequence:
#
# PCOD8067160 Si02
#       6
#     4   4   4   4   4   4
#     4  11  22  35  60  94 119 158 205 252 306 361
#     4  11  19  37  62  87 117 158 215 247 290 364
#     4  11  20  38  61  85 121 160 210 255 293 361
#     4  12  20  37  60  90 121 157 197 260 302 360
#     4  11  23  41  64  90 119 163 209 251 308 367
#     4  10  22  41  62  89 125 164 204 251 304 362
#
# _framework density 19.973029
#
# number of rings (size 3 to 8) (size 9 to 14) (size 15 to 20)
#    0.000    1.000    5.000    5.000    0.000    1.333 
#    0.000    0.833    0.000    3.000    0.000    0.000 
#    0.000    0.000    0.000    0.000    0.000    0.000 
#
# Total GULP energy -297350.989497 kJ/mol
# GULP energy per Si atom -12389.624562 kJ/mol
# Density = 1.992757 g / cm^3
# Si number density = 19.973029 Si / 1000 Ang^3
#
#
#
# Elastic Constant Matrix: (Units=GPa)
#
#
# Indices 1 2 3 4 5 6 
#
# 1 119.7956 47.0850 51.2223 0.0000 -6.3829 0.0000
# 2 47.0850 83.4757 39.3529 0.0000 1.8701 0.0000
# 3 51.2223 39.3529 127.1274 0.0000 19.6636 0.0000
# 4 0.0000 0.0000 0.0000 11.3033 0.0000 -15.4540
# 5 -6.3829 1.8701 19.6636 0.0000 51.9639 0.0000
# 6 0.0000 0.0000 0.0000 -15.4540 0.0000 -9.4916
#
#
#
# Elastic Compliance Matrix: (Units=1/GPa)
#
#
# Indices 1 2 3 4 5 6 
#
# 1 0.012152 -0.005139 -0.003787 0.000000 0.003111 0.000000
# 2 -0.005139 0.016272 -0.002951 0.000000 -0.000100 0.000000
# 3 -0.003787 -0.002951 0.011005 0.000000 -0.004523 0.000000
# 4 0.000000 0.000000 0.000000 0.027423 0.000000 -0.044650
# 5 0.003111 -0.000100 -0.004523 0.000000 0.021342 0.000000
# 6 0.000000 0.000000 0.000000 -0.044650 0.000000 -0.032658
#
#
# Mechanical properties :
#
#
# Convention : Reuss Voigt Hill
#
# Bulk Modulus (GPa) = 63.79326 67.30214 65.54770
# Shear Modulus (GPa) = 59.16146 23.60435 41.38291
#
# Velocity S-wave (km/s) = 5.44839 3.44148 4.55679
# Velocity P-wave (km/s) = 8.46103 7.03998 7.78301
#
# Compressibility (1/GPa) = 0.01567564
#
# Stress axis : x y z
#
# Youngs Moduli (GPa) = 82.28885 61.45668 90.86809
#
# Poissons Ratio (x) = 0.31583 0.34409
# Poissons Ratio (y) = 0.42289 0.26813
# Poissons Ratio (z) = 0.31161 0.18135
#
# Static dielectric constant tensor:
#      x y z
#    x 3.869800 0.000000 0.157080 
#    y 0.000000 3.319750 0.000000 
#    z 0.157080 0.000000 -0.458720 
# 
# 
# High freq. dielectric constant tensor:
#      x y z
#    x 1.789710 0.000000 0.003030 
#    y 0.000000 1.738290 0.000000 
#    z 0.003030 0.000000 1.793800 
# 
# From -- ./inp_files/54204.got.cif
#   From: 2010.06.25/outbox.cif.g09.slc.cpg/sg10_28_cif.got.tgz:54204.got - 2010.06.27 22:07:45.
