data_PCOD8067684
_publ_section_title
;
Structure prediction by ZEFSAII (Michael W. Deem and Ramdas Pophale) SiO2 
 PCOD8067684
Probable space group: P 2/M
;
_chemical_formula_sum "Si O2"
_cell_formula_units_Z 24
_cell_length_a 11.026624
_cell_length_b 8.749657
_cell_length_c 12.234151
_cell_angle_alpha 90.000000
_cell_angle_beta 78.450650
_cell_angle_gamma 90.000000
_cell_volume 1156.442023
_symmetry_space_group_name_H-M "P 2/M"
_symmetry_group_IT_number 10
_symmetry_cell_setting 'monoclinic'
loop_
_space_group_symop_operation_xyz
x,y,z
-x,y,-z
-x,-y,-z
x,-y,z
loop_
_atom_site_type_symbol
_atom_site_label
_atom_site_fract_x
_atom_site_fract_y
_atom_site_fract_z
Si Si1 0.465509 0.824587 0.629807
Si Si2 0.131180 0.679818 0.934243
Si Si3 0.218794 0.675507 0.684143
Si Si4 0.681036 0.325745 0.711394
Si Si5 0.639832 0.323780 0.967573
Si Si6 0.144759 0.171684 0.476167
O O1 0.500000 0.782876 0.500000
O O2 0.359576 0.711324 0.691645
O O3 0.581165 0.792993 0.685713
O O4 0.424091 0.000000 0.648684
O O5 0.132589 0.500000 0.958631
O O6 0.134895 0.714549 0.804307
O O7 0.254802 0.750233 0.971438
O O8 0.000000 0.749958 0.000000
O O9 0.203355 0.500000 0.652466
O O10 0.187810 0.782330 0.588539
O O11 0.643879 0.500000 0.690730
O O12 0.696562 0.302264 0.837215
O O13 0.808386 0.284840 0.627071
O O14 0.623980 0.500000 0.003551
O O15 0.500000 0.249483 0.000000
O O16 0.000000 0.180773 0.500000
O O17 0.193707 0.000000 0.445719
#
# Coordination Sequence:
#
# PCOD8067684 Si02
#       6
#     4   4   4   4   4   4
#     4  11  22  37  58  84 122 163 191 229 299 366
#     4   9  19  35  57  88 123 154 190 246 312 361
#     4  11  22  37  64  93 117 149 200 254 294 348
#     4  11  22  36  63  94 118 149 200 254 293 347
#     4   9  18  34  56  86 123 156 189 241 307 359
#     4  11  25  42  58  81 121 167 199 238 303 364
#
# _framework density 20.753309999999999
#
# number of rings (size 3 to 8) (size 9 to 14) (size 15 to 20)
#    0.000    1.667    1.667    3.000    2.333    4.667 
#    0.000    0.000    0.000   13.000    0.000    0.000 
#    0.000    0.000    0.000    0.000    0.000    0.000 
#
# Total GULP energy -297564.535955 kJ/mol
# GULP energy per Si atom -12398.522331 kJ/mol
# Density = 2.070607 g / cm^3
# Si number density = 20.753310 Si / 1000 Ang^3
#
#
#
# Elastic Constant Matrix: (Units=GPa)
#
#
# Indices 1 2 3 4 5 6 
#
# 1 104.7633 21.6050 37.9652 0.0000 -7.9170 0.0000
# 2 21.6050 33.8846 30.7052 0.0000 -9.9282 0.0000
# 3 37.9652 30.7052 108.8859 0.0000 -16.6771 0.0000
# 4 0.0000 0.0000 0.0000 15.8521 0.0000 1.2441
# 5 -7.9170 -9.9282 -16.6771 0.0000 30.8879 0.0000
# 6 0.0000 0.0000 0.0000 1.2441 0.0000 17.2331
#
#
#
# Elastic Compliance Matrix: (Units=1/GPa)
#
#
# Indices 1 2 3 4 5 6 
#
# 1 0.011519 -0.004990 -0.002619 0.000000 -0.000066 0.000000
# 2 -0.004990 0.043378 -0.009324 0.000000 0.007630 0.000000
# 3 -0.002619 -0.009324 0.013261 0.000000 0.003492 0.000000
# 4 0.000000 0.000000 0.000000 0.063442 0.000000 -0.004580
# 5 -0.000066 0.007630 0.003492 0.000000 0.036696 0.000000
# 6 0.000000 0.000000 0.000000 -0.004580 0.000000 0.058358
#
#
# Mechanical properties :
#
#
# Convention : Reuss Voigt Hill
#
# Bulk Modulus (GPa) = 29.16158 47.56497 38.36327
# Shear Modulus (GPa) = 18.38558 23.27852 20.83205
#
# Velocity S-wave (km/s) = 2.97965 3.35278 3.17171
# Velocity P-wave (km/s) = 5.09115 6.16094 5.65141
#
# Compressibility (1/GPa) = 0.03429169
#
# Stress axis : x y z
#
# Youngs Moduli (GPa) = 86.81604 23.05295 75.40796
#
# Poissons Ratio (x) = 0.11504 0.19749
# Poissons Ratio (y) = 0.43324 0.70310
# Poissons Ratio (z) = 0.22737 0.21494
#
# Static dielectric constant tensor:
#      x y z
#    x 4.566960 0.000000 0.074820 
#    y 0.000000 3.482900 0.000000 
#    z 0.074820 0.000000 4.535550 
# 
# 
# High freq. dielectric constant tensor:
#      x y z
#    x 1.820870 0.000000 -0.005160 
#    y 0.000000 1.776990 0.000000 
#    z -0.005160 0.000000 1.821370 
# 
# From -- ./inp_files/45052.got.cif
#   From: 2010.06.25/outbox.cif.g09.slc.cpg/sg10_23_cif.got.tgz:45052.got - 2010.06.27 22:07:45.
