data_PCOD8067064
_publ_section_title
;
Structure prediction by ZEFSAII (Michael W. Deem and Ramdas Pophale) SiO2 
 PCOD8067064
Probable space group: P 2/M
;
_chemical_formula_sum "Si O2"
_cell_formula_units_Z 22
_cell_length_a 27.798277
_cell_length_b 7.344677
_cell_length_c 9.183714
_cell_angle_alpha 90.000000
_cell_angle_beta 146.000709
_cell_angle_gamma 90.000000
_cell_volume 1048.485947
_symmetry_space_group_name_H-M "P 2/M"
_symmetry_group_IT_number 10
_symmetry_cell_setting 'monoclinic'
loop_
_space_group_symop_operation_xyz
x,y,z
-x,y,-z
-x,-y,-z
x,-y,z
loop_
_atom_site_type_symbol
_atom_site_label
_atom_site_fract_x
_atom_site_fract_y
_atom_site_fract_z
Si Si1 0.849482 0.287042 0.658932
Si Si2 0.654192 0.291626 0.223061
Si Si3 0.908245 0.000000 0.032166
Si Si4 0.493033 0.203128 0.643056
Si Si5 0.334814 0.702954 0.424590
Si Si6 0.101113 0.000000 0.447635
Si Si7 0.788349 0.000000 0.997861
O O1 0.877355 0.500000 0.733032
O O2 0.747146 0.267536 0.383555
O O3 0.877150 0.185316 0.875790
O O4 0.894563 0.183291 0.638383
O O5 0.625262 0.500000 0.158032
O O6 0.653838 0.209893 0.386031
O O7 0.585999 0.189358 0.951643
O O8 0.869932 0.000000 0.096712
O O9 0.010747 0.000000 0.303420
O O10 0.500000 0.294102 0.500000
O O11 0.426711 0.313451 0.576006
O O12 0.455700 0.000000 0.531871
O O13 0.295827 0.500000 0.341795
O O14 0.268630 0.820496 0.165670
O O15 0.178886 0.000000 0.755535
#
# Coordination Sequence:
#
# PCOD8067064 Si02
#       7
#     4   4   2   4   4   2   2
#     4  10  22  42  69  99 131 170 218 266 316 384
#     4  10  22  39  62  91 123 167 217 259 306 370
#     4  11  23  45  70  96 127 169 214 270 323 396
#     4  11  25  38  60  94 131 168 210 262 318 374
#     4  11  24  43  64  91 126 172 221 262 311 375
#     4  11  27  41  66 100 133 166 208 267 342 390
#     4  12  25  44  66  96 131 172 212 271 322 394
#
# _framework density 20.982637
#
# number of rings (size 3 to 8) (size 9 to 14) (size 15 to 20)
#    0.000    1.273    2.727    2.455    6.364    5.818 
#    0.000    0.000    0.000    3.273    0.000    0.000 
#    0.000    0.000    0.000    0.000    0.000    0.000 
#
# Total GULP energy -272873.324985 kJ/mol
# GULP energy per Si atom -12403.332954 kJ/mol
# Density = 2.093488 g / cm^3
# Si number density = 20.982637 Si / 1000 Ang^3
#
#
#
# Elastic Constant Matrix: (Units=GPa)
#
#
# Indices 1 2 3 4 5 6 
#
# 1 75.6804 12.6877 3.2158 0.0000 10.9660 0.0000
# 2 12.6877 117.4484 20.9937 0.0000 -2.4857 0.0000
# 3 3.2158 20.9937 76.1086 0.0000 -0.7677 0.0000
# 4 0.0000 0.0000 0.0000 38.2010 0.0000 11.7857
# 5 10.9660 -2.4857 -0.7677 0.0000 38.7356 0.0000
# 6 0.0000 0.0000 0.0000 11.7857 0.0000 22.9398
#
#
#
# Elastic Compliance Matrix: (Units=1/GPa)
#
#
# Indices 1 2 3 4 5 6 
#
# 1 0.014078 -0.001571 -0.000203 0.000000 -0.004090 0.000000
# 2 -0.001571 0.009142 -0.002445 0.000000 0.000983 0.000000
# 3 -0.000203 -0.002445 0.013824 0.000000 0.000174 0.000000
# 4 0.000000 0.000000 0.000000 0.031108 0.000000 -0.015982
# 5 -0.004090 0.000983 0.000174 0.000000 0.027041 0.000000
# 6 0.000000 0.000000 0.000000 -0.015982 0.000000 0.051803
#
#
# Mechanical properties :
#
#
# Convention : Reuss Voigt Hill
#
# Bulk Modulus (GPa) = 34.95824 38.11465 36.53644
# Shear Modulus (GPa) = 30.30850 35.46463 32.88656
#
# Velocity S-wave (km/s) = 3.80472 4.11565 3.96324
# Velocity P-wave (km/s) = 5.99983 6.38663 6.19625
#
# Compressibility (1/GPa) = 0.02860556
#
# Stress axis : x y z
#
# Youngs Moduli (GPa) = 71.03199 109.38494 72.33800
#
# Poissons Ratio (x) = 0.17186 0.01466
# Poissons Ratio (y) = 0.11160 0.17690
# Poissons Ratio (z) = 0.01440 0.26749
#
# Static dielectric constant tensor:
#      x y z
#    x 3.813170 0.000000 0.000230 
#    y 0.000000 3.767160 0.000000 
#    z 0.000230 0.000000 3.600930 
# 
# 
# High freq. dielectric constant tensor:
#      x y z
#    x 1.828120 0.000000 0.004850 
#    y 0.000000 1.826840 0.000000 
#    z 0.004850 0.000000 1.812300 
# 
# From -- ./inp_files/38116.got.cif
#   From: 2010.06.25/outbox.cif.g09.slc.cpg/sg10_20_cif.got.tgz:38116.got - 2010.06.27 22:07:45.
