data_PCOD8067168
_publ_section_title
;
Structure prediction by ZEFSAII (Michael W. Deem and Ramdas Pophale) SiO2 
 PCOD8067168
Probable space group: P 2/M
;
_chemical_formula_sum "Si O2"
_cell_formula_units_Z 28
_cell_length_a 21.563257
_cell_length_b 8.989992
_cell_length_c 9.562104
_cell_angle_alpha 90.000000
_cell_angle_beta 47.005516
_cell_angle_gamma 90.000000
_cell_volume 1355.793590
_symmetry_space_group_name_H-M "P 2/M"
_symmetry_group_IT_number 10
_symmetry_cell_setting 'monoclinic'
loop_
_space_group_symop_operation_xyz
x,y,z
-x,y,-z
-x,-y,-z
x,-y,z
loop_
_atom_site_type_symbol
_atom_site_label
_atom_site_fract_x
_atom_site_fract_y
_atom_site_fract_z
Si Si1 0.672945 0.829231 0.699706
Si Si2 0.615392 0.829967 0.098191
Si Si3 0.558796 0.326757 0.667717
Si Si4 0.847525 0.326830 0.395025
Si Si5 0.016052 0.824799 0.634545
Si Si6 0.694173 0.329973 0.222692
Si Si7 0.882481 0.330417 0.030839
O O1 0.588805 0.762010 0.758463
O O2 0.754658 0.740909 0.522354
O O3 0.682516 0.000000 0.640210
O O4 0.663279 0.810594 0.879180
O O5 0.533373 0.726778 0.236647
O O6 0.683279 0.778496 0.108401
O O7 0.588110 0.000000 0.165248
O O8 0.555894 0.500000 0.708870
O O9 0.622682 0.291052 0.444714
O O10 0.837393 0.500000 0.443389
O O11 0.898125 0.301463 0.171767
O O12 0.897977 0.251220 0.444021
O O13 0.000000 0.773087 0.500000
O O14 0.028760 0.000000 0.623888
O O15 0.937856 0.779092 0.852232
O O16 0.686283 0.500000 0.184498
O O17 0.784587 0.298252 0.151709
O O18 0.907459 0.500000 0.954811
#
# Coordination Sequence:
#
# PCOD8067168 Si02
#       7
#     4   4   4   4   4   4   4
#     4  11  24  41  62  91 129 166 206 258 313 369
#     4  11  25  40  58  90 129 167 209 259 315 369
#     4  11  22  41  65  91 122 163 214 261 310 369
#     4  11  23  43  69  95 124 162 211 258 305 366
#     4  11  26  44  64  96 134 165 200 249 307 369
#     4  10  22  41  63  91 125 162 209 261 310 365
#     4  10  22  43  67  94 125 161 209 259 306 365
#
# _framework density 20.65211
#
# number of rings (size 3 to 8) (size 9 to 14) (size 15 to 20)
#    0.000    1.286    1.429    3.429    2.000   11.429 
#    0.000    0.000    0.000    0.000    0.000    0.000 
#    0.000    0.000    0.000    0.000    0.000    0.000 
#
# Total GULP energy -347405.045718 kJ/mol
# GULP energy per Si atom -12407.323061 kJ/mol
# Density = 2.060511 g / cm^3
# Si number density = 20.652110 Si / 1000 Ang^3
#
#
#
# Elastic Constant Matrix: (Units=GPa)
#
#
# Indices 1 2 3 4 5 6 
#
# 1 89.4716 39.6817 10.7153 0.0000 19.7334 0.0000
# 2 39.6817 103.5580 35.1711 0.0000 16.1780 0.0000
# 3 10.7153 35.1711 47.0957 0.0000 3.6916 0.0000
# 4 0.0000 0.0000 0.0000 22.6460 0.0000 14.5787
# 5 19.7334 16.1780 3.6916 0.0000 36.3037 0.0000
# 6 0.0000 0.0000 0.0000 14.5787 0.0000 13.4981
#
#
#
# Elastic Compliance Matrix: (Units=1/GPa)
#
#
# Indices 1 2 3 4 5 6 
#
# 1 0.014551 -0.004959 0.000846 0.000000 -0.005785 0.000000
# 2 -0.004959 0.015523 -0.010215 0.000000 -0.003183 0.000000
# 3 0.000846 -0.010215 0.028576 0.000000 0.001186 0.000000
# 4 0.000000 0.000000 0.000000 0.144925 0.000000 -0.156528
# 5 -0.005785 -0.003183 0.001186 0.000000 0.031988 0.000000
# 6 0.000000 0.000000 0.000000 -0.156528 0.000000 0.243144
#
#
# Mechanical properties :
#
#
# Convention : Reuss Voigt Hill
#
# Bulk Modulus (GPa) = 33.33897 45.69572 39.51734
# Shear Modulus (GPa) = 9.66441 24.79337 17.22889
#
# Velocity S-wave (km/s) = 2.16559 3.46862 2.89146
# Velocity P-wave (km/s) = 4.73616 6.18193 5.50670
#
# Compressibility (1/GPa) = 0.02999493
#
# Stress axis : x y z
#
# Youngs Moduli (GPa) = 68.72438 64.41921 34.99397
#
# Poissons Ratio (x) = 0.31948 -0.02962
# Poissons Ratio (y) = 0.34083 0.35746
# Poissons Ratio (z) = -0.05817 0.65804
#
# Static dielectric constant tensor:
#      x y z
#    x 3.852730 0.000000 0.076970 
#    y 0.000000 3.787070 0.000000 
#    z 0.076970 0.000000 3.654040 
# 
# 
# High freq. dielectric constant tensor:
#      x y z
#    x 1.822400 0.000000 0.001650 
#    y 0.000000 1.813680 0.000000 
#    z 0.001650 0.000000 1.810360 
# 
# From -- ./inp_files/34212.got.cif
#   From: 2010.06.25/outbox.cif.g09.slc.cpg/sg10_18_cif.got.tgz:34212.got - 2010.06.27 22:07:45.
