data_PCOD8067237
_publ_section_title
;
Structure prediction by ZEFSAII (Michael W. Deem and Ramdas Pophale) SiO2 
 PCOD8067237
Probable space group: P 2/M
;
_chemical_formula_sum "Si O2"
_cell_formula_units_Z 32
_cell_length_a 9.224901
_cell_length_b 22.046388
_cell_length_c 15.936159
_cell_angle_alpha 90.000000
_cell_angle_beta 150.996490
_cell_angle_gamma 90.000000
_cell_volume 1571.455320
_symmetry_space_group_name_H-M "P 2/M"
_symmetry_group_IT_number 10
_symmetry_cell_setting 'monoclinic'
loop_
_space_group_symop_operation_xyz
x,y,z
-x,y,-z
-x,-y,-z
x,-y,z
loop_
_atom_site_type_symbol
_atom_site_label
_atom_site_fract_x
_atom_site_fract_y
_atom_site_fract_z
Si Si1 0.343326 0.365054 0.688190
Si Si2 0.855191 0.349041 0.835080
Si Si3 0.334394 0.227954 0.700637
Si Si4 0.770310 0.160276 0.192123
Si Si5 0.310846 0.930536 0.488308
Si Si6 0.656853 0.571030 0.993457
Si Si7 0.818371 0.230584 0.705728
Si Si8 0.262039 0.144540 0.195255
O O1 0.516250 0.370628 0.685558
O O2 0.405923 0.297920 0.757394
O O3 0.446811 0.414180 0.808218
O O4 0.000000 0.378273 0.500000
O O5 0.872947 0.288048 0.791118
O O6 0.000000 0.339584 0.000000
O O7 0.021102 0.398454 0.861120
O O8 0.391786 0.183350 0.806556
O O9 0.563359 0.204666 0.746692
O O10 0.000000 0.221340 0.500000
O O11 0.007515 0.107699 0.330965
O O12 0.927291 0.221775 0.236008
O O13 0.500000 0.133591 0.000000
O O14 0.500000 0.920740 0.500000
O O15 0.510053 0.910497 0.669896
O O16 0.219422 0.000000 0.454982
O O17 0.714235 0.500000 0.028220
O O18 0.500000 0.594487 0.000000
O O19 0.500000 0.234778 0.500000
O O20 0.867016 0.168057 0.781932
O O21 0.000000 0.122437 0.000000
#
# Coordination Sequence:
#
# PCOD8067237 Si02
#       8
#     4   4   4   4   4   4   4   4
#     4  10  23  38  62  96 129 169 212 265 329 380
#     4  10  23  39  63  95 128 171 217 265 324 384
#     4  11  22  38  60  93 136 160 199 271 329 386
#     4  12  25  38  63  97 124 170 208 264 333 383
#     4  11  24  47  67  89 126 173 223 264 312 390
#     4  10  24  45  65  90 131 175 220 266 317 382
#     4  12  22  39  62  93 133 166 210 257 329 394
#     4  12  22  40  66  92 129 166 209 262 324 387
#
# _framework density 20.363289000000002
#
# number of rings (size 3 to 8) (size 9 to 14) (size 15 to 20)
#    0.000    1.000    5.000    1.125    8.750    3.000 
#    0.000    1.250    0.000    1.875    0.000    0.000 
#    0.000    0.000    0.000    0.000    0.000    0.000 
#
# Total GULP energy -396734.258965 kJ/mol
# GULP energy per Si atom -12397.945593 kJ/mol
# Density = 2.031694 g / cm^3
# Si number density = 20.363289 Si / 1000 Ang^3
#
#
#
# Elastic Constant Matrix: (Units=GPa)
#
#
# Indices 1 2 3 4 5 6 
#
# 1 87.0659 46.7945 30.1509 0.0000 12.2779 0.0000
# 2 46.7945 93.6126 42.0900 0.0000 -0.3800 0.0000
# 3 30.1509 42.0900 112.9997 0.0000 10.5843 0.0000
# 4 0.0000 0.0000 0.0000 -51.0603 0.0000 191.7655
# 5 12.2779 -0.3800 10.5843 0.0000 35.1328 0.0000
# 6 0.0000 0.0000 0.0000 191.7655 0.0000 -475.1568
#
#
#
# Elastic Compliance Matrix: (Units=1/GPa)
#
#
# Indices 1 2 3 4 5 6 
#
# 1 0.016966 -0.008059 -0.000989 0.000000 -0.005718 0.000000
# 2 -0.008059 0.016750 -0.004496 0.000000 0.004352 0.000000
# 3 -0.000989 -0.004496 0.011073 0.000000 -0.003039 0.000000
# 4 0.000000 0.000000 0.000000 0.037975 0.000000 0.015326
# 5 -0.005718 0.004352 -0.003039 0.000000 0.031424 0.000000
# 6 0.000000 0.000000 0.000000 0.015326 0.000000 0.004081
#
#
# Mechanical properties :
#
#
# Convention : Reuss Voigt Hill
#
# Bulk Modulus (GPa) = 56.49956 59.08319 57.79137
# Shear Modulus (GPa) = 33.05578 -86.57401 -26.75911
#
# Velocity S-wave (km/s) = 4.03339 -6.52741 -3.62897
# Velocity P-wave (km/s) = 7.03541 5.26610 3.29888
#
# Compressibility (1/GPa) = 0.01769925
#
# Stress axis : x y z
#
# Youngs Moduli (GPa) = 58.94101 59.70059 90.30958
#
# Poissons Ratio (x) = 0.48114 0.08936
# Poissons Ratio (y) = 0.47502 0.40607
# Poissons Ratio (z) = 0.05832 0.26844
#
# Static dielectric constant tensor:
#      x y z
#    x 5.664500 0.000000 -1.158460 
#    y 0.000000 3.481400 0.000000 
#    z -1.158460 0.000000 4.782880 
# 
# 
# High freq. dielectric constant tensor:
#      x y z
#    x 1.812380 0.000000 0.007590 
#    y 0.000000 1.774600 0.000000 
#    z 0.007590 0.000000 1.798460 
# 
# From -- ./inp_files/62701.got.cif
#   From: 2010.06.25/outbox.cif.g09.slc.cpg/sg10_32_cif.got.tgz:62701.got - 2010.06.27 22:07:45.
