data_PCOD8067476
_publ_section_title
;
Structure prediction by ZEFSAII (Michael W. Deem and Ramdas Pophale) SiO2 
 PCOD8067476
Probable space group: P 2/M
;
_chemical_formula_sum "Si O2"
_cell_formula_units_Z 24
_cell_length_a 17.234175
_cell_length_b 12.556094
_cell_length_c 10.838480
_cell_angle_alpha 90.000000
_cell_angle_beta 34.177882
_cell_angle_gamma 90.000000
_cell_volume 1317.550850
_symmetry_space_group_name_H-M "P 2/M"
_symmetry_group_IT_number 10
_symmetry_cell_setting 'monoclinic'
loop_
_space_group_symop_operation_xyz
x,y,z
-x,y,-z
-x,-y,-z
x,-y,z
loop_
_atom_site_type_symbol
_atom_site_label
_atom_site_fract_x
_atom_site_fract_y
_atom_site_fract_z
Si Si1 0.647342 0.305245 0.748697
Si Si2 0.111758 0.500000 0.175824
Si Si3 0.151129 0.121454 0.151679
Si Si4 0.290786 0.313820 0.849775
Si Si5 0.193125 0.500000 0.352130
Si Si6 0.166574 0.121699 0.416432
Si Si7 0.421907 0.624520 0.431043
O O1 0.718371 0.395689 0.736853
O O2 0.736149 0.197548 0.631576
O O3 0.637181 0.344719 0.622833
O O4 0.500000 0.278668 0.000000
O O5 0.159618 0.500000 0.253111
O O6 0.946099 0.500000 0.383803
O O7 0.165290 0.394901 0.036845
O O8 0.182016 0.151032 0.252507
O O9 0.990283 0.139639 0.334552
O O10 0.193170 0.000000 0.069342
O O11 0.242543 0.194770 0.943411
O O12 0.417248 0.345824 0.772117
O O13 0.335031 0.313642 0.649002
O O14 0.211313 0.000000 0.381237
O O15 0.404281 0.500000 0.479279
#
# Coordination Sequence:
#
# PCOD8067476 Si02
#       7
#     4   2   4   4   2   4   4
#     4  12  23  36  56  81 115 149 177 229 284 332
#     4  11  20  34  57  79 104 144 184 235 267 318
#     4   9  18  36  62  85 112 144 183 235 279 319
#     4  11  20  37  60  80 106 147 195 224 274 331
#     4  11  23  33  51  84 112 134 186 231 274 327
#     4   9  19  37  59  86 113 144 186 230 277 328
#     4  11  22  39  55  80 114 152 187 225 276 335
#
# _framework density 18.215617000000002
#
# number of rings (size 3 to 8) (size 9 to 14) (size 15 to 20)
#    0.000    1.500    2.500    5.750    0.000    3.000 
#    0.000    7.500    0.000    2.000    0.000    0.000 
#    0.000    0.000    0.000    0.000    0.000    0.000 
#
# Total GULP energy -297720.856582 kJ/mol
# GULP energy per Si atom -12405.035691 kJ/mol
# Density = 1.817416 g / cm^3
# Si number density = 18.215617 Si / 1000 Ang^3
#
#
#
# Elastic Constant Matrix: (Units=GPa)
#
#
# Indices 1 2 3 4 5 6 
#
# 1 59.3554 28.0861 19.9524 0.0000 -3.4933 0.0000
# 2 28.0861 113.6013 45.2274 0.0000 -0.9466 0.0000
# 3 19.9524 45.2274 82.5612 0.0000 1.7653 0.0000
# 4 0.0000 0.0000 0.0000 80.4814 0.0000 -33.4756
# 5 -3.4933 -0.9466 1.7653 0.0000 23.2797 0.0000
# 6 0.0000 0.0000 0.0000 -33.4756 0.0000 57.2548
#
#
#
# Elastic Compliance Matrix: (Units=1/GPa)
#
#
# Indices 1 2 3 4 5 6 
#
# 1 0.019733 -0.003746 -0.002781 0.000000 0.003020 0.000000
# 2 -0.003746 0.011989 -0.005670 0.000000 0.000355 0.000000
# 3 -0.002781 -0.005670 0.015930 0.000000 -0.001856 0.000000
# 4 0.000000 0.000000 0.000000 0.016418 0.000000 0.009599
# 5 0.003020 0.000355 -0.001856 0.000000 0.043564 0.000000
# 6 0.000000 0.000000 0.000000 0.009599 0.000000 0.023078
#
#
# Mechanical properties :
#
#
# Convention : Reuss Voigt Hill
#
# Bulk Modulus (GPa) = 42.99701 49.11660 46.05680
# Shear Modulus (GPa) = 30.70120 43.01997 36.86059
#
# Velocity S-wave (km/s) = 4.10986 4.86501 4.50329
# Velocity P-wave (km/s) = 6.79536 7.65378 7.23731
#
# Compressibility (1/GPa) = 0.02325743
#
# Stress axis : x y z
#
# Youngs Moduli (GPa) = 50.67663 83.40816 62.77432
#
# Poissons Ratio (x) = 0.31247 0.17459
# Poissons Ratio (y) = 0.18985 0.35593
# Poissons Ratio (z) = 0.14094 0.47292
#
# Static dielectric constant tensor:
#      x y z
#    x 3.241270 0.000000 -0.101780 
#    y 0.000000 3.386370 0.000000 
#    z -0.101780 0.000000 3.419750 
# 
# 
# High freq. dielectric constant tensor:
#      x y z
#    x 1.692380 0.000000 -0.005730 
#    y 0.000000 1.711750 0.000000 
#    z -0.005730 0.000000 1.711370 
# 
# From -- ./inp_files/53613.got.cif
#   From: 2010.06.25/outbox.cif.g09.slc.cpg/sg10_27_cif.got.tgz:53613.got - 2010.06.27 22:07:45.
