data_PCOD8067354
_publ_section_title
;
Structure prediction by ZEFSAII (Michael W. Deem and Ramdas Pophale) SiO2 
 PCOD8067354
Probable space group: P 2/M
;
_chemical_formula_sum "Si O2"
_cell_formula_units_Z 20
_cell_length_a 8.143939
_cell_length_b 11.616462
_cell_length_c 9.245625
_cell_angle_alpha 90.000000
_cell_angle_beta 84.420212
_cell_angle_gamma 90.000000
_cell_volume 870.526471
_symmetry_space_group_name_H-M "P 2/M"
_symmetry_group_IT_number 10
_symmetry_cell_setting 'monoclinic'
loop_
_space_group_symop_operation_xyz
x,y,z
-x,y,-z
-x,-y,-z
x,-y,z
loop_
_atom_site_type_symbol
_atom_site_label
_atom_site_fract_x
_atom_site_fract_y
_atom_site_fract_z
Si Si1 0.676548 0.742386 0.052896
Si Si2 0.814718 0.500000 0.088410
Si Si3 0.810122 0.132021 0.793523
Si Si4 0.811099 0.870250 0.295137
Si Si5 0.680971 0.739788 0.549713
Si Si6 0.697410 0.500000 0.441118
O O1 0.727778 0.610707 0.028162
O O2 0.693818 0.781121 0.217924
O O3 0.500000 0.762664 0.000000
O O4 0.797454 0.831106 0.961140
O O5 0.769214 0.500000 0.267363
O O6 0.000000 0.500000 0.000000
O O7 0.691855 0.221963 0.716154
O O8 0.998215 0.153319 0.741264
O O9 0.754632 0.000000 0.774986
O O10 0.780376 0.843204 0.465133
O O11 0.760274 0.000000 0.261056
O O12 0.500000 0.736373 0.500000
O O13 0.766947 0.615244 0.513081
O O14 0.500000 0.500000 0.500000
#
# Coordination Sequence:
#
# PCOD8067354 Si02
#       6
#     4   2   4   4   4   2
#     4  12  26  43  70 101 139 180 236 295 356 420
#     4  12  25  48  76 106 142 190 238 292 354 431
#     4  11  25  43  66 101 140 185 235 291 356 426
#     4  11  23  43  67  95 137 184 230 291 355 424
#     4  11  23  42  68  98 139 180 237 295 353 421
#     4  10  24  44  75 103 144 187 237 291 360 422
#
# _framework density 22.974602999999998
#
# number of rings (size 3 to 8) (size 9 to 14) (size 15 to 20)
#    0.000    0.800    2.000    5.100    2.800    8.800 
#    0.000    3.000    0.000    0.000    0.000    0.000 
#    0.000    0.000    0.000    0.000    0.000    0.000 
#
# Total GULP energy -247808.025762 kJ/mol
# GULP energy per Si atom -12390.401288 kJ/mol
# Density = 2.292231 g / cm^3
# Si number density = 22.974603 Si / 1000 Ang^3
#
#
#
# Elastic Constant Matrix: (Units=GPa)
#
#
# Indices 1 2 3 4 5 6 
#
# 1 43.6442 40.0628 8.8943 0.0000 1.8002 0.0000
# 2 40.0628 144.5883 27.1914 0.0000 7.9899 0.0000
# 3 8.8943 27.1914 84.4081 0.0000 -10.9916 0.0000
# 4 0.0000 0.0000 0.0000 93.5240 0.0000 0.3901
# 5 1.8002 7.9899 -10.9916 0.0000 41.6318 0.0000
# 6 0.0000 0.0000 0.0000 0.3901 0.0000 32.0765
#
#
#
# Elastic Compliance Matrix: (Units=1/GPa)
#
#
# Indices 1 2 3 4 5 6 
#
# 1 0.030751 -0.008435 -0.000503 0.000000 0.000156 0.000000
# 2 -0.008435 0.009859 -0.002575 0.000000 -0.002207 0.000000
# 3 -0.000503 -0.002575 0.013252 0.000000 0.004015 0.000000
# 4 0.000000 0.000000 0.000000 0.010693 0.000000 -0.000130
# 5 0.000156 -0.002207 0.004015 0.000000 0.025497 0.000000
# 6 0.000000 0.000000 0.000000 -0.000130 0.000000 0.031177
#
#
# Mechanical properties :
#
#
# Convention : Reuss Voigt Hill
#
# Bulk Modulus (GPa) = 32.42707 47.21533 39.82120
# Shear Modulus (GPa) = 32.35534 46.54592 39.45063
#
# Velocity S-wave (km/s) = 3.75682 4.50596 4.14834
# Velocity P-wave (km/s) = 5.74136 6.90415 6.34943
#
# Compressibility (1/GPa) = 0.03083844
#
# Stress axis : x y z
#
# Youngs Moduli (GPa) = 32.51920 101.42532 75.45780
#
# Poissons Ratio (x) = 0.85549 0.03794
# Poissons Ratio (y) = 0.27429 0.19429
# Poissons Ratio (z) = 0.01635 0.26115
#
# Static dielectric constant tensor:
#      x y z
#    x 3.897610 0.000000 -0.257900 
#    y 0.000000 4.424130 0.000000 
#    z -0.257900 0.000000 4.837750 
# 
# 
# High freq. dielectric constant tensor:
#      x y z
#    x 1.896550 0.000000 -0.014780 
#    y 0.000000 1.924430 0.000000 
#    z -0.014780 0.000000 1.921850 
# 
# From -- ./inp_files/17799.got.cif
#   From: 2010.06.25/outbox.cif.g09.slc.cpg/sg10_9_cif.got.tgz:17799.got - 2010.06.27 22:07:45.
