data_PCOD8067604
_publ_section_title
;
Structure prediction by ZEFSAII (Michael W. Deem and Ramdas Pophale) SiO2 
 PCOD8067604
Probable space group: P 2/M
;
_chemical_formula_sum "Si O2"
_cell_formula_units_Z 30
_cell_length_a 9.357341
_cell_length_b 19.289099
_cell_length_c 8.498183
_cell_angle_alpha 90.000000
_cell_angle_beta 98.460002
_cell_angle_gamma 90.000000
_cell_volume 1517.186387
_symmetry_space_group_name_H-M "P 2/M"
_symmetry_group_IT_number 10
_symmetry_cell_setting 'monoclinic'
loop_
_space_group_symop_operation_xyz
x,y,z
-x,y,-z
-x,-y,-z
x,-y,z
loop_
_atom_site_type_symbol
_atom_site_label
_atom_site_fract_x
_atom_site_fract_y
_atom_site_fract_z
Si Si1 0.500000 0.296350 0.500000
Si Si2 0.039648 0.335310 0.664773
Si Si3 0.336024 0.200315 0.013873
Si Si4 0.739747 0.778792 0.346456
Si Si5 0.844425 0.924553 0.400270
Si Si6 0.157905 0.577305 0.953038
Si Si7 0.848276 0.076552 0.029456
Si Si8 0.265807 0.674518 0.223352
O O1 0.408269 0.250252 0.606160
O O2 0.614540 0.341985 0.621630
O O3 0.121037 0.269134 0.598940
O O4 0.150454 0.379204 0.790111
O O5 0.000000 0.379535 0.500000
O O6 0.895331 0.315022 0.736266
O O7 0.257049 0.223052 0.842145
O O8 0.275990 0.125907 0.059657
O O9 0.500000 0.189583 0.000000
O O10 0.309974 0.254095 0.148673
O O11 0.752254 0.855696 0.426552
O O12 0.853493 0.926935 0.215995
O O13 0.000000 0.914608 0.500000
O O14 0.779179 0.000000 0.446611
O O15 0.216341 0.500000 0.926993
O O16 0.267310 0.612996 0.094767
O O17 0.000000 0.573053 0.000000
O O18 0.823251 0.000000 0.952636
O O19 0.000000 0.108311 0.000000
#
# Coordination Sequence:
#
# PCOD8067604 Si02
#       8
#     2   4   4   4   4   4   4   4
#     4  12  24  38  58  86 124 156 194 250 298 346
#     4  11  21  36  63  94 118 153 199 245 291 344
#     4  11  22  36  57  81 115 157 194 240 298 358
#     4  11  22  37  57  87 118 152 201 249 290 350
#     4   9  19  35  55  78 111 151 189 241 296 342
#     4   9  20  39  63  92 123 152 191 244 296 350
#     4   9  20  35  54  81 109 143 194 247 295 349
#     4  11  23  38  61  89 118 157 196 241 295 349
#
# _framework density 19.773444000000001
#
# number of rings (size 3 to 8) (size 9 to 14) (size 15 to 20)
#    0.000    1.733    4.000    0.400    3.733    0.533 
#    0.000    0.667    0.000    3.600    0.000    0.000 
#    0.000    0.000    0.000    0.000    0.000    0.000 
#
# Total GULP energy -371730.841135 kJ/mol
# GULP energy per Si atom -12391.028038 kJ/mol
# Density = 1.972844 g / cm^3
# Si number density = 19.773444 Si / 1000 Ang^3
#
#
#
# Elastic Constant Matrix: (Units=GPa)
#
#
# Indices 1 2 3 4 5 6 
#
# 1 92.1285 50.0314 16.2320 0.0000 0.4021 0.0000
# 2 50.0314 127.0001 45.5580 0.0000 10.4297 0.0000
# 3 16.2320 45.5580 82.6768 0.0000 19.3840 0.0000
# 4 0.0000 0.0000 0.0000 10.6993 0.0000 -0.9485
# 5 0.4021 10.4297 19.3840 0.0000 33.9036 0.0000
# 6 0.0000 0.0000 0.0000 -0.9485 0.0000 14.1914
#
#
#
# Elastic Compliance Matrix: (Units=1/GPa)
#
#
# Indices 1 2 3 4 5 6 
#
# 1 0.013888 -0.005596 -0.000009 0.000000 0.001562 0.000000
# 2 -0.005596 0.012069 -0.005424 0.000000 -0.000545 0.000000
# 3 -0.000009 -0.005424 0.016969 0.000000 -0.008033 0.000000
# 4 0.000000 0.000000 0.000000 0.094021 0.000000 0.006284
# 5 0.001562 -0.000545 -0.008033 0.000000 0.034238 0.000000
# 6 0.000000 0.000000 0.000000 0.006284 0.000000 0.070885
#
#
# Mechanical properties :
#
#
# Convention : Reuss Voigt Hill
#
# Bulk Modulus (GPa) = 47.92031 58.38312 53.15172
# Shear Modulus (GPa) = 18.44434 24.42446 21.43440
#
# Velocity S-wave (km/s) = 3.05746 3.51838 3.29599
# Velocity P-wave (km/s) = 6.06229 6.78936 6.43610
#
# Compressibility (1/GPa) = 0.02086798
#
# Stress axis : x y z
#
# Youngs Moduli (GPa) = 72.00295 82.85599 58.92967
#
# Poissons Ratio (x) = 0.46368 0.00054
# Poissons Ratio (y) = 0.40295 0.31963
# Poissons Ratio (z) = 0.00066 0.44941
#
# Static dielectric constant tensor:
#      x y z
#    x 3.437280 0.000000 0.041830 
#    y 0.000000 3.915230 0.000000 
#    z 0.041830 0.000000 4.588140 
# 
# 
# High freq. dielectric constant tensor:
#      x y z
#    x 1.752630 0.000000 0.007940 
#    y 0.000000 1.758900 0.000000 
#    z 0.007940 0.000000 1.782600 
# 
# From -- ./inp_files/20248.got.cif
#   From: 2010.06.25/outbox.cif.g09.slc.cpg/sg10_11_cif.got.tgz:20248.got - 2010.06.27 22:07:45.
