data_PCOD8067358
_publ_section_title
;
Structure prediction by ZEFSAII (Michael W. Deem and Ramdas Pophale) SiO2 
 PCOD8067358
Probable space group: P 2/M
;
_chemical_formula_sum "Si O2"
_cell_formula_units_Z 28
_cell_length_a 21.336096
_cell_length_b 8.588631
_cell_length_c 9.685620
_cell_angle_alpha 90.000000
_cell_angle_beta 132.155468
_cell_angle_gamma 90.000000
_cell_volume 1315.757412
_symmetry_space_group_name_H-M "P 2/M"
_symmetry_group_IT_number 10
_symmetry_cell_setting 'monoclinic'
loop_
_space_group_symop_operation_xyz
x,y,z
-x,y,-z
-x,-y,-z
x,-y,z
loop_
_atom_site_type_symbol
_atom_site_label
_atom_site_fract_x
_atom_site_fract_y
_atom_site_fract_z
Si Si1 0.297957 0.179359 0.165921
Si Si2 0.668612 0.680477 0.214753
Si Si3 0.625845 0.320528 0.461487
Si Si4 0.873202 0.680940 0.183941
Si Si5 0.984664 0.316404 0.820691
Si Si6 0.151996 0.181719 0.571684
Si Si7 0.554503 0.180060 0.825785
O O1 0.320027 0.213758 0.356491
O O2 0.379437 0.221467 0.196073
O O3 0.271514 0.000000 0.108166
O O4 0.221578 0.286621 0.004488
O O5 0.652796 0.500000 0.159414
O O6 0.663435 0.718095 0.367975
O O7 0.759566 0.728607 0.292653
O O8 0.595007 0.778707 0.032916
O O9 0.639186 0.500000 0.520882
O O10 0.527086 0.283404 0.322981
O O11 0.884865 0.500000 0.233528
O O12 0.896565 0.773613 0.358551
O O13 0.935692 0.734572 0.154240
O O14 0.968595 0.500000 0.791970
O O15 0.901460 0.231903 0.640507
O O16 0.000000 0.260051 0.000000
O O17 0.170560 0.000000 0.593376
O O18 0.528153 0.000000 0.784232
#
# Coordination Sequence:
#
# PCOD8067358 Si02
#       7
#     4   4   4   4   4   4   4
#     4  11  24  41  63  94 131 168 212 265 318 375
#     4  11  24  42  65  92 126 169 218 265 314 378
#     4  11  25  41  62  92 127 170 217 265 319 377
#     4  11  23  42  69  96 126 170 216 258 310 374
#     4  10  24  45  69  98 131 166 207 258 313 376
#     4  12  25  42  66  97 130 168 212 261 318 376
#     4  11  23  41  64  93 127 166 213 266 323 377
#
# _framework density 21.280519000000002
#
# number of rings (size 3 to 8) (size 9 to 14) (size 15 to 20)
#    0.000    1.000    1.429    4.714    2.000   10.571 
#    0.000    0.000    0.000    0.000    0.000    0.000 
#    0.000    0.000    0.000    0.000    0.000    0.000 
#
# Total GULP energy -347441.147387 kJ/mol
# GULP energy per Si atom -12408.612407 kJ/mol
# Density = 2.123208 g / cm^3
# Si number density = 21.280519 Si / 1000 Ang^3
#
#
#
# Elastic Constant Matrix: (Units=GPa)
#
#
# Indices 1 2 3 4 5 6 
#
# 1 49.0848 12.1770 19.0420 0.0000 -14.4426 0.0000
# 2 12.1770 26.7242 10.5907 0.0000 -11.9818 0.0000
# 3 19.0420 10.5907 118.4782 0.0000 -14.5181 0.0000
# 4 0.0000 0.0000 0.0000 -91.1212 0.0000 3.1378
# 5 -14.4426 -11.9818 -14.5181 0.0000 30.2405 0.0000
# 6 0.0000 0.0000 0.0000 3.1378 0.0000 19.0937
#
#
#
# Elastic Compliance Matrix: (Units=1/GPa)
#
#
# Indices 1 2 3 4 5 6 
#
# 1 0.025473 -0.006939 -0.002465 0.000000 0.008233 0.000000
# 2 -0.006939 0.047831 -0.001322 0.000000 0.015003 0.000000
# 3 -0.002465 -0.001322 0.009293 0.000000 0.002760 0.000000
# 4 0.000000 0.000000 0.000000 -0.010913 0.000000 0.001793
# 5 0.008233 0.015003 0.002760 0.000000 0.044270 0.000000
# 6 0.000000 0.000000 0.000000 0.001793 0.000000 0.052079
#
#
# Mechanical properties :
#
#
# Convention : Reuss Voigt Hill
#
# Bulk Modulus (GPa) = 16.35432 30.87853 23.61643
# Shear Modulus (GPa) = 23.82465 1.80777 12.81621
#
# Velocity S-wave (km/s) = 3.34960 0.92268 2.45674
# Velocity P-wave (km/s) = 4.76042 3.95940 4.37827
#
# Compressibility (1/GPa) = 0.06114591
#
# Stress axis : x y z
#
# Youngs Moduli (GPa) = 39.25729 20.90676 107.60821
#
# Poissons Ratio (x) = 0.14507 0.26525
# Poissons Ratio (y) = 0.27240 0.14226
# Poissons Ratio (z) = 0.09677 0.02764
#
# Static dielectric constant tensor:
#      x y z
#    x 3.936250 0.000000 -0.125650 
#    y 0.000000 3.762130 0.000000 
#    z -0.125650 0.000000 3.950080 
# 
# 
# High freq. dielectric constant tensor:
#      x y z
#    x 1.841570 0.000000 -0.005020 
#    y 0.000000 1.835770 0.000000 
#    z -0.005020 0.000000 1.847270 
# 
# From -- ./inp_files/34303.got.cif
#   From: 2010.06.25/outbox.cif.g09.slc.cpg/sg10_18_cif.got.tgz:34303.got - 2010.06.27 22:07:45.
