data_PCOD8067635
_publ_section_title
;
Structure prediction by ZEFSAII (Michael W. Deem and Ramdas Pophale) SiO2 
 PCOD8067635
Probable space group: P 2/M
;
_chemical_formula_sum "Si O2"
_cell_formula_units_Z 20
_cell_length_a 10.593644
_cell_length_b 15.388628
_cell_length_c 8.539132
_cell_angle_alpha 90.000000
_cell_angle_beta 138.671135
_cell_angle_gamma 90.000000
_cell_volume 919.290889
_symmetry_space_group_name_H-M "P 2/M"
_symmetry_group_IT_number 10
_symmetry_cell_setting 'monoclinic'
loop_
_space_group_symop_operation_xyz
x,y,z
-x,y,-z
-x,-y,-z
x,-y,z
loop_
_atom_site_type_symbol
_atom_site_label
_atom_site_fract_x
_atom_site_fract_y
_atom_site_fract_z
Si Si1 0.275620 0.097635 0.314852
Si Si2 0.110854 0.183447 0.456595
Si Si3 0.715998 0.404383 0.646535
Si Si4 0.577269 0.313572 0.229758
Si Si5 0.803968 0.258225 0.958712
O O1 0.500000 0.111935 0.500000
O O2 0.202554 0.113202 0.424269
O O3 0.174344 0.165444 0.106250
O O4 0.217701 0.000000 0.211902
O O5 0.286241 0.235460 0.696786
O O6 0.000000 0.138124 0.500000
O O7 0.971619 0.254737 0.243150
O O8 0.500000 0.408055 0.500000
O O9 0.811440 0.500000 0.751302
O O10 0.703958 0.378651 0.452282
O O11 0.837156 0.335124 0.861775
O O12 0.404498 0.271496 0.165121
O O13 0.500000 0.360826 0.000000
#
# Coordination Sequence:
#
# PCOD8067635 Si02
#       5
#     4   4   4   4   4
#     4  11  23  42  68  96 127 166 213 262 314 376
#     4  12  24  39  65  95 127 171 210 255 324 376
#     4   9  19  37  64  94 122 165 217 262 312 372
#     4  11  21  39  62  93 130 168 208 260 319 373
#     4  11  21  40  68  91 126 165 215 265 311 371
#
# _framework density 21.755898999999999
#
# number of rings (size 3 to 8) (size 9 to 14) (size 15 to 20)
#    0.000    1.200    6.000    1.200    0.000    2.400 
#    0.000    2.000    0.000    4.800    0.000    0.000 
#    0.000    0.000    0.000    0.000    0.000    0.000 
#
# Total GULP energy -247845.552346 kJ/mol
# GULP energy per Si atom -12392.277617 kJ/mol
# Density = 2.170638 g / cm^3
# Si number density = 21.755899 Si / 1000 Ang^3
#
#
#
# Elastic Constant Matrix: (Units=GPa)
#
#
# Indices 1 2 3 4 5 6 
#
# 1 142.0446 30.3440 36.4065 0.0000 -11.7539 0.0000
# 2 30.3440 134.8448 39.9881 0.0000 -12.6212 0.0000
# 3 36.4065 39.9881 97.4482 0.0000 -10.8320 0.0000
# 4 0.0000 0.0000 0.0000 -22.0124 0.0000 -17.9450
# 5 -11.7539 -12.6212 -10.8320 0.0000 40.3732 0.0000
# 6 0.0000 0.0000 0.0000 -17.9450 0.0000 7.2690
#
#
#
# Elastic Compliance Matrix: (Units=1/GPa)
#
#
# Indices 1 2 3 4 5 6 
#
# 1 0.007981 -0.000943 -0.002442 0.000000 0.001373 0.000000
# 2 -0.000943 0.008678 -0.003028 0.000000 0.001626 0.000000
# 3 -0.002442 -0.003028 0.012609 0.000000 0.001725 0.000000
# 4 0.000000 0.000000 0.000000 -0.015080 0.000000 -0.037228
# 5 0.001373 0.001626 0.001725 0.000000 0.026140 0.000000
# 6 0.000000 0.000000 0.000000 -0.037228 0.000000 0.045666
#
#
# Mechanical properties :
#
#
# Convention : Reuss Voigt Hill
#
# Bulk Modulus (GPa) = 60.82213 65.31276 63.06745
# Shear Modulus (GPa) = 47.93818 22.96589 35.45204
#
# Velocity S-wave (km/s) = 4.69919 3.25255 4.04113
# Velocity P-wave (km/s) = 7.58027 6.64766 7.12923
#
# Compressibility (1/GPa) = 0.01644138
#
# Stress axis : x y z
#
# Youngs Moduli (GPa) = 125.29629 115.22935 79.31143
#
# Poissons Ratio (x) = 0.10869 0.19368
# Poissons Ratio (y) = 0.11819 0.24016
# Poissons Ratio (z) = 0.30597 0.34892
#
# Static dielectric constant tensor:
#      x y z
#    x 4.119430 0.000000 0.013470 
#    y 0.000000 3.854200 0.000000 
#    z 0.013470 0.000000 3.890050 
# 
# 
# High freq. dielectric constant tensor:
#      x y z
#    x 1.871640 0.000000 0.014080 
#    y 0.000000 1.821550 0.000000 
#    z 0.014080 0.000000 1.861000 
# 
# From -- ./inp_files/25766.got.cif
#   From: 2010.06.25/outbox.cif.g09.slc.cpg/sg10_13_cif.got.tgz:25766.got - 2010.06.27 22:07:45.
