data_PCOD8067430
_publ_section_title
;
Structure prediction by ZEFSAII (Michael W. Deem and Ramdas Pophale) SiO2 
 PCOD8067430
Probable space group: P 2/M
;
_chemical_formula_sum "Si O2"
_cell_formula_units_Z 32
_cell_length_a 30.564486
_cell_length_b 8.906562
_cell_length_c 21.246457
_cell_angle_alpha 90.000000
_cell_angle_beta 19.032547
_cell_angle_gamma 90.000000
_cell_volume 1886.129218
_symmetry_space_group_name_H-M "P 2/M"
_symmetry_group_IT_number 10
_symmetry_cell_setting 'monoclinic'
loop_
_space_group_symop_operation_xyz
x,y,z
-x,y,-z
-x,-y,-z
x,-y,z
loop_
_atom_site_type_symbol
_atom_site_label
_atom_site_fract_x
_atom_site_fract_y
_atom_site_fract_z
Si Si1 0.617338 0.673874 0.057704
Si Si2 0.894618 0.175099 0.697749
Si Si3 0.445410 0.674544 0.716950
Si Si4 0.783357 0.176213 0.051316
Si Si5 0.281462 0.827261 0.301798
Si Si6 0.999626 0.676662 0.320592
Si Si7 0.493559 0.172417 0.906655
Si Si8 0.364634 0.333962 0.644173
O O1 0.656034 0.500000 0.998434
O O2 0.750349 0.772869 0.869390
O O3 0.543379 0.706159 0.224334
O O4 0.514056 0.721502 0.143767
O O5 0.933530 0.266212 0.706438
O O6 0.000000 0.210707 0.500000
O O7 0.891438 0.000000 0.718983
O O8 0.412239 0.500000 0.747583
O O9 0.325726 0.773066 0.851565
O O10 0.588599 0.717747 0.489615
O O11 0.741899 0.222406 0.178898
O O12 0.800006 0.000000 0.025845
O O13 0.925086 0.251424 0.841594
O O14 0.365203 0.797127 0.251327
O O15 0.155655 0.718172 0.471879
O O16 0.233649 0.000000 0.363561
O O17 0.372106 0.788309 0.118532
O O18 0.016998 0.500000 0.294277
O O19 0.483771 0.000000 0.898704
O O20 0.500000 0.335596 0.500000
O O21 0.299915 0.500000 0.730375
#
# Coordination Sequence:
#
# PCOD8067430 Si02
#       8
#     4   4   4   4   4   4   4   4
#     4  11  21  32  50  75 103 133 167 204 245 295
#     4  11  23  36  49  68  98 135 170 203 246 299
#     4   9  18  32  47  68 100 136 165 199 245 295
#     4  11  20  30  47  71  99 131 167 205 244 293
#     4   9  19  37  56  73  95 129 170 211 255 299
#     4  12  23  34  50  73 101 132 167 207 252 298
#     4   9  19  36  56  74  97 129 167 211 256 298
#     4   8  15  29  47  65  94 132 165 197 242 292
#
# _framework density 16.965962999999999
#
# number of rings (size 3 to 8) (size 9 to 14) (size 15 to 20)
#    0.000    2.000    1.250    5.250    0.000    7.750 
#    0.000    1.250    0.000    0.000    0.000    0.875 
#    0.000    7.000    0.000    0.000    0.000    0.000 
#
# Total GULP energy -396813.637382 kJ/mol
# GULP energy per Si atom -12400.426168 kJ/mol
# Density = 1.692735 g / cm^3
# Si number density = 16.965963 Si / 1000 Ang^3
#
#
#
# Elastic Constant Matrix: (Units=GPa)
#
#
# Indices 1 2 3 4 5 6 
#
# 1 75.2762 28.8087 24.0532 0.0000 12.3928 0.0000
# 2 28.8087 93.0658 30.8806 0.0000 11.7951 0.0000
# 3 24.0532 30.8806 42.0523 0.0000 12.8776 0.0000
# 4 0.0000 0.0000 0.0000 23.3152 0.0000 1.5070
# 5 12.3928 11.7951 12.8776 0.0000 25.2207 0.0000
# 6 0.0000 0.0000 0.0000 1.5070 0.0000 24.3026
#
#
#
# Elastic Compliance Matrix: (Units=1/GPa)
#
#
# Indices 1 2 3 4 5 6 
#
# 1 0.017027 -0.002572 -0.006705 0.000000 -0.003740 0.000000
# 2 -0.002572 0.014647 -0.008978 0.000000 -0.001002 0.000000
# 3 -0.006705 -0.008978 0.037828 0.000000 -0.011821 0.000000
# 4 0.000000 0.000000 0.000000 0.043063 0.000000 -0.002670
# 5 -0.003740 -0.001002 -0.011821 0.000000 0.047993 0.000000
# 6 0.000000 0.000000 0.000000 -0.002670 0.000000 0.041313
#
#
# Mechanical properties :
#
#
# Convention : Reuss Voigt Hill
#
# Bulk Modulus (GPa) = 30.31022 41.98659 36.14840
# Shear Modulus (GPa) = 20.04980 23.01116 21.53048
#
# Velocity S-wave (km/s) = 3.44141 3.68681 3.56622
# Velocity P-wave (km/s) = 5.80476 6.55169 6.18950
#
# Compressibility (1/GPa) = 0.03299218
#
# Stress axis : x y z
#
# Youngs Moduli (GPa) = 58.73045 68.27209 26.43534
#
# Poissons Ratio (x) = 0.17558 0.17725
# Poissons Ratio (y) = 0.15104 0.23734
# Poissons Ratio (z) = 0.39380 0.61295
#
# Static dielectric constant tensor:
#      x y z
#    x 3.134800 0.000000 0.336920 
#    y 0.000000 3.160910 0.000000 
#    z 0.336920 0.000000 3.312910 
# 
# 
# High freq. dielectric constant tensor:
#      x y z
#    x 1.633480 0.000000 0.024790 
#    y 0.000000 1.659560 0.000000 
#    z 0.024790 0.000000 1.644850 
# 
# From -- ./inp_files/75984.got.cif
#   From: 2010.06.25/outbox.cif.g09.slc.cpg/sg10_38_cif.got.tgz:75984.got - 2010.06.27 22:07:45.
