data_PCOD8067060
_publ_section_title
;
Structure prediction by ZEFSAII (Michael W. Deem and Ramdas Pophale) SiO2 
 PCOD8067060
Probable space group: P 2/M
;
_chemical_formula_sum "Si O2"
_cell_formula_units_Z 32
_cell_length_a 11.980810
_cell_length_b 14.550249
_cell_length_c 13.468557
_cell_angle_alpha 90.000000
_cell_angle_beta 136.301049
_cell_angle_gamma 90.000000
_cell_volume 1622.084560
_symmetry_space_group_name_H-M "P 2/M"
_symmetry_group_IT_number 10
_symmetry_cell_setting 'monoclinic'
loop_
_space_group_symop_operation_xyz
x,y,z
-x,y,-z
-x,-y,-z
x,-y,z
loop_
_atom_site_type_symbol
_atom_site_label
_atom_site_fract_x
_atom_site_fract_y
_atom_site_fract_z
Si Si1 0.489490 0.392208 0.880605
Si Si2 0.175776 0.749816 0.391694
Si Si3 0.793657 0.347793 0.944232
Si Si4 0.229281 0.144034 0.132229
Si Si5 0.168744 0.602253 0.555042
Si Si6 0.856397 0.600183 0.775755
Si Si7 0.557620 0.103665 0.425955
Si Si8 0.987302 0.099292 0.822990
O O1 0.519323 0.500000 0.901992
O O2 0.633220 0.349697 0.907224
O O3 0.315405 0.366927 0.721829
O O4 0.500000 0.352925 0.000000
O O5 0.133824 0.680524 0.452311
O O6 0.235753 0.682397 0.341264
O O7 0.309857 0.820777 0.514115
O O8 0.023964 0.814718 0.260721
O O9 0.817943 0.248997 0.911329
O O10 0.785622 0.411474 0.841284
O O11 0.951750 0.376560 0.107877
O O12 0.417729 0.121863 0.256086
O O13 0.155521 0.109079 0.188197
O O14 0.157529 0.093968 0.989362
O O15 0.210662 0.500000 0.538199
O O16 0.000000 0.593449 0.500000
O O17 0.830521 0.500000 0.708199
O O18 0.500000 0.120841 0.500000
O O19 0.624730 0.000000 0.456274
O O20 0.963605 0.000000 0.753839
#
# Coordination Sequence:
#
# PCOD8067060 Si02
#       8
#     4   4   4   4   4   4   4   4
#     4  10  22  39  62  88 115 156 211 264 302 351
#     4  12  22  37  56  88 118 159 204 245 300 377
#     4  11  19  36  56  89 125 159 204 253 301 368
#     4  11  19  34  54  82 119 159 200 248 300 360
#     4  10  24  44  63  87 120 160 209 265 318 368
#     4  11  21  34  56  86 127 170 198 243 311 377
#     4  11  21  34  54  83 121 160 196 246 309 367
#     4  11  20  34  56  84 120 157 202 248 297 368
#
# _framework density 19.727701
#
# number of rings (size 3 to 8) (size 9 to 14) (size 15 to 20)
#    0.000    1.125    3.750    5.250    1.750    0.000 
#    0.000    0.000    0.000    5.250    0.000    0.000 
#    0.000    9.500    0.000    0.000    0.000    0.000 
#
# Total GULP energy -396526.216902 kJ/mol
# GULP energy per Si atom -12391.444278 kJ/mol
# Density = 1.968280 g / cm^3
# Si number density = 19.727701 Si / 1000 Ang^3
#
#
#
# Elastic Constant Matrix: (Units=GPa)
#
#
# Indices 1 2 3 4 5 6 
#
# 1 75.1844 22.6385 36.7181 0.0000 3.1683 0.0000
# 2 22.6385 151.6830 36.5915 0.0000 -11.1338 0.0000
# 3 36.7181 36.5915 110.5560 0.0000 1.5819 0.0000
# 4 0.0000 0.0000 0.0000 -22.5109 0.0000 -0.1348
# 5 3.1683 -11.1338 1.5819 0.0000 27.6907 0.0000
# 6 0.0000 0.0000 0.0000 -0.1348 0.0000 6.2631
#
#
#
# Elastic Compliance Matrix: (Units=1/GPa)
#
#
# Indices 1 2 3 4 5 6 
#
# 1 0.016198 -0.001395 -0.004887 0.000000 -0.002135 0.000000
# 2 -0.001395 0.007546 -0.002082 0.000000 0.003313 0.000000
# 3 -0.004887 -0.002082 0.011371 0.000000 -0.000927 0.000000
# 4 0.000000 0.000000 0.000000 -0.044417 0.000000 -0.000956
# 5 -0.002135 0.003313 -0.000927 0.000000 0.037742 0.000000
# 6 0.000000 0.000000 0.000000 -0.000956 0.000000 0.159644
#
#
# Mechanical properties :
#
#
# Convention : Reuss Voigt Hill
#
# Bulk Modulus (GPa) = 54.38864 58.81329 56.60097
# Shear Modulus (GPa) = 23.70332 18.38693 21.04513
#
# Velocity S-wave (km/s) = 3.47006 3.05624 3.26970
# Velocity P-wave (km/s) = 6.60944 6.50626 6.55805
#
# Compressibility (1/GPa) = 0.01838619
#
# Stress axis : x y z
#
# Youngs Moduli (GPa) = 61.73791 132.51591 87.94609
#
# Poissons Ratio (x) = 0.18489 0.42981
# Poissons Ratio (y) = 0.08614 0.18307
# Poissons Ratio (z) = 0.30173 0.27585
#
# Static dielectric constant tensor:
#      x y z
#    x 3.125990 0.000000 -0.041540 
#    y 0.000000 3.837540 0.000000 
#    z -0.041540 0.000000 3.861830 
# 
# 
# High freq. dielectric constant tensor:
#      x y z
#    x 1.704880 0.000000 0.002380 
#    y 0.000000 1.788710 0.000000 
#    z 0.002380 0.000000 1.780520 
# 
# From -- ./inp_files/65106.got.cif
#   From: 2010.06.25/outbox.cif.g09.slc.cpg/sg10_33_cif.got.tgz:65106.got - 2010.06.27 22:07:45.
