data_PCOD8067439
_publ_section_title
;
Structure prediction by ZEFSAII (Michael W. Deem and Ramdas Pophale) SiO2 
 PCOD8067439
Probable space group: P 2/M
;
_chemical_formula_sum "Si O2"
_cell_formula_units_Z 28
_cell_length_a 17.349836
_cell_length_b 9.063160
_cell_length_c 14.230003
_cell_angle_alpha 90.000000
_cell_angle_beta 129.602867
_cell_angle_gamma 90.000000
_cell_volume 1724.019371
_symmetry_space_group_name_H-M "P 2/M"
_symmetry_group_IT_number 10
_symmetry_cell_setting 'monoclinic'
loop_
_space_group_symop_operation_xyz
x,y,z
-x,y,-z
-x,-y,-z
x,-y,z
loop_
_atom_site_type_symbol
_atom_site_label
_atom_site_fract_x
_atom_site_fract_y
_atom_site_fract_z
Si Si1 0.083374 0.327162 0.695333
Si Si2 0.912873 0.166226 0.814593
Si Si3 0.132996 0.826804 0.921038
Si Si4 0.384209 0.174171 0.409521
Si Si5 0.754696 0.165334 0.534539
Si Si6 0.769715 0.675015 0.839192
Si Si7 0.863443 0.671134 0.469257
O O1 0.084782 0.500000 0.721686
O O2 0.135903 0.234935 0.817927
O O3 0.145861 0.295815 0.648776
O O4 0.969928 0.271155 0.591222
O O5 0.857405 0.175698 0.672247
O O6 0.865134 0.279641 0.850684
O O7 0.027173 0.209691 0.887430
O O8 0.903001 0.000000 0.848366
O O9 0.155193 0.000000 0.935403
O O10 0.217837 0.743683 0.047297
O O11 0.500000 0.215536 0.500000
O O12 0.336075 0.226339 0.471376
O O13 0.332114 0.260305 0.283877
O O14 0.364603 0.000000 0.380281
O O15 0.769914 0.256042 0.450688
O O16 0.729895 0.000000 0.484257
O O17 0.762114 0.500000 0.839530
O O18 0.857192 0.500000 0.484639
#
# Coordination Sequence:
#
# PCOD8067439 Si02
#       7
#     4   4   4   4   4   4   4
#     4   9  18  30  43  63  94 130 166 197 229 272
#     4   9  18  31  44  63  93 128 163 196 228 271
#     4  11  20  31  46  65  92 129 166 198 232 272
#     4   9  19  37  56  72  94 123 154 193 240 286
#     4   9  16  28  47  71  94 120 158 197 232 274
#     4  11  22  32  46  69  95 123 156 195 236 284
#     4   9  17  29  44  64  94 130 161 194 235 276
#
# _framework density 16.241116999999999
#
# number of rings (size 3 to 8) (size 9 to 14) (size 15 to 20)
#    0.000    2.429    1.429    3.857    0.000    6.000 
#    0.000    1.429    0.000    0.000    0.000    1.000 
#    0.000    8.000    0.000    0.000    0.000    0.000 
#
# Total GULP energy -347151.928481 kJ/mol
# GULP energy per Si atom -12398.283160 kJ/mol
# Density = 1.620415 g / cm^3
# Si number density = 16.241117 Si / 1000 Ang^3
#
#
#
# Elastic Constant Matrix: (Units=GPa)
#
#
# Indices 1 2 3 4 5 6 
#
# 1 87.8156 47.3565 59.4675 0.0000 -4.5823 0.0000
# 2 47.3565 80.4706 51.4238 0.0000 -10.7311 0.0000
# 3 59.4675 51.4238 88.9329 0.0000 -9.7263 0.0000
# 4 0.0000 0.0000 0.0000 18.0250 0.0000 -9.0576
# 5 -4.5823 -10.7311 -9.7263 0.0000 23.6163 0.0000
# 6 0.0000 0.0000 0.0000 -9.0576 0.0000 25.6612
#
#
#
# Elastic Compliance Matrix: (Units=1/GPa)
#
#
# Indices 1 2 3 4 5 6 
#
# 1 0.022592 -0.006109 -0.011937 0.000000 -0.003308 0.000000
# 2 -0.006109 0.021822 -0.007936 0.000000 0.005462 0.000000
# 3 -0.011937 -0.007936 0.024260 0.000000 0.004069 0.000000
# 4 0.000000 0.000000 0.000000 0.067440 0.000000 0.023804
# 5 -0.003308 0.005462 0.004069 0.000000 0.045860 0.000000
# 6 0.000000 0.000000 0.000000 0.023804 0.000000 0.047372
#
#
# Mechanical properties :
#
#
# Convention : Reuss Voigt Hill
#
# Bulk Modulus (GPa) = 59.83838 63.74609 61.79224
# Shear Modulus (GPa) = 17.42899 20.05858 18.74379
#
# Velocity S-wave (km/s) = 3.27944 3.51814 3.40088
# Velocity P-wave (km/s) = 7.15984 7.47249 7.31784
#
# Compressibility (1/GPa) = 0.01671168
#
# Stress axis : x y z
#
# Youngs Moduli (GPa) = 44.26250 45.82634 41.22017
#
# Poissons Ratio (x) = 0.27994 0.49203
# Poissons Ratio (y) = 0.27039 0.32711
# Poissons Ratio (z) = 0.52835 0.36367
#
# Static dielectric constant tensor:
#      x y z
#    x 2.954890 0.000000 -0.140060 
#    y 0.000000 2.994930 0.000000 
#    z -0.140060 0.000000 2.924400 
# 
# 
# High freq. dielectric constant tensor:
#      x y z
#    x 1.604570 0.000000 -0.021650 
#    y 0.000000 1.623620 0.000000 
#    z -0.021650 0.000000 1.601890 
# 
# From -- ./inp_files/65725.got.cif
#   From: 2010.06.25/outbox.cif.g09.slc.cpg/sg10_33_cif.got.tgz:65725.got - 2010.06.27 22:07:45.
