data_PCOD8067836
_publ_section_title
;
Structure prediction by ZEFSAII (Michael W. Deem and Ramdas Pophale) SiO2 
 PCOD8067836
Probable space group: P 2/M
;
_chemical_formula_sum "Si O2"
_cell_formula_units_Z 24
_cell_length_a 8.751590
_cell_length_b 18.362853
_cell_length_c 8.965731
_cell_angle_alpha 90.000000
_cell_angle_beta 119.213002
_cell_angle_gamma 90.000000
_cell_volume 1257.573012
_symmetry_space_group_name_H-M "P 2/M"
_symmetry_group_IT_number 10
_symmetry_cell_setting 'monoclinic'
loop_
_space_group_symop_operation_xyz
x,y,z
-x,y,-z
-x,-y,-z
x,-y,z
loop_
_atom_site_type_symbol
_atom_site_label
_atom_site_fract_x
_atom_site_fract_y
_atom_site_fract_z
Si Si1 0.325526 0.413860 1.000000
Si Si2 0.233887 0.797354 0.810350
Si Si3 0.819186 0.083008 1.000000
Si Si4 0.576463 0.202646 0.810350
Si Si5 0.657031 0.339491 0.675087
Si Si6 0.981944 0.660510 0.324913
O O1 0.316370 0.500000 1.000000
O O2 0.326402 0.386378 0.168986
O O3 0.500000 0.386208 0.000000
O O4 0.157416 0.386378 0.831014
O O5 0.368183 0.806974 0.736365
O O6 0.075863 0.745008 0.689433
O O7 0.162651 0.876682 0.830143
O O8 0.334859 0.760773 1.000000
O O9 0.667492 0.123318 0.830142
O O10 0.762821 0.000000 1.000000
O O11 0.000000 0.089153 0.000000
O O12 0.613570 0.254992 0.689433
O O13 0.500000 0.371649 0.500000
O O14 0.834584 0.344567 0.669168
O O15 0.000000 0.628351 0.500000
#
# Coordination Sequence:
#
# PCOD8067836 Si02
#       6
#     4   4   4   4   4   4
#     4  11  24  43  64  87 119 153 188 235 288 343
#     4   9  18  32  53  79 111 146 188 234 281 335
#     4   9  16  27  48  79 113 151 194 235 282 341
#     4   9  18  32  53  79 111 146 188 234 281 335
#     4  12  24  39  62  88 117 152 194 239 287 343
#     4  12  24  39  62  88 117 152 194 239 287 343
#
# _framework density 19.084378000000001
#
# number of rings (size 3 to 8) (size 9 to 14) (size 15 to 20)
#    1.000    0.667    1.667    4.500    0.000    3.333 
#    0.000    0.000    0.000    1.000    0.000    0.000 
#    0.000    0.000    0.000    0.000    0.000    0.000 
#
# Total GULP energy -297491.014610 kJ/mol
# GULP energy per Si atom -12395.458942 kJ/mol
# Density = 1.904094 g / cm^3
# Si number density = 19.084378 Si / 1000 Ang^3
#
#
#
# Elastic Constant Matrix: (Units=GPa)
#
#
# Indices 1 2 3 4 5 6 
#
# 1 189.6037 56.8098 62.5269 0.0000 5.6294 0.0000
# 2 56.8098 91.3411 42.1094 0.0000 1.2738 0.0000
# 3 62.5269 42.1094 117.4095 0.0000 0.6260 0.0000
# 4 0.0000 0.0000 0.0000 14.4139 0.0000 1.5387
# 5 5.6294 1.2738 0.6260 0.0000 31.4872 0.0000
# 6 0.0000 0.0000 0.0000 1.5387 0.0000 32.1715
#
#
#
# Elastic Compliance Matrix: (Units=1/GPa)
#
#
# Indices 1 2 3 4 5 6 
#
# 1 0.007140 -0.003205 -0.002647 0.000000 -0.001094 0.000000
# 2 -0.003205 0.014562 -0.003516 0.000000 0.000054 0.000000
# 3 -0.002647 -0.003516 0.011186 0.000000 0.000393 0.000000
# 4 0.000000 0.000000 0.000000 0.069734 0.000000 -0.003335
# 5 -0.001094 0.000054 0.000393 0.000000 0.031945 0.000000
# 6 0.000000 0.000000 0.000000 -0.003335 0.000000 0.031243
#
#
# Mechanical properties :
#
#
# Convention : Reuss Voigt Hill
#
# Bulk Modulus (GPa) = 70.66600 80.13851 75.40226
# Shear Modulus (GPa) = 26.41846 31.40839 28.91342
#
# Velocity S-wave (km/s) = 3.72465 4.06120 3.89656
# Velocity P-wave (km/s) = 7.45694 8.00462 7.73563
#
# Compressibility (1/GPa) = 0.01415108
#
# Stress axis : x y z
#
# Youngs Moduli (GPa) = 140.05797 68.67401 89.39903
#
# Poissons Ratio (x) = 0.22011 0.23664
# Poissons Ratio (y) = 0.44890 0.31432
# Poissons Ratio (z) = 0.37074 0.24145
#
# Static dielectric constant tensor:
#      x y z
#    x 3.554500 0.000000 0.019550 
#    y 0.000000 3.440780 0.000000 
#    z 0.019550 0.000000 3.328930 
# 
# 
# High freq. dielectric constant tensor:
#      x y z
#    x 1.761070 0.000000 0.003620 
#    y 0.000000 1.731580 0.000000 
#    z 0.003620 0.000000 1.719230 
# 
# From -- ./inp_files/20260.got.cif
#   From: 2010.06.25/outbox.cif.g09.slc.cpg/sg10_11_cif.got.tgz:20260.got - 2010.06.27 22:07:45.
