data_PCOD8067378
_publ_section_title
;
Structure prediction by ZEFSAII (Michael W. Deem and Ramdas Pophale) SiO2 
 PCOD8067378
Probable space group: P 2/M
;
_chemical_formula_sum "Si O2"
_cell_formula_units_Z 26
_cell_length_a 13.573709
_cell_length_b 13.694114
_cell_length_c 7.795301
_cell_angle_alpha 90.000000
_cell_angle_beta 95.590685
_cell_angle_gamma 90.000000
_cell_volume 1442.097434
_symmetry_space_group_name_H-M "P 2/M"
_symmetry_group_IT_number 10
_symmetry_cell_setting 'monoclinic'
loop_
_space_group_symop_operation_xyz
x,y,z
-x,y,-z
-x,-y,-z
x,-y,z
loop_
_atom_site_type_symbol
_atom_site_label
_atom_site_fract_x
_atom_site_fract_y
_atom_site_fract_z
Si Si1 0.198940 0.384678 0.250783
Si Si2 0.662387 0.109125 0.112269
Si Si3 0.018159 0.606863 0.804569
Si Si4 0.217031 0.700992 0.879726
Si Si5 0.541514 0.108617 0.749420
Si Si6 0.500000 0.736813 0.500000
Si Si7 0.668460 0.387226 0.404088
O O1 0.205819 0.500000 0.213798
O O2 0.266848 0.352259 0.421239
O O3 0.086596 0.357093 0.291521
O O4 0.230369 0.328915 0.081321
O O5 0.751081 0.186821 0.146507
O O6 0.576065 0.123296 0.236907
O O7 0.708161 0.000000 0.134214
O O8 0.609494 0.124498 0.923259
O O9 0.049258 0.500000 0.731979
O O10 0.104111 0.687112 0.793899
O O11 0.000000 0.590736 0.000000
O O12 0.282589 0.631318 0.771468
O O13 0.572343 0.192081 0.621061
O O14 0.559100 0.000000 0.677383
O O15 0.434850 0.669756 0.612765
O O16 0.644144 0.500000 0.417661
#
# Coordination Sequence:
#
# PCOD8067378 Si02
#       7
#     4   4   4   4   4   2   4
#     4   9  19  35  52  75 104 132 168 212 246 283
#     4   9  18  33  51  74  98 124 166 214 251 294
#     4   8  15  29  52  77  98 126 168 210 244 287
#     4  11  18  33  55  75  99 134 167 203 256 302
#     4   9  18  33  53  72  94 126 169 215 252 287
#     4  12  20  34  48  74 106 134 166 206 250 296
#     4  11  23  34  48  74 107 139 170 202 242 300
#
# _framework density 18.029295000000001
#
# number of rings (size 3 to 8) (size 9 to 14) (size 15 to 20)
#    0.000    2.308    1.538    4.615    0.000    0.615 
#    0.000    2.308    0.000    7.846    0.000    1.077 
#    0.000    0.000    0.000    0.000    0.000    0.000 
#
# Total GULP energy -322199.164146 kJ/mol
# GULP energy per Si atom -12392.275544 kJ/mol
# Density = 1.798826 g / cm^3
# Si number density = 18.029295 Si / 1000 Ang^3
#
#
#
# Elastic Constant Matrix: (Units=GPa)
#
#
# Indices 1 2 3 4 5 6 
#
# 1 71.5563 46.4518 12.0183 0.0000 -5.3514 0.0000
# 2 46.4518 106.9802 26.2295 0.0000 -0.6643 0.0000
# 3 12.0183 26.2295 54.4790 0.0000 -2.5285 0.0000
# 4 0.0000 0.0000 0.0000 24.7099 0.0000 -1.3798
# 5 -5.3514 -0.6643 -2.5285 0.0000 19.9252 0.0000
# 6 0.0000 0.0000 0.0000 -1.3798 0.0000 24.4924
#
#
#
# Elastic Compliance Matrix: (Units=1/GPa)
#
#
# Indices 1 2 3 4 5 6 
#
# 1 0.019960 -0.008633 -0.000012 0.000000 0.005071 0.000000
# 2 -0.008633 0.014334 -0.005112 0.000000 -0.002489 0.000000
# 3 -0.000012 -0.005112 0.020935 0.000000 0.002483 0.000000
# 4 0.000000 0.000000 0.000000 0.040597 0.000000 0.002287
# 5 0.005071 -0.002489 0.002483 0.000000 0.051782 0.000000
# 6 0.000000 0.000000 0.000000 0.002287 0.000000 0.040958
#
#
# Mechanical properties :
#
#
# Convention : Reuss Voigt Hill
#
# Bulk Modulus (GPa) = 36.08052 44.71274 40.39663
# Shear Modulus (GPa) = 22.19088 23.71321 22.95205
#
# Velocity S-wave (km/s) = 3.51212 3.63059 3.57184
# Velocity P-wave (km/s) = 6.04171 6.51374 6.28216
#
# Compressibility (1/GPa) = 0.02771579
#
# Stress axis : x y z
#
# Youngs Moduli (GPa) = 50.09969 69.76491 47.76713
#
# Poissons Ratio (x) = 0.60225 0.00056
# Poissons Ratio (y) = 0.43249 0.24420
# Poissons Ratio (z) = 0.00059 0.35666
#
# Static dielectric constant tensor:
#      x y z
#    x 3.521650 0.000000 0.021500 
#    y 0.000000 3.321200 0.000000 
#    z 0.021500 0.000000 3.285440 
# 
# 
# High freq. dielectric constant tensor:
#      x y z
#    x 1.679480 0.000000 -0.002560 
#    y 0.000000 1.688270 0.000000 
#    z -0.002560 0.000000 1.696330 
# 
# From -- ./inp_files/27908.got.cif
#   From: 2010.06.25/outbox.cif.g09.slc.cpg/sg10_14_cif.got.tgz:27908.got - 2010.06.27 22:07:45.
