data_PCOD8067324
_publ_section_title
;
Structure prediction by ZEFSAII (Michael W. Deem and Ramdas Pophale) SiO2 
 PCOD8067324
Probable space group: P 2/M
;
_chemical_formula_sum "Si O2"
_cell_formula_units_Z 24
_cell_length_a 11.449704
_cell_length_b 15.696553
_cell_length_c 16.945700
_cell_angle_alpha 90.000000
_cell_angle_beta 158.426860
_cell_angle_gamma 90.000000
_cell_volume 1119.794352
_symmetry_space_group_name_H-M "P 2/M"
_symmetry_group_IT_number 10
_symmetry_cell_setting 'monoclinic'
loop_
_space_group_symop_operation_xyz
x,y,z
-x,y,-z
-x,-y,-z
x,-y,z
loop_
_atom_site_type_symbol
_atom_site_label
_atom_site_fract_x
_atom_site_fract_y
_atom_site_fract_z
Si Si1 0.154174 0.684096 0.677832
Si Si2 0.738762 0.782312 0.524652
Si Si3 0.037169 0.500000 0.118654
Si Si4 0.141427 0.317827 0.176133
Si Si5 0.738523 0.792333 0.026504
Si Si6 0.669380 0.099888 0.834421
Si Si7 0.446288 0.500000 0.871850
O O1 0.246865 0.585430 0.731158
O O2 0.000000 0.713818 0.500000
O O3 0.887233 0.698828 0.576261
O O4 0.427017 0.753079 0.872053
O O5 0.434094 0.744411 0.377915
O O6 0.627914 0.855803 0.395264
O O7 0.994663 0.824084 0.744313
O O8 0.234229 0.414157 0.259632
O O9 0.000000 0.500000 0.000000
O O10 0.731126 0.500000 0.986013
O O11 0.854715 0.289528 0.051119
O O12 0.000000 0.311517 0.000000
O O13 0.672247 0.871973 0.927465
O O14 0.613608 0.000000 0.794815
O O15 0.000000 0.126674 0.000000
O O16 0.500000 0.500000 0.000000
#
# Coordination Sequence:
#
# PCOD8067324 Si02
#       7
#     4   4   2   4   4   4   2
#     4  12  25  44  70  94 138 189 229 275 348 407
#     4  12  24  41  69 102 132 179 227 280 340 414
#     4  10  24  38  69  97 138 187 242 282 342 401
#     4  11  20  41  65  93 137 178 228 282 331 394
#     4  12  22  43  67  98 134 175 222 281 338 409
#     4  11  24  44  70 100 135 171 216 279 345 416
#     4  12  25  44  64 104 144 184 237 298 340 411
#
# _framework density 21.432506
#
# number of rings (size 3 to 8) (size 9 to 14) (size 15 to 20)
#    0.000    0.500    6.667    2.250    2.333    1.333 
#    0.000    5.833    0.000    2.000    0.000    0.000 
#    0.000    0.000    0.000    0.000    0.000    0.000 
#
# Total GULP energy -297426.301643 kJ/mol
# GULP energy per Si atom -12392.762568 kJ/mol
# Density = 2.138372 g / cm^3
# Si number density = 21.432506 Si / 1000 Ang^3
#
#
#
# Elastic Constant Matrix: (Units=GPa)
#
#
# Indices 1 2 3 4 5 6 
#
# 1 85.5695 22.5782 25.9436 0.0000 -10.5690 0.0000
# 2 22.5782 121.1579 48.9218 0.0000 -1.7649 0.0000
# 3 25.9436 48.9218 123.4141 0.0000 -24.4133 0.0000
# 4 0.0000 0.0000 0.0000 32.9744 0.0000 8.1196
# 5 -10.5690 -1.7649 -24.4133 0.0000 36.3989 0.0000
# 6 0.0000 0.0000 0.0000 8.1196 0.0000 21.2464
#
#
#
# Elastic Compliance Matrix: (Units=1/GPa)
#
#
# Indices 1 2 3 4 5 6 
#
# 1 0.012935 -0.001770 -0.001489 0.000000 0.002671 0.000000
# 2 -0.001770 0.010264 -0.004266 0.000000 -0.002878 0.000000
# 3 -0.001489 -0.004266 0.011507 0.000000 0.007079 0.000000
# 4 0.000000 0.000000 0.000000 0.033477 0.000000 -0.012794
# 5 0.002671 -0.002878 0.007079 0.000000 0.032857 0.000000
# 6 0.000000 0.000000 0.000000 -0.012794 0.000000 0.051956
#
#
# Mechanical properties :
#
#
# Convention : Reuss Voigt Hill
#
# Bulk Modulus (GPa) = 50.87505 58.33651 54.60578
# Shear Modulus (GPa) = 28.63714 33.63714 31.13714
#
# Velocity S-wave (km/s) = 3.65931 3.96592 3.81570
# Velocity P-wave (km/s) = 6.45313 6.94616 6.70418
#
# Compressibility (1/GPa) = 0.01965600
#
# Stress axis : x y z
#
# Youngs Moduli (GPa) = 77.31019 97.42638 86.90309
#
# Poissons Ratio (x) = 0.17248 0.12939
# Poissons Ratio (y) = 0.13687 0.37071
# Poissons Ratio (z) = 0.11511 0.41560
#
# Static dielectric constant tensor:
#      x y z
#    x 3.499730 0.000000 -0.117580 
#    y 0.000000 3.804140 0.000000 
#    z -0.117580 0.000000 3.849650 
# 
# 
# High freq. dielectric constant tensor:
#      x y z
#    x 1.853640 0.000000 -0.001780 
#    y 0.000000 1.832000 0.000000 
#    z -0.001780 0.000000 1.838050 
# 
# From -- ./inp_files/77189.got.cif
#   From: 2010.06.25/outbox.cif.g09.slc.cpg/sg10_39_cif.got.tgz:77189.got - 2010.06.27 22:07:45.
