data_PCOD8067047
_publ_section_title
;
Structure prediction by ZEFSAII (Michael W. Deem and Ramdas Pophale) SiO2 
 PCOD8067047
Probable space group: P 2/M
;
_chemical_formula_sum "Si O2"
_cell_formula_units_Z 32
_cell_length_a 30.336741
_cell_length_b 8.706590
_cell_length_c 12.993420
_cell_angle_alpha 90.000000
_cell_angle_beta 152.316633
_cell_angle_gamma 90.000000
_cell_volume 1594.430796
_symmetry_space_group_name_H-M "P 2/M"
_symmetry_group_IT_number 10
_symmetry_cell_setting 'monoclinic'
loop_
_space_group_symop_operation_xyz
x,y,z
-x,y,-z
-x,-y,-z
x,-y,z
loop_
_atom_site_type_symbol
_atom_site_label
_atom_site_fract_x
_atom_site_fract_y
_atom_site_fract_z
Si Si1 0.201786 0.823136 0.901871
Si Si2 0.112402 0.819603 0.930131
Si Si3 0.415891 0.320801 0.054631
Si Si4 0.780420 0.318915 0.436681
Si Si5 0.594772 0.824122 0.754683
Si Si6 0.905473 0.681211 0.509557
Si Si7 0.433518 0.821826 0.766577
Si Si8 0.769951 0.679579 0.644419
O O1 0.166941 0.762993 0.940637
O O2 0.152252 0.725382 0.711004
O O3 0.172918 0.000000 0.825213
O O4 0.315220 0.801320 0.134047
O O5 0.010459 0.744296 0.722214
O O6 0.099395 0.000000 0.901798
O O7 0.172004 0.774692 0.152941
O O8 0.434672 0.500000 0.073721
O O9 0.392855 0.291574 0.125682
O O10 0.508534 0.223640 0.215635
O O11 0.325921 0.257508 0.803919
O O12 0.777480 0.500000 0.415354
O O13 0.853933 0.249715 0.505150
O O14 0.810256 0.274868 0.614555
O O15 0.500000 0.776115 0.500000
O O16 0.588951 0.000000 0.781797
O O17 0.911194 0.500000 0.528445
O O18 0.340508 0.718795 0.578730
O O19 0.404739 0.000000 0.703231
O O20 0.500000 0.780875 0.000000
O O21 0.783728 0.500000 0.694223
#
# Coordination Sequence:
#
# PCOD8067047 Si02
#       8
#     4   4   4   4   4   4   4   4
#     4  10  22  41  63  88 124 164 200 250 311 370
#     4  11  25  43  61  89 127 164 203 253 314 370
#     4  11  21  38  61  89 122 161 204 252 306 364
#     4   9  20  38  62  90 124 158 197 254 312 361
#     4  10  22  39  60  89 124 164 203 247 309 371
#     4  11  22  41  67  93 118 155 208 261 310 367
#     4  11  23  38  59  89 123 161 202 245 294 359
#     4  11  23  42  64  90 124 164 206 251 308 368
#
# _framework density 20.069858
#
# number of rings (size 3 to 8) (size 9 to 14) (size 15 to 20)
#    0.000    1.500    2.500    2.250    1.750    3.750 
#    0.000    5.000    0.000    0.000    0.000    0.000 
#    0.000    0.000    0.000    0.000    0.000    0.000 
#
# Total GULP energy -396908.142138 kJ/mol
# GULP energy per Si atom -12403.379442 kJ/mol
# Density = 2.002418 g / cm^3
# Si number density = 20.069858 Si / 1000 Ang^3
#
#
#
# Elastic Constant Matrix: (Units=GPa)
#
#
# Indices 1 2 3 4 5 6 
#
# 1 146.0888 26.7447 57.0532 0.0000 -2.7357 0.0000
# 2 26.7447 39.3074 17.0179 0.0000 -2.2423 0.0000
# 3 57.0532 17.0179 109.6588 0.0000 1.4341 0.0000
# 4 0.0000 0.0000 0.0000 47.6651 0.0000 -3.5800
# 5 -2.7357 -2.2423 1.4341 0.0000 33.0363 0.0000
# 6 0.0000 0.0000 0.0000 -3.5800 0.0000 30.1542
#
#
#
# Elastic Compliance Matrix: (Units=1/GPa)
#
#
# Indices 1 2 3 4 5 6 
#
# 1 0.009301 -0.004495 -0.004150 0.000000 0.000645 0.000000
# 2 -0.004495 0.029583 -0.002275 0.000000 0.001734 0.000000
# 3 -0.004150 -0.002275 0.011644 0.000000 -0.001004 0.000000
# 4 0.000000 0.000000 0.000000 0.021168 0.000000 0.002513
# 5 0.000645 0.001734 -0.001004 0.000000 0.030484 0.000000
# 6 0.000000 0.000000 0.000000 0.002513 0.000000 0.033461
#
#
# Mechanical properties :
#
#
# Convention : Reuss Voigt Hill
#
# Bulk Modulus (GPa) = 34.85721 55.18740 45.02230
# Shear Modulus (GPa) = 29.93217 35.12041 32.52629
#
# Velocity S-wave (km/s) = 3.86605 4.18773 4.03010
# Velocity P-wave (km/s) = 6.11017 7.13723 6.64358
#
# Compressibility (1/GPa) = 0.02868847
#
# Stress axis : x y z
#
# Youngs Moduli (GPa) = 107.51772 33.80359 85.87750
#
# Poissons Ratio (x) = 0.15194 0.35638
# Poissons Ratio (y) = 0.48327 0.19538
# Poissons Ratio (z) = 0.44619 0.07691
#
# Static dielectric constant tensor:
#      x y z
#    x 4.059790 0.000000 -0.123860 
#    y 0.000000 3.505750 0.000000 
#    z -0.123860 0.000000 4.111030 
# 
# 
# High freq. dielectric constant tensor:
#      x y z
#    x 1.799750 0.000000 0.003240 
#    y 0.000000 1.774200 0.000000 
#    z 0.003240 0.000000 1.783680 
# 
# From -- ./inp_files/58221.got.cif
#   From: 2010.06.25/outbox.cif.g09.slc.cpg/sg10_30_cif.got.tgz:58221.got - 2010.06.27 22:07:45.
