data_PCOD8067326
_publ_section_title
;
Structure prediction by ZEFSAII (Michael W. Deem and Ramdas Pophale) SiO2 
 PCOD8067326
Probable space group: P 2/M
;
_chemical_formula_sum "Si O2"
_cell_formula_units_Z 32
_cell_length_a 15.345124
_cell_length_b 17.002114
_cell_length_c 12.290936
_cell_angle_alpha 90.000000
_cell_angle_beta 27.692237
_cell_angle_gamma 90.000000
_cell_volume 1490.224126
_symmetry_space_group_name_H-M "P 2/M"
_symmetry_group_IT_number 10
_symmetry_cell_setting 'monoclinic'
loop_
_space_group_symop_operation_xyz
x,y,z
-x,y,-z
-x,-y,-z
x,-y,z
loop_
_atom_site_type_symbol
_atom_site_label
_atom_site_fract_x
_atom_site_fract_y
_atom_site_fract_z
Si Si1 0.010393 0.823195 0.867852
Si Si2 0.968386 0.908012 0.695002
Si Si3 0.248166 0.705410 0.931187
Si Si4 0.481390 0.410170 0.147601
Si Si5 0.168279 0.320148 0.241796
Si Si6 0.710155 0.159577 0.807351
Si Si7 0.657898 0.297981 0.529532
Si Si8 0.784501 0.412093 0.207763
O O1 0.968832 0.888865 0.822976
O O2 0.199206 0.774529 0.630377
O O3 0.000000 0.862112 0.000000
O O4 0.836684 0.762666 0.066014
O O5 0.143909 0.864043 0.447115
O O6 0.773336 0.882845 0.850679
O O7 0.996469 0.000000 0.648418
O O8 0.449178 0.737498 0.749519
O O9 0.250423 0.618509 0.876322
O O10 0.103514 0.712605 0.194945
O O11 0.426681 0.500000 0.235438
O O12 0.332037 0.351148 0.370381
O O13 0.500000 0.394151 0.000000
O O14 0.692280 0.389563 0.953338
O O15 0.274436 0.253300 0.194045
O O16 0.000000 0.355357 0.500000
O O17 0.500000 0.136819 0.000000
O O18 0.673093 0.357179 0.412742
O O19 0.703811 0.500000 0.304139
O O20 0.000000 0.409366 0.000000
#
# Coordination Sequence:
#
# PCOD8067326 Si02
#       8
#     4   4   4   4   4   4   4   4
#     4  12  24  43  67  98 133 169 222 272 329 402
#     4  11  26  45  68 103 139 170 215 271 339 412
#     4  11  22  39  60  94 122 167 223 268 322 393
#     4  10  24  39  56  88 128 171 219 265 325 389
#     4  11  22  38  64  93 129 171 223 268 329 388
#     4  11  22  41  73 104 134 174 219 278 326 395
#     4  11  23  39  66  88 125 172 220 274 331 379
#     4  11  22  38  61  91 126 167 222 284 341 381
#
# _framework density 21.473279999999999
#
# number of rings (size 3 to 8) (size 9 to 14) (size 15 to 20)
#    0.000    1.000    5.000    1.875    7.000    4.500 
#    0.000    0.000    0.000    0.000    0.000    3.500 
#    0.000    0.000    0.000    0.000    0.000    0.000 
#
# Total GULP energy -396559.937844 kJ/mol
# GULP energy per Si atom -12392.498058 kJ/mol
# Density = 2.142441 g / cm^3
# Si number density = 21.473280 Si / 1000 Ang^3
#
#
#
# Elastic Constant Matrix: (Units=GPa)
#
#
# Indices 1 2 3 4 5 6 
#
# 1 124.3116 25.0042 44.9852 0.0000 12.0763 0.0000
# 2 25.0042 55.7355 17.0337 0.0000 6.3318 0.0000
# 3 44.9852 17.0337 94.2986 0.0000 7.2364 0.0000
# 4 0.0000 0.0000 0.0000 12.0460 0.0000 4.0258
# 5 12.0763 6.3318 7.2364 0.0000 43.2649 0.0000
# 6 0.0000 0.0000 0.0000 4.0258 0.0000 27.4345
#
#
#
# Elastic Compliance Matrix: (Units=1/GPa)
#
#
# Indices 1 2 3 4 5 6 
#
# 1 0.010387 -0.003165 -0.004251 0.000000 -0.001725 0.000000
# 2 -0.003165 0.020170 -0.002001 0.000000 -0.001734 0.000000
# 3 -0.004251 -0.002001 0.013048 0.000000 -0.000703 0.000000
# 4 0.000000 0.000000 0.000000 0.087296 0.000000 -0.012810
# 5 -0.001725 -0.001734 -0.000703 0.000000 0.023966 0.000000
# 6 0.000000 0.000000 0.000000 -0.012810 0.000000 0.038330
#
#
# Mechanical properties :
#
#
# Convention : Reuss Voigt Hill
#
# Bulk Modulus (GPa) = 40.36796 49.82131 45.09464
# Shear Modulus (GPa) = 22.69760 29.03724 25.86742
#
# Velocity S-wave (km/s) = 3.25471 3.68128 3.47455
# Velocity P-wave (km/s) = 5.74144 6.42814 6.09447
#
# Compressibility (1/GPa) = 0.02477212
#
# Stress axis : x y z
#
# Youngs Moduli (GPa) = 96.27664 49.57853 76.64082
#
# Poissons Ratio (x) = 0.15690 0.32580
# Poissons Ratio (y) = 0.30468 0.15333
# Poissons Ratio (z) = 0.40927 0.09919
#
# Static dielectric constant tensor:
#      x y z
#    x 4.475790 0.000000 0.152160 
#    y 0.000000 3.640130 0.000000 
#    z 0.152160 0.000000 3.894820 
# 
# 
# High freq. dielectric constant tensor:
#      x y z
#    x 1.861070 0.000000 0.011310 
#    y 0.000000 1.812640 0.000000 
#    z 0.011310 0.000000 1.841560 
# 
# From -- ./inp_files/51942.got.cif
#   From: 2010.06.25/outbox.cif.g09.slc.cpg/sg10_26_cif.got.tgz:51942.got - 2010.06.27 22:07:45.
