data_PCOD8067747
_publ_section_title
;
Structure prediction by ZEFSAII (Michael W. Deem and Ramdas Pophale) SiO2 
 PCOD8067747
Probable space group: P 2/M
;
_chemical_formula_sum "Si O2"
_cell_formula_units_Z 18
_cell_length_a 11.803802
_cell_length_b 9.723998
_cell_length_c 8.916486
_cell_angle_alpha 90.000000
_cell_angle_beta 123.298453
_cell_angle_gamma 90.000000
_cell_volume 855.410158
_symmetry_space_group_name_H-M "P 2/M"
_symmetry_group_IT_number 10
_symmetry_cell_setting 'monoclinic'
loop_
_space_group_symop_operation_xyz
x,y,z
-x,y,-z
-x,-y,-z
x,-y,z
loop_
_atom_site_type_symbol
_atom_site_label
_atom_site_fract_x
_atom_site_fract_y
_atom_site_fract_z
Si Si1 0.036991 0.763527 0.186730
Si Si2 0.749017 0.289560 0.089836
Si Si3 0.878202 0.000000 0.532440
Si Si4 0.338459 0.000000 0.876922
Si Si5 0.203238 0.500000 0.316029
Si Si6 0.600828 0.500000 0.784406
Si Si7 0.694528 0.500000 0.301989
O O1 0.113407 0.867263 0.354352
O O2 0.131492 0.637429 0.205937
O O3 0.908562 0.699522 0.179154
O O4 0.000000 0.836404 0.000000
O O5 0.709882 0.362064 0.217587
O O6 0.710355 0.130672 0.065427
O O7 0.665910 0.362412 0.899429
O O8 0.732891 0.000000 0.340271
O O9 0.000000 0.000000 0.500000
O O10 0.500000 0.000000 0.000000
O O11 0.357548 0.500000 0.361098
O O12 0.192769 0.500000 0.488094
O O13 0.444213 0.500000 0.706878
#
# Coordination Sequence:
#
# PCOD8067747 Si02
#       7
#     4   4   2   2   2   2   2
#     4  12  24  43  67  97 134 173 220 278 337 384
#     4  11  22  41  68  92 127 172 224 268 332 388
#     4  12  25  44  69  99 135 170 223 278 329 396
#     4  12  24  42  68 102 130 168 219 276 330 397
#     4  12  24  38  66  95 134 167 222 274 330 389
#     4  11  22  43  59  93 134 178 212 265 334 401
#     4  11  24  38  63  94 131 176 218 274 324 398
#
# _framework density 21.042538
#
# number of rings (size 3 to 8) (size 9 to 14) (size 15 to 20)
#    0.000    0.444    4.444    6.333    0.000    0.889 
#    0.000    0.000    0.000    1.333    0.000    0.000 
#    0.000    0.000    0.000    0.000    0.000    0.000 
#
# Total GULP energy -223175.248411 kJ/mol
# GULP energy per Si atom -12398.624912 kJ/mol
# Density = 2.099464 g / cm^3
# Si number density = 21.042538 Si / 1000 Ang^3
#
#
#
# Elastic Constant Matrix: (Units=GPa)
#
#
# Indices 1 2 3 4 5 6 
#
# 1 137.8345 28.8611 29.8804 0.0000 -4.1005 0.0000
# 2 28.8611 136.6036 33.6483 0.0000 -13.0702 0.0000
# 3 29.8804 33.6483 103.2856 0.0000 -4.7395 0.0000
# 4 0.0000 0.0000 0.0000 -6.9466 0.0000 7.2401
# 5 -4.1005 -13.0702 -4.7395 0.0000 34.7497 0.0000
# 6 0.0000 0.0000 0.0000 7.2401 0.0000 16.8177
#
#
#
# Elastic Compliance Matrix: (Units=1/GPa)
#
#
# Indices 1 2 3 4 5 6 
#
# 1 0.007921 -0.001185 -0.001895 0.000000 0.000231 0.000000
# 2 -0.001185 0.008388 -0.002266 0.000000 0.002706 0.000000
# 3 -0.001895 -0.002266 0.010988 0.000000 0.000423 0.000000
# 4 0.000000 0.000000 0.000000 -0.099369 0.000000 0.042779
# 5 0.000231 0.002706 0.000423 0.000000 0.029880 0.000000
# 6 0.000000 0.000000 0.000000 0.042779 0.000000 0.041045
#
#
# Mechanical properties :
#
#
# Convention : Reuss Voigt Hill
#
# Bulk Modulus (GPa) = 60.22063 62.50037 61.36050
# Shear Modulus (GPa) = 331.62722 27.94642 179.78682
#
# Velocity S-wave (km/s) = 12.56744 3.64825 9.25339
# Velocity P-wave (km/s) = 15.46829 6.89295 11.97457
#
# Compressibility (1/GPa) = 0.01660560
#
# Stress axis : x y z
#
# Youngs Moduli (GPa) = 126.25009 119.22181 91.01165
#
# Poissons Ratio (x) = 0.14123 0.17246
# Poissons Ratio (y) = 0.14956 0.20620
# Poissons Ratio (z) = 0.23924 0.27012
#
# Static dielectric constant tensor:
#      x y z
#    x 3.864660 0.000000 -0.023330 
#    y 0.000000 3.498060 0.000000 
#    z -0.023330 0.000000 3.875050 
# 
# 
# High freq. dielectric constant tensor:
#      x y z
#    x 1.829440 0.000000 -0.007550 
#    y 0.000000 1.829820 0.000000 
#    z -0.007550 0.000000 1.829660 
# 
# From -- ./inp_files/22080.got.cif
#   From: 2010.06.25/outbox.cif.g09.slc.cpg/sg10_12_cif.got.tgz:22080.got - 2010.06.27 22:07:45.
