data_PCOD8067502
_publ_section_title
;
Structure prediction by ZEFSAII (Michael W. Deem and Ramdas Pophale) SiO2 
 PCOD8067502
Probable space group: P 2/M
;
_chemical_formula_sum "Si O2"
_cell_formula_units_Z 20
_cell_length_a 19.884840
_cell_length_b 7.834578
_cell_length_c 10.163238
_cell_angle_alpha 90.000000
_cell_angle_beta 40.511399
_cell_angle_gamma 90.000000
_cell_volume 1028.526216
_symmetry_space_group_name_H-M "P 2/M"
_symmetry_group_IT_number 10
_symmetry_cell_setting 'monoclinic'
loop_
_space_group_symop_operation_xyz
x,y,z
-x,y,-z
-x,-y,-z
x,-y,z
loop_
_atom_site_type_symbol
_atom_site_label
_atom_site_fract_x
_atom_site_fract_y
_atom_site_fract_z
Si Si1 0.812814 0.310617 0.759423
Si Si2 0.606438 0.500000 0.671411
Si Si3 0.083289 0.807492 0.648385
Si Si4 0.857626 0.694006 0.979770
Si Si5 0.252107 0.194762 0.605522
Si Si6 0.372759 0.500000 0.048364
O O1 0.864749 0.500000 0.680690
O O2 0.871794 0.195839 0.565932
O O3 0.827308 0.228412 0.882102
O O4 0.690488 0.330697 0.905012
O O5 0.652910 0.326877 0.540136
O O6 0.485225 0.500000 0.815251
O O7 0.622031 0.500000 0.803206
O O8 0.168947 0.738079 0.622408
O O9 0.980961 0.695490 0.816403
O O10 0.053426 0.000000 0.729183
O O11 0.818204 0.500000 0.050713
O O12 0.799743 0.806381 0.174122
O O13 0.288556 0.000000 0.519879
#
# Coordination Sequence:
#
# PCOD8067502 Si02
#       6
#     4   2   4   4   4   2
#     4   9  19  38  56  84 113 150 196 237 282 347
#     4  11  20  41  68  88 109 154 191 247 308 334
#     4  11  22  35  54  84 122 158 196 238 279 340
#     4  11  22  34  57  85 117 163 192 228 288 349
#     4  11  23  39  58  89 121 151 199 241 283 347
#     4   9  20  39  66  88 109 142 201 249 292 350
#
# _framework density 19.445298999999999
#
# number of rings (size 3 to 8) (size 9 to 14) (size 15 to 20)
#    0.600    1.000    3.000    2.400    1.400    6.400 
#    0.000    5.000    0.000    1.200    0.000    0.000 
#    0.000    0.000    0.000    0.000    0.000    0.000 
#
# Total GULP energy -247983.989398 kJ/mol
# GULP energy per Si atom -12399.199470 kJ/mol
# Density = 1.940104 g / cm^3
# Si number density = 19.445299 Si / 1000 Ang^3
#
#
#
# Elastic Constant Matrix: (Units=GPa)
#
#
# Indices 1 2 3 4 5 6 
#
# 1 45.2720 13.8776 43.5777 0.0000 -5.2129 0.0000
# 2 13.8776 66.2818 27.8176 0.0000 -9.4288 0.0000
# 3 43.5777 27.8176 117.9479 0.0000 -3.2269 0.0000
# 4 0.0000 0.0000 0.0000 21.3252 0.0000 8.9845
# 5 -5.2129 -9.4288 -3.2269 0.0000 41.6892 0.0000
# 6 0.0000 0.0000 0.0000 8.9845 0.0000 8.3303
#
#
#
# Elastic Compliance Matrix: (Units=1/GPa)
#
#
# Indices 1 2 3 4 5 6 
#
# 1 0.034903 -0.001665 -0.012420 0.000000 0.003026 0.000000
# 2 -0.001665 0.017346 -0.003381 0.000000 0.003453 0.000000
# 3 -0.012420 -0.003381 0.013830 0.000000 -0.001247 0.000000
# 4 0.000000 0.000000 0.000000 0.085946 0.000000 -0.092696
# 5 0.003026 0.003453 -0.001247 0.000000 0.025050 0.000000
# 6 0.000000 0.000000 0.000000 -0.092696 0.000000 0.220018
#
#
# Mechanical properties :
#
#
# Convention : Reuss Voigt Hill
#
# Bulk Modulus (GPa) = 32.10588 44.44972 38.27780
# Shear Modulus (GPa) = 11.30179 23.88421 17.59300
#
# Velocity S-wave (km/s) = 2.41344 3.50848 3.01116
# Velocity P-wave (km/s) = 4.93082 6.27065 5.64066
#
# Compressibility (1/GPa) = 0.03114694
#
# Stress axis : x y z
#
# Youngs Moduli (GPa) = 28.65121 57.65013 72.30431
#
# Poissons Ratio (x) = 0.09597 0.89801
# Poissons Ratio (y) = 0.04769 0.24450
# Poissons Ratio (z) = 0.35584 0.19494
#
# Static dielectric constant tensor:
#      x y z
#    x 3.593840 0.000000 0.088630 
#    y 0.000000 3.246420 0.000000 
#    z 0.088630 0.000000 3.430670 
# 
# 
# High freq. dielectric constant tensor:
#      x y z
#    x 1.750180 0.000000 0.016190 
#    y 0.000000 1.742260 0.000000 
#    z 0.016190 0.000000 1.750460 
# 
# From -- ./inp_files/33661.got.cif
#   From: 2010.06.25/outbox.cif.g09.slc.cpg/sg10_17_cif.got.tgz:33661.got - 2010.06.27 22:07:45.
