data_PCOD8067477
_publ_section_title
;
Structure prediction by ZEFSAII (Michael W. Deem and Ramdas Pophale) SiO2 
 PCOD8067477
Probable space group: P 2/M
;
_chemical_formula_sum "Si O2"
_cell_formula_units_Z 28
_cell_length_a 10.136887
_cell_length_b 8.314424
_cell_length_c 30.139245
_cell_angle_alpha 90.000000
_cell_angle_beta 34.179115
_cell_angle_gamma 90.000000
_cell_volume 1427.042323
_symmetry_space_group_name_H-M "P 2/M"
_symmetry_group_IT_number 10
_symmetry_cell_setting 'monoclinic'
loop_
_space_group_symop_operation_xyz
x,y,z
-x,y,-z
-x,-y,-z
x,-y,z
loop_
_atom_site_type_symbol
_atom_site_label
_atom_site_fract_x
_atom_site_fract_y
_atom_site_fract_z
Si Si1 0.139548 0.313329 0.240808
Si Si2 0.915744 0.690763 0.090781
Si Si3 0.147656 0.186604 0.335162
Si Si4 0.354378 0.309113 0.919550
Si Si5 0.592829 0.686638 0.257561
Si Si6 0.362924 0.810097 0.495882
Si Si7 0.324193 0.814017 0.670369
O O1 0.087708 0.500000 0.245314
O O2 0.177528 0.291340 0.282724
O O3 0.376555 0.252083 0.149758
O O4 0.929426 0.204960 0.281472
O O5 0.916504 0.500000 0.089187
O O6 0.750492 0.758783 0.097478
O O7 0.811082 0.750968 0.166769
O O8 0.185607 0.750188 0.007103
O O9 0.358770 0.216447 0.310438
O O10 0.909148 0.239729 0.426599
O O11 0.134317 0.000000 0.325503
O O12 0.354220 0.500000 0.916653
O O13 0.545725 0.500000 0.261267
O O14 0.660672 0.711336 0.289401
O O15 0.500000 0.735184 0.500000
O O16 0.479095 0.745021 0.418167
O O17 0.398768 0.000000 0.486395
O O18 0.366493 0.000000 0.670023
#
# Coordination Sequence:
#
# PCOD8067477 Si02
#       7
#     4   4   4   4   4   4   4
#     4  11  20  34  57  88 115 141 182 235 281 322
#     4   8  14  28  52  80 110 144 180 222 266 321
#     4  11  21  36  60  84 110 147 189 228 271 330
#     4   8  14  27  52  83 109 139 183 225 265 319
#     4  11  22  38  57  84 117 146 182 231 282 327
#     4   9  18  36  59  81 105 143 192 228 261 327
#     4  11  23  40  59  79 110 151 189 226 275 337
#
# _framework density 19.621003000000002
#
# number of rings (size 3 to 8) (size 9 to 14) (size 15 to 20)
#    0.000    2.143    2.857    2.571    0.000    0.571 
#    0.000    7.143    0.000    8.571    0.000    0.000 
#    0.000    0.000    0.000    0.000    0.000    0.000 
#
# Total GULP energy -347106.267905 kJ/mol
# GULP energy per Si atom -12396.652425 kJ/mol
# Density = 1.957634 g / cm^3
# Si number density = 19.621003 Si / 1000 Ang^3
#
#
#
# Elastic Constant Matrix: (Units=GPa)
#
#
# Indices 1 2 3 4 5 6 
#
# 1 76.7261 3.6658 59.4258 0.0000 4.7655 0.0000
# 2 3.6658 29.6786 18.3650 0.0000 -1.6186 0.0000
# 3 59.4258 18.3650 199.6446 0.0000 -3.4573 0.0000
# 4 0.0000 0.0000 0.0000 168.5029 0.0000 74.7452
# 5 4.7655 -1.6186 -3.4573 0.0000 34.9862 0.0000
# 6 0.0000 0.0000 0.0000 74.7452 0.0000 65.5357
#
#
#
# Elastic Compliance Matrix: (Units=1/GPa)
#
#
# Indices 1 2 3 4 5 6 
#
# 1 0.017245 0.000978 -0.005272 0.000000 -0.002825 0.000000
# 2 0.000978 0.035845 -0.003568 0.000000 0.001173 0.000000
# 3 -0.005272 -0.003568 0.006928 0.000000 0.001238 0.000000
# 4 0.000000 0.000000 0.000000 0.012011 0.000000 -0.013699
# 5 -0.002825 0.001173 0.001238 0.000000 0.029144 0.000000
# 6 0.000000 0.000000 0.000000 -0.013699 0.000000 0.030883
#
#
# Mechanical properties :
#
#
# Convention : Reuss Voigt Hill
#
# Bulk Modulus (GPa) = 22.57622 52.10694 37.34158
# Shear Modulus (GPa) = 30.76042 68.77782 49.76912
#
# Velocity S-wave (km/s) = 3.96375 5.92699 5.04185
# Velocity P-wave (km/s) = 5.69908 8.57049 7.27781
#
# Compressibility (1/GPa) = 0.04429439
#
# Stress axis : x y z
#
# Youngs Moduli (GPa) = 57.98631 27.89760 144.34464
#
# Poissons Ratio (x) = -0.02729 0.76101
# Poissons Ratio (y) = -0.05672 0.51505
# Poissons Ratio (z) = 0.30571 0.09955
#
# Static dielectric constant tensor:
#      x y z
#    x 3.286580 0.000000 -0.081260 
#    y 0.000000 3.130720 0.000000 
#    z -0.081260 0.000000 4.186490 
# 
# 
# High freq. dielectric constant tensor:
#      x y z
#    x 1.738900 0.000000 -0.008190 
#    y 0.000000 1.729740 0.000000 
#    z -0.008190 0.000000 1.787780 
# 
# From -- ./inp_files/37349.got.cif
#   From: 2010.06.25/outbox.cif.g09.slc.cpg/sg10_19_cif.got.tgz:37349.got - 2010.06.27 22:07:45.
