data_PCOD8067826
_publ_section_title
;
Structure prediction by ZEFSAII (Michael W. Deem and Ramdas Pophale) SiO2 
 PCOD8067826
Probable space group: P 2/M
;
_chemical_formula_sum "Si O2"
_cell_formula_units_Z 8
_cell_length_a 8.799987
_cell_length_b 8.514345
_cell_length_c 10.104519
_cell_angle_alpha 90.000000
_cell_angle_beta 150.562968
_cell_angle_gamma 90.000000
_cell_volume 372.085764
_symmetry_space_group_name_H-M "P 2/M"
_symmetry_group_IT_number 10
_symmetry_cell_setting 'monoclinic'
loop_
_space_group_symop_operation_xyz
x,y,z
-x,y,-z
-x,-y,-z
x,-y,z
loop_
_atom_site_type_symbol
_atom_site_label
_atom_site_fract_x
_atom_site_fract_y
_atom_site_fract_z
Si Si1 0.128973 0.682707 0.456435
Si Si2 0.216103 0.817294 0.043565
O O1 0.213814 0.500000 0.521444
O O2 0.432020 0.782138 0.649936
O O3 0.000000 0.737262 0.500000
O O4 0.867852 0.717862 0.149936
O O5 0.170927 0.000000 0.978556
O O6 0.000000 0.762738 0.000000
#
# Coordination Sequence:
#
# PCOD8067826 Si02
#       2
#     4   4
#     4  11  24  41  62  90 122 157 200 247 296 354
#     4  11  24  41  62  90 122 157 200 247 296 354
#
# _framework density 21.500419000000001
#
# number of rings (size 3 to 8) (size 9 to 14) (size 15 to 20)
#    0.000    1.000    0.000    6.000    0.000   20.000 
#    0.000    0.000    0.000    0.000    0.000    0.000 
#    0.000    0.000    0.000    0.000    0.000    0.000 
#
# Total GULP energy -99293.550678 kJ/mol
# GULP energy per Si atom -12411.693835 kJ/mol
# Density = 2.145148 g / cm^3
# Si number density = 21.500419 Si / 1000 Ang^3
#
#
#
# Elastic Constant Matrix: (Units=GPa)
#
#
# Indices 1 2 3 4 5 6 
#
# 1 90.8337 46.6184 3.2367 0.0000 0.8284 0.0000
# 2 46.6184 54.7492 10.3421 0.0000 -4.6401 0.0000
# 3 3.2367 10.3421 77.9539 0.0000 -2.4758 0.0000
# 4 0.0000 0.0000 0.0000 7.9795 0.0000 -2.6679
# 5 0.8284 -4.6401 -2.4758 0.0000 46.6142 0.0000
# 6 0.0000 0.0000 0.0000 -2.6679 0.0000 28.8361
#
#
#
# Elastic Compliance Matrix: (Units=1/GPa)
#
#
# Indices 1 2 3 4 5 6 
#
# 1 0.019897 -0.017379 0.001416 0.000000 -0.002008 0.000000
# 2 -0.017379 0.034057 -0.003685 0.000000 0.003503 0.000000
# 3 0.001416 -0.003685 0.013268 0.000000 0.000313 0.000000
# 4 0.000000 0.000000 0.000000 0.129322 0.000000 0.011965
# 5 -0.002008 0.003503 0.000313 0.000000 0.021854 0.000000
# 6 0.000000 0.000000 0.000000 0.011965 0.000000 0.035786
#
#
# Mechanical properties :
#
#
# Convention : Reuss Voigt Hill
#
# Bulk Modulus (GPa) = 35.81234 38.21459 37.01346
# Shear Modulus (GPa) = 16.51317 27.57525 22.04421
#
# Velocity S-wave (km/s) = 2.77436 3.58515 3.20549
# Velocity P-wave (km/s) = 5.19187 5.91187 5.56353
#
# Compressibility (1/GPa) = 0.02792334
#
# Stress axis : x y z
#
# Youngs Moduli (GPa) = 50.25975 29.36283 75.36822
#
# Poissons Ratio (x) = 0.51031 -0.10671
# Poissons Ratio (y) = 0.87349 0.27776
# Poissons Ratio (z) = -0.07116 0.10821
#
# Static dielectric constant tensor:
#      x y z
#    x 3.953820 0.000000 -0.024790 
#    y 0.000000 3.705700 0.000000 
#    z -0.024790 0.000000 3.759990 
# 
# 
# High freq. dielectric constant tensor:
#      x y z
#    x 1.856180 0.000000 -0.000170 
#    y 0.000000 1.846640 0.000000 
#    z -0.000170 0.000000 1.854870 
# 
# From -- ./inp_files/1.got.cif
#   From: 2010.06.25/outbox.cif.g09.slc.cpg/sg10_1_cif.got.tgz:1.got - 2010.06.27 22:07:45.
