data_PCOD8067204
_publ_section_title
;
Structure prediction by ZEFSAII (Michael W. Deem and Ramdas Pophale) SiO2 
 PCOD8067204
Probable space group: P 2/M
;
_chemical_formula_sum "Si O2"
_cell_formula_units_Z 20
_cell_length_a 14.186492
_cell_length_b 8.034895
_cell_length_c 23.498347
_cell_angle_alpha 90.000000
_cell_angle_beta 19.715745
_cell_angle_gamma 90.000000
_cell_volume 903.604434
_symmetry_space_group_name_H-M "P 2/M"
_symmetry_group_IT_number 10
_symmetry_cell_setting 'monoclinic'
loop_
_space_group_symop_operation_xyz
x,y,z
-x,y,-z
-x,-y,-z
x,-y,z
loop_
_atom_site_type_symbol
_atom_site_label
_atom_site_fract_x
_atom_site_fract_y
_atom_site_fract_z
Si Si1 0.261193 0.821903 0.393282
Si Si2 0.782801 0.188043 0.268645
Si Si3 0.150035 0.808363 0.636998
Si Si4 0.827456 0.688597 0.044542
Si Si5 0.959084 0.500000 0.454150
Si Si6 0.788530 0.500000 0.802189
O O1 0.546222 0.795953 0.195813
O O2 0.216230 0.667399 0.462200
O O3 0.000000 0.827427 0.500000
O O4 0.277332 0.000000 0.416944
O O5 0.844766 0.220660 0.298836
O O6 0.460465 0.224460 0.436615
O O7 0.856299 0.000000 0.209968
O O8 0.982704 0.307330 0.119253
O O9 0.943729 0.671228 0.729017
O O10 0.055035 0.000000 0.677427
O O11 0.734201 0.500000 0.109279
O O12 0.000000 0.760610 0.000000
O O13 0.000000 0.500000 0.500000
O O14 0.230050 0.500000 0.257564
O O15 0.500000 0.500000 0.000000
#
# Coordination Sequence:
#
# PCOD8067204 Si02
#       6
#     4   4   4   4   2   2
#     4  10  22  42  66  92 126 178 223 265 334 400
#     4   9  20  40  65  94 128 171 220 273 339 398
#     4   9  22  43  67  95 129 171 222 277 329 397
#     4  11  24  36  59 100 138 172 221 282 337 401
#     4  10  24  46  65  93 137 172 223 281 323 399
#     4  12  28  43  68 102 131 179 227 270 337 398
#
# _framework density 22.133579999999998
#
# number of rings (size 3 to 8) (size 9 to 14) (size 15 to 20)
#    0.000    2.000    1.000    1.800    5.600    6.800 
#    0.000    2.000    0.000    0.000    0.000    0.000 
#    0.000    0.000    0.000    0.000    0.000    0.000 
#
# Total GULP energy -247791.080479 kJ/mol
# GULP energy per Si atom -12389.554024 kJ/mol
# Density = 2.208320 g / cm^3
# Si number density = 22.133580 Si / 1000 Ang^3
#
#
#
# Elastic Constant Matrix: (Units=GPa)
#
#
# Indices 1 2 3 4 5 6 
#
# 1 69.4943 30.5297 52.7329 0.0000 1.5809 0.0000
# 2 30.5297 167.2456 61.1776 0.0000 -1.2045 0.0000
# 3 52.7329 61.1776 166.4032 0.0000 8.9583 0.0000
# 4 0.0000 0.0000 0.0000 28.4035 0.0000 6.0733
# 5 1.5809 -1.2045 8.9583 0.0000 34.3643 0.0000
# 6 0.0000 0.0000 0.0000 6.0733 0.0000 -13.1536
#
#
#
# Elastic Compliance Matrix: (Units=1/GPa)
#
#
# Indices 1 2 3 4 5 6 
#
# 1 0.019267 -0.001467 -0.005595 0.000000 0.000521 0.000000
# 2 -0.001467 0.007049 -0.002174 0.000000 0.000881 0.000000
# 3 -0.005595 -0.002174 0.008694 0.000000 -0.002085 0.000000
# 4 0.000000 0.000000 0.000000 0.032043 0.000000 0.014795
# 5 0.000521 0.000881 -0.002085 0.000000 0.029650 0.000000
# 6 0.000000 0.000000 0.000000 0.014795 0.000000 -0.069193
#
#
# Mechanical properties :
#
#
# Convention : Reuss Voigt Hill
#
# Bulk Modulus (GPa) = 60.46294 76.89150 68.67722
# Shear Modulus (GPa) = 97.09798 27.16970 62.13384
#
# Velocity S-wave (km/s) = 6.63056 3.50742 5.30407
# Velocity P-wave (km/s) = 9.27339 7.15666 8.28292
#
# Compressibility (1/GPa) = 0.01653906
#
# Stress axis : x y z
#
# Youngs Moduli (GPa) = 51.90094 141.87253 115.02313
#
# Poissons Ratio (x) = 0.20812 0.64350
# Poissons Ratio (y) = 0.07614 0.25005
# Poissons Ratio (z) = 0.29036 0.30842
#
# Static dielectric constant tensor:
#      x y z
#    x 3.708560 0.000000 0.128290 
#    y 0.000000 5.194140 0.000000 
#    z 0.128290 0.000000 4.013840 
# 
# 
# High freq. dielectric constant tensor:
#      x y z
#    x 1.847070 0.000000 0.009970 
#    y 0.000000 1.893400 0.000000 
#    z 0.009970 0.000000 1.871020 
# 
# From -- ./inp_files/89306.got.cif
#   From: 2010.06.25/outbox.cif.g09.slc.cpg/sg10_45_cif.got.tgz:89306.got - 2010.06.27 22:07:45.
