data_PCOD8067478
_publ_section_title
;
Structure prediction by ZEFSAII (Michael W. Deem and Ramdas Pophale) SiO2 
 PCOD8067478
Probable space group: P 2/M
;
_chemical_formula_sum "Si O2"
_cell_formula_units_Z 24
_cell_length_a 13.882938
_cell_length_b 11.636055
_cell_length_c 20.432180
_cell_angle_alpha 90.000000
_cell_angle_beta 21.893918
_cell_angle_gamma 90.000000
_cell_volume 1230.783782
_symmetry_space_group_name_H-M "P 2/M"
_symmetry_group_IT_number 10
_symmetry_cell_setting 'monoclinic'
loop_
_space_group_symop_operation_xyz
x,y,z
-x,y,-z
-x,-y,-z
x,-y,z
loop_
_atom_site_type_symbol
_atom_site_label
_atom_site_fract_x
_atom_site_fract_y
_atom_site_fract_z
Si Si1 0.074917 0.127785 0.877217
Si Si2 0.568867 0.740034 0.587567
Si Si3 0.082328 0.131051 0.249500
Si Si4 0.423464 0.500000 0.622631
Si Si5 0.438781 0.132295 0.144713
Si Si6 0.133311 0.500000 0.987907
Si Si7 0.410557 0.263198 0.832667
O O1 0.338388 0.194349 0.695744
O O2 0.107024 0.000000 0.829583
O O3 0.000000 0.131255 0.000000
O O4 0.838227 0.187588 0.990407
O O5 0.537475 0.606407 0.591386
O O6 0.548557 0.767600 0.677597
O O7 0.841823 0.784601 0.388993
O O8 0.198242 0.152121 0.248360
O O9 0.985537 0.000000 0.304557
O O10 0.296653 0.158311 0.060373
O O11 0.500000 0.500000 0.500000
O O12 0.113944 0.500000 0.809901
O O13 0.399168 0.226222 0.228092
O O14 0.437276 0.000000 0.171581
O O15 0.320035 0.394139 0.885105
O O16 0.000000 0.500000 0.000000
#
# Coordination Sequence:
#
# PCOD8067478 Si02
#       7
#     4   4   4   2   4   2   4
#     4   9  17  29  49  81 114 140 175 226 283 337
#     4  11  21  36  57  85 114 147 192 239 284 332
#     4   9  20  39  59  82 119 156 188 233 287 341
#     4  12  26  40  57  84 117 155 194 234 282 345
#     4   9  20  39  60  84 115 155 193 230 286 346
#     4  12  20  42  59  80 117 157 190 228 290 343
#     4  11  20  34  59  83 112 150 192 236 282 337
#
# _framework density 19.499770000000002
#
# number of rings (size 3 to 8) (size 9 to 14) (size 15 to 20)
#    0.000    1.833    3.333    2.500    2.333    2.667 
#    0.000    2.500    0.000    8.000    0.000    0.000 
#    0.000    0.000    0.000    0.000    0.000    0.000 
#
# Total GULP energy -297505.867460 kJ/mol
# GULP energy per Si atom -12396.077811 kJ/mol
# Density = 1.945539 g / cm^3
# Si number density = 19.499770 Si / 1000 Ang^3
#
#
#
# Elastic Constant Matrix: (Units=GPa)
#
#
# Indices 1 2 3 4 5 6 
#
# 1 65.2317 19.0272 -4.8771 0.0000 12.6430 0.0000
# 2 19.0272 118.7301 12.1081 0.0000 -7.0406 0.0000
# 3 -4.8771 12.1081 63.4796 0.0000 -6.5352 0.0000
# 4 0.0000 0.0000 0.0000 12.8898 0.0000 4.0535
# 5 12.6430 -7.0406 -6.5352 0.0000 23.9630 0.0000
# 6 0.0000 0.0000 0.0000 4.0535 0.0000 24.6318
#
#
#
# Elastic Compliance Matrix: (Units=1/GPa)
#
#
# Indices 1 2 3 4 5 6 
#
# 1 0.018540 -0.003705 0.001041 0.000000 -0.010587 0.000000
# 2 -0.003705 0.009438 -0.001644 0.000000 0.004279 0.000000
# 3 0.001041 -0.001644 0.016504 0.000000 0.003468 0.000000
# 4 0.000000 0.000000 0.000000 0.081815 0.000000 -0.013464
# 5 -0.010587 0.004279 0.003468 0.000000 0.049520 0.000000
# 6 0.000000 0.000000 0.000000 -0.013464 0.000000 0.042814
#
#
# Mechanical properties :
#
#
# Convention : Reuss Voigt Hill
#
# Bulk Modulus (GPa) = 27.88186 33.32866 30.60526
# Shear Modulus (GPa) = 20.90289 27.04248 23.97268
#
# Velocity S-wave (km/s) = 3.27763 3.72803 3.51006
# Velocity P-wave (km/s) = 5.35288 5.97159 5.67068
#
# Compressibility (1/GPa) = 0.03586561
#
# Stress axis : x y z
#
# Youngs Moduli (GPa) = 53.93616 105.95812 60.59208
#
# Poissons Ratio (x) = 0.39260 -0.06309
# Poissons Ratio (y) = 0.19984 0.09963
# Poissons Ratio (z) = -0.05616 0.17422
#
# Static dielectric constant tensor:
#      x y z
#    x 3.459900 0.000000 -0.031060 
#    y 0.000000 3.567690 0.000000 
#    z -0.031060 0.000000 3.471180 
# 
# 
# High freq. dielectric constant tensor:
#      x y z
#    x 1.750720 0.000000 0.001860 
#    y 0.000000 1.756330 0.000000 
#    z 0.001860 0.000000 1.752400 
# 
# From -- ./inp_files/85184.got.cif
#   From: 2010.06.25/outbox.cif.g09.slc.cpg/sg10_43_cif.got.tgz:85184.got - 2010.06.27 22:07:45.
