data_PCOD8067223
_publ_section_title
;
Structure prediction by ZEFSAII (Michael W. Deem and Ramdas Pophale) SiO2 
 PCOD8067223
Probable space group: P 2/M
;
_chemical_formula_sum "Si O2"
_cell_formula_units_Z 20
_cell_length_a 8.615536
_cell_length_b 10.374780
_cell_length_c 11.429450
_cell_angle_alpha 90.000000
_cell_angle_beta 54.551076
_cell_angle_gamma 90.000000
_cell_volume 832.239747
_symmetry_space_group_name_H-M "P 2/M"
_symmetry_group_IT_number 10
_symmetry_cell_setting 'monoclinic'
loop_
_space_group_symop_operation_xyz
x,y,z
-x,y,-z
-x,-y,-z
x,-y,z
loop_
_atom_site_type_symbol
_atom_site_label
_atom_site_fract_x
_atom_site_fract_y
_atom_site_fract_z
Si Si1 0.719255 0.137933 0.373159
Si Si2 0.794880 0.751756 0.572507
Si Si3 0.289197 0.146419 0.140657
Si Si4 0.601022 0.359066 0.270411
Si Si5 0.852887 0.356245 0.959567
O O1 0.500000 0.129795 0.500000
O O2 0.834572 0.155559 0.443836
O O3 0.740221 0.256763 0.274290
O O4 0.783895 0.000000 0.289036
O O5 0.720425 0.832455 0.716088
O O6 0.625572 0.654965 0.610368
O O7 0.000000 0.681406 0.500000
O O8 0.226919 0.000000 0.139075
O O9 0.500000 0.172084 0.000000
O O10 0.140448 0.245367 0.142801
O O11 0.658734 0.500000 0.293930
O O12 0.644495 0.350425 0.112740
O O13 0.883742 0.500000 0.890989
O O14 0.000000 0.330458 0.000000
#
# Coordination Sequence:
#
# PCOD8067223 Si02
#       5
#     4   4   4   4   4
#     4   9  20  38  62  89 124 169 210 258 321 382
#     4  11  24  41  63  98 137 172 211 265 331 385
#     4  11  24  43  69  99 130 169 220 272 321 385
#     4  10  22  43  67  94 130 172 219 271 320 378
#     4  10  23  44  69  95 128 172 218 268 328 388
#
# _framework density 24.031538000000001
#
# number of rings (size 3 to 8) (size 9 to 14) (size 15 to 20)
#    0.000    1.800    2.000    0.600    2.800    8.800 
#    0.000    0.000    0.000    0.000    0.000    0.000 
#    0.000    0.000    0.000    0.000    0.000    0.000 
#
# Total GULP energy -247811.669101 kJ/mol
# GULP energy per Si atom -12390.583455 kJ/mol
# Density = 2.397684 g / cm^3
# Si number density = 24.031538 Si / 1000 Ang^3
#
#
#
# Elastic Constant Matrix: (Units=GPa)
#
#
# Indices 1 2 3 4 5 6 
#
# 1 98.8716 42.8241 19.8231 0.0000 12.4585 0.0000
# 2 42.8241 214.7447 53.7878 0.0000 43.2375 0.0000
# 3 19.8231 53.7878 81.5675 0.0000 20.5063 0.0000
# 4 0.0000 0.0000 0.0000 -58.6751 0.0000 71.0452
# 5 12.4585 43.2375 20.5063 0.0000 39.0199 0.0000
# 6 0.0000 0.0000 0.0000 71.0452 0.0000 -19.3339
#
#
#
# Elastic Compliance Matrix: (Units=1/GPa)
#
#
# Indices 1 2 3 4 5 6 
#
# 1 0.011249 -0.001703 -0.001362 0.000000 -0.000989 0.000000
# 2 -0.001703 0.006785 -0.002658 0.000000 -0.005578 0.000000
# 3 -0.001362 -0.002658 0.015548 0.000000 -0.004791 0.000000
# 4 0.000000 0.000000 0.000000 0.004941 0.000000 0.018156
# 5 -0.000989 -0.005578 -0.004791 0.000000 0.034642 0.000000
# 6 0.000000 0.000000 0.000000 0.018156 0.000000 0.014995
#
#
# Mechanical properties :
#
#
# Convention : Reuss Voigt Hill
#
# Bulk Modulus (GPa) = 45.17588 69.78378 57.47983
# Shear Modulus (GPa) = 46.73495 10.78543 28.76019
#
# Velocity S-wave (km/s) = 4.41470 2.12080 3.46319
# Velocity P-wave (km/s) = 6.69518 5.92440 6.32155
#
# Compressibility (1/GPa) = 0.02213571
#
# Stress axis : x y z
#
# Youngs Moduli (GPa) = 88.89293 147.37993 64.31653
#
# Poissons Ratio (x) = 0.25100 0.08762
# Poissons Ratio (y) = 0.15139 0.17096
# Poissons Ratio (z) = 0.12110 0.39176
#
# Static dielectric constant tensor:
#      x y z
#    x 4.355750 0.000000 -0.059730 
#    y 0.000000 4.584920 0.000000 
#    z -0.059730 0.000000 4.485350 
# 
# 
# High freq. dielectric constant tensor:
#      x y z
#    x 1.953480 0.000000 -0.014780 
#    y 0.000000 1.943360 0.000000 
#    z -0.014780 0.000000 1.951490 
# 
# From -- ./inp_files/41615.got.cif
#   From: 2010.06.25/outbox.cif.g09.slc.cpg/sg10_21_cif.got.tgz:41615.got - 2010.06.27 22:07:45.
