data_PCOD8067420
_publ_section_title
;
Structure prediction by ZEFSAII (Michael W. Deem and Ramdas Pophale) SiO2 
 PCOD8067420
Probable space group: P 2/M
;
_chemical_formula_sum "Si O2"
_cell_formula_units_Z 24
_cell_length_a 11.549194
_cell_length_b 8.947881
_cell_length_c 20.246797
_cell_angle_alpha 90.000000
_cell_angle_beta 137.573406
_cell_angle_gamma 90.000000
_cell_volume 1411.573695
_symmetry_space_group_name_H-M "P 2/M"
_symmetry_group_IT_number 10
_symmetry_cell_setting 'monoclinic'
loop_
_space_group_symop_operation_xyz
x,y,z
-x,y,-z
-x,-y,-z
x,-y,z
loop_
_atom_site_type_symbol
_atom_site_label
_atom_site_fract_x
_atom_site_fract_y
_atom_site_fract_z
Si Si1 0.692587 0.321929 0.590789
Si Si2 0.393575 0.824040 0.185028
Si Si3 0.107898 0.323173 0.450783
Si Si4 0.254028 0.676876 0.650515
Si Si5 0.127325 0.335349 0.992446
Si Si6 0.808732 0.322844 0.782269
O O1 0.500000 0.261604 0.500000
O O2 0.695042 0.500000 0.590129
O O3 0.810587 0.255442 0.581684
O O4 0.765999 0.263773 0.691257
O O5 0.584503 0.765036 0.252885
O O6 0.280766 0.778346 0.073315
O O7 0.320487 0.754109 0.221289
O O8 0.392389 0.000000 0.191209
O O9 0.117308 0.500000 0.453325
O O10 0.218300 0.269981 0.560367
O O11 0.909310 0.275322 0.373707
O O12 0.288101 0.500000 0.668395
O O13 0.205576 0.500000 0.011127
O O14 0.000000 0.345829 0.000000
O O15 0.008489 0.280854 0.881101
O O16 0.780265 0.500000 0.777413
#
# Coordination Sequence:
#
# PCOD8067420 Si02
#       6
#     4   4   4   4   4   4
#     4   9  15  24  44  73  97 114 139 177 218 263
#     4  11  20  28  43  67  91 116 150 187 223 263
#     4   8  15  27  46  71  92 115 148 182 217 259
#     4   9  16  29  48  67  90 118 149 184 219 257
#     4   8  15  28  44  63  87 115 147 183 224 264
#     4   9  17  29  46  67  92 120 146 178 222 267
#
# _framework density 17.002300999999999
#
# number of rings (size 3 to 8) (size 9 to 14) (size 15 to 20)
#    0.000    3.000    0.000    4.500    0.000    5.667 
#    0.000    1.667    0.000    6.500    0.000    7.000 
#    0.000    0.000    0.000    0.000    0.000    0.000 
#
# Total GULP energy -297467.176576 kJ/mol
# GULP energy per Si atom -12394.465691 kJ/mol
# Density = 1.696360 g / cm^3
# Si number density = 17.002301 Si / 1000 Ang^3
#
#
#
# Elastic Constant Matrix: (Units=GPa)
#
#
# Indices 1 2 3 4 5 6 
#
# 1 103.5605 25.2916 70.2416 0.0000 4.3125 0.0000
# 2 25.2916 49.4681 37.3737 0.0000 8.6201 0.0000
# 3 70.2416 37.3737 158.2239 0.0000 7.0353 0.0000
# 4 0.0000 0.0000 0.0000 3.1501 0.0000 0.3831
# 5 4.3125 8.6201 7.0353 0.0000 26.7271 0.0000
# 6 0.0000 0.0000 0.0000 0.3831 0.0000 4.6884
#
#
#
# Elastic Compliance Matrix: (Units=1/GPa)
#
#
# Indices 1 2 3 4 5 6 
#
# 1 0.014182 -0.003065 -0.005580 0.000000 0.000169 0.000000
# 2 -0.003065 0.026431 -0.004579 0.000000 -0.006825 0.000000
# 3 -0.005580 -0.004579 0.009889 0.000000 -0.000226 0.000000
# 4 0.000000 0.000000 0.000000 0.320632 0.000000 -0.026196
# 5 0.000169 -0.006825 -0.000226 0.000000 0.039649 0.000000
# 6 0.000000 0.000000 0.000000 -0.026196 0.000000 0.215433
#
#
# Mechanical properties :
#
#
# Convention : Reuss Voigt Hill
#
# Bulk Modulus (GPa) = 41.57199 64.11845 52.84522
# Shear Modulus (GPa) = 7.56795 18.80283 13.18539
#
# Velocity S-wave (km/s) = 2.11206 3.32911 2.78781
# Velocity P-wave (km/s) = 5.51830 7.25057 6.44292
#
# Compressibility (1/GPa) = 0.02405466
#
# Stress axis : x y z
#
# Youngs Moduli (GPa) = 70.51157 37.83462 101.12487
#
# Poissons Ratio (x) = 0.11596 0.56423
# Poissons Ratio (y) = 0.21611 0.46306
# Poissons Ratio (z) = 0.39342 0.17325
#
# Static dielectric constant tensor:
#      x y z
#    x 3.223100 0.000000 -0.057640 
#    y 0.000000 2.757690 0.000000 
#    z -0.057640 0.000000 3.596160 
# 
# 
# High freq. dielectric constant tensor:
#      x y z
#    x 1.628510 0.000000 0.009340 
#    y 0.000000 1.613040 0.000000 
#    z 0.009340 0.000000 1.668110 
# 
# From -- ./inp_files/48657.got.cif
#   From: 2010.06.25/outbox.cif.g09.slc.cpg/sg10_25_cif.got.tgz:48657.got - 2010.06.27 22:07:45.
