data_PCOD8067870
_publ_section_title
;
Structure prediction by ZEFSAII (Michael W. Deem and Ramdas Pophale) SiO2 
 PCOD8067870
Probable space group: P 2/M
;
_chemical_formula_sum "Si O2"
_cell_formula_units_Z 32
_cell_length_a 6.891149
_cell_length_b 9.350819
_cell_length_c 22.849507
_cell_angle_alpha 90.000000
_cell_angle_beta 96.754972
_cell_angle_gamma 90.000000
_cell_volume 1462.153104
_symmetry_space_group_name_H-M "P 2/M"
_symmetry_group_IT_number 10
_symmetry_cell_setting 'monoclinic'
loop_
_space_group_symop_operation_xyz
x,y,z
-x,y,-z
-x,-y,-z
x,-y,z
loop_
_atom_site_type_symbol
_atom_site_label
_atom_site_fract_x
_atom_site_fract_y
_atom_site_fract_z
Si Si1 0.407529 0.162548 0.649084
Si Si2 0.823093 0.336741 0.783013
Si Si3 0.285286 0.830929 0.987449
Si Si4 0.147677 0.169017 0.329341
Si Si5 0.683611 0.838766 0.138172
Si Si6 0.936551 0.835477 0.436676
Si Si7 0.358517 0.661667 0.755429
Si Si8 0.782967 0.837852 0.891336
O O1 0.628885 0.207175 0.648326
O O2 0.295905 0.182436 0.582884
O O3 0.297296 0.254623 0.694739
O O4 0.389320 0.000000 0.670412
O O5 0.895604 0.500000 0.786401
O O6 0.919911 0.256181 0.730753
O O7 0.590376 0.326599 0.770339
O O8 0.886631 0.258877 0.845530
O O9 0.155877 0.784628 0.040141
O O10 0.309234 0.000000 0.994225
O O11 0.500000 0.759141 0.000000
O O12 0.202530 0.796297 0.918933
O O13 0.039398 0.229383 0.382840
O O14 0.113651 0.000000 0.317338
O O15 0.748922 0.730712 0.191904
O O16 0.451692 0.828374 0.119799
O O17 0.737689 0.000000 0.158946
O O18 0.000000 0.759004 0.500000
O O19 0.002368 0.000000 0.443059
O O20 0.285700 0.500000 0.747682
O O21 0.853409 0.000000 0.882497
#
# Coordination Sequence:
#
# PCOD8067870 Si02
#       8
#     4   4   4   4   4   4   4   4
#     4   9  17  30  49  71  95 125 157 188 228 276
#     4   9  16  25  38  58  85 117 154 196 237 274
#     4   7  10  16  27  45  71 106 147 190 234 279
#     4   9  17  30  49  71  95 125 157 188 228 276
#     4   8  12  19  32  50  75 110 152 194 236 282
#     4   9  18  32  51  77 103 122 149 192 231 267
#     4   9  16  25  38  58  85 117 154 196 237 274
#     4   8  12  19  32  50  75 110 152 194 236 282
#
# _framework density 21.885532000000001
#
# number of rings (size 3 to 8) (size 9 to 14) (size 15 to 20)
#    0.000    3.500    0.000    2.250    0.000    3.500 
#    0.000    3.750    0.000    5.250    0.000    3.500 
#    0.000    1.000    0.000   11.625    0.000   32.250 
#
# Total GULP energy -396527.750771 kJ/mol
# GULP energy per Si atom -12391.492212 kJ/mol
# Density = 2.183572 g / cm^3
# Si number density = 21.885532 Si / 1000 Ang^3
#
#
#
# Elastic Constant Matrix: (Units=GPa)
#
#
# Indices 1 2 3 4 5 6 
#
# 1 14.7812 2.4934 24.7591 0.0000 -8.5129 0.0000
# 2 2.4934 88.7282 63.4816 0.0000 -1.1916 0.0000
# 3 24.7591 63.4816 176.6018 0.0000 -4.6189 0.0000
# 4 0.0000 0.0000 0.0000 8.3935 0.0000 -0.1341
# 5 -8.5129 -1.1916 -4.6189 0.0000 34.5895 0.0000
# 6 0.0000 0.0000 0.0000 -0.1341 0.0000 2.8532
#
#
#
# Elastic Compliance Matrix: (Units=1/GPa)
#
#
# Indices 1 2 3 4 5 6 
#
# 1 0.112195 0.010725 -0.018919 0.000000 0.025456 0.000000
# 2 0.010725 0.016199 -0.007268 0.000000 0.002227 0.000000
# 3 -0.018919 -0.007268 0.010837 0.000000 -0.003459 0.000000
# 4 0.000000 0.000000 0.000000 0.119229 0.000000 0.005603
# 5 0.025456 0.002227 -0.003459 0.000000 0.034790 0.000000
# 6 0.000000 0.000000 0.000000 0.005603 0.000000 0.350750
#
#
# Mechanical properties :
#
#
# Convention : Reuss Voigt Hill
#
# Bulk Modulus (GPa) = 9.23308 51.28661 30.25985
# Shear Modulus (GPa) = 7.03208 21.79237 14.41222
#
# Velocity S-wave (km/s) = 1.79446 3.15896 2.56896
# Velocity P-wave (km/s) = 2.91915 6.06550 4.75982
#
# Compressibility (1/GPa) = 0.10830617
#
# Stress axis : x y z
#
# Youngs Moduli (GPa) = 8.91307 61.73190 92.27638
#
# Poissons Ratio (x) = -0.66205 1.74576
# Poissons Ratio (y) = -0.09559 0.67069
# Poissons Ratio (z) = 0.16862 0.44868
#
# Static dielectric constant tensor:
#      x y z
#    x 3.800400 0.000000 -0.067530 
#    y 0.000000 3.519080 0.000000 
#    z -0.067530 0.000000 4.348470 
# 
# 
# High freq. dielectric constant tensor:
#      x y z
#    x 1.871080 0.000000 0.000050 
#    y 0.000000 1.798130 0.000000 
#    z 0.000050 0.000000 1.868190 
# 
# From -- ./inp_files/87720.got.cif
#   From: 2010.06.25/outbox.cif.g09.slc.cpg/sg10_44_cif.got.tgz:87720.got - 2010.06.27 22:07:45.
