data_PCOD8067318
_publ_section_title
;
Structure prediction by ZEFSAII (Michael W. Deem and Ramdas Pophale) SiO2 
 PCOD8067318
Probable space group: P 2/M
;
_chemical_formula_sum "Si O2"
_cell_formula_units_Z 32
_cell_length_a 13.758110
_cell_length_b 17.982014
_cell_length_c 11.290582
_cell_angle_alpha 90.000000
_cell_angle_beta 31.317185
_cell_angle_gamma 90.000000
_cell_volume 1451.874691
_symmetry_space_group_name_H-M "P 2/M"
_symmetry_group_IT_number 10
_symmetry_cell_setting 'monoclinic'
loop_
_space_group_symop_operation_xyz
x,y,z
-x,y,-z
-x,-y,-z
x,-y,z
loop_
_atom_site_type_symbol
_atom_site_label
_atom_site_fract_x
_atom_site_fract_y
_atom_site_fract_z
Si Si1 0.983140 0.415574 0.885569
Si Si2 0.842829 0.836538 0.402809
Si Si3 0.454410 0.915628 0.411243
Si Si4 0.214994 0.081039 0.308535
Si Si5 0.784981 0.312256 0.756611
Si Si6 0.267270 0.168165 0.035384
Si Si7 0.365420 0.415543 0.902372
Si Si8 0.721335 0.324046 0.555976
O O1 0.057130 0.500000 0.811685
O O2 0.099282 0.373405 0.663444
O O3 0.000000 0.380232 0.000000
O O4 0.766734 0.411421 0.074538
O O5 0.763715 0.893807 0.386044
O O6 0.750389 0.859993 0.624005
O O7 0.764761 0.755367 0.452866
O O8 0.066804 0.840101 0.178891
O O9 0.500000 0.911433 0.500000
O O10 0.493743 0.000000 0.324723
O O11 0.577221 0.850318 0.223254
O O12 0.315929 0.107672 0.085033
O O13 0.000000 0.077423 0.500000
O O14 0.290859 0.000000 0.267448
O O15 0.713393 0.248621 0.922427
O O16 0.680547 0.316110 0.739201
O O17 0.000000 0.296649 0.500000
O O18 0.748345 0.389590 0.861965
O O19 0.432501 0.500000 0.855587
O O20 0.539675 0.362723 0.689640
#
# Coordination Sequence:
#
# PCOD8067318 Si02
#       8
#     4   4   4   4   4   4   4   4
#     4  10  23  45  69  97 137 183 234 285 329 386
#     4  11  22  41  66  96 131 170 217 273 336 398
#     4  11  27  47  64  93 134 177 227 274 325 401
#     4   9  17  32  60  96 124 154 204 261 322 391
#     4  12  21  42  69  98 138 175 216 278 349 404
#     4  11  21  42  69  97 129 172 216 274 338 398
#     4  11  25  41  65 100 137 181 228 274 337 403
#     4  12  23  42  68 101 137 179 223 280 337 407
#
# _framework density 22.040471
#
# number of rings (size 3 to 8) (size 9 to 14) (size 15 to 20)
#    0.000    1.125    3.750    2.625    0.000    4.750 
#    6.750    4.375    0.000    0.000    0.000    0.000 
#    0.000    0.000    0.000    0.000    0.000    0.000 
#
# Total GULP energy -396704.822623 kJ/mol
# GULP energy per Si atom -12397.025707 kJ/mol
# Density = 2.199031 g / cm^3
# Si number density = 22.040471 Si / 1000 Ang^3
#
#
#
# Elastic Constant Matrix: (Units=GPa)
#
#
# Indices 1 2 3 4 5 6 
#
# 1 111.8553 39.7761 18.1700 0.0000 -6.2661 0.0000
# 2 39.7761 126.4580 36.6650 0.0000 -5.9753 0.0000
# 3 18.1700 36.6650 57.3077 0.0000 -4.7494 0.0000
# 4 0.0000 0.0000 0.0000 19.3105 0.0000 -1.7868
# 5 -6.2661 -5.9753 -4.7494 0.0000 24.0882 0.0000
# 6 0.0000 0.0000 0.0000 -1.7868 0.0000 28.1127
#
#
#
# Elastic Compliance Matrix: (Units=1/GPa)
#
#
# Indices 1 2 3 4 5 6 
#
# 1 0.010232 -0.002748 -0.001344 0.000000 0.001715 0.000000
# 2 -0.002748 0.010481 -0.005773 0.000000 0.000747 0.000000
# 3 -0.001344 -0.005773 0.021777 0.000000 0.002512 0.000000
# 4 0.000000 0.000000 0.000000 0.052092 0.000000 0.003311
# 5 0.001715 0.000747 0.002512 0.000000 0.042641 0.000000
# 6 0.000000 0.000000 0.000000 0.003311 0.000000 0.035782
#
#
# Mechanical properties :
#
#
# Convention : Reuss Voigt Hill
#
# Bulk Modulus (GPa) = 43.93391 53.87146 48.90268
# Shear Modulus (GPa) = 24.96018 27.70296 26.33157
#
# Velocity S-wave (km/s) = 3.36887 3.54914 3.46018
# Velocity P-wave (km/s) = 5.92528 6.42576 6.18059
#
# Compressibility (1/GPa) = 0.02276146
#
# Stress axis : x y z
#
# Youngs Moduli (GPa) = 97.73689 95.41111 45.91947
#
# Poissons Ratio (x) = 0.26214 0.06172
# Poissons Ratio (y) = 0.26853 0.26507
# Poissons Ratio (z) = 0.13136 0.55077
#
# Static dielectric constant tensor:
#      x y z
#    x 4.134110 0.000000 -0.134530 
#    y 0.000000 4.183970 0.000000 
#    z -0.134530 0.000000 3.761090 
# 
# 
# High freq. dielectric constant tensor:
#      x y z
#    x 1.870070 0.000000 -0.017070 
#    y 0.000000 1.876450 0.000000 
#    z -0.017070 0.000000 1.849770 
# 
# From -- ./inp_files/51937.got.cif
#   From: 2010.06.25/outbox.cif.g09.slc.cpg/sg10_26_cif.got.tgz:51937.got - 2010.06.27 22:07:45.
