data_PCOD8067930
_publ_section_title
;
Structure prediction by ZEFSAII (Michael W. Deem and Ramdas Pophale) SiO2 
 PCOD8067930
Probable space group: P 2/M
;
_chemical_formula_sum "Si O2"
_cell_formula_units_Z 28
_cell_length_a 20.620485
_cell_length_b 7.711860
_cell_length_c 24.484275
_cell_angle_alpha 90.000000
_cell_angle_beta 158.200686
_cell_angle_gamma 90.000000
_cell_volume 1445.894305
_symmetry_space_group_name_H-M "P 2/M"
_symmetry_group_IT_number 10
_symmetry_cell_setting 'monoclinic'
loop_
_space_group_symop_operation_xyz
x,y,z
-x,y,-z
-x,-y,-z
x,-y,z
loop_
_atom_site_type_symbol
_atom_site_label
_atom_site_fract_x
_atom_site_fract_y
_atom_site_fract_z
Si Si1 0.811303 0.794477 0.997650
Si Si2 0.505984 0.206825 0.442850
Si Si3 0.816582 0.793177 0.879716
Si Si4 0.079685 0.192731 0.746092
Si Si5 0.558555 0.500000 0.133563
Si Si6 0.783585 0.500000 0.208575
Si Si7 0.129654 0.205520 0.316000
Si Si8 0.578900 0.807270 0.912494
O O1 0.789297 0.719456 0.919570
O O2 0.641221 0.745998 0.900950
O O3 0.830256 0.000000 0.010661
O O4 0.986872 0.715770 0.162290
O O5 0.500000 0.276615 0.500000
O O6 0.338641 0.279595 0.279547
O O7 0.680119 0.280546 0.549846
O O8 0.505679 0.000000 0.442041
O O9 0.814764 0.000000 0.878403
O O10 0.000000 0.723382 0.000000
O O11 0.101618 0.328600 0.713864
O O12 0.920408 0.254004 0.660682
O O13 0.044787 0.000000 0.694443
O O14 0.251787 0.186981 0.917263
O O15 0.731084 0.500000 0.231083
O O16 0.561648 0.671398 0.173892
O O17 0.386909 0.500000 0.962302
O O18 0.128525 0.000000 0.308927
O O19 0.493746 0.000000 0.844093
#
# Coordination Sequence:
#
# PCOD8067930 Si02
#       8
#     4   4   4   4   2   2   4   4
#     4   8  13  22  35  50  73 108 146 180 216 259
#     4   9  15  21  31  51  80 111 143 180 220 260
#     4   9  15  21  31  51  80 111 143 180 220 260
#     4   8  14  24  37  54  79 112 146 179 217 260
#     4   9  16  24  36  58  86 113 142 175 214 265
#     4   9  16  24  36  58  86 113 142 175 214 265
#     4   8  13  22  35  50  73 108 146 180 216 259
#     4   8  14  24  37  54  79 112 146 179 217 260
#
# _framework density 19.365178
#
# number of rings (size 3 to 8) (size 9 to 14) (size 15 to 20)
#    0.000    3.571    0.000    2.571    0.000    4.000 
#    0.000    2.857    0.000    0.000    0.000    2.000 
#    0.000    2.286    0.000   11.143    0.000   11.429 
#
# Total GULP energy -346991.584044 kJ/mol
# GULP energy per Si atom -12392.556573 kJ/mol
# Density = 1.932110 g / cm^3
# Si number density = 19.365178 Si / 1000 Ang^3
#
#
#
# Elastic Constant Matrix: (Units=GPa)
#
#
# Indices 1 2 3 4 5 6 
#
# 1 181.0857 57.7407 69.7442 0.0000 30.4980 0.0000
# 2 57.7407 68.2479 23.4480 0.0000 14.3135 0.0000
# 3 69.7442 23.4480 85.5046 0.0000 9.3926 0.0000
# 4 0.0000 0.0000 0.0000 0.7576 0.0000 -0.4932
# 5 30.4980 14.3135 9.3926 0.0000 27.9412 0.0000
# 6 0.0000 0.0000 0.0000 -0.4932 0.0000 -0.4444
#
#
#
# Elastic Compliance Matrix: (Units=1/GPa)
#
#
# Indices 1 2 3 4 5 6 
#
# 1 0.011070 -0.005594 -0.006731 0.000000 -0.006954 0.000000
# 2 -0.005594 0.020465 -0.000590 0.000000 -0.004179 0.000000
# 3 -0.006731 -0.000590 0.017140 0.000000 0.001888 0.000000
# 4 0.000000 0.000000 0.000000 0.766281 0.000000 -0.850477
# 5 -0.006954 -0.004179 0.001888 0.000000 0.044886 0.000000
# 6 0.000000 0.000000 0.000000 -0.850477 0.000000 -1.306418
#
#
# Mechanical properties :
#
#
# Convention : Reuss Voigt Hill
#
# Bulk Modulus (GPa) = 43.77573 70.74488 57.26030
# Shear Modulus (GPa) = -12.10272 17.91124 2.90426
#
# Velocity S-wave (km/s) = -2.50266 3.04455 1.22596
# Velocity P-wave (km/s) = 3.78198 6.99788 5.62467
#
# Compressibility (1/GPa) = 0.02284371
#
# Stress axis : x y z
#
# Youngs Moduli (GPa) = 90.33602 48.86484 58.34224
#
# Poissons Ratio (x) = 0.27337 0.39272
# Poissons Ratio (y) = 0.50537 0.03441
# Poissons Ratio (z) = 0.60808 0.02882
#
# Static dielectric constant tensor:
#      x y z
#    x 3.777960 0.000000 0.202920 
#    y 0.000000 3.298260 0.000000 
#    z 0.202920 0.000000 3.291750 
# 
# 
# High freq. dielectric constant tensor:
#      x y z
#    x 1.753090 0.000000 0.021840 
#    y 0.000000 1.724350 0.000000 
#    z 0.021840 0.000000 1.700760 
# 
# From -- ./inp_files/93558.got.cif
#   From: 2010.06.25/outbox.cif.g09.slc.cpg/sg10_47_cif.got.tgz:93558.got - 2010.06.27 22:07:45.
