data_PCOD8067139
_publ_section_title
;
Structure prediction by ZEFSAII (Michael W. Deem and Ramdas Pophale) SiO2 
 PCOD8067139
Probable space group: P 2/M
;
_chemical_formula_sum "Si O2"
_cell_formula_units_Z 32
_cell_length_a 29.931134
_cell_length_b 8.437320
_cell_length_c 12.607532
_cell_angle_alpha 90.000000
_cell_angle_beta 151.374148
_cell_angle_gamma 90.000000
_cell_volume 1525.362360
_symmetry_space_group_name_H-M "P 2/M"
_symmetry_group_IT_number 10
_symmetry_cell_setting 'monoclinic'
loop_
_space_group_symop_operation_xyz
x,y,z
-x,y,-z
-x,-y,-z
x,-y,z
loop_
_atom_site_type_symbol
_atom_site_label
_atom_site_fract_x
_atom_site_fract_y
_atom_site_fract_z
Si Si1 0.605552 0.683809 0.207027
Si Si2 0.099534 0.812168 0.661265
Si Si3 0.372343 0.814313 0.972918
Si Si4 0.768298 0.816985 0.664182
Si Si5 0.183055 0.313045 0.628040
Si Si6 0.256121 0.811803 0.150259
Si Si7 0.462160 0.811449 0.532213
Si Si8 0.099936 0.315136 0.235301
O O1 0.620317 0.500000 0.264915
O O2 0.640202 0.715529 0.160492
O O3 0.661638 0.790760 0.407145
O O4 0.500000 0.738800 0.000000
O O5 0.111894 0.730689 0.573273
O O6 0.000000 0.758548 0.500000
O O7 0.104129 0.000000 0.657222
O O8 0.181324 0.749639 0.909277
O O9 0.281948 0.773743 0.856111
O O10 0.376257 0.000000 0.956312
O O11 0.466184 0.756851 0.227168
O O12 0.778740 0.756832 0.806545
O O13 0.832746 0.712510 0.723321
O O14 0.795983 0.000000 0.710281
O O15 0.199022 0.500000 0.656411
O O16 0.140770 0.243990 0.429719
O O17 0.359027 0.741385 0.339968
O O18 0.262416 0.000000 0.161265
O O19 0.500000 0.742804 0.500000
O O20 0.458518 0.000000 0.519259
O O21 0.086785 0.500000 0.226252
O O22 0.000000 0.236192 0.000000
#
# Coordination Sequence:
#
# PCOD8067139 Si02
#       8
#     4   4   4   4   4   4   4   4
#     4  11  23  38  56  82 121 164 200 240 296 359
#     4  10  22  40  64  90 119 156 199 250 303 354
#     4  11  21  35  60  89 115 152 199 248 300 353
#     4  11  22  37  61  90 121 157 200 253 304 356
#     4  11  23  40  62  88 122 158 197 249 301 361
#     4   9  19  36  56  87 124 153 192 247 300 353
#     4   9  17  31  55  84 115 153 193 237 293 353
#     4  10  23  42  62  85 118 162 202 245 304 366
#
# _framework density 20.978621
#
# number of rings (size 3 to 8) (size 9 to 14) (size 15 to 20)
#    0.000    1.750    1.250    3.000    1.750    5.000 
#    0.000    1.250    0.000    8.250    0.000    0.000 
#    0.000    0.000    0.000    0.000    0.000    0.000 
#
# Total GULP energy -396908.632527 kJ/mol
# GULP energy per Si atom -12403.394766 kJ/mol
# Density = 2.093087 g / cm^3
# Si number density = 20.978621 Si / 1000 Ang^3
#
#
#
# Elastic Constant Matrix: (Units=GPa)
#
#
# Indices 1 2 3 4 5 6 
#
# 1 141.6379 8.7309 64.0150 0.0000 -1.7033 0.0000
# 2 8.7309 23.3520 16.9507 0.0000 -1.1168 0.0000
# 3 64.0150 16.9507 147.4303 0.0000 8.5581 0.0000
# 4 0.0000 0.0000 0.0000 12.0883 0.0000 4.2105
# 5 -1.7033 -1.1168 8.5581 0.0000 40.8129 0.0000
# 6 0.0000 0.0000 0.0000 4.2105 0.0000 25.0009
#
#
#
# Elastic Compliance Matrix: (Units=1/GPa)
#
#
# Indices 1 2 3 4 5 6 
#
# 1 0.008845 -0.000452 -0.003856 0.000000 0.001165 0.000000
# 2 -0.000452 0.046985 -0.005344 0.000000 0.002387 0.000000
# 3 -0.003856 -0.005344 0.009202 0.000000 -0.002237 0.000000
# 4 0.000000 0.000000 0.000000 0.087880 0.000000 -0.014800
# 5 0.001165 0.002387 -0.002237 0.000000 0.025085 0.000000
# 6 0.000000 0.000000 0.000000 -0.014800 0.000000 0.042491
#
#
# Mechanical properties :
#
#
# Convention : Reuss Voigt Hill
#
# Bulk Modulus (GPa) = 21.86914 54.64593 38.25753
# Shear Modulus (GPa) = 19.60510 30.42865 25.01688
#
# Velocity S-wave (km/s) = 3.06032 3.81262 3.45700
# Velocity P-wave (km/s) = 4.78900 6.74436 5.84897
#
# Compressibility (1/GPa) = 0.04572655
#
# Stress axis : x y z
#
# Youngs Moduli (GPa) = 113.05808 21.28319 108.67724
#
# Poissons Ratio (x) = 0.00962 0.41908
# Poissons Ratio (y) = 0.05112 0.58081
# Poissons Ratio (z) = 0.43598 0.11375
#
# Static dielectric constant tensor:
#      x y z
#    x 3.850000 0.000000 0.029460 
#    y 0.000000 3.330130 0.000000 
#    z 0.029460 0.000000 4.120210 
# 
# 
# High freq. dielectric constant tensor:
#      x y z
#    x 1.832540 0.000000 0.001930 
#    y 0.000000 1.787230 0.000000 
#    z 0.001930 0.000000 1.833770 
# 
# From -- ./inp_files/58225.got.cif
#   From: 2010.06.25/outbox.cif.g09.slc.cpg/sg10_30_cif.got.tgz:58225.got - 2010.06.27 22:07:45.
