data_PCOD8067480
_publ_section_title
;
Structure prediction by ZEFSAII (Michael W. Deem and Ramdas Pophale) SiO2 
 PCOD8067480
Probable space group: P 2/M
;
_chemical_formula_sum "Si O2"
_cell_formula_units_Z 24
_cell_length_a 11.016462
_cell_length_b 10.903133
_cell_length_c 14.564881
_cell_angle_alpha 90.000000
_cell_angle_beta 137.769591
_cell_angle_gamma 90.000000
_cell_volume 1175.826159
_symmetry_space_group_name_H-M "P 2/M"
_symmetry_group_IT_number 10
_symmetry_cell_setting 'monoclinic'
loop_
_space_group_symop_operation_xyz
x,y,z
-x,y,-z
-x,-y,-z
x,-y,z
loop_
_atom_site_type_symbol
_atom_site_label
_atom_site_fract_x
_atom_site_fract_y
_atom_site_fract_z
Si Si1 0.552545 0.241183 0.293755
Si Si2 0.846560 0.860208 0.348351
Si Si3 0.049137 0.752422 0.777755
Si Si4 0.933288 0.500000 0.313565
Si Si5 0.828100 0.144649 0.967201
Si Si6 0.319705 0.142615 0.449290
Si Si7 0.704355 0.500000 0.368033
O O1 0.653692 0.204977 0.255981
O O2 0.662614 0.167941 0.433173
O O3 0.572454 0.386667 0.315858
O O4 0.346322 0.197971 0.181992
O O5 0.000000 0.797050 0.500000
O O6 0.897852 0.849106 0.271139
O O7 0.827224 0.000000 0.365908
O O8 0.838763 0.774845 0.682631
O O9 0.091192 0.616273 0.766306
O O10 0.161436 0.781499 0.931777
O O11 0.779245 0.500000 0.305643
O O12 0.130164 0.500000 0.468611
O O13 0.806735 0.000000 0.973755
O O14 0.000000 0.171707 0.000000
O O15 0.500000 0.186293 0.500000
O O16 0.278107 0.000000 0.407174
#
# Coordination Sequence:
#
# PCOD8067480 Si02
#       7
#     4   4   4   2   4   4   2
#     4  12  23  41  66  98 130 176 224 268 331 396
#     4  11  20  34  62  99 132 161 213 286 343 390
#     4  12  23  41  66  98 130 176 224 268 331 396
#     4  11  22  43  68  97 137 179 215 270 333 398
#     4  11  26  48  69  94 136 182 222 273 334 395
#     4  11  22  38  63  94 128 170 224 283 334 383
#     4  11  22  43  68  97 137 179 215 270 333 398
#
# _framework density 20.411180000000002
#
# number of rings (size 3 to 8) (size 9 to 14) (size 15 to 20)
#    0.000    0.667    5.000    4.000    0.000    4.000 
#    0.000    7.500    0.000    0.000    0.000    0.000 
#    0.000    0.000    0.000    0.000    0.000    0.000 
#
# Total GULP energy -297702.655485 kJ/mol
# GULP energy per Si atom -12404.277312 kJ/mol
# Density = 2.036472 g / cm^3
# Si number density = 20.411180 Si / 1000 Ang^3
#
#
#
# Elastic Constant Matrix: (Units=GPa)
#
#
# Indices 1 2 3 4 5 6 
#
# 1 76.1523 26.4562 7.5731 0.0000 9.0105 0.0000
# 2 26.4562 110.6244 25.8678 0.0000 3.3781 0.0000
# 3 7.5731 25.8678 69.8414 0.0000 2.3281 0.0000
# 4 0.0000 0.0000 0.0000 29.9545 0.0000 4.0874
# 5 9.0105 3.3781 2.3281 0.0000 38.6952 0.0000
# 6 0.0000 0.0000 0.0000 4.0874 0.0000 27.3515
#
#
#
# Elastic Compliance Matrix: (Units=1/GPa)
#
#
# Indices 1 2 3 4 5 6 
#
# 1 0.014692 -0.003361 -0.000244 0.000000 -0.003113 0.000000
# 2 -0.003361 0.010682 -0.003594 0.000000 0.000066 0.000000
# 3 -0.000244 -0.003594 0.015695 0.000000 -0.000574 0.000000
# 4 0.000000 0.000000 0.000000 0.034079 0.000000 -0.005093
# 5 -0.003113 0.000066 -0.000574 0.000000 0.026597 0.000000
# 6 0.000000 0.000000 0.000000 -0.005093 0.000000 0.037322
#
#
# Mechanical properties :
#
#
# Convention : Reuss Voigt Hill
#
# Bulk Modulus (GPa) = 37.49649 41.82358 39.66003
# Shear Modulus (GPa) = 30.79656 32.31498 31.55577
#
# Velocity S-wave (km/s) = 3.88855 3.98326 3.93619
# Velocity P-wave (km/s) = 6.21060 6.45679 6.33489
#
# Compressibility (1/GPa) = 0.02666916
#
# Stress axis : x y z
#
# Youngs Moduli (GPa) = 68.06416 93.61641 63.71483
#
# Poissons Ratio (x) = 0.31469 0.01557
# Poissons Ratio (y) = 0.22879 0.22900
# Poissons Ratio (z) = 0.01663 0.33646
#
# Static dielectric constant tensor:
#      x y z
#    x 3.787900 0.000000 0.071890 
#    y 0.000000 3.664130 0.000000 
#    z 0.071890 0.000000 3.588640 
# 
# 
# High freq. dielectric constant tensor:
#      x y z
#    x 1.808160 0.000000 0.002460 
#    y 0.000000 1.798100 0.000000 
#    z 0.002460 0.000000 1.781150 
# 
# From -- ./inp_files/64505.got.cif
#   From: 2010.06.25/outbox.cif.g09.slc.cpg/sg10_33_cif.got.tgz:64505.got - 2010.06.27 22:07:45.
