data_PCOD8067682
_publ_section_title
;
Structure prediction by ZEFSAII (Michael W. Deem and Ramdas Pophale) SiO2 
 PCOD8067682
Probable space group: P 2/M
;
_chemical_formula_sum "Si O2"
_cell_formula_units_Z 18
_cell_length_a 5.164295
_cell_length_b 16.831393
_cell_length_c 10.055354
_cell_angle_alpha 90.000000
_cell_angle_beta 78.694348
_cell_angle_gamma 90.000000
_cell_volume 857.073931
_symmetry_space_group_name_H-M "P 2/M"
_symmetry_group_IT_number 10
_symmetry_cell_setting 'monoclinic'
loop_
_space_group_symop_operation_xyz
x,y,z
-x,y,-z
-x,-y,-z
x,-y,z
loop_
_atom_site_type_symbol
_atom_site_label
_atom_site_fract_x
_atom_site_fract_y
_atom_site_fract_z
Si Si1 0.305878 0.500000 0.856780
Si Si2 0.267804 0.333399 0.417803
Si Si3 0.294912 0.745829 0.144733
Si Si4 0.785740 0.085444 0.908697
Si Si5 0.000000 0.636559 0.000000
Si Si6 0.143273 0.500000 0.312891
O O1 0.619146 0.500000 0.815819
O O2 0.247344 0.419989 0.944293
O O3 0.137436 0.500000 0.735945
O O4 0.500000 0.330762 0.500000
O O5 0.390039 0.290555 0.274705
O O6 0.178012 0.423388 0.400599
O O7 0.000000 0.290254 0.500000
O O8 0.205132 0.836750 0.185955
O O9 0.048696 0.691914 0.123561
O O10 0.500000 0.743367 0.000000
O O11 0.844358 0.000000 0.829571
O O12 0.500000 0.079367 0.000000
O O13 0.000000 0.100153 0.000000
#
# Coordination Sequence:
#
# PCOD8067682 Si02
#       6
#     2   4   4   4   2   2
#     4  11  24  35  60  85 123 150 204 254 306 343
#     4  12  27  43  61  87 124 161 206 252 304 356
#     4  11  23  39  67  90 123 157 206 249 300 360
#     4   9  18  33  57  92 124 150 188 245 301 351
#     4  11  22  36  57  92 120 156 197 258 304 349
#     4  12  22  44  58  79 114 168 204 247 295 364
#
# _framework density 21.001688000000001
#
# number of rings (size 3 to 8) (size 9 to 14) (size 15 to 20)
#    0.000    1.111    3.333    3.333    3.111    0.889 
#    0.000    0.000    0.000    1.333    0.000    0.000 
#    0.000    0.000    0.000    0.000    0.000    0.000 
#
# Total GULP energy -223013.640381 kJ/mol
# GULP energy per Si atom -12389.646688 kJ/mol
# Density = 2.095389 g / cm^3
# Si number density = 21.001688 Si / 1000 Ang^3
#
#
#
# Elastic Constant Matrix: (Units=GPa)
#
#
# Indices 1 2 3 4 5 6 
#
# 1 90.7594 12.8980 31.4310 0.0000 15.8763 0.0000
# 2 12.8980 171.6966 53.3678 0.0000 17.6828 0.0000
# 3 31.4310 53.3678 107.6280 0.0000 16.2505 0.0000
# 4 0.0000 0.0000 0.0000 22.6554 0.0000 -4.8301
# 5 15.8763 17.6828 16.2505 0.0000 46.5558 0.0000
# 6 0.0000 0.0000 0.0000 -4.8301 0.0000 12.9185
#
#
#
# Elastic Compliance Matrix: (Units=1/GPa)
#
#
# Indices 1 2 3 4 5 6 
#
# 1 0.012725 0.000455 -0.003442 0.000000 -0.003311 0.000000
# 2 0.000455 0.007003 -0.003357 0.000000 -0.001643 0.000000
# 3 -0.003442 -0.003357 0.012236 0.000000 -0.001822 0.000000
# 4 0.000000 0.000000 0.000000 0.047963 0.000000 0.017933
# 5 -0.003311 -0.001643 -0.001822 0.000000 0.023869 0.000000
# 6 0.000000 0.000000 0.000000 0.017933 0.000000 0.084114
#
#
# Mechanical properties :
#
#
# Convention : Reuss Voigt Hill
#
# Bulk Modulus (GPa) = 51.87905 62.83084 57.35494
# Shear Modulus (GPa) = 24.15208 34.58508 29.36858
#
# Velocity S-wave (km/s) = 3.39485 4.06245 3.74356
# Velocity P-wave (km/s) = 6.33424 7.21018 6.78636
#
# Compressibility (1/GPa) = 0.01927560
#
# Stress axis : x y z
#
# Youngs Moduli (GPa) = 78.58840 142.80111 81.72529
#
# Poissons Ratio (x) = -0.06495 0.28127
# Poissons Ratio (y) = -0.03575 0.27436
# Poissons Ratio (z) = 0.27047 0.47940
#
# Static dielectric constant tensor:
#      x y z
#    x 3.850600 0.000000 -0.048210 
#    y 0.000000 4.562240 0.000000 
#    z -0.048210 0.000000 3.652170 
# 
# 
# High freq. dielectric constant tensor:
#      x y z
#    x 1.837870 0.000000 0.007290 
#    y 0.000000 1.827760 0.000000 
#    z 0.007290 0.000000 1.786350 
# 
# From -- ./inp_files/7334.got.cif
#   From: 2010.06.25/outbox.cif.g09.slc.cpg/sg10_4_cif.got.tgz:7334.got - 2010.06.27 22:07:45.
