data_PCOD8067390
_publ_section_title
;
Structure prediction by ZEFSAII (Michael W. Deem and Ramdas Pophale) SiO2 
 PCOD8067390
Probable space group: P 2/M
;
_chemical_formula_sum "Si O2"
_cell_formula_units_Z 32
_cell_length_a 23.045580
_cell_length_b 8.812555
_cell_length_c 15.122907
_cell_angle_alpha 90.000000
_cell_angle_beta 140.922421
_cell_angle_gamma 90.000000
_cell_volume 1936.073014
_symmetry_space_group_name_H-M "P 2/M"
_symmetry_group_IT_number 10
_symmetry_cell_setting 'monoclinic'
loop_
_space_group_symop_operation_xyz
x,y,z
-x,y,-z
-x,-y,-z
x,-y,z
loop_
_atom_site_type_symbol
_atom_site_label
_atom_site_fract_x
_atom_site_fract_y
_atom_site_fract_z
Si Si1 0.122232 0.823775 0.561845
Si Si2 0.413840 0.178375 0.705211
Si Si3 0.573985 0.320001 0.462538
Si Si4 0.619292 0.178721 0.001202
Si Si5 0.375656 0.678974 0.289111
Si Si6 0.248820 0.678591 0.985946
Si Si7 0.080729 0.824722 0.714649
Si Si8 0.308934 0.678258 0.739250
O O1 0.110907 0.784594 0.651187
O O2 0.201379 0.720083 0.614959
O O3 0.026744 0.785409 0.398628
O O4 0.147957 0.000000 0.580194
O O5 0.386619 0.229511 0.574362
O O6 0.518777 0.226449 0.848877
O O7 0.346884 0.268329 0.690467
O O8 0.398516 0.000000 0.699075
O O9 0.578886 0.500000 0.450584
O O10 0.634008 0.270456 0.619860
O O11 0.469976 0.261935 0.356739
O O12 0.632625 0.000000 0.018622
O O13 0.696514 0.247278 0.029739
O O14 0.632662 0.239911 0.115628
O O15 0.382898 0.500000 0.297312
O O16 0.289891 0.736145 0.128553
O O17 0.258700 0.500000 0.988446
O O18 0.142028 0.726818 0.855001
O O19 0.098753 0.000000 0.755891
O O20 0.320978 0.500000 0.764462
#
# Coordination Sequence:
#
# PCOD8067390 Si02
#       8
#     4   4   4   4   4   4   4   4
#     4   9  18  34  52  70  97 131 164 200 245 296
#     4  11  23  36  50  70  98 134 171 208 246 287
#     4   9  16  32  52  70  96 131 168 204 242 291
#     4  11  22  35  48  67 100 137 170 203 241 286
#     4   8  16  29  49  73 100 131 161 200 251 292
#     4  11  19  29  49  77 103 131 166 203 243 290
#     4   9  18  32  51  72  98 133 163 195 248 298
#     4  12  24  35  51  73  96 129 171 210 245 288
#
# _framework density 16.528303000000001
#
# number of rings (size 3 to 8) (size 9 to 14) (size 15 to 20)
#    0.000    2.000    2.500    4.125    0.000    3.500 
#    0.000    3.750    0.000    0.000    0.000    0.875 
#    0.000    7.000    0.000    0.000    0.000    0.000 
#
# Total GULP energy -396781.854987 kJ/mol
# GULP energy per Si atom -12399.432968 kJ/mol
# Density = 1.649068 g / cm^3
# Si number density = 16.528303 Si / 1000 Ang^3
#
#
#
# Elastic Constant Matrix: (Units=GPa)
#
#
# Indices 1 2 3 4 5 6 
#
# 1 64.0337 20.3141 42.6185 0.0000 -10.9049 0.0000
# 2 20.3141 50.6511 32.8424 0.0000 1.0078 0.0000
# 3 42.6185 32.8424 104.7463 0.0000 -12.5911 0.0000
# 4 0.0000 0.0000 0.0000 19.8676 0.0000 4.7661
# 5 -10.9049 1.0078 -12.5911 0.0000 24.4936 0.0000
# 6 0.0000 0.0000 0.0000 4.7661 0.0000 16.7774
#
#
#
# Elastic Compliance Matrix: (Units=1/GPa)
#
#
# Indices 1 2 3 4 5 6 
#
# 1 0.022974 -0.004794 -0.007025 0.000000 0.006814 0.000000
# 2 -0.004794 0.026456 -0.007175 0.000000 -0.006911 0.000000
# 3 -0.007025 -0.007175 0.015257 0.000000 0.005011 0.000000
# 4 0.000000 0.000000 0.000000 0.054014 0.000000 -0.015344
# 5 0.006814 -0.006911 0.005011 0.000000 0.046721 0.000000
# 6 0.000000 0.000000 0.000000 -0.015344 0.000000 0.063963
#
#
# Mechanical properties :
#
#
# Convention : Reuss Voigt Hill
#
# Bulk Modulus (GPa) = 37.45652 45.66456 41.56054
# Shear Modulus (GPa) = 18.09803 20.47146 19.28474
#
# Velocity S-wave (km/s) = 3.31263 3.52315 3.41951
# Velocity P-wave (km/s) = 6.11086 6.65118 6.38673
#
# Compressibility (1/GPa) = 0.02669762
#
# Stress axis : x y z
#
# Youngs Moduli (GPa) = 43.52769 37.79919 65.54288
#
# Poissons Ratio (x) = 0.18122 0.46045
# Poissons Ratio (y) = 0.20869 0.47027
# Poissons Ratio (z) = 0.30579 0.27121
#
# Static dielectric constant tensor:
#      x y z
#    x 2.957590 0.000000 -0.066300 
#    y 0.000000 3.002160 0.000000 
#    z -0.066300 0.000000 3.450860 
# 
# 
# High freq. dielectric constant tensor:
#      x y z
#    x 1.608940 0.000000 -0.003880 
#    y 0.000000 1.632490 0.000000 
#    z -0.003880 0.000000 1.636960 
# 
# From -- ./inp_files/66097.got.cif
#   From: 2010.06.25/outbox.cif.g09.slc.cpg/sg10_34_cif.got.tgz:66097.got - 2010.06.27 22:07:45.
