data_PCOD8067508
_publ_section_title
;
Structure prediction by ZEFSAII (Michael W. Deem and Ramdas Pophale) SiO2 
 PCOD8067508
Probable space group: P 2/M
;
_chemical_formula_sum "Si O2"
_cell_formula_units_Z 32
_cell_length_a 22.296332
_cell_length_b 9.008691
_cell_length_c 18.426394
_cell_angle_alpha 90.000000
_cell_angle_beta 35.063426
_cell_angle_gamma 90.000000
_cell_volume 2126.241338
_symmetry_space_group_name_H-M "P 2/M"
_symmetry_group_IT_number 10
_symmetry_cell_setting 'monoclinic'
loop_
_space_group_symop_operation_xyz
x,y,z
-x,y,-z
-x,-y,-z
x,-y,z
loop_
_atom_site_type_symbol
_atom_site_label
_atom_site_fract_x
_atom_site_fract_y
_atom_site_fract_z
Si Si1 0.809666 0.825188 0.350892
Si Si2 0.983337 0.670790 0.596399
Si Si3 0.096682 0.829333 0.198801
Si Si4 0.373968 0.329564 0.545022
Si Si5 0.612057 0.330276 0.300533
Si Si6 0.897121 0.329975 0.386953
Si Si7 0.005464 0.672423 0.080245
Si Si8 0.203344 0.829218 0.952168
O O1 0.700666 0.782376 0.422829
O O2 0.805734 0.763793 0.438520
O O3 0.905683 0.752650 0.213440
O O4 0.823058 0.000000 0.337733
O O5 0.948379 0.500000 0.624328
O O6 0.891318 0.757569 0.731924
O O7 0.000000 0.740155 0.500000
O O8 0.092168 0.685942 0.535398
O O9 0.004591 0.739711 0.247956
O O10 0.063934 0.000000 0.241069
O O11 0.195844 0.811896 0.047755
O O12 0.342637 0.500000 0.560160
O O13 0.491437 0.298204 0.402092
O O14 0.363838 0.295615 0.639892
O O15 0.639756 0.500000 0.255459
O O16 0.681649 0.225237 0.181663
O O17 0.885612 0.500000 0.375134
O O18 0.000684 0.500000 0.106250
O O19 0.000000 0.695918 0.000000
O O20 0.115499 0.737712 0.997370
O O21 0.189567 0.000000 0.943392
#
# Coordination Sequence:
#
# PCOD8067508 Si02
#       8
#     4   4   4   4   4   4   4   4
#     4  12  22  31  45  66  91 117 148 188 230 275
#     4   8  15  27  43  64  90 122 156 184 213 257
#     4   9  17  28  41  63  91 120 148 178 217 262
#     4   9  19  36  52  66  84 113 153 197 238 279
#     4   9  19  35  53  67  83 112 155 197 235 281
#     4   9  17  29  45  62  87 122 149 179 216 259
#     4  11  22  32  43  60  83 115 152 184 221 273
#     4  11  21  31  45  65  92 118 146 187 230 272
#
# _framework density 15.050031000000001
#
# number of rings (size 3 to 8) (size 9 to 14) (size 15 to 20)
#    0.750    1.500    1.250    3.750    0.000    6.750 
#    0.000    1.250    0.000    0.000    0.000    0.000 
#    0.000    1.000    0.000   11.250    0.000    5.625 
#
# Total GULP energy -396458.057733 kJ/mol
# GULP energy per Si atom -12389.314304 kJ/mol
# Density = 1.501578 g / cm^3
# Si number density = 15.050031 Si / 1000 Ang^3
#
#
#
# Elastic Constant Matrix: (Units=GPa)
#
#
# Indices 1 2 3 4 5 6 
#
# 1 73.2164 47.0848 43.5830 0.0000 9.5605 0.0000
# 2 47.0848 107.5085 45.7341 0.0000 7.7354 0.0000
# 3 43.5830 45.7341 75.5396 0.0000 7.2816 0.0000
# 4 0.0000 0.0000 0.0000 22.0637 0.0000 0.2237
# 5 9.5605 7.7354 7.2816 0.0000 19.2643 0.0000
# 6 0.0000 0.0000 0.0000 0.2237 0.0000 18.2561
#
#
#
# Elastic Compliance Matrix: (Units=1/GPa)
#
#
# Indices 1 2 3 4 5 6 
#
# 1 0.024035 -0.005988 -0.009676 0.000000 -0.005866 0.000000
# 2 -0.005988 0.014114 -0.005013 0.000000 -0.000801 0.000000
# 3 -0.009676 -0.005013 0.022001 0.000000 -0.001501 0.000000
# 4 0.000000 0.000000 0.000000 0.045329 0.000000 -0.000555
# 5 -0.005866 -0.000801 -0.001501 0.000000 0.055710 0.000000
# 6 0.000000 0.000000 0.000000 -0.000555 0.000000 0.054783
#
#
# Mechanical properties :
#
#
# Convention : Reuss Voigt Hill
#
# Bulk Modulus (GPa) = 53.20601 58.78537 55.99569
# Shear Modulus (GPa) = 18.96873 19.90765 19.43819
#
# Velocity S-wave (km/s) = 3.55403 3.64093 3.59774
# Velocity P-wave (km/s) = 7.22987 7.53790 7.38549
#
# Compressibility (1/GPa) = 0.01879487
#
# Stress axis : x y z
#
# Youngs Moduli (GPa) = 41.60621 70.84956 45.45307
#
# Poissons Ratio (x) = 0.42425 0.43981
# Poissons Ratio (y) = 0.24914 0.22787
# Poissons Ratio (z) = 0.40259 0.35519
#
# Static dielectric constant tensor:
#      x y z
#    x 2.880450 0.000000 0.106490 
#    y 0.000000 2.959850 0.000000 
#    z 0.106490 0.000000 2.713590 
# 
# 
# High freq. dielectric constant tensor:
#      x y z
#    x 1.559080 0.000000 0.010060 
#    y 0.000000 1.589830 0.000000 
#    z 0.010060 0.000000 1.546350 
# 
# From -- ./inp_files/86405.got.cif
#   From: 2010.06.25/outbox.cif.g09.slc.cpg/sg10_44_cif.got.tgz:86405.got - 2010.06.27 22:07:45.
