data_PCOD8067602
_publ_section_title
;
Structure prediction by ZEFSAII (Michael W. Deem and Ramdas Pophale) SiO2 
 PCOD8067602
Probable space group: P 2/M
;
_chemical_formula_sum "Si O2"
_cell_formula_units_Z 24
_cell_length_a 11.933887
_cell_length_b 7.552150
_cell_length_c 18.346472
_cell_angle_alpha 90.000000
_cell_angle_beta 49.422711
_cell_angle_gamma 90.000000
_cell_volume 1255.884115
_symmetry_space_group_name_H-M "P 2/M"
_symmetry_group_IT_number 10
_symmetry_cell_setting 'monoclinic'
loop_
_space_group_symop_operation_xyz
x,y,z
-x,y,-z
-x,-y,-z
x,-y,z
loop_
_atom_site_type_symbol
_atom_site_label
_atom_site_fract_x
_atom_site_fract_y
_atom_site_fract_z
Si Si1 0.519481 0.290611 0.107151
Si Si2 0.521767 0.500000 0.610601
Si Si3 0.429083 0.798799 0.297379
Si Si4 0.742969 0.500000 0.389401
Si Si5 0.892913 0.789899 0.607085
Si Si6 0.266218 0.290611 0.107151
Si Si7 0.023839 0.201202 0.702621
O O1 0.516170 0.500000 0.115692
O O2 0.532290 0.205661 0.181915
O O3 0.370942 0.224122 0.129059
O O4 0.661668 0.230203 1.000000
O O5 0.509597 0.676216 0.664517
O O6 0.672764 0.500000 0.500001
O O7 0.382558 0.500000 0.617441
O O8 0.270766 0.720248 0.340038
O O9 0.419953 0.000000 0.330918
O O10 0.838631 0.323784 0.335486
O O11 0.000000 0.712657 0.500000
O O12 0.950834 0.720251 0.659965
O O13 0.892560 0.000000 0.607437
O O14 0.252446 0.500000 0.115691
O O15 0.103880 0.205664 0.181915
O O16 0.081787 0.000000 0.669082
#
# Coordination Sequence:
#
# PCOD8067602 Si02
#       7
#     4   2   4   2   4   4   4
#     4   9  17  31  54  87 126 162 193 226 275 347
#     4  11  26  45  62  81 108 151 205 250 290 338
#     4  11  21  36  60  88 119 152 188 236 290 348
#     4  11  26  45  62  81 108 151 205 250 290 338
#     4   9  18  31  50  83 119 148 180 223 285 353
#     4   9  17  31  54  87 126 162 193 226 275 347
#     4  11  21  36  60  88 119 152 188 236 290 348
#
# _framework density 19.110042
#
# number of rings (size 3 to 8) (size 9 to 14) (size 15 to 20)
#    0.000    2.000    3.333    2.000    0.000    4.000 
#    0.000    5.000    0.000    2.000    0.000    2.333 
#    0.000    0.000    0.000    0.000    0.000    0.000 
#
# Total GULP energy -297599.520531 kJ/mol
# GULP energy per Si atom -12399.980022 kJ/mol
# Density = 1.906655 g / cm^3
# Si number density = 19.110042 Si / 1000 Ang^3
#
#
#
# Elastic Constant Matrix: (Units=GPa)
#
#
# Indices 1 2 3 4 5 6 
#
# 1 74.2752 35.0477 45.4878 0.0000 -0.3368 0.0000
# 2 35.0477 87.9862 30.1280 0.0000 0.0766 0.0000
# 3 45.4878 30.1280 140.4803 0.0000 -0.6848 0.0000
# 4 0.0000 0.0000 0.0000 20.6517 0.0000 -0.0907
# 5 -0.3368 0.0766 -0.6848 0.0000 25.3482 0.0000
# 6 0.0000 0.0000 0.0000 -0.0907 0.0000 14.8116
#
#
#
# Elastic Compliance Matrix: (Units=1/GPa)
#
#
# Indices 1 2 3 4 5 6 
#
# 1 0.019343 -0.006001 -0.004976 0.000000 0.000141 0.000000
# 2 -0.006001 0.014128 -0.001088 0.000000 -0.000152 0.000000
# 3 -0.004976 -0.001088 0.008964 0.000000 0.000179 0.000000
# 4 0.000000 0.000000 0.000000 0.048424 0.000000 0.000296
# 5 0.000141 -0.000152 0.000179 0.000000 0.039458 0.000000
# 6 0.000000 0.000000 0.000000 0.000296 0.000000 0.067517
#
#
# Mechanical properties :
#
#
# Convention : Reuss Voigt Hill
#
# Bulk Modulus (GPa) = 54.62611 58.22984 56.42798
# Shear Modulus (GPa) = 21.92367 24.96749 23.44558
#
# Velocity S-wave (km/s) = 3.39076 3.61849 3.50647
# Velocity P-wave (km/s) = 6.63150 6.92784 6.78129
#
# Compressibility (1/GPa) = 0.01830626
#
# Stress axis : x y z
#
# Youngs Moduli (GPa) = 51.69817 70.77903 111.56170
#
# Poissons Ratio (x) = 0.42477 0.55508
# Poissons Ratio (y) = 0.31026 0.12133
# Poissons Ratio (z) = 0.25723 0.07698
#
# Static dielectric constant tensor:
#      x y z
#    x 3.100350 0.000000 -0.011400 
#    y 0.000000 3.294720 0.000000 
#    z -0.011400 0.000000 3.837000 
# 
# 
# High freq. dielectric constant tensor:
#      x y z
#    x 1.690040 0.000000 -0.001090 
#    y 0.000000 1.743510 0.000000 
#    z -0.001090 0.000000 1.760700 
# 
# From -- ./inp_files/51497.got.cif
#   From: 2010.06.25/outbox.cif.g09.slc.cpg/sg10_26_cif.got.tgz:51497.got - 2010.06.27 22:07:45.
