data_PCOD8067514
_publ_section_title
;
Structure prediction by ZEFSAII (Michael W. Deem and Ramdas Pophale) SiO2 
 PCOD8067514
Probable space group: P 2/M
;
_chemical_formula_sum "Si O2"
_cell_formula_units_Z 28
_cell_length_a 18.614365
_cell_length_b 9.082136
_cell_length_c 15.087357
_cell_angle_alpha 90.000000
_cell_angle_beta 141.198924
_cell_angle_gamma 90.000000
_cell_volume 1598.278912
_symmetry_space_group_name_H-M "P 2/M"
_symmetry_group_IT_number 10
_symmetry_cell_setting 'monoclinic'
loop_
_space_group_symop_operation_xyz
x,y,z
-x,y,-z
-x,-y,-z
x,-y,z
loop_
_atom_site_type_symbol
_atom_site_label
_atom_site_fract_x
_atom_site_fract_y
_atom_site_fract_z
Si Si1 0.737816 0.326463 0.084984
Si Si2 0.363844 0.165236 0.370371
Si Si3 0.372784 0.332012 0.550704
Si Si4 0.635142 0.328323 0.802494
Si Si5 0.866701 0.169595 0.354038
Si Si6 0.482107 0.159132 0.081184
Si Si7 0.706990 0.670053 0.339270
O O1 0.746926 0.500000 0.108954
O O2 0.844153 0.248460 0.237329
O O3 0.723110 0.287693 0.966731
O O4 0.628231 0.261956 0.028111
O O5 0.500000 0.172935 0.500000
O O6 0.320243 0.240646 0.418605
O O7 0.316805 0.246532 0.237932
O O8 0.316759 0.000000 0.323680
O O9 0.382176 0.500000 0.528528
O O10 0.504071 0.279608 0.701878
O O11 0.280094 0.316578 0.541379
O O12 0.638691 0.500000 0.785934
O O13 0.802684 0.244296 0.375829
O O14 0.000000 0.183943 0.500000
O O15 0.826852 0.000000 0.309973
O O16 0.583388 0.260405 0.211134
O O17 0.470626 0.000000 0.122696
O O18 0.500000 0.108393 0.000000
O O19 0.707643 0.500000 0.309313
#
# Coordination Sequence:
#
# PCOD8067514 Si02
#       7
#     4   4   4   4   4   4   4
#     4  11  21  34  54  77 101 133 176 215 252 301
#     4   9  17  27  41  67 100 137 174 203 237 291
#     4   9  17  30  46  69 102 137 168 203 249 296
#     4   9  17  30  46  69 102 137 168 203 249 296
#     4  11  25  42  55  72 101 135 171 213 264 313
#     4  11  21  31  47  74 106 137 166 202 259 309
#     4  11  21  34  54  77 101 133 176 215 252 301
#
# _framework density 17.518844999999999
#
# number of rings (size 3 to 8) (size 9 to 14) (size 15 to 20)
#    0.000    1.857    2.857    2.143    0.000    5.714 
#    0.000    0.000    0.000    0.000    0.000    1.000 
#    0.000    8.000    0.000    0.000    0.000    0.000 
#
# Total GULP energy -346937.376358 kJ/mol
# GULP energy per Si atom -12390.620584 kJ/mol
# Density = 1.747897 g / cm^3
# Si number density = 17.518845 Si / 1000 Ang^3
#
#
#
# Elastic Constant Matrix: (Units=GPa)
#
#
# Indices 1 2 3 4 5 6 
#
# 1 53.4410 43.2495 42.9998 0.0000 -25.2611 0.0000
# 2 43.2495 120.8982 56.9395 0.0000 -19.3971 0.0000
# 3 42.9998 56.9395 83.8548 0.0000 -21.1243 0.0000
# 4 0.0000 0.0000 0.0000 25.0987 0.0000 0.7255
# 5 -25.2611 -19.3971 -21.1243 0.0000 28.5639 0.0000
# 6 0.0000 0.0000 0.0000 0.7255 0.0000 7.4715
#
#
#
# Elastic Compliance Matrix: (Units=1/GPa)
#
#
# Indices 1 2 3 4 5 6 
#
# 1 0.047697 -0.006416 -0.012994 0.000000 0.028215 0.000000
# 2 -0.006416 0.013188 -0.005946 0.000000 -0.001116 0.000000
# 3 -0.012994 -0.005946 0.022999 0.000000 0.001479 0.000000
# 4 0.000000 0.000000 0.000000 0.039955 0.000000 -0.003880
# 5 0.028215 -0.001116 0.001479 0.000000 0.060298 0.000000
# 6 0.000000 0.000000 0.000000 -0.003880 0.000000 0.134218
#
#
# Mechanical properties :
#
#
# Convention : Reuss Voigt Hill
#
# Bulk Modulus (GPa) = 30.14623 60.50795 45.32709
# Shear Modulus (GPa) = 13.15358 19.89385 16.52371
#
# Velocity S-wave (km/s) = 2.74309 3.37348 3.07448
# Velocity P-wave (km/s) = 5.22283 7.05603 6.20748
#
# Compressibility (1/GPa) = 0.03317164
#
# Stress axis : x y z
#
# Youngs Moduli (GPa) = 20.96556 75.82608 43.48097
#
# Poissons Ratio (x) = 0.48653 0.56498
# Poissons Ratio (y) = 0.13452 0.25854
# Poissons Ratio (z) = 0.27242 0.45086
#
# Static dielectric constant tensor:
#      x y z
#    x 3.083120 0.000000 -0.386190 
#    y 0.000000 3.447800 0.000000 
#    z -0.386190 0.000000 3.172250 
# 
# 
# High freq. dielectric constant tensor:
#      x y z
#    x 1.651490 0.000000 -0.038550 
#    y 0.000000 1.698200 0.000000 
#    z -0.038550 0.000000 1.646440 
# 
# From -- ./inp_files/68667.got.cif
#   From: 2010.06.25/outbox.cif.g09.slc.cpg/sg10_35_cif.got.tgz:68667.got - 2010.06.27 22:07:45.
