data_PCOD8067208
_publ_section_title
;
Structure prediction by ZEFSAII (Michael W. Deem and Ramdas Pophale) SiO2 
 PCOD8067208
Probable space group: P 2/M
;
_chemical_formula_sum "Si O2"
_cell_formula_units_Z 24
_cell_length_a 21.347464
_cell_length_b 10.870340
_cell_length_c 14.919955
_cell_angle_alpha 90.000000
_cell_angle_beta 159.644481
_cell_angle_gamma 90.000000
_cell_volume 1204.319764
_symmetry_space_group_name_H-M "P 2/M"
_symmetry_group_IT_number 10
_symmetry_cell_setting 'monoclinic'
loop_
_space_group_symop_operation_xyz
x,y,z
-x,y,-z
-x,-y,-z
x,-y,z
loop_
_atom_site_type_symbol
_atom_site_label
_atom_site_fract_x
_atom_site_fract_y
_atom_site_fract_z
Si Si1 0.090596 0.000000 0.265577
Si Si2 0.517761 0.641932 0.201967
Si Si3 0.130848 0.743131 0.408074
Si Si4 0.138925 0.643236 0.608649
Si Si5 0.531645 0.746302 0.413141
Si Si6 0.280714 0.000000 0.329765
Si Si7 0.233466 0.359891 0.128129
O O1 0.146030 0.884692 0.400877
O O2 0.204229 0.000000 0.327273
O O3 0.879216 0.000000 0.957915
O O4 0.513986 0.500000 0.226002
O O5 0.686014 0.669592 0.364392
O O6 0.531555 0.725993 0.307680
O O7 0.339135 0.676638 0.908400
O O8 0.088179 0.727878 0.455975
O O9 0.971838 0.682306 0.136579
O O10 0.121160 0.500000 0.557988
O O11 0.000000 0.677842 0.500000
O O12 0.592777 0.883748 0.517229
O O13 0.672090 0.652889 0.648497
O O14 0.333522 0.724198 0.188196
O O15 0.243266 0.500000 0.108607
#
# Coordination Sequence:
#
# PCOD8067208 Si02
#       7
#     2   4   4   4   4   2   4
#     4  11  24  43  63  92 130 170 218 269 310 367
#     4  11  22  38  63  95 127 165 212 263 320 384
#     4  12  23  41  64  93 125 171 213 264 317 377
#     4  10  22  42  67  94 128 166 206 262 328 387
#     4  11  22  39  62  90 128 169 215 256 318 375
#     4  11  22  44  64  88 130 178 220 258 309 376
#     4  11  23  38  60  96 134 162 204 271 328 380
#
# _framework density 19.928260999999999
#
# number of rings (size 3 to 8) (size 9 to 14) (size 15 to 20)
#    0.000    1.000    3.333    5.000    0.000    5.333 
#    0.000    4.583    0.000    0.000    0.000    0.000 
#    0.000    0.000    0.000    0.000    0.000    0.000 
#
# Total GULP energy -297751.465334 kJ/mol
# GULP energy per Si atom -12406.311056 kJ/mol
# Density = 1.988290 g / cm^3
# Si number density = 19.928261 Si / 1000 Ang^3
#
#
#
# Elastic Constant Matrix: (Units=GPa)
#
#
# Indices 1 2 3 4 5 6 
#
# 1 80.2870 20.5896 19.1663 0.0000 -7.7069 0.0000
# 2 20.5896 90.6951 29.6098 0.0000 10.5738 0.0000
# 3 19.1663 29.6098 107.2478 0.0000 12.6882 0.0000
# 4 0.0000 0.0000 0.0000 18.2549 0.0000 1.8489
# 5 -7.7069 10.5738 12.6882 0.0000 32.2894 0.0000
# 6 0.0000 0.0000 0.0000 1.8489 0.0000 30.0155
#
#
#
# Elastic Compliance Matrix: (Units=1/GPa)
#
#
# Indices 1 2 3 4 5 6 
#
# 1 0.014325 -0.003115 -0.002334 0.000000 0.005356 0.000000
# 2 -0.003115 0.013039 -0.002570 0.000000 -0.004003 0.000000
# 3 -0.002334 -0.002570 0.010925 0.000000 -0.004009 0.000000
# 4 0.000000 0.000000 0.000000 0.055124 0.000000 -0.003396
# 5 0.005356 -0.004003 -0.004009 0.000000 0.035134 0.000000
# 6 0.000000 0.000000 0.000000 -0.003396 0.000000 0.033525
#
#
# Mechanical properties :
#
#
# Convention : Reuss Voigt Hill
#
# Bulk Modulus (GPa) = 44.93803 46.32902 45.63352
# Shear Modulus (GPa) = 26.95034 30.03624 28.49329
#
# Velocity S-wave (km/s) = 3.68144 3.88650 3.78536
# Velocity P-wave (km/s) = 6.37727 6.59077 6.48490
#
# Compressibility (1/GPa) = 0.02225287
#
# Stress axis : x y z
#
# Youngs Moduli (GPa) = 69.80622 76.69478 91.53356
#
# Poissons Ratio (x) = 0.23888 0.21363
# Poissons Ratio (y) = 0.21742 0.23520
# Poissons Ratio (z) = 0.16292 0.19707
#
# Static dielectric constant tensor:
#      x y z
#    x 3.539300 0.000000 0.058980 
#    y 0.000000 3.522570 0.000000 
#    z 0.058980 0.000000 3.735000 
# 
# 
# High freq. dielectric constant tensor:
#      x y z
#    x 1.779670 0.000000 0.004150 
#    y 0.000000 1.768550 0.000000 
#    z 0.004150 0.000000 1.788850 
# 
# From -- ./inp_files/70611.got.cif
#   From: 2010.06.25/outbox.cif.g09.slc.cpg/sg10_36_cif.got.tgz:70611.got - 2010.06.27 22:07:45.
