data_PCOD8067294
_publ_section_title
;
Structure prediction by ZEFSAII (Michael W. Deem and Ramdas Pophale) SiO2 
 PCOD8067294
Probable space group: P 2/M
;
_chemical_formula_sum "Si O2"
_cell_formula_units_Z 22
_cell_length_a 11.090023
_cell_length_b 12.128946
_cell_length_c 8.139831
_cell_angle_alpha 90.000000
_cell_angle_beta 78.644848
_cell_angle_gamma 90.000000
_cell_volume 1073.459183
_symmetry_space_group_name_H-M "P 2/M"
_symmetry_group_IT_number 10
_symmetry_cell_setting 'monoclinic'
loop_
_space_group_symop_operation_xyz
x,y,z
-x,y,-z
-x,-y,-z
x,-y,z
loop_
_atom_site_type_symbol
_atom_site_label
_atom_site_fract_x
_atom_site_fract_y
_atom_site_fract_z
Si Si1 0.675175 0.734323 0.790108
Si Si2 0.650874 0.500000 0.287953
Si Si3 0.738911 0.724801 0.136725
Si Si4 0.000000 0.187552 0.000000
Si Si5 0.459869 0.876163 0.696320
Si Si6 0.088438 0.123359 0.326573
Si Si7 0.379687 0.500000 0.320553
O O1 0.553734 0.796288 0.763407
O O2 0.796178 0.796249 0.695455
O O3 0.686914 0.609097 0.725967
O O4 0.665429 0.730989 0.987248
O O5 0.728235 0.607115 0.223709
O O6 0.521870 0.500000 0.224176
O O7 0.624763 0.500000 0.484940
O O8 0.676587 0.821887 0.262258
O O9 0.883333 0.737926 0.072259
O O10 0.025991 0.119821 0.161183
O O11 0.500000 0.884709 0.500000
O O12 0.456423 0.000000 0.774514
O O13 0.000000 0.161169 0.500000
O O14 0.135439 0.000000 0.350245
#
# Coordination Sequence:
#
# PCOD8067294 Si02
#       7
#     4   2   4   2   4   4   2
#     4  11  23  41  64  97 128 163 215 267 323 384
#     4  11  23  40  66  93 126 169 209 263 323 389
#     4  11  24  42  66  93 129 169 214 265 323 381
#     4  10  25  43  66  96 134 173 219 268 316 396
#     4  11  24  39  62  95 130 166 211 268 324 382
#     4  10  23  42  68  95 131 177 218 265 319 387
#     4  11  23  39  67  97 126 163 210 263 327 389
#
# _framework density 20.494492000000001
#
# number of rings (size 3 to 8) (size 9 to 14) (size 15 to 20)
#    0.000    1.273    1.818    3.000    5.091    6.182 
#    0.000    1.364    0.000    0.000    0.000    0.000 
#    0.000    0.000    0.000    0.000    0.000    0.000 
#
# Total GULP energy -272779.295305 kJ/mol
# GULP energy per Si atom -12399.058877 kJ/mol
# Density = 2.044785 g / cm^3
# Si number density = 20.494492 Si / 1000 Ang^3
#
#
#
# Elastic Constant Matrix: (Units=GPa)
#
#
# Indices 1 2 3 4 5 6 
#
# 1 101.9048 52.5320 32.2884 0.0000 -16.6377 0.0000
# 2 52.5320 172.7949 38.2153 0.0000 -20.3893 0.0000
# 3 32.2884 38.2153 92.0024 0.0000 -22.2471 0.0000
# 4 0.0000 0.0000 0.0000 61.1292 0.0000 -53.8622
# 5 -16.6377 -20.3893 -22.2471 0.0000 27.8461 0.0000
# 6 0.0000 0.0000 0.0000 -53.8622 0.0000 119.5493
#
#
#
# Elastic Compliance Matrix: (Units=1/GPa)
#
#
# Indices 1 2 3 4 5 6 
#
# 1 0.012637 -0.002900 -0.002377 0.000000 0.003528 0.000000
# 2 -0.002900 0.007271 -0.001406 0.000000 0.002468 0.000000
# 3 -0.002377 -0.001406 0.014496 0.000000 0.009131 0.000000
# 4 0.000000 0.000000 0.000000 0.027128 0.000000 0.012222
# 5 0.003528 0.002468 0.009131 0.000000 0.047122 0.000000
# 6 0.000000 0.000000 0.000000 0.012222 0.000000 0.013871
#
#
# Mechanical properties :
#
#
# Convention : Reuss Voigt Hill
#
# Bulk Modulus (GPa) = 47.53317 68.08592 57.80954
# Shear Modulus (GPa) = 34.98855 57.94935 46.46895
#
# Velocity S-wave (km/s) = 4.13633 5.32325 4.76687
# Velocity P-wave (km/s) = 6.78644 8.43068 7.65285
#
# Compressibility (1/GPa) = 0.02103794
#
# Stress axis : x y z
#
# Youngs Moduli (GPa) = 79.13131 137.53457 68.98674
#
# Poissons Ratio (x) = 0.39882 0.16401
# Poissons Ratio (y) = 0.22947 0.09697
# Poissons Ratio (z) = 0.18813 0.19332
#
# Static dielectric constant tensor:
#      x y z
#    x 3.689430 0.000000 -0.011200 
#    y 0.000000 3.671570 0.000000 
#    z -0.011200 0.000000 3.996720 
# 
# 
# High freq. dielectric constant tensor:
#      x y z
#    x 1.794650 0.000000 -0.004850 
#    y 0.000000 1.808060 0.000000 
#    z -0.004850 0.000000 1.820840 
# 
# From -- ./inp_files/23962.got.cif
#   From: 2010.06.25/outbox.cif.g09.slc.cpg/sg10_12_cif.got.tgz:23962.got - 2010.06.27 22:07:45.
