data_PCOD8067784
_publ_section_title
;
Structure prediction by ZEFSAII (Michael W. Deem and Ramdas Pophale) SiO2 
 PCOD8067784
Probable space group: P 2/M
;
_chemical_formula_sum "Si O2"
_cell_formula_units_Z 30
_cell_length_a 11.157558
_cell_length_b 17.820532
_cell_length_c 14.022246
_cell_angle_alpha 90.000000
_cell_angle_beta 30.899166
_cell_angle_gamma 90.000000
_cell_volume 1431.766421
_symmetry_space_group_name_H-M "P 2/M"
_symmetry_group_IT_number 10
_symmetry_cell_setting 'monoclinic'
loop_
_space_group_symop_operation_xyz
x,y,z
-x,y,-z
-x,-y,-z
x,-y,z
loop_
_atom_site_type_symbol
_atom_site_label
_atom_site_fract_x
_atom_site_fract_y
_atom_site_fract_z
Si Si1 0.800705 0.686142 0.567361
Si Si2 0.432948 0.178096 0.357533
Si Si3 0.500000 0.197003 0.000000
Si Si4 0.848335 0.200625 0.195898
Si Si5 0.907850 0.700449 0.810458
Si Si6 0.080510 0.083551 0.709977
Si Si7 0.443387 0.916210 0.893146
Si Si8 0.540555 0.586224 0.085106
O O1 0.615311 0.752506 0.679549
O O2 0.676442 0.615713 0.703670
O O3 0.000000 0.717515 0.500000
O O4 0.916078 0.664531 0.387275
O O5 0.577534 0.209107 0.349691
O O6 0.192730 0.139838 0.555927
O O7 0.581424 0.116458 0.197065
O O8 0.714055 0.246684 0.892631
O O9 0.598513 0.141946 0.848884
O O10 0.870391 0.115192 0.217631
O O11 0.932122 0.256297 0.222441
O O12 0.000000 0.216874 0.000000
O O13 0.773767 0.632118 0.953830
O O14 0.187876 0.000000 0.627946
O O15 0.804134 0.081185 0.884027
O O16 0.553236 0.000000 0.815611
O O17 0.578668 0.500000 0.085752
O O18 0.500000 0.597512 0.000000
#
# Coordination Sequence:
#
# PCOD8067784 Si02
#       8
#     4   4   2   4   4   4   4   4
#     4  12  23  40  69  98 130 171 211 259 322 383
#     4  12  24  41  64  90 126 170 222 272 320 381
#     4  12  19  42  65  88 128 168 220 270 325 388
#     4  12  23  42  64  93 125 172 224 273 323 382
#     4  12  23  42  67  97 132 170 212 270 320 384
#     4  11  24  40  59  89 124 164 218 276 329 372
#     4  11  23  39  61  88 124 171 220 276 335 385
#     4  11  24  42  67 103 138 166 204 257 321 391
#
# _framework density 20.953137999999999
#
# number of rings (size 3 to 8) (size 9 to 14) (size 15 to 20)
#    0.000    0.400    6.000    3.400    0.000    2.667 
#    0.000    0.000    0.000    7.600    0.000    4.667 
#    0.000    0.000    0.000    0.000    0.000    0.000 
#
# Total GULP energy -371872.017508 kJ/mol
# GULP energy per Si atom -12395.733917 kJ/mol
# Density = 2.090545 g / cm^3
# Si number density = 20.953138 Si / 1000 Ang^3
#
#
#
# Elastic Constant Matrix: (Units=GPa)
#
#
# Indices 1 2 3 4 5 6 
#
# 1 106.5880 61.0304 32.0761 0.0000 3.2096 0.0000
# 2 61.0304 153.1602 51.2575 0.0000 -2.0742 0.0000
# 3 32.0761 51.2575 98.4068 0.0000 13.8941 0.0000
# 4 0.0000 0.0000 0.0000 29.2386 0.0000 6.6298
# 5 3.2096 -2.0742 13.8941 0.0000 32.1043 0.0000
# 6 0.0000 0.0000 0.0000 6.6298 0.0000 18.9313
#
#
#
# Elastic Compliance Matrix: (Units=1/GPa)
#
#
# Indices 1 2 3 4 5 6 
#
# 1 0.012427 -0.004416 -0.001635 0.000000 -0.000820 0.000000
# 2 -0.004416 0.009661 -0.003987 0.000000 0.002791 0.000000
# 3 -0.001635 -0.003987 0.013617 0.000000 -0.005987 0.000000
# 4 0.000000 0.000000 0.000000 0.037151 0.000000 -0.013011
# 5 -0.000820 0.002791 -0.005987 0.000000 0.034002 0.000000
# 6 0.000000 0.000000 0.000000 -0.013011 0.000000 0.057379
#
#
# Mechanical properties :
#
#
# Convention : Reuss Voigt Hill
#
# Bulk Modulus (GPa) = 63.98038 71.87588 67.92813
# Shear Modulus (GPa) = 26.38229 30.30759 28.34494
#
# Velocity S-wave (km/s) = 3.55224 3.80734 3.68200
# Velocity P-wave (km/s) = 6.88664 7.32840 7.11095
#
# Compressibility (1/GPa) = 0.01562979
#
# Stress axis : x y z
#
# Youngs Moduli (GPa) = 80.46994 103.51180 73.43950
#
# Poissons Ratio (x) = 0.45709 0.12005
# Poissons Ratio (y) = 0.35534 0.29278
# Poissons Ratio (z) = 0.13155 0.41267
#
# Static dielectric constant tensor:
#      x y z
#    x 3.916480 0.000000 0.143510 
#    y 0.000000 3.830590 0.000000 
#    z 0.143510 0.000000 3.965510 
# 
# 
# High freq. dielectric constant tensor:
#      x y z
#    x 1.810330 0.000000 0.011410 
#    y 0.000000 1.803470 0.000000 
#    z 0.011410 0.000000 1.833310 
# 
# From -- ./inp_files/65324.got.cif
#   From: 2010.06.25/outbox.cif.g09.slc.cpg/sg10_33_cif.got.tgz:65324.got - 2010.06.27 22:07:45.
