data_PCOD8067414
_publ_section_title
;
Structure prediction by ZEFSAII (Michael W. Deem and Ramdas Pophale) SiO2 
 PCOD8067414
Probable space group: P 2/M
;
_chemical_formula_sum "Si O2"
_cell_formula_units_Z 32
_cell_length_a 30.296570
_cell_length_b 9.103984
_cell_length_c 15.866877
_cell_angle_alpha 90.000000
_cell_angle_beta 30.051380
_cell_angle_gamma 90.000000
_cell_volume 2191.594813
_symmetry_space_group_name_H-M "P 2/M"
_symmetry_group_IT_number 10
_symmetry_cell_setting 'monoclinic'
loop_
_space_group_symop_operation_xyz
x,y,z
-x,y,-z
-x,-y,-z
x,-y,z
loop_
_atom_site_type_symbol
_atom_site_label
_atom_site_fract_x
_atom_site_fract_y
_atom_site_fract_z
Si Si1 0.660213 0.826970 0.859514
Si Si2 0.511658 0.673995 0.787867
Si Si3 0.591777 0.161578 0.800349
Si Si4 0.164653 0.170621 0.336335
Si Si5 0.473655 0.826487 0.408967
Si Si6 0.179551 0.828089 0.116407
Si Si7 0.635454 0.827240 0.251725
Si Si8 0.007231 0.665806 0.388023
O O1 0.662054 0.790037 0.756126
O O2 0.753409 0.776566 0.742863
O O3 0.642981 0.000000 0.903337
O O4 0.583889 0.739574 0.033701
O O5 0.505879 0.500000 0.795911
O O6 0.584978 0.722271 0.735785
O O7 0.544816 0.734696 0.644067
O O8 0.615725 0.000000 0.724146
O O9 0.500000 0.151745 0.000000
O O10 0.187343 0.206658 0.202353
O O11 0.078341 0.256972 0.510627
O O12 0.144689 0.000000 0.381964
O O13 0.564687 0.769409 0.300423
O O14 0.394148 0.788584 0.604608
O O15 0.477060 0.000000 0.383363
O O16 0.096110 0.747733 0.212263
O O17 0.167629 0.000000 0.119311
O O18 0.267616 0.762796 0.927137
O O19 0.638332 0.000000 0.234473
O O20 0.011150 0.500000 0.348483
O O21 0.000000 0.674896 0.500000
#
# Coordination Sequence:
#
# PCOD8067414 Si02
#       8
#     4   4   4   4   4   4   4   4
#     4   9  17  29  44  60  78 103 136 169 201 236
#     4  11  20  27  38  58  83 110 137 163 196 236
#     4   8  15  28  43  57  75 102 134 166 198 233
#     4   9  16  26  42  61  79 101 130 165 199 232
#     4   9  16  29  45  59  78 104 136 171 204 235
#     4   9  15  25  41  59  78 102 134 166 197 231
#     4   8  15  27  45  63  76  99 137 176 205 231
#     4   9  17  27  37  53  79 108 134 159 190 230
#
# _framework density 14.601238
#
# number of rings (size 3 to 8) (size 9 to 14) (size 15 to 20)
#    0.000    3.000    0.000    3.750    0.000    6.250 
#    0.000    5.000    0.000    0.000    0.000    0.000 
#    0.000    1.000    0.000   11.500    0.000    4.500 
#
# Total GULP energy -396657.645735 kJ/mol
# GULP energy per Si atom -12395.551429 kJ/mol
# Density = 1.456801 g / cm^3
# Si number density = 14.601238 Si / 1000 Ang^3
#
#
#
# Elastic Constant Matrix: (Units=GPa)
#
#
# Indices 1 2 3 4 5 6 
#
# 1 99.1951 44.2588 49.1551 0.0000 -7.2355 0.0000
# 2 44.2588 67.8833 39.8384 0.0000 -2.4933 0.0000
# 3 49.1551 39.8384 93.9427 0.0000 -13.3359 0.0000
# 4 0.0000 0.0000 0.0000 9.0176 0.0000 -0.3176
# 5 -7.2355 -2.4933 -13.3359 0.0000 22.7885 0.0000
# 6 0.0000 0.0000 0.0000 -0.3176 0.0000 9.5501
#
#
#
# Elastic Compliance Matrix: (Units=1/GPa)
#
#
# Indices 1 2 3 4 5 6 
#
# 1 0.015979 -0.007419 -0.005027 0.000000 0.001320 0.000000
# 2 -0.007419 0.023243 -0.006487 0.000000 -0.003609 0.000000
# 3 -0.005027 -0.006487 0.017121 0.000000 0.007713 0.000000
# 4 0.000000 0.000000 0.000000 0.111025 0.000000 0.003692
# 5 0.001320 -0.003609 0.007713 0.000000 0.048420 0.000000
# 6 0.000000 0.000000 0.000000 0.003692 0.000000 0.104833
#
#
# Mechanical properties :
#
#
# Convention : Reuss Voigt Hill
#
# Bulk Modulus (GPa) = 54.12367 58.61398 56.36882
# Shear Modulus (GPa) = 13.71193 16.78915 15.25054
#
# Velocity S-wave (km/s) = 3.06779 3.39461 3.23533
# Velocity P-wave (km/s) = 7.04959 7.45620 7.25574
#
# Compressibility (1/GPa) = 0.01847621
#
# Stress axis : x y z
#
# Youngs Moduli (GPa) = 62.58240 43.02429 58.40735
#
# Poissons Ratio (x) = 0.31921 0.29363
# Poissons Ratio (y) = 0.46431 0.37888
# Poissons Ratio (z) = 0.31462 0.27909
#
# Static dielectric constant tensor:
#      x y z
#    x 2.996220 0.000000 -0.133520 
#    y 0.000000 2.714610 0.000000 
#    z -0.133520 0.000000 2.816390 
# 
# 
# High freq. dielectric constant tensor:
#      x y z
#    x 1.546220 0.000000 -0.009960 
#    y 0.000000 1.546650 0.000000 
#    z -0.009960 0.000000 1.529270 
# 
# From -- ./inp_files/68208.got.cif
#   From: 2010.06.25/outbox.cif.g09.slc.cpg/sg10_35_cif.got.tgz:68208.got - 2010.06.27 22:07:45.
