data_PCOD8067464
_publ_section_title
;
Structure prediction by ZEFSAII (Michael W. Deem and Ramdas Pophale) SiO2 
 PCOD8067464
Probable space group: P 2/M
;
_chemical_formula_sum "Si O2"
_cell_formula_units_Z 28
_cell_length_a 9.943844
_cell_length_b 13.812032
_cell_length_c 18.525325
_cell_angle_alpha 90.000000
_cell_angle_beta 37.590721
_cell_angle_gamma 90.000000
_cell_volume 1552.099439
_symmetry_space_group_name_H-M "P 2/M"
_symmetry_group_IT_number 10
_symmetry_cell_setting 'monoclinic'
loop_
_space_group_symop_operation_xyz
x,y,z
-x,y,-z
-x,-y,-z
x,-y,z
loop_
_atom_site_type_symbol
_atom_site_label
_atom_site_fract_x
_atom_site_fract_y
_atom_site_fract_z
Si Si1 0.741515 0.604987 0.421573
Si Si2 0.395149 0.196350 0.370495
Si Si3 0.248092 0.395948 0.414798
Si Si4 0.634168 0.888081 0.766958
Si Si5 0.186170 0.110701 0.736917
Si Si6 0.851035 0.886990 0.999395
Si Si7 0.063364 0.200359 0.644166
O O1 0.500000 0.640348 0.500000
O O2 0.803783 0.500000 0.358796
O O3 0.733860 0.588129 0.508826
O O4 0.916036 0.690867 0.330765
O O5 0.399455 0.303415 0.330604
O O6 0.348409 0.119402 0.327356
O O7 0.626619 0.179510 0.310747
O O8 0.204313 0.188757 0.511414
O O9 0.317060 0.500000 0.348617
O O10 0.000000 0.368270 0.500000
O O11 0.811578 0.822293 0.732690
O O12 0.671332 0.000000 0.772736
O O13 0.397344 0.845888 0.893227
O O14 0.152139 0.126393 0.666507
O O15 0.959244 0.134161 0.875665
O O16 0.258124 0.000000 0.719353
O O17 0.829136 0.000000 0.025136
O O18 0.000000 0.840273 0.000000
#
# Coordination Sequence:
#
# PCOD8067464 Si02
#       7
#     4   4   4   4   4   4   4
#     4   9  17  32  52  71 100 140 174 205 243 300
#     4  11  20  33  52  76 107 141 170 202 253 324
#     4   9  17  30  48  71 100 132 168 211 251 290
#     4  11  22  35  53  74 103 143 179 212 250 301
#     4  11  22  35  53  74 103 141 175 213 253 295
#     4   9  18  37  57  71  90 131 192 228 239 280
#     4  11  22  33  48  82 115 131 162 211 267 316
#
# _framework density 18.040082999999999
#
# number of rings (size 3 to 8) (size 9 to 14) (size 15 to 20)
#    0.000    1.857    1.429    5.143    0.000    4.000 
#    0.000    2.143    0.000    0.000    0.000    6.000 
#    0.000    0.000    0.000    0.000    0.000    0.000 
#
# Total GULP energy -346993.264527 kJ/mol
# GULP energy per Si atom -12392.616590 kJ/mol
# Density = 1.799902 g / cm^3
# Si number density = 18.040083 Si / 1000 Ang^3
#
#
#
# Elastic Constant Matrix: (Units=GPa)
#
#
# Indices 1 2 3 4 5 6 
#
# 1 114.9518 33.2462 32.1719 0.0000 -30.4623 0.0000
# 2 33.2462 88.2325 49.6430 0.0000 -20.2005 0.0000
# 3 32.1719 49.6430 68.6213 0.0000 -25.6888 0.0000
# 4 0.0000 0.0000 0.0000 4.5617 0.0000 -7.2626
# 5 -30.4623 -20.2005 -25.6888 0.0000 31.6680 0.0000
# 6 0.0000 0.0000 0.0000 -7.2626 0.0000 29.9031
#
#
#
# Elastic Compliance Matrix: (Units=1/GPa)
#
#
# Indices 1 2 3 4 5 6 
#
# 1 0.012039 -0.001989 -0.000496 0.000000 0.009910 0.000000
# 2 -0.001989 0.019485 -0.013251 0.000000 -0.000233 0.000000
# 3 -0.000496 -0.013251 0.030228 0.000000 0.015591 0.000000
# 4 0.000000 0.000000 0.000000 0.357421 0.000000 0.086807
# 5 0.009910 -0.000233 0.015591 0.000000 0.053610 0.000000
# 6 0.000000 0.000000 0.000000 0.086807 0.000000 0.054524
#
#
# Mechanical properties :
#
#
# Convention : Reuss Voigt Hill
#
# Bulk Modulus (GPa) = 33.02318 55.76976 44.39647
# Shear Modulus (GPa) = 8.78931 23.67619 16.23275
#
# Velocity S-wave (km/s) = 2.20968 3.62667 3.00295
# Velocity P-wave (km/s) = 4.98552 6.96552 6.05697
#
# Compressibility (1/GPa) = 0.03028176
#
# Stress axis : x y z
#
# Youngs Moduli (GPa) = 83.06015 51.32067 33.08171
#
# Poissons Ratio (x) = 0.10205 0.01641
# Poissons Ratio (y) = 0.16517 0.43837
# Poissons Ratio (z) = 0.04119 0.68006
#
# Static dielectric constant tensor:
#      x y z
#    x 3.442190 0.000000 -0.076140 
#    y 0.000000 3.860930 0.000000 
#    z -0.076140 0.000000 3.126080 
# 
# 
# High freq. dielectric constant tensor:
#      x y z
#    x 1.719680 0.000000 -0.009820 
#    y 0.000000 1.694190 0.000000 
#    z -0.009820 0.000000 1.652910 
# 
# From -- ./inp_files/25439.got.cif
#   From: 2010.06.25/outbox.cif.g09.slc.cpg/sg10_13_cif.got.tgz:25439.got - 2010.06.27 22:07:45.
