data_PCOD8067162
_publ_section_title
;
Structure prediction by ZEFSAII (Michael W. Deem and Ramdas Pophale) SiO2 
 PCOD8067162
Probable space group: P 2/M
;
_chemical_formula_sum "Si O2"
_cell_formula_units_Z 20
_cell_length_a 11.503962
_cell_length_b 11.795231
_cell_length_c 12.971352
_cell_angle_alpha 90.000000
_cell_angle_beta 33.738300
_cell_angle_gamma 90.000000
_cell_volume 977.564332
_symmetry_space_group_name_H-M "P 2/M"
_symmetry_group_IT_number 10
_symmetry_cell_setting 'monoclinic'
loop_
_space_group_symop_operation_xyz
x,y,z
-x,y,-z
-x,-y,-z
x,-y,z
loop_
_atom_site_type_symbol
_atom_site_label
_atom_site_fract_x
_atom_site_fract_y
_atom_site_fract_z
Si Si1 0.171394 0.000000 0.144013
Si Si2 0.992207 0.240841 0.726084
Si Si3 0.683129 0.761235 0.780118
Si Si4 0.385437 0.000000 0.207970
Si Si5 0.627383 0.628963 0.623549
Si Si6 0.156750 0.630003 0.970658
O O1 0.017975 0.106596 0.244875
O O2 0.316847 0.000000 0.137998
O O3 0.376186 0.000000 0.919086
O O4 0.227874 0.288181 0.551392
O O5 0.894802 0.268237 0.685536
O O6 0.859219 0.300620 0.912637
O O7 0.711135 0.876894 0.688351
O O8 0.631495 0.658525 0.742198
O O9 0.500000 0.781052 0.000000
O O10 0.706029 0.500000 0.552888
O O11 0.392321 0.641792 0.754283
O O12 0.099662 0.500000 0.036997
O O13 0.000000 0.679624 0.000000
#
# Coordination Sequence:
#
# PCOD8067162 Si02
#       6
#     2   4   4   2   4   4
#     4   9  16  31  55  83 111 147 187 221 274 326
#     4  11  21  37  58  85 117 147 182 231 274 330
#     4  11  18  34  58  83 117 151 180 222 276 330
#     4   9  14  31  56  81 110 150 191 223 261 323
#     4  11  24  37  55  85 115 148 186 225 280 336
#     4  10  22  41  63  82 104 144 192 235 281 327
#
# _framework density 20.459011
#
# number of rings (size 3 to 8) (size 9 to 14) (size 15 to 20)
#    0.000    1.600    6.000    1.200    0.000    4.400 
#    0.000    7.500    0.000    1.200    0.000    0.000 
#    0.000    0.000    0.000    0.000    0.000    0.000 
#
# Total GULP energy -247793.522235 kJ/mol
# GULP energy per Si atom -12389.676112 kJ/mol
# Density = 2.041245 g / cm^3
# Si number density = 20.459011 Si / 1000 Ang^3
#
#
#
# Elastic Constant Matrix: (Units=GPa)
#
#
# Indices 1 2 3 4 5 6 
#
# 1 59.1946 41.4757 23.0931 0.0000 -20.3049 0.0000
# 2 41.4757 130.4390 55.8321 0.0000 -15.5918 0.0000
# 3 23.0931 55.8321 84.5801 0.0000 -19.2218 0.0000
# 4 0.0000 0.0000 0.0000 24.8720 0.0000 -10.2261
# 5 -20.3049 -15.5918 -19.2218 0.0000 25.2714 0.0000
# 6 0.0000 0.0000 0.0000 -10.2261 0.0000 8.4314
#
#
#
# Elastic Compliance Matrix: (Units=1/GPa)
#
#
# Indices 1 2 3 4 5 6 
#
# 1 0.027941 -0.007239 0.001495 0.000000 0.019121 0.000000
# 2 -0.007239 0.012607 -0.007133 0.000000 -0.003463 0.000000
# 3 0.001495 -0.007133 0.018614 0.000000 0.010958 0.000000
# 4 0.000000 0.000000 0.000000 0.080198 0.000000 0.097269
# 5 0.019121 -0.003463 0.010958 0.000000 0.061132 0.000000
# 6 0.000000 0.000000 0.000000 0.097269 0.000000 0.236577
#
#
# Mechanical properties :
#
#
# Convention : Reuss Voigt Hill
#
# Bulk Modulus (GPa) = 29.93214 57.22397 43.57805
# Shear Modulus (GPa) = 10.54946 21.96915 16.25930
#
# Velocity S-wave (km/s) = 2.27323 3.28046 2.82215
# Velocity P-wave (km/s) = 4.64243 6.50994 5.65383
#
# Compressibility (1/GPa) = 0.03340891
#
# Stress axis : x y z
#
# Youngs Moduli (GPa) = 35.78978 79.31964 53.72377
#
# Poissons Ratio (x) = 0.57417 -0.08032
# Poissons Ratio (y) = 0.25907 0.38320
# Poissons Ratio (z) = -0.05351 0.56577
#
# Static dielectric constant tensor:
#      x y z
#    x 3.355950 0.000000 -0.210700 
#    y 0.000000 4.211780 0.000000 
#    z -0.210700 0.000000 3.609500 
# 
# 
# High freq. dielectric constant tensor:
#      x y z
#    x 1.753670 0.000000 -0.020710 
#    y 0.000000 1.807170 0.000000 
#    z -0.020710 0.000000 1.799570 
# 
# From -- ./inp_files/64594.got.cif
#   From: 2010.06.25/outbox.cif.g09.slc.cpg/sg10_33_cif.got.tgz:64594.got - 2010.06.27 22:07:45.
