data_PCOD8067176
_publ_section_title
;
Structure prediction by ZEFSAII (Michael W. Deem and Ramdas Pophale) SiO2 
 PCOD8067176
Probable space group: P 2/M
;
_chemical_formula_sum "Si O2"
_cell_formula_units_Z 28
_cell_length_a 15.387491
_cell_length_b 8.847303
_cell_length_c 20.997279
_cell_angle_alpha 90.000000
_cell_angle_beta 151.800634
_cell_angle_gamma 90.000000
_cell_volume 1350.769481
_symmetry_space_group_name_H-M "P 2/M"
_symmetry_group_IT_number 10
_symmetry_cell_setting 'monoclinic'
loop_
_space_group_symop_operation_xyz
x,y,z
-x,y,-z
-x,-y,-z
x,-y,z
loop_
_atom_site_type_symbol
_atom_site_label
_atom_site_fract_x
_atom_site_fract_y
_atom_site_fract_z
Si Si1 0.301814 0.675971 0.897640
Si Si2 0.671472 0.677739 0.566777
Si Si3 0.487321 0.326731 0.671451
Si Si4 0.851755 0.832999 0.314160
Si Si5 0.848416 0.822038 0.948792
Si Si6 0.065294 0.179824 0.853923
Si Si7 0.263324 0.832163 0.626005
O O1 0.308512 0.500000 0.918281
O O2 0.162910 0.707531 0.749883
O O3 0.224288 0.761507 0.909256
O O4 0.500000 0.735582 0.000000
O O5 0.500000 0.730423 0.500000
O O6 0.706287 0.500000 0.597171
O O7 0.619886 0.722170 0.461402
O O8 0.860709 0.760711 0.706506
O O9 0.549551 0.500000 0.707857
O O10 0.660116 0.221242 0.793786
O O11 0.358880 0.301132 0.649242
O O12 0.715533 0.795499 0.285220
O O13 0.053788 0.832848 0.471434
O O14 0.804541 0.000000 0.256030
O O15 0.866220 0.000000 0.963152
O O16 0.875188 0.759798 0.037806
O O17 0.000000 0.750866 0.000000
O O18 0.059383 0.000000 0.846005
O O19 0.347892 0.000000 0.666704
#
# Coordination Sequence:
#
# PCOD8067176 Si02
#       7
#     4   4   4   4   4   4   4
#     4  11  25  41  58  84 122 164 205 252 305 362
#     4  10  22  41  64  92 127 164 203 252 311 373
#     4  11  23  36  58  90 120 155 200 243 297 363
#     4   9  19  37  60  84 113 151 197 244 293 348
#     4  10  23  43  64  89 122 159 202 253 308 364
#     4  11  24  41  65  94 123 164 212 258 311 368
#     4   9  19  36  58  85 116 150 189 242 299 349
#
# _framework density 20.728926000000001
#
# number of rings (size 3 to 8) (size 9 to 14) (size 15 to 20)
#    0.000    1.857    0.000    3.857    2.000    7.429 
#    0.000    1.429    0.000    0.000    0.000    0.000 
#    0.000    0.000    0.000    0.000    0.000    0.000 
#
# Total GULP energy -347110.311417 kJ/mol
# GULP energy per Si atom -12396.796836 kJ/mol
# Density = 2.068175 g / cm^3
# Si number density = 20.728926 Si / 1000 Ang^3
#
#
#
# Elastic Constant Matrix: (Units=GPa)
#
#
# Indices 1 2 3 4 5 6 
#
# 1 131.8425 44.5831 27.7581 0.0000 7.2760 0.0000
# 2 44.5831 48.9205 31.3538 0.0000 -1.2570 0.0000
# 3 27.7581 31.3538 67.1038 0.0000 1.3946 0.0000
# 4 0.0000 0.0000 0.0000 34.4646 0.0000 5.1952
# 5 7.2760 -1.2570 1.3946 0.0000 35.4043 0.0000
# 6 0.0000 0.0000 0.0000 5.1952 0.0000 31.6499
#
#
#
# Elastic Compliance Matrix: (Units=1/GPa)
#
#
# Indices 1 2 3 4 5 6 
#
# 1 0.011215 -0.010495 0.000321 0.000000 -0.002690 0.000000
# 2 -0.010495 0.039089 -0.014008 0.000000 0.004096 0.000000
# 3 0.000321 -0.014008 0.021344 0.000000 -0.001404 0.000000
# 4 0.000000 0.000000 0.000000 0.029751 0.000000 -0.004884
# 5 -0.002690 0.004096 -0.001404 0.000000 0.028999 0.000000
# 6 0.000000 0.000000 0.000000 -0.004884 0.000000 0.032397
#
#
# Mechanical properties :
#
#
# Convention : Reuss Voigt Hill
#
# Bulk Modulus (GPa) = 42.94973 50.58409 46.76691
# Shear Modulus (GPa) = 22.83941 29.91523 26.37732
#
# Velocity S-wave (km/s) = 3.32296 3.80302 3.57107
# Velocity P-wave (km/s) = 5.95713 6.61359 6.29393
#
# Compressibility (1/GPa) = 0.02328303
#
# Stress axis : x y z
#
# Youngs Moduli (GPa) = 89.16893 25.58286 46.85186
#
# Poissons Ratio (x) = 0.26849 -0.01502
# Poissons Ratio (y) = 0.93582 0.65629
# Poissons Ratio (z) = -0.02858 0.35836
#
# Static dielectric constant tensor:
#      x y z
#    x -25.877310 0.000000 -5.916680 
#    y 0.000000 3.678690 0.000000 
#    z -5.916680 0.000000 2.546740 
# 
# 
# High freq. dielectric constant tensor:
#      x y z
#    x 1.829820 0.000000 -0.002430 
#    y 0.000000 1.798640 0.000000 
#    z -0.002430 0.000000 1.813600 
# 
# From -- ./inp_files/84978.got.cif
#   From: 2010.06.25/outbox.cif.g09.slc.cpg/sg10_43_cif.got.tgz:84978.got - 2010.06.27 22:07:45.
