data_PCOD8067459
_publ_section_title
;
Structure prediction by ZEFSAII (Michael W. Deem and Ramdas Pophale) SiO2 
 PCOD8067459
Probable space group: P 2/M
;
_chemical_formula_sum "Si O2"
_cell_formula_units_Z 28
_cell_length_a 11.423684
_cell_length_b 11.426468
_cell_length_c 12.338467
_cell_angle_alpha 90.000000
_cell_angle_beta 89.722576
_cell_angle_gamma 90.000000
_cell_volume 1610.550333
_symmetry_space_group_name_H-M "P 2/M"
_symmetry_group_IT_number 10
_symmetry_cell_setting 'monoclinic'
loop_
_space_group_symop_operation_xyz
x,y,z
-x,y,-z
-x,-y,-z
x,-y,z
loop_
_atom_site_type_symbol
_atom_site_label
_atom_site_fract_x
_atom_site_fract_y
_atom_site_fract_z
Si Si1 0.136817 0.500000 0.127300
Si Si2 0.257006 0.731082 0.189538
Si Si3 0.497249 0.372209 0.124091
Si Si4 0.738683 0.269614 0.186388
Si Si5 0.139213 0.500000 0.875581
Si Si6 0.633870 0.135904 0.374263
Si Si7 0.634709 0.864007 0.623827
Si Si8 0.132362 0.137898 0.001728
O O1 0.182345 0.612147 0.192550
O O2 0.998744 0.500000 0.128233
O O3 0.183219 0.500000 0.001596
O O4 0.385941 0.706128 0.147839
O O5 0.271594 0.788514 0.308021
O O6 0.194272 0.822356 0.111180
O O7 0.495053 0.500000 0.184805
O O8 0.607629 0.295050 0.152579
O O9 0.500000 0.402280 0.000000
O O10 0.813520 0.388150 0.189195
O O11 0.728150 0.209695 0.304335
O O12 0.798079 0.181024 0.103002
O O13 0.499493 0.174961 0.352200
O O14 0.665591 0.158583 0.498815
O O15 0.647784 0.000000 0.344581
O O16 0.649521 0.000000 0.653510
O O17 0.130319 0.000000 0.998992
O O18 0.000000 0.189126 0.000000
#
# Coordination Sequence:
#
# PCOD8067459 Si02
#       8
#     2   4   4   4   2   4   4   4
#     4  11  22  37  58  81 110 153 194 226 271 332
#     4  12  20  35  57  83 113 145 185 228 280 334
#     4  11  20  32  49  82 119 149 172 216 283 346
#     4  12  20  35  57  83 113 145 185 228 280 334
#     4  11  22  37  58  81 110 153 194 226 271 332
#     4   9  19  36  57  82 114 151 186 223 276 340
#     4   9  19  36  57  82 114 151 186 223 276 340
#     4  11  24  38  53  78 112 150 190 231 274 323
#
# _framework density 17.385359999999999
#
# number of rings (size 3 to 8) (size 9 to 14) (size 15 to 20)
#    0.000    1.286    5.714    2.571    0.000    0.000 
#    0.000    1.429    0.000    6.857    0.000   10.000 
#    0.000    0.000    0.000    0.000    0.000    0.000 
#
# Total GULP energy -347146.089539 kJ/mol
# GULP energy per Si atom -12398.074626 kJ/mol
# Density = 1.734579 g / cm^3
# Si number density = 17.385360 Si / 1000 Ang^3
#
#
#
# Elastic Constant Matrix: (Units=GPa)
#
#
# Indices 1 2 3 4 5 6 
#
# 1 102.4486 44.9963 43.7168 0.0000 10.5635 0.0000
# 2 44.9963 94.9084 56.3320 0.0000 4.7999 0.0000
# 3 43.7168 56.3320 109.9348 0.0000 6.9835 0.0000
# 4 0.0000 0.0000 0.0000 28.4991 0.0000 0.3852
# 5 10.5635 4.7999 6.9835 0.0000 3.1574 0.0000
# 6 0.0000 0.0000 0.0000 0.3852 0.0000 28.6984
#
#
#
# Elastic Compliance Matrix: (Units=1/GPa)
#
#
# Indices 1 2 3 4 5 6 
#
# 1 0.017495 -0.005100 -0.001301 0.000000 -0.047902 0.000000
# 2 -0.005100 0.016755 -0.007008 0.000000 0.007091 0.000000
# 3 -0.001301 -0.007008 0.014254 0.000000 -0.016521 0.000000
# 4 0.000000 0.000000 0.000000 0.035095 0.000000 -0.000471
# 5 -0.047902 0.007091 -0.016521 0.000000 0.502737 0.000000
# 6 0.000000 0.000000 0.000000 -0.000471 0.000000 0.034852
#
#
# Mechanical properties :
#
#
# Convention : Reuss Voigt Hill
#
# Bulk Modulus (GPa) = 46.11079 66.37576 56.24328
# Shear Modulus (GPa) = 7.63085 22.88743 15.25914
#
# Velocity S-wave (km/s) = 2.09732 3.63227 2.96582
# Velocity P-wave (km/s) = 5.69608 7.47350 6.64449
#
# Compressibility (1/GPa) = 0.02168690
#
# Stress axis : x y z
#
# Youngs Moduli (GPa) = 57.15873 59.68300 70.15492
#
# Poissons Ratio (x) = 0.30436 0.09128
# Poissons Ratio (y) = 0.29149 0.49165
# Poissons Ratio (z) = 0.07437 0.41826
#
# Static dielectric constant tensor:
#      x y z
#    x 3.289330 0.000000 0.014170 
#    y 0.000000 3.351390 0.000000 
#    z 0.014170 0.000000 3.144520 
# 
# 
# High freq. dielectric constant tensor:
#      x y z
#    x 1.672080 0.000000 0.000690 
#    y 0.000000 1.683920 0.000000 
#    z 0.000690 0.000000 1.650640 
# 
# From -- ./inp_files/46057.got.cif
#   From: 2010.06.25/outbox.cif.g09.slc.cpg/sg10_24_cif.got.tgz:46057.got - 2010.06.27 22:07:45.
