data_PCOD8067307
_publ_section_title
;
Structure prediction by ZEFSAII (Michael W. Deem and Ramdas Pophale) SiO2 
 PCOD8067307
Probable space group: P 2/M
;
_chemical_formula_sum "Si O2"
_cell_formula_units_Z 28
_cell_length_a 12.479646
_cell_length_b 8.503442
_cell_length_c 14.527693
_cell_angle_alpha 90.000000
_cell_angle_beta 120.825792
_cell_angle_gamma 90.000000
_cell_volume 1323.884083
_symmetry_space_group_name_H-M "P 2/M"
_symmetry_group_IT_number 10
_symmetry_cell_setting 'monoclinic'
loop_
_space_group_symop_operation_xyz
x,y,z
-x,y,-z
-x,-y,-z
x,-y,z
loop_
_atom_site_type_symbol
_atom_site_label
_atom_site_fract_x
_atom_site_fract_y
_atom_site_fract_z
Si Si1 0.784932 0.316697 0.291784
Si Si2 0.531220 0.680663 0.409943
Si Si3 0.002754 0.816968 0.724713
Si Si4 0.205926 0.817137 0.512707
Si Si5 0.344260 0.819383 0.188610
Si Si6 0.490843 0.684877 0.891026
Si Si7 0.916464 0.317331 0.877757
O O1 0.792681 0.500000 0.317374
O O2 0.836930 0.218391 0.401746
O O3 0.643090 0.266015 0.208520
O O4 0.870001 0.276590 0.240961
O O5 0.500000 0.723254 0.500000
O O6 0.500097 0.500000 0.372174
O O7 0.675830 0.709742 0.456504
O O8 0.450382 0.794085 0.311082
O O9 0.899965 0.764154 0.605080
O O10 0.955957 0.779948 0.805975
O O11 0.031405 0.000000 0.729212
O O12 0.238627 0.000000 0.515069
O O13 0.399062 0.773840 0.113597
O O14 0.226956 0.711769 0.161094
O O15 0.302118 0.000000 0.169754
O O16 0.513253 0.500000 0.890772
O O17 0.500000 0.739589 0.000000
O O18 0.937342 0.500000 0.865823
O O19 0.000000 0.260445 0.000000
#
# Coordination Sequence:
#
# PCOD8067307 Si02
#       7
#     4   4   4   4   4   4   4
#     4  11  23  40  66  97 130 173 218 262 319 384
#     4  11  23  39  63  93 127 169 215 263 314 378
#     4  11  25  43  65  95 134 172 213 267 325 384
#     4  11  23  40  62  93 131 170 211 263 326 381
#     4  12  25  42  67  98 132 167 209 264 324 383
#     4  10  23  43  67  95 130 170 216 265 316 380
#     4  11  26  47  70  94 126 170 219 267 319 379
#
# _framework density 21.149888000000001
#
# number of rings (size 3 to 8) (size 9 to 14) (size 15 to 20)
#    0.000    1.000    1.429    4.714    2.000    9.429 
#    0.000    0.000    0.000    0.000    0.000    0.000 
#    0.000    0.000    0.000    0.000    0.000    0.000 
#
# Total GULP energy -347434.151967 kJ/mol
# GULP energy per Si atom -12408.362570 kJ/mol
# Density = 2.110175 g / cm^3
# Si number density = 21.149888 Si / 1000 Ang^3
#
#
#
# Elastic Constant Matrix: (Units=GPa)
#
#
# Indices 1 2 3 4 5 6 
#
# 1 122.8409 11.1258 30.5190 0.0000 -13.0508 0.0000
# 2 11.1258 46.0983 29.5796 0.0000 -3.3314 0.0000
# 3 30.5190 29.5796 89.0705 0.0000 -24.6646 0.0000
# 4 0.0000 0.0000 0.0000 27.7584 0.0000 -5.1875
# 5 -13.0508 -3.3314 -24.6646 0.0000 33.2572 0.0000
# 6 0.0000 0.0000 0.0000 -5.1875 0.0000 37.3152
#
#
#
# Elastic Compliance Matrix: (Units=1/GPa)
#
#
# Indices 1 2 3 4 5 6 
#
# 1 0.008970 -0.000466 -0.002463 0.000000 0.001647 0.000000
# 2 -0.000466 0.028287 -0.010697 0.000000 -0.005283 0.000000
# 3 -0.002463 -0.010697 0.018951 0.000000 0.012017 0.000000
# 4 0.000000 0.000000 0.000000 0.036986 0.000000 0.005142
# 5 0.001647 -0.005283 0.012017 0.000000 0.039098 0.000000
# 6 0.000000 0.000000 0.000000 0.005142 0.000000 0.027513
#
#
# Mechanical properties :
#
#
# Convention : Reuss Voigt Hill
#
# Bulk Modulus (GPa) = 34.53424 44.49538 39.51481
# Shear Modulus (GPa) = 25.41830 32.11852 28.76841
#
# Velocity S-wave (km/s) = 3.47048 3.90117 3.69211
# Velocity P-wave (km/s) = 5.69410 6.43241 6.07449
#
# Compressibility (1/GPa) = 0.02895677
#
# Stress axis : x y z
#
# Youngs Moduli (GPa) = 111.48801 35.35136 52.76784
#
# Poissons Ratio (x) = 0.01646 0.12995
# Poissons Ratio (y) = 0.05191 0.56448
# Poissons Ratio (z) = 0.27456 0.37817
#
# Static dielectric constant tensor:
#      x y z
#    x 3.876370 0.000000 -0.059720 
#    y 0.000000 3.667990 0.000000 
#    z -0.059720 0.000000 3.837060 
# 
# 
# High freq. dielectric constant tensor:
#      x y z
#    x 1.843810 0.000000 -0.005930 
#    y 0.000000 1.829960 0.000000 
#    z -0.005930 0.000000 1.835380 
# 
# From -- ./inp_files/63897.got.cif
#   From: 2010.06.25/outbox.cif.g09.slc.cpg/sg10_32_cif.got.tgz:63897.got - 2010.06.27 22:07:45.
