data_PCOD8067871
_publ_section_title
;
Structure prediction by ZEFSAII (Michael W. Deem and Ramdas Pophale) SiO2 
 PCOD8067871
Probable space group: P 2/M
;
_chemical_formula_sum "Si O2"
_cell_formula_units_Z 32
_cell_length_a 18.031655
_cell_length_b 9.114906
_cell_length_c 22.106528
_cell_angle_alpha 90.000000
_cell_angle_beta 35.346431
_cell_angle_gamma 90.000000
_cell_volume 2101.966583
_symmetry_space_group_name_H-M "P 2/M"
_symmetry_group_IT_number 10
_symmetry_cell_setting 'monoclinic'
loop_
_space_group_symop_operation_xyz
x,y,z
-x,y,-z
-x,-y,-z
x,-y,z
loop_
_atom_site_type_symbol
_atom_site_label
_atom_site_fract_x
_atom_site_fract_y
_atom_site_fract_z
Si Si1 0.192542 0.324471 0.724554
Si Si2 0.088809 0.327655 0.120301
Si Si3 0.624797 0.665903 0.875203
Si Si4 0.587699 0.340177 0.500000
Si Si5 0.768213 0.834541 0.875624
Si Si6 0.480540 0.834541 0.875624
Si Si7 0.641648 0.675529 0.275447
Si Si8 0.329412 0.327656 0.879699
O O1 0.199294 0.500000 0.718191
O O2 0.281147 0.260359 0.610064
O O3 0.246799 0.268479 0.753201
O O4 0.047565 0.269297 0.813128
O O5 0.087623 0.500000 0.134702
O O6 0.119013 0.246098 0.162921
O O7 0.192708 0.288152 0.000000
O O8 0.667446 0.500000 0.832555
O O9 0.741293 0.748491 0.831259
O O10 0.596190 0.748490 0.831259
O O11 0.500000 0.666626 0.000000
O O12 0.500000 0.360856 0.500000
O O13 0.626321 0.500000 0.499999
O O14 0.498725 0.260360 0.610064
O O15 0.810940 0.000000 0.831871
O O16 0.641075 0.834189 0.000000
O O17 0.444856 0.753903 0.837079
O O18 0.525320 0.000000 0.831870
O O19 0.635675 0.500000 0.281810
O O20 0.673820 0.730701 0.186872
O O21 0.357026 0.500000 0.865301
#
# Coordination Sequence:
#
# PCOD8067871 Si02
#       8
#     4   4   4   4   4   4   4   4
#     4   8  13  21  34  52  73  97 125 158 194 227
#     4   9  16  24  34  51  76 102 126 154 188 223
#     4   9  15  23  37  55  73  94 123 158 191 219
#     4   7  10  18  32  50  71  92 117 154 197 231
#     4   9  16  25  36  50  71 100 130 155 181 218
#     4   9  16  25  36  50  71 100 130 155 181 218
#     4   8  13  21  34  52  73  97 125 158 194 227
#     4   9  16  24  34  51  76 102 126 154 188 223
#
# _framework density 15.223838000000001
#
# number of rings (size 3 to 8) (size 9 to 14) (size 15 to 20)
#    0.000    3.500    0.000    2.625    0.000    5.000 
#    0.000    2.500    0.000    0.750    0.000    4.375 
#    0.000    4.000    0.000   11.750    0.000    5.750 
#
# Total GULP energy -396457.698068 kJ/mol
# GULP energy per Si atom -12389.303065 kJ/mol
# Density = 1.518919 g / cm^3
# Si number density = 15.223838 Si / 1000 Ang^3
#
#
#
# Elastic Constant Matrix: (Units=GPa)
#
#
# Indices 1 2 3 4 5 6 
#
# 1 136.7457 46.0832 58.3288 0.0000 -8.4475 0.0000
# 2 46.0832 58.8229 23.4015 0.0000 -2.5828 0.0000
# 3 58.3288 23.4015 63.9058 0.0000 0.1526 0.0000
# 4 0.0000 0.0000 0.0000 4.0698 0.0000 -0.2122
# 5 -8.4475 -2.5828 0.1526 0.0000 3.0965 0.0000
# 6 0.0000 0.0000 0.0000 -0.2122 0.0000 5.9317
#
#
#
# Elastic Compliance Matrix: (Units=1/GPa)
#
#
# Indices 1 2 3 4 5 6 
#
# 1 0.018733 -0.006792 -0.014721 0.000000 0.046164 0.000000
# 2 -0.006792 0.023294 -0.002333 0.000000 0.001015 0.000000
# 3 -0.014721 -0.002333 0.030043 0.000000 -0.043586 0.000000
# 4 0.000000 0.000000 0.000000 0.246174 0.000000 0.008807
# 5 0.046164 0.001015 -0.043586 0.000000 0.451872 0.000000
# 6 0.000000 0.000000 0.000000 0.008807 0.000000 0.168900
#
#
# Mechanical properties :
#
#
# Convention : Reuss Voigt Hill
#
# Bulk Modulus (GPa) = 41.02190 57.23351 49.12770
# Shear Modulus (GPa) = 5.02597 11.39699 8.21148
#
# Velocity S-wave (km/s) = 1.81894 2.73908 2.32498
# Velocity P-wave (km/s) = 5.60497 6.90505 6.28870
#
# Compressibility (1/GPa) = 0.02437722
#
# Stress axis : x y z
#
# Youngs Moduli (GPa) = 53.38212 42.92931 33.28598
#
# Poissons Ratio (x) = 0.29159 0.49000
# Poissons Ratio (y) = 0.36259 0.07765
# Poissons Ratio (z) = 0.78584 0.10015
#
# Static dielectric constant tensor:
#      x y z
#    x 3.021330 0.000000 -0.018780 
#    y 0.000000 2.699830 0.000000 
#    z -0.018780 0.000000 2.856420 
# 
# 
# High freq. dielectric constant tensor:
#      x y z
#    x 1.580730 0.000000 -0.004760 
#    y 0.000000 1.553600 0.000000 
#    z -0.004760 0.000000 1.538970 
# 
# From -- ./inp_files/89936.got.cif
#   From: 2010.06.25/outbox.cif.g09.slc.cpg/sg10_45_cif.got.tgz:89936.got - 2010.06.27 22:07:45.
