data_PCOD8067803
_publ_section_title
;
Structure prediction by ZEFSAII (Michael W. Deem and Ramdas Pophale) SiO2 
 PCOD8067803
Probable space group: P 2/M
;
_chemical_formula_sum "Si O2"
_cell_formula_units_Z 32
_cell_length_a 14.022652
_cell_length_b 17.115119
_cell_length_c 11.914955
_cell_angle_alpha 90.000000
_cell_angle_beta 147.815359
_cell_angle_gamma 90.000000
_cell_volume 1523.154458
_symmetry_space_group_name_H-M "P 2/M"
_symmetry_group_IT_number 10
_symmetry_cell_setting 'monoclinic'
loop_
_space_group_symop_operation_xyz
x,y,z
-x,y,-z
-x,-y,-z
x,-y,z
loop_
_atom_site_type_symbol
_atom_site_label
_atom_site_fract_x
_atom_site_fract_y
_atom_site_fract_z
Si Si1 0.686164 0.829797 0.416273
Si Si2 0.980294 0.088803 0.855530
Si Si3 0.716665 0.845009 0.977384
Si Si4 0.788049 0.910238 0.287538
Si Si5 0.523505 0.411501 0.897489
Si Si6 0.210953 0.587948 0.208009
Si Si7 0.189229 0.329798 0.960241
Si Si8 0.223877 0.653281 0.458109
O O1 0.827662 0.862582 0.643878
O O2 0.709391 0.868202 0.317943
O O3 0.712693 0.737558 0.437045
O O4 0.488401 0.847591 0.266568
O O5 0.168269 0.091321 0.976006
O O6 0.914797 0.000000 0.795334
O O7 0.000000 0.123706 0.000000
O O8 0.719271 0.862628 0.112105
O O9 0.811612 0.763609 0.040356
O O10 0.000000 0.907405 0.500000
O O11 0.720375 0.000000 0.216855
O O12 0.592451 0.500000 0.961308
O O13 0.333703 0.406704 0.644358
O O14 0.500000 0.382067 0.000000
O O15 0.678970 0.357011 0.005162
O O16 0.293747 0.500000 0.288321
O O17 0.278618 0.636173 0.383533
O O18 0.268650 0.636054 0.155500
O O19 0.000000 0.581025 0.000000
O O20 0.988068 0.359712 0.735769
#
# Coordination Sequence:
#
# PCOD8067803 Si02
#       8
#     4   4   4   4   4   4   4   4
#     4  12  25  42  69 102 136 176 224 282 337 403
#     4  11  26  47  69  95 137 183 225 275 338 406
#     4  12  25  42  69 102 136 176 224 282 337 403
#     4  11  23  43  71 100 135 174 222 280 345 408
#     4  11  26  45  65  95 137 177 223 275 332 402
#     4   9  20  39  67  99 130 166 219 275 332 394
#     4  11  23  42  69  98 133 176 220 276 335 399
#     4  11  23  42  69  98 133 176 220 276 335 399
#
# _framework density 21.009031
#
# number of rings (size 3 to 8) (size 9 to 14) (size 15 to 20)
#    0.000    1.000    3.750    1.875    3.500    5.500 
#    0.000    3.750    0.000    0.000    0.000    0.000 
#    0.000    0.000    0.000    0.000    0.000    0.000 
#
# Total GULP energy -396922.751271 kJ/mol
# GULP energy per Si atom -12403.835977 kJ/mol
# Density = 2.096121 g / cm^3
# Si number density = 21.009031 Si / 1000 Ang^3
#
#
#
# Elastic Constant Matrix: (Units=GPa)
#
#
# Indices 1 2 3 4 5 6 
#
# 1 80.3521 29.5163 65.0368 0.0000 -21.2029 0.0000
# 2 29.5163 97.3553 12.9236 0.0000 -14.0947 0.0000
# 3 65.0368 12.9236 107.6274 0.0000 4.2868 0.0000
# 4 0.0000 0.0000 0.0000 -5.3464 0.0000 -24.7549
# 5 -21.2029 -14.0947 4.2868 0.0000 40.8676 0.0000
# 6 0.0000 0.0000 0.0000 -24.7549 0.0000 26.3845
#
#
#
# Elastic Compliance Matrix: (Units=1/GPa)
#
#
# Indices 1 2 3 4 5 6 
#
# 1 0.039640 -0.005763 -0.024102 0.000000 0.021107 0.000000
# 2 -0.005763 0.011880 0.002020 0.000000 0.000896 0.000000
# 3 -0.024102 0.002020 0.024185 0.000000 -0.014345 0.000000
# 4 0.000000 0.000000 0.000000 -0.034999 0.000000 -0.032837
# 5 0.021107 0.000896 -0.014345 0.000000 0.037233 0.000000
# 6 0.000000 0.000000 0.000000 -0.032837 0.000000 0.007092
#
#
# Mechanical properties :
#
#
# Convention : Reuss Voigt Hill
#
# Bulk Modulus (GPa) = 49.96271 55.58756 52.77514
# Shear Modulus (GPa) = 33.92297 24.23834 29.08066
#
# Velocity S-wave (km/s) = 4.02267 3.40032 3.72452
# Velocity P-wave (km/s) = 6.73862 6.47553 6.60839
#
# Compressibility (1/GPa) = 0.02001493
#
# Stress axis : x y z
#
# Youngs Moduli (GPa) = 25.22711 84.17273 41.34878
#
# Poissons Ratio (x) = 0.48507 0.99660
# Poissons Ratio (y) = 0.14538 -0.08353
# Poissons Ratio (z) = 0.60803 -0.17004
#
# Static dielectric constant tensor:
#      x y z
#    x 3.873290 0.000000 -0.096900 
#    y 0.000000 3.933010 0.000000 
#    z -0.096900 0.000000 3.961860 
# 
# 
# High freq. dielectric constant tensor:
#      x y z
#    x 1.827490 0.000000 0.000950 
#    y 0.000000 1.831180 0.000000 
#    z 0.000950 0.000000 1.830450 
# 
# From -- ./inp_files/51982.got.cif
#   From: 2010.06.25/outbox.cif.g09.slc.cpg/sg10_26_cif.got.tgz:51982.got - 2010.06.27 22:07:45.
