data_PCOD8067332
_publ_section_title
;
Structure prediction by ZEFSAII (Michael W. Deem and Ramdas Pophale) SiO2 
 PCOD8067332
Probable space group: P 2/M
;
_chemical_formula_sum "Si O2"
_cell_formula_units_Z 30
_cell_length_a 15.107380
_cell_length_b 18.209734
_cell_length_c 5.354545
_cell_angle_alpha 90.000000
_cell_angle_beta 70.084008
_cell_angle_gamma 90.000000
_cell_volume 1384.944535
_symmetry_space_group_name_H-M "P 2/M"
_symmetry_group_IT_number 10
_symmetry_cell_setting 'monoclinic'
loop_
_space_group_symop_operation_xyz
x,y,z
-x,y,-z
-x,-y,-z
x,-y,z
loop_
_atom_site_type_symbol
_atom_site_label
_atom_site_fract_x
_atom_site_fract_y
_atom_site_fract_z
Si Si1 0.597324 0.169341 0.509466
Si Si2 0.755976 0.084518 0.614745
Si Si3 0.000000 0.716736 0.500000
Si Si4 0.177103 0.356033 0.168120
Si Si5 0.749501 0.789557 0.002674
Si Si6 0.557532 0.678824 0.701255
Si Si7 0.094451 0.825710 0.779127
Si Si8 0.258294 0.584164 0.571689
O O1 0.500000 0.134990 0.500000
O O2 0.660374 0.103625 0.557397
O O3 0.582366 0.234542 0.725505
O O4 0.649338 0.210001 0.232092
O O5 0.761781 0.133525 0.853420
O O6 0.849410 0.102085 0.366034
O O7 0.754115 0.000000 0.694469
O O8 0.066389 0.666132 0.262566
O O9 0.070565 0.768874 0.584514
O O10 0.243753 0.284617 0.166081
O O11 0.190847 0.409130 0.393294
O O12 0.205631 0.390642 0.875328
O O13 0.837544 0.780321 0.105458
O O14 0.500000 0.672749 0.500000
O O15 0.648505 0.629511 0.574893
O O16 0.500000 0.650669 0.000000
O O17 0.000000 0.854921 0.000000
O O18 0.287091 0.500000 0.580026
#
# Coordination Sequence:
#
# PCOD8067332 Si02
#       8
#     4   4   2   4   4   4   4   4
#     4  10  24  41  67  99 131 179 238 294 334 410
#     4  11  25  42  63  98 143 183 228 289 362 424
#     4  12  24  40  74 106 128 176 242 298 346 412
#     4  12  24  44  72 103 136 187 238 290 342 422
#     4  11  22  40  69  97 131 180 239 287 341 417
#     4  11  24  41  72 106 135 180 239 295 345 410
#     4  11  21  40  66 100 132 171 234 295 352 413
#     4  12  27  46  69 104 149 188 225 283 365 430
#
# _framework density 21.661517
#
# number of rings (size 3 to 8) (size 9 to 14) (size 15 to 20)
#    0.000    0.800    4.000    2.800    5.600    3.200 
#    0.000    5.000    0.000    0.000    0.000    0.000 
#    0.000    0.000    0.000    0.000    0.000    0.000 
#
# Total GULP energy -371950.529844 kJ/mol
# GULP energy per Si atom -12398.350995 kJ/mol
# Density = 2.161221 g / cm^3
# Si number density = 21.661517 Si / 1000 Ang^3
#
#
#
# Elastic Constant Matrix: (Units=GPa)
#
#
# Indices 1 2 3 4 5 6 
#
# 1 103.4993 30.4533 47.2856 0.0000 -16.1560 0.0000
# 2 30.4533 114.5772 37.1084 0.0000 4.6085 0.0000
# 3 47.2856 37.1084 141.7615 0.0000 -3.5885 0.0000
# 4 0.0000 0.0000 0.0000 26.6710 0.0000 -4.0382
# 5 -16.1560 4.6085 -3.5885 0.0000 31.7997 0.0000
# 6 0.0000 0.0000 0.0000 -4.0382 0.0000 36.3954
#
#
#
# Elastic Compliance Matrix: (Units=1/GPa)
#
#
# Indices 1 2 3 4 5 6 
#
# 1 0.013064 -0.002602 -0.003509 0.000000 0.006618 0.000000
# 2 -0.002602 0.010144 -0.001863 0.000000 -0.003002 0.000000
# 3 -0.003509 -0.001863 0.008699 0.000000 -0.000531 0.000000
# 4 0.000000 0.000000 0.000000 0.038135 0.000000 0.004231
# 5 0.006618 -0.003002 -0.000531 0.000000 0.035184 0.000000
# 6 0.000000 0.000000 0.000000 0.004231 0.000000 0.027945
#
#
# Mechanical properties :
#
#
# Convention : Reuss Voigt Hill
#
# Bulk Modulus (GPa) = 62.66543 65.50362 64.08453
# Shear Modulus (GPa) = 32.37547 35.30593 33.84070
#
# Velocity S-wave (km/s) = 3.87021 4.04157 3.95682
# Velocity P-wave (km/s) = 6.99740 7.21695 7.10802
#
# Compressibility (1/GPa) = 0.01595776
#
# Stress axis : x y z
#
# Youngs Moduli (GPa) = 76.54827 98.58493 114.95806
#
# Poissons Ratio (x) = 0.25651 0.40337
# Poissons Ratio (y) = 0.19917 0.21421
# Poissons Ratio (z) = 0.26860 0.18370
#
# Static dielectric constant tensor:
#      x y z
#    x 4.000200 0.000000 -0.113090 
#    y 0.000000 3.590160 0.000000 
#    z -0.113090 0.000000 4.151880 
# 
# 
# High freq. dielectric constant tensor:
#      x y z
#    x 1.862640 0.000000 -0.007480 
#    y 0.000000 1.822410 0.000000 
#    z -0.007480 0.000000 1.867600 
# 
# From -- ./inp_files/9808.got.cif
#   From: 2010.06.25/outbox.cif.g09.slc.cpg/sg10_5_cif.got.tgz:9808.got - 2010.06.27 22:07:45.
