data_PCOD8067893
_publ_section_title
;
Structure prediction by ZEFSAII (Michael W. Deem and Ramdas Pophale) SiO2 
 PCOD8067893
Probable space group: P 2/M
;
_chemical_formula_sum "Si O2"
_cell_formula_units_Z 28
_cell_length_a 22.351152
_cell_length_b 9.212946
_cell_length_c 21.163978
_cell_angle_alpha 90.000000
_cell_angle_beta 130.343652
_cell_angle_gamma 90.000000
_cell_volume 3321.625233
_symmetry_space_group_name_H-M "P 2/M"
_symmetry_group_IT_number 10
_symmetry_cell_setting 'monoclinic'
loop_
_space_group_symop_operation_xyz
x,y,z
-x,y,-z
-x,-y,-z
x,-y,z
loop_
_atom_site_type_symbol
_atom_site_label
_atom_site_fract_x
_atom_site_fract_y
_atom_site_fract_z
Si Si1 0.606955 0.335748 0.687859
Si Si2 0.324617 0.335748 0.405520
Si Si3 0.953511 0.663075 0.872794
Si Si4 0.183947 0.836676 0.264962
Si Si5 0.747530 0.836676 0.828546
Si Si6 0.885240 0.663075 0.965958
Si Si7 0.534221 0.164494 0.453301
O O1 0.592760 0.500000 0.701735
O O2 0.640808 0.336927 0.640808
O O3 0.668049 0.257291 0.776484
O O4 0.525326 0.248021 0.633895
O O5 0.315069 0.500000 0.424044
O O6 0.240237 0.257290 0.348672
O O7 0.382847 0.248022 0.491416
O O8 0.950129 0.500000 0.842868
O O9 0.903568 0.768721 0.793439
O O10 0.915916 0.663378 0.915916
O O11 0.044226 0.716249 0.939648
O O12 0.217807 0.836074 0.217806
O O13 0.179392 0.000000 0.288246
O O14 0.810421 0.768722 0.920550
O O15 0.728539 0.000000 0.837394
O O16 0.859407 0.500000 0.966669
O O17 0.500000 0.163001 0.500000
O O18 0.546062 0.000000 0.437142
#
# Coordination Sequence:
#
# PCOD8067893 Si02
#       7
#     4   4   4   4   4   4   4
#     4   9  15  21  27  32  37  44  51  55  59  67
#     4   9  15  21  27  32  37  44  51  55  59  67
#     4   8  13  20  27  32  37  44  51  56  61  68
#     4   9  15  20  25  32  39  44  49  56  63  67
#     4   9  15  20  25  32  39  44  49  56  63  67
#     4   8  13  20  27  32  37  44  51  56  61  68
#     4   9  15  21  27  33  39  43  47  55  63  67
#
# _framework density 8.4296089999999992
#
# number of rings (size 3 to 8) (size 9 to 14) (size 15 to 20)
#    0.000    3.286    0.000    3.000    0.000    9.143 
#    0.000    2.857    0.000    0.000    0.000    0.000 
#    0.000    0.000    0.000    0.000    0.000    0.000 
#
# Total GULP energy -347003.863939 kJ/mol
# GULP energy per Si atom -12392.995141 kJ/mol
# Density = 0.841042 g / cm^3
# Si number density = 8.429609 Si / 1000 Ang^3
#
#
#
# Elastic Constant Matrix: (Units=GPa)
#
#
# Indices 1 2 3 4 5 6 
#
# 1 16.6237 22.9742 22.7921 0.0000 19.4651 0.0000
# 2 22.9742 86.6629 31.4988 0.0000 26.9010 0.0000
# 3 22.7921 31.4988 31.2489 0.0000 26.6876 0.0000
# 4 0.0000 0.0000 0.0000 10.7574 0.0000 9.1872
# 5 19.4651 26.9010 26.6876 0.0000 22.7921 0.0000
# 6 0.0000 0.0000 0.0000 9.1872 0.0000 7.8461
#
#
#
# Elastic Compliance Matrix: (Units=1/GPa)
#
#
# Indices 1 2 3 4 5 6 
#
# 1 ********** -0.018190********** 0.000015********** -0.000017
# 2 -0.018190 0.018211 -0.015456 0.000000 0.012139 0.000000
# 3 ********** -0.015456********** 0.000041********** -0.000048
# 4 -0.000009 0.000000 0.000021********** -0.000017**********
# 5 ********** 0.012139********** -0.000060********** 0.000070
# 6 0.000011 0.000000 -0.000025********** 0.000020**********
#
#
# Mechanical properties :
#
#
# Convention : Reuss Voigt Hill
#
# Bulk Modulus (GPa) = -0.00003 32.11840 16.05918
# Shear Modulus (GPa) = -0.00006 12.09713 6.04854
#
# Velocity S-wave (km/s) = -0.00843 3.79235 2.68159
# Velocity P-wave (km/s) = 0.01162 7.57367 5.35539
#
# Compressibility (1/GPa) = *************
#
# Stress axis : x y z
#
# Youngs Moduli (GPa) = -0.00009 54.91231 -0.00008
#
# Poissons Ratio (x) = 0.99883 -0.19584
# Poissons Ratio (y) = 0.00000 0.00000
# Poissons Ratio (z) = -0.22122 0.84874
#
# Static dielectric constant tensor:
#      x y z
#    x 1.733730 0.000000 0.466210 
#    y 0.000000 2.214520 0.000000 
#    z 0.466210 0.000000 1.881460 
# 
# 
# High freq. dielectric constant tensor:
#      x y z
#    x 1.260090 0.000000 0.066550 
#    y 0.000000 1.333350 0.000000 
#    z 0.066550 0.000000 1.281180 
# 
# From -- ./inp_files/54464.got.cif
#   From: 2010.06.25/outbox.cif.g09.slc.cpg/sg10_28_cif.got.tgz:54464.got - 2010.06.27 22:07:45.
