data_PCOD8067212
_publ_section_title
;
Structure prediction by ZEFSAII (Michael W. Deem and Ramdas Pophale) SiO2 
 PCOD8067212
Probable space group: P 2/M
;
_chemical_formula_sum "Si O2"
_cell_formula_units_Z 24
_cell_length_a 10.923108
_cell_length_b 18.779693
_cell_length_c 12.911400
_cell_angle_alpha 90.000000
_cell_angle_beta 156.637665
_cell_angle_gamma 90.000000
_cell_volume 1050.267617
_symmetry_space_group_name_H-M "P 2/M"
_symmetry_group_IT_number 10
_symmetry_cell_setting 'monoclinic'
loop_
_space_group_symop_operation_xyz
x,y,z
-x,y,-z
-x,-y,-z
x,-y,z
loop_
_atom_site_type_symbol
_atom_site_label
_atom_site_fract_x
_atom_site_fract_y
_atom_site_fract_z
Si Si1 0.829676 0.081521 0.772455
Si Si2 0.763546 0.698230 0.539271
Si Si3 0.352159 0.919115 0.015190
Si Si4 0.921418 0.163439 0.547339
Si Si5 0.202330 0.579912 0.837772
Si Si6 0.131561 0.361894 0.996486
O O1 0.500000 0.120202 0.500000
O O2 0.028548 0.086051 0.823991
O O3 0.764489 0.000000 0.755201
O O4 0.000000 0.120637 0.000000
O O5 0.867984 0.777445 0.592303
O O6 0.401457 0.691425 0.240040
O O7 0.941180 0.638264 0.606992
O O8 0.857635 0.685410 0.732419
O O9 0.235509 0.882051 0.817221
O O10 0.451154 0.000000 0.069919
O O11 0.618144 0.884381 0.292175
O O12 0.000000 0.202172 0.500000
O O13 0.088962 0.500000 0.722753
O O14 0.500000 0.598905 0.000000
O O15 0.260068 0.583276 0.008543
O O16 0.000000 0.399408 0.000000
#
# Coordination Sequence:
#
# PCOD8067212 Si02
#       6
#     4   4   4   4   4   4
#     4   9  17  33  58  84 116 154 194 248 314 383
#     4  10  24  42  68  94 134 178 228 276 328 401
#     4  11  24  42  64  96 127 161 216 275 332 406
#     4  12  26  42  66  92 125 176 219 266 342 405
#     4   9  22  41  70 107 141 183 230 278 328 388
#     4  10  22  42  68  98 138 181 225 282 338 393
#
# _framework density 22.851317999999999
#
# number of rings (size 3 to 8) (size 9 to 14) (size 15 to 20)
#    1.000    0.833    0.000    3.500    2.333    5.667 
#    0.000   10.833    0.000    0.000    0.000    0.000 
#    0.000    0.000    0.000    0.000    0.000    0.000 
#
# Total GULP energy -297345.464536 kJ/mol
# GULP energy per Si atom -12389.394356 kJ/mol
# Density = 2.279931 g / cm^3
# Si number density = 22.851318 Si / 1000 Ang^3
#
#
#
# Elastic Constant Matrix: (Units=GPa)
#
#
# Indices 1 2 3 4 5 6 
#
# 1 118.9265 9.9398 15.8922 0.0000 -6.0135 0.0000
# 2 9.9398 96.6628 30.1982 0.0000 -6.8588 0.0000
# 3 15.8922 30.1982 154.4145 0.0000 -19.5833 0.0000
# 4 0.0000 0.0000 0.0000 19.7695 0.0000 -2.9099
# 5 -6.0135 -6.8588 -19.5833 0.0000 34.1930 0.0000
# 6 0.0000 0.0000 0.0000 -2.9099 0.0000 15.4811
#
#
#
# Elastic Compliance Matrix: (Units=1/GPa)
#
#
# Indices 1 2 3 4 5 6 
#
# 1 0.008596 -0.000613 -0.000635 0.000000 0.001025 0.000000
# 2 -0.000613 0.011097 -0.001983 0.000000 0.000983 0.000000
# 3 -0.000635 -0.001983 0.007402 0.000000 0.003730 0.000000
# 4 0.000000 0.000000 0.000000 0.052022 0.000000 0.009778
# 5 0.001025 0.000983 0.003730 0.000000 0.031760 0.000000
# 6 0.000000 0.000000 0.000000 0.009778 0.000000 0.066433
#
#
# Mechanical properties :
#
#
# Convention : Reuss Voigt Hill
#
# Bulk Modulus (GPa) = 48.46029 53.56269 51.01149
# Shear Modulus (GPa) = 26.22610 34.82028 30.52319
#
# Velocity S-wave (km/s) = 3.39142 3.90779 3.65873
# Velocity P-wave (km/s) = 6.04884 6.62206 6.34193
#
# Compressibility (1/GPa) = 0.02063545
#
# Stress axis : x y z
#
# Youngs Moduli (GPa) = 116.32696 90.11150 135.09501
#
# Poissons Ratio (x) = 0.05523 0.08576
# Poissons Ratio (y) = 0.07130 0.26783
# Poissons Ratio (z) = 0.07385 0.17865
#
# Static dielectric constant tensor:
#      x y z
#    x 4.213420 0.000000 -0.061850 
#    y 0.000000 3.644540 0.000000 
#    z -0.061850 0.000000 4.266740 
# 
# 
# High freq. dielectric constant tensor:
#      x y z
#    x 1.914460 0.000000 0.001270 
#    y 0.000000 1.863190 0.000000 
#    z 0.001270 0.000000 1.913110 
# 
# From -- ./inp_files/65487.got.cif
#   From: 2010.06.25/outbox.cif.g09.slc.cpg/sg10_33_cif.got.tgz:65487.got - 2010.06.27 22:07:45.
