data_PCOD8067470
_publ_section_title
;
Structure prediction by ZEFSAII (Michael W. Deem and Ramdas Pophale) SiO2 
 PCOD8067470
Probable space group: P 2/M
;
_chemical_formula_sum "Si O2"
_cell_formula_units_Z 28
_cell_length_a 15.083918
_cell_length_b 8.524835
_cell_length_c 21.893233
_cell_angle_alpha 90.000000
_cell_angle_beta 147.121807
_cell_angle_gamma 90.000000
_cell_volume 1528.247748
_symmetry_space_group_name_H-M "P 2/M"
_symmetry_group_IT_number 10
_symmetry_cell_setting 'monoclinic'
loop_
_space_group_symop_operation_xyz
x,y,z
-x,y,-z
-x,-y,-z
x,-y,z
loop_
_atom_site_type_symbol
_atom_site_label
_atom_site_fract_x
_atom_site_fract_y
_atom_site_fract_z
Si Si1 0.510241 0.186010 0.906913
Si Si2 0.326091 0.682827 0.110748
Si Si3 0.251299 0.184694 0.849985
Si Si4 0.668121 0.818623 0.755394
Si Si5 0.965876 0.683040 0.862851
Si Si6 0.089347 0.183638 0.300597
Si Si7 0.577983 0.682798 0.481710
O O1 0.533217 0.275583 0.856462
O O2 0.336100 0.239491 0.835644
O O3 0.519410 0.000000 0.900865
O O4 0.651011 0.247092 0.034449
O O5 0.329804 0.500000 0.129120
O O6 0.363277 0.782184 0.192298
O O7 0.151811 0.734237 0.982020
O O8 0.063109 0.238846 0.745412
O O9 0.268644 0.000000 0.861952
O O10 0.544260 0.716324 0.643897
O O11 0.853737 0.775373 0.845986
O O12 0.635184 0.000000 0.722997
O O13 0.939434 0.500000 0.859199
O O14 0.911828 0.722732 0.763231
O O15 0.253639 0.223918 0.432213
O O16 0.077829 0.000000 0.279274
O O17 0.500000 0.742013 0.500000
O O18 0.618203 0.500000 0.507846
#
# Coordination Sequence:
#
# PCOD8067470 Si02
#       7
#     4   4   4   4   4   4   4
#     4   9  16  32  55  80 111 147 184 221 270 323
#     4  11  23  37  54  80 116 151 182 222 275 331
#     4   8  16  30  53  83 113 143 179 228 274 315
#     4  12  25  39  58  80 105 144 192 232 268 323
#     4  11  22  36  53  79 115 151 180 219 275 327
#     4  11  20  33  57  85 112 144 186 229 268 317
#     4  11  23  39  58  79 110 147 180 225 281 326
#
# _framework density 18.321636000000002
#
# number of rings (size 3 to 8) (size 9 to 14) (size 15 to 20)
#    0.000    1.571    2.857    4.286    0.000    4.000 
#    0.000    2.857    0.000    0.857    0.000    6.000 
#    0.000    0.000    0.000    0.000    0.000    0.000 
#
# Total GULP energy -347268.103394 kJ/mol
# GULP energy per Si atom -12402.432264 kJ/mol
# Density = 1.827993 g / cm^3
# Si number density = 18.321636 Si / 1000 Ang^3
#
#
#
# Elastic Constant Matrix: (Units=GPa)
#
#
# Indices 1 2 3 4 5 6 
#
# 1 140.3289 22.7593 42.9363 0.0000 10.3698 0.0000
# 2 22.7593 45.8630 15.7159 0.0000 5.3905 0.0000
# 3 42.9363 15.7159 70.1344 0.0000 7.0696 0.0000
# 4 0.0000 0.0000 0.0000 25.4277 0.0000 -0.4085
# 5 10.3698 5.3905 7.0696 0.0000 30.6542 0.0000
# 6 0.0000 0.0000 0.0000 -0.4085 0.0000 16.8674
#
#
#
# Elastic Compliance Matrix: (Units=1/GPa)
#
#
# Indices 1 2 3 4 5 6 
#
# 1 0.009160 -0.002707 -0.004850 0.000000 -0.001504 0.000000
# 2 -0.002707 0.024691 -0.003614 0.000000 -0.002593 0.000000
# 3 -0.004850 -0.003614 0.018232 0.000000 -0.001929 0.000000
# 4 0.000000 0.000000 0.000000 0.039343 0.000000 0.000953
# 5 -0.001504 -0.002593 -0.001929 0.000000 0.034032 0.000000
# 6 0.000000 0.000000 0.000000 0.000953 0.000000 0.059309
#
#
# Mechanical properties :
#
#
# Convention : Reuss Voigt Hill
#
# Bulk Modulus (GPa) = 33.62396 46.57214 40.09805
# Shear Modulus (GPa) = 23.03929 26.25084 24.64506
#
# Velocity S-wave (km/s) = 3.54996 3.78931 3.67159
# Velocity P-wave (km/s) = 5.93252 6.67979 6.31721
#
# Compressibility (1/GPa) = 0.02974070
#
# Stress axis : x y z
#
# Youngs Moduli (GPa) = 109.16854 40.50117 54.84998
#
# Poissons Ratio (x) = 0.10964 0.26600
# Poissons Ratio (y) = 0.29553 0.19824
# Poissons Ratio (z) = 0.52942 0.14638
#
# Static dielectric constant tensor:
#      x y z
#    x 3.610050 0.000000 0.255220 
#    y 0.000000 3.225330 0.000000 
#    z 0.255220 0.000000 3.298880 
# 
# 
# High freq. dielectric constant tensor:
#      x y z
#    x 1.713290 0.000000 0.010940 
#    y 0.000000 1.705750 0.000000 
#    z 0.010940 0.000000 1.688860 
# 
# From -- ./inp_files/49195.got.cif
#   From: 2010.06.25/outbox.cif.g09.slc.cpg/sg10_25_cif.got.tgz:49195.got - 2010.06.27 22:07:45.
