data_PCOD8067447
_publ_section_title
;
Structure prediction by ZEFSAII (Michael W. Deem and Ramdas Pophale) SiO2 
 PCOD8067447
Probable space group: P 2/M
;
_chemical_formula_sum "Si O2"
_cell_formula_units_Z 20
_cell_length_a 12.130104
_cell_length_b 8.708790
_cell_length_c 12.138214
_cell_angle_alpha 90.000000
_cell_angle_beta 118.023229
_cell_angle_gamma 90.000000
_cell_volume 1131.926934
_symmetry_space_group_name_H-M "P 2/M"
_symmetry_group_IT_number 10
_symmetry_cell_setting 'monoclinic'
loop_
_space_group_symop_operation_xyz
x,y,z
-x,y,-z
-x,-y,-z
x,-y,z
loop_
_atom_site_type_symbol
_atom_site_label
_atom_site_fract_x
_atom_site_fract_y
_atom_site_fract_z
Si Si1 0.419480 0.678192 0.568169
Si Si2 0.159348 0.180855 0.487251
Si Si3 0.910973 0.319942 0.315425
Si Si4 0.491204 0.178425 0.173950
Si Si5 0.700707 0.177905 0.096006
O O1 0.500000 0.721248 0.500000
O O2 0.383927 0.500000 0.554936
O O3 0.293340 0.776217 0.501626
O O4 0.501204 0.719706 0.713498
O O5 0.150178 0.237120 0.608303
O O6 0.051761 0.260208 0.362922
O O7 0.140316 0.000000 0.474591
O O8 0.912930 0.500000 0.337267
O O9 0.826330 0.277933 0.169810
O O10 0.603428 0.223215 0.145500
O O11 0.500457 0.000000 0.210481
O O12 0.360053 0.214017 0.051411
O O13 0.736092 0.000000 0.121285
#
# Coordination Sequence:
#
# PCOD8067447 Si02
#       5
#     4   4   4   4   4
#     4  11  23  37  53  76 108 140 174 218 261 305
#     4  11  21  34  52  74 103 139 178 215 256 308
#     4  11  20  31  51  79 109 137 167 212 267 315
#     4   9  18  32  52  76 105 138 175 213 254 309
#     4   9  17  31  51  78 108 137 168 212 262 307
#
# _framework density 17.668983999999998
#
# number of rings (size 3 to 8) (size 9 to 14) (size 15 to 20)
#    0.000    1.800    2.000    6.600    0.000    2.400 
#    0.000    2.000    0.000    1.200    0.000    8.400 
#    0.000    0.000    0.000    0.000    0.000    0.000 
#
# Total GULP energy -248030.240910 kJ/mol
# GULP energy per Si atom -12401.512045 kJ/mol
# Density = 1.762877 g / cm^3
# Si number density = 17.668984 Si / 1000 Ang^3
#
#
#
# Elastic Constant Matrix: (Units=GPa)
#
#
# Indices 1 2 3 4 5 6 
#
# 1 71.3069 25.3257 46.8355 0.0000 10.4878 0.0000
# 2 25.3257 62.0760 29.0515 0.0000 4.4509 0.0000
# 3 46.8355 29.0515 104.6510 0.0000 19.8879 0.0000
# 4 0.0000 0.0000 0.0000 24.9295 0.0000 3.5510
# 5 10.4878 4.4509 19.8879 0.0000 32.3871 0.0000
# 6 0.0000 0.0000 0.0000 3.5510 0.0000 20.8851
#
#
#
# Elastic Compliance Matrix: (Units=1/GPa)
#
#
# Indices 1 2 3 4 5 6 
#
# 1 0.021090 -0.004839 -0.007838 0.000000 -0.001351 0.000000
# 2 -0.004839 0.019639 -0.003477 0.000000 0.001003 0.000000
# 3 -0.007838 -0.003477 0.015233 0.000000 -0.006338 0.000000
# 4 0.000000 0.000000 0.000000 0.041109 0.000000 -0.006990
# 5 -0.001351 0.001003 -0.006338 0.000000 0.035068 0.000000
# 6 0.000000 0.000000 0.000000 -0.006990 0.000000 0.049069
#
#
# Mechanical properties :
#
#
# Convention : Reuss Voigt Hill
#
# Bulk Modulus (GPa) = 42.27729 48.93992 45.60860
# Shear Modulus (GPa) = 22.58351 24.76175 23.67263
#
# Velocity S-wave (km/s) = 3.57899 3.74762 3.66428
# Velocity P-wave (km/s) = 6.40767 6.81796 6.61600
#
# Compressibility (1/GPa) = 0.02365336
#
# Stress axis : x y z
#
# Youngs Moduli (GPa) = 47.41674 50.91993 65.64593
#
# Poissons Ratio (x) = 0.24640 0.51456
# Poissons Ratio (y) = 0.22944 0.22824
# Poissons Ratio (z) = 0.37167 0.17704
#
# Static dielectric constant tensor:
#      x y z
#    x 3.065830 0.000000 0.311890 
#    y 0.000000 3.264110 0.000000 
#    z 0.311890 0.000000 3.410950 
# 
# 
# High freq. dielectric constant tensor:
#      x y z
#    x 1.648980 0.000000 0.032630 
#    y 0.000000 1.691490 0.000000 
#    z 0.032630 0.000000 1.683330 
# 
# From -- ./inp_files/44618.got.cif
#   From: 2010.06.25/outbox.cif.g09.slc.cpg/sg10_23_cif.got.tgz:44618.got - 2010.06.27 22:07:45.
