data_PCOD8067606
_publ_section_title
;
Structure prediction by ZEFSAII (Michael W. Deem and Ramdas Pophale) SiO2 
 PCOD8067606
Probable space group: P 2/M
;
_chemical_formula_sum "Si O2"
_cell_formula_units_Z 24
_cell_length_a 13.976633
_cell_length_b 12.682431
_cell_length_c 13.976637
_cell_angle_alpha 90.000000
_cell_angle_beta 31.498179
_cell_angle_gamma 90.000000
_cell_volume 1294.405448
_symmetry_space_group_name_H-M "P 2/M"
_symmetry_group_IT_number 10
_symmetry_cell_setting 'monoclinic'
loop_
_space_group_symop_operation_xyz
x,y,z
-x,y,-z
-x,-y,-z
x,-y,z
loop_
_atom_site_type_symbol
_atom_site_label
_atom_site_fract_x
_atom_site_fract_y
_atom_site_fract_z
Si Si1 0.057557 0.875767 0.057559
Si Si2 0.426434 0.195445 0.829957
Si Si3 0.511549 0.383400 0.098531
Si Si4 0.170045 0.804555 0.573565
Si Si5 0.014547 0.000000 0.600665
Si Si6 0.600665 0.000000 0.014547
Si Si7 0.901469 0.616600 0.488451
O O1 0.903928 0.827477 0.257766
O O2 0.067104 0.000000 0.067106
O O3 0.257765 0.827478 0.903930
O O4 0.000000 0.846404 0.000000
O O5 0.375716 0.300806 0.933345
O O6 0.609959 0.209613 0.609961
O O7 0.461578 0.102508 0.874994
O O8 0.604601 0.500000 0.022216
O O9 0.311523 0.390222 0.311523
O O10 0.500000 0.341576 0.000000
O O11 0.066656 0.699194 0.624284
O O12 0.125006 0.897492 0.538422
O O13 0.000000 0.000000 0.500000
O O14 0.818488 0.000000 0.818488
O O15 0.500000 0.000000 0.000000
O O16 0.977784 0.500000 0.395399
O O17 0.000000 0.658424 0.500000
#
# Coordination Sequence:
#
# PCOD8067606 Si02
#       7
#     4   4   4   4   2   2   4
#     4  11  24  42  61  83 113 147 194 249 293 342
#     4  11  21  37  58  82 114 148 187 234 289 338
#     4   9  19  33  52  82 116 153 191 224 270 335
#     4  11  21  37  58  82 114 148 187 234 289 338
#     4  12  22  34  52  82 119 151 186 226 276 345
#     4  12  22  34  52  82 119 151 186 226 276 345
#     4   9  19  33  52  82 116 153 191 224 270 335
#
# _framework density 18.541331
#
# number of rings (size 3 to 8) (size 9 to 14) (size 15 to 20)
#    0.000    1.500    3.333    2.500    2.333    3.333 
#    0.000    1.667    0.000    2.000    0.000    4.667 
#    0.000    0.000    0.000    0.000    0.000    0.000 
#
# Total GULP energy -297607.672223 kJ/mol
# GULP energy per Si atom -12400.319676 kJ/mol
# Density = 1.849913 g / cm^3
# Si number density = 18.541331 Si / 1000 Ang^3
#
#
#
# Elastic Constant Matrix: (Units=GPa)
#
#
# Indices 1 2 3 4 5 6 
#
# 1 139.3734 67.6770 51.3231 0.0000 8.1996 0.0000
# 2 67.6770 119.8884 34.2577 0.0000 9.6474 0.0000
# 3 51.3231 34.2577 92.5838 0.0000 5.3080 0.0000
# 4 0.0000 0.0000 0.0000 67.3185 0.0000 -10.1231
# 5 8.1996 9.6474 5.3080 0.0000 30.6584 0.0000
# 6 0.0000 0.0000 0.0000 -10.1231 0.0000 32.2490
#
#
#
# Elastic Compliance Matrix: (Units=1/GPa)
#
#
# Indices 1 2 3 4 5 6 
#
# 1 0.011273 -0.005071 -0.004334 0.000000 -0.000669 0.000000
# 2 -0.005071 0.011781 -0.001427 0.000000 -0.002104 0.000000
# 3 -0.004334 -0.001427 0.013776 0.000000 -0.000777 0.000000
# 4 0.000000 0.000000 0.000000 0.015591 0.000000 0.004894
# 5 -0.000669 -0.002104 -0.000777 0.000000 0.033593 0.000000
# 6 0.000000 0.000000 0.000000 0.004894 0.000000 0.032545
#
#
# Mechanical properties :
#
#
# Convention : Reuss Voigt Hill
#
# Bulk Modulus (GPa) = 65.94336 73.15122 69.54729
# Shear Modulus (GPa) = 34.41652 39.28436 36.85044
#
# Velocity S-wave (km/s) = 4.31304 4.60798 4.46295
# Velocity P-wave (km/s) = 7.77470 8.23711 8.00924
#
# Compressibility (1/GPa) = 0.01516453
#
# Stress axis : x y z
#
# Youngs Moduli (GPa) = 88.70887 84.88285 72.58819
#
# Poissons Ratio (x) = 0.43046 0.31461
# Poissons Ratio (y) = 0.44986 0.10361
# Poissons Ratio (z) = 0.38448 0.12116
#
# Static dielectric constant tensor:
#      x y z
#    x 3.264600 0.000000 -0.049770 
#    y 0.000000 4.016190 0.000000 
#    z -0.049770 0.000000 3.437020 
# 
# 
# High freq. dielectric constant tensor:
#      x y z
#    x 1.693770 0.000000 -0.009590 
#    y 0.000000 1.726530 0.000000 
#    z -0.009590 0.000000 1.727000 
# 
# From -- ./inp_files/37481.got.cif
#   From: 2010.06.25/outbox.cif.g09.slc.cpg/sg10_19_cif.got.tgz:37481.got - 2010.06.27 22:07:45.
