data_PCOD8067625
_publ_section_title
;
Structure prediction by ZEFSAII (Michael W. Deem and Ramdas Pophale) SiO2 
 PCOD8067625
Probable space group: P 2/M
;
_chemical_formula_sum "Si O2"
_cell_formula_units_Z 14
_cell_length_a 8.089638
_cell_length_b 16.501559
_cell_length_c 9.271705
_cell_angle_alpha 90.000000
_cell_angle_beta 147.533428
_cell_angle_gamma 90.000000
_cell_volume 664.403958
_symmetry_space_group_name_H-M "P 2/M"
_symmetry_group_IT_number 10
_symmetry_cell_setting 'monoclinic'
loop_
_space_group_symop_operation_xyz
x,y,z
-x,y,-z
-x,-y,-z
x,-y,z
loop_
_atom_site_type_symbol
_atom_site_label
_atom_site_fract_x
_atom_site_fract_y
_atom_site_fract_z
Si Si1 0.357029 0.087475 0.242340
Si Si2 0.271037 0.745326 0.081894
Si Si3 0.102409 0.342220 0.414272
Si Si4 0.854993 0.500000 0.737003
O O1 0.500000 0.112302 0.500000
O O2 0.414101 0.163391 0.177321
O O3 0.494138 0.000000 0.288010
O O4 0.000000 0.075065 0.000000
O O5 0.540578 0.683833 0.326701
O O6 0.000000 0.739212 0.000000
O O7 0.124866 0.726085 0.818514
O O8 0.041583 0.421526 0.275021
O O9 0.000000 0.360847 0.500000
O O10 0.500000 0.500000 0.500000
O O11 0.000000 0.500000 0.000000
#
# Coordination Sequence:
#
# PCOD8067625 Si02
#       4
#     4   4   4   2
#     4   9  17  30  53  86 117 146 190 247 291 326
#     4  11  21  38  63  88 116 155 201 242 283 342
#     4  12  25  41  60  87 122 155 189 236 297 351
#     4  12  25  42  65  88 113 148 197 244 285 340
#
# _framework density 21.07152
#
# number of rings (size 3 to 8) (size 9 to 14) (size 15 to 20)
#    0.000    1.143    0.000    9.857    0.000    0.000 
#    0.000    4.286    0.000    5.143    0.000    0.000 
#    0.000    0.000    0.000    0.000    0.000    0.000 
#
# Total GULP energy -173545.463616 kJ/mol
# GULP energy per Si atom -12396.104544 kJ/mol
# Density = 2.102356 g / cm^3
# Si number density = 21.071520 Si / 1000 Ang^3
#
#
#
# Elastic Constant Matrix: (Units=GPa)
#
#
# Indices 1 2 3 4 5 6 
#
# 1 81.1670 65.6111 48.1322 0.0000 -21.8011 0.0000
# 2 65.6111 151.3432 60.4014 0.0000 -19.5690 0.0000
# 3 48.1322 60.4014 172.2081 0.0000 -16.6693 0.0000
# 4 0.0000 0.0000 0.0000 39.5198 0.0000 -4.5307
# 5 -21.8011 -19.5690 -16.6693 0.0000 37.6981 0.0000
# 6 0.0000 0.0000 0.0000 -4.5307 0.0000 6.2347
#
#
#
# Elastic Compliance Matrix: (Units=1/GPa)
#
#
# Indices 1 2 3 4 5 6 
#
# 1 0.022070 -0.007456 -0.002813 0.000000 0.007649 0.000000
# 2 -0.007456 0.010523 -0.001562 0.000000 0.000460 0.000000
# 3 -0.002813 -0.001562 0.007214 0.000000 0.000752 0.000000
# 4 0.000000 0.000000 0.000000 0.027604 0.000000 0.020059
# 5 0.007649 0.000460 0.000752 0.000000 0.031521 0.000000
# 6 0.000000 0.000000 0.000000 0.020059 0.000000 0.174970
#
#
# Mechanical properties :
#
#
# Convention : Reuss Voigt Hill
#
# Bulk Modulus (GPa) = 61.94316 83.66752 72.80534
# Shear Modulus (GPa) = 16.50459 32.06207 24.28333
#
# Velocity S-wave (km/s) = 2.80172 3.90498 3.39842
# Velocity P-wave (km/s) = 6.31875 7.75400 7.07287
#
# Compressibility (1/GPa) = 0.01614383
#
# Stress axis : x y z
#
# Youngs Moduli (GPa) = 45.31019 95.03041 138.62043
#
# Poissons Ratio (x) = 0.70857 0.38993
# Poissons Ratio (y) = 0.33784 0.21658
# Poissons Ratio (z) = 0.12745 0.14847
#
# Static dielectric constant tensor:
#      x y z
#    x 3.337410 0.000000 0.000550 
#    y 0.000000 4.861050 0.000000 
#    z 0.000550 0.000000 4.035410 
# 
# 
# High freq. dielectric constant tensor:
#      x y z
#    x 1.770510 0.000000 0.001820 
#    y 0.000000 1.849450 0.000000 
#    z 0.001820 0.000000 1.857880 
# 
# From -- ./inp_files/19426.got.cif
#   From: 2010.06.25/outbox.cif.g09.slc.cpg/sg10_10_cif.got.tgz:19426.got - 2010.06.27 22:07:45.
