data_PCOD8067748
_publ_section_title
;
Structure prediction by ZEFSAII (Michael W. Deem and Ramdas Pophale) SiO2 
 PCOD8067748
Probable space group: P 2/M
;
_chemical_formula_sum "Si O2"
_cell_formula_units_Z 32
_cell_length_a 14.724074
_cell_length_b 17.757982
_cell_length_c 11.891390
_cell_angle_alpha 90.000000
_cell_angle_beta 30.302887
_cell_angle_gamma 90.000000
_cell_volume 1568.832659
_symmetry_space_group_name_H-M "P 2/M"
_symmetry_group_IT_number 10
_symmetry_cell_setting 'monoclinic'
loop_
_space_group_symop_operation_xyz
x,y,z
-x,y,-z
-x,-y,-z
x,-y,z
loop_
_atom_site_type_symbol
_atom_site_label
_atom_site_fract_x
_atom_site_fract_y
_atom_site_fract_z
Si Si1 0.220873 0.304463 0.082851
Si Si2 0.496416 0.199705 0.132354
Si Si3 0.481990 0.088113 0.690646
Si Si4 0.706416 0.586361 0.810721
Si Si5 0.818717 0.413739 0.266357
Si Si6 0.683343 0.289072 0.268226
Si Si7 0.176053 0.683240 0.513467
Si Si8 0.798655 0.864215 0.190571
O O1 0.244803 0.385932 0.115931
O O2 0.017189 0.276245 0.282768
O O3 0.318036 0.245016 0.058529
O O4 0.320485 0.309209 0.857892
O O5 0.506607 0.127709 0.200965
O O6 0.331135 0.253855 0.347157
O O7 0.500000 0.171933 0.000000
O O8 0.295677 0.110134 0.825950
O O9 0.665261 0.109413 0.430796
O O10 0.478868 0.000000 0.715383
O O11 0.759996 0.500000 0.746340
O O12 0.823827 0.631605 0.596361
O O13 0.500000 0.601112 0.000000
O O14 0.756509 0.500000 0.350731
O O15 0.680087 0.367204 0.339569
O O16 0.826733 0.372514 0.377083
O O17 0.000000 0.409551 0.000000
O O18 0.500000 0.246486 0.500000
O O19 0.830118 0.226696 0.148296
O O20 0.000000 0.897904 0.000000
#
# Coordination Sequence:
#
# PCOD8067748 Si02
#       8
#     4   4   4   4   4   4   4   4
#     4  12  23  41  65  94 124 169 225 273 325 384
#     4  12  25  45  67  97 130 168 222 276 322 385
#     4  11  25  44  68 104 137 168 210 257 323 403
#     4  11  24  42  64  93 127 168 223 289 342 379
#     4  11  24  40  56  88 131 170 217 269 329 394
#     4  12  23  40  65  93 130 171 219 267 321 389
#     4  12  23  42  69  90 124 174 223 274 324 390
#     4  11  22  41  72 103 136 170 211 265 319 389
#
# _framework density 20.397331000000001
#
# number of rings (size 3 to 8) (size 9 to 14) (size 15 to 20)
#    0.000    0.500    6.250    3.375    1.750    3.500 
#    0.000    0.000    0.000    0.000    0.000    3.500 
#    0.000    0.000    0.000    0.000    0.000    0.000 
#
# Total GULP energy -396643.453007 kJ/mol
# GULP energy per Si atom -12395.107906 kJ/mol
# Density = 2.035091 g / cm^3
# Si number density = 20.397331 Si / 1000 Ang^3
#
#
#
# Elastic Constant Matrix: (Units=GPa)
#
#
# Indices 1 2 3 4 5 6 
#
# 1 132.5675 71.9247 63.9687 0.0000 8.6128 0.0000
# 2 71.9247 121.6649 39.3211 0.0000 6.2947 0.0000
# 3 63.9687 39.3211 97.8239 0.0000 5.0636 0.0000
# 4 0.0000 0.0000 0.0000 15.2132 0.0000 3.2008
# 5 8.6128 6.2947 5.0636 0.0000 39.0924 0.0000
# 6 0.0000 0.0000 0.0000 3.2008 0.0000 22.4329
#
#
#
# Elastic Compliance Matrix: (Units=1/GPa)
#
#
# Indices 1 2 3 4 5 6 
#
# 1 0.014233 -0.006162 -0.006765 0.000000 -0.001267 0.000000
# 2 -0.006162 0.012156 -0.000831 0.000000 -0.000492 0.000000
# 3 -0.006765 -0.000831 0.014997 0.000000 -0.000318 0.000000
# 4 0.000000 0.000000 0.000000 0.067767 0.000000 -0.009669
# 5 -0.001267 -0.000492 -0.000318 0.000000 0.025980 0.000000
# 6 0.000000 0.000000 0.000000 -0.009669 0.000000 0.045957
#
#
# Mechanical properties :
#
#
# Convention : Reuss Voigt Hill
#
# Bulk Modulus (GPa) = 72.10009 78.05391 75.07700
# Shear Modulus (GPa) = 23.44883 27.13717 25.29300
#
# Velocity S-wave (km/s) = 3.39426 3.65146 3.52520
# Velocity P-wave (km/s) = 7.12642 7.49182 7.31140
#
# Compressibility (1/GPa) = 0.01386961
#
# Stress axis : x y z
#
# Youngs Moduli (GPa) = 70.25736 82.26086 66.68164
#
# Poissons Ratio (x) = 0.50693 0.45109
# Poissons Ratio (y) = 0.43296 0.05542
# Poissons Ratio (z) = 0.47528 0.06837
#
# Static dielectric constant tensor:
#      x y z
#    x 3.824080 0.000000 -0.028290 
#    y 0.000000 3.665570 0.000000 
#    z -0.028290 0.000000 3.790990 
# 
# 
# High freq. dielectric constant tensor:
#      x y z
#    x 1.808970 0.000000 0.000280 
#    y 0.000000 1.784310 0.000000 
#    z 0.000280 0.000000 1.803830 
# 
# From -- ./inp_files/51946.got.cif
#   From: 2010.06.25/outbox.cif.g09.slc.cpg/sg10_26_cif.got.tgz:51946.got - 2010.06.27 22:07:45.
