data_PCOD8067409
_publ_section_title
;
Structure prediction by ZEFSAII (Michael W. Deem and Ramdas Pophale) SiO2 
 PCOD8067409
Probable space group: P 2/M
;
_chemical_formula_sum "Si O2"
_cell_formula_units_Z 32
_cell_length_a 18.048925
_cell_length_b 14.689556
_cell_length_c 12.047978
_cell_angle_alpha 90.000000
_cell_angle_beta 150.620107
_cell_angle_gamma 90.000000
_cell_volume 1567.111638
_symmetry_space_group_name_H-M "P 2/M"
_symmetry_group_IT_number 10
_symmetry_cell_setting 'monoclinic'
loop_
_space_group_symop_operation_xyz
x,y,z
-x,y,-z
-x,-y,-z
x,-y,z
loop_
_atom_site_type_symbol
_atom_site_label
_atom_site_fract_x
_atom_site_fract_y
_atom_site_fract_z
Si Si1 0.230574 0.598301 0.555261
Si Si2 0.928310 0.598465 0.285875
Si Si3 0.330562 0.104344 0.960374
Si Si4 0.242738 0.790714 0.637568
Si Si5 0.155508 0.212472 0.134701
Si Si6 0.108664 0.210924 0.820226
Si Si7 0.666809 0.105023 0.461449
Si Si8 0.178632 0.597511 0.233585
O O1 0.303392 0.500000 0.686585
O O2 0.305123 0.686268 0.711656
O O3 0.243490 0.611591 0.441200
O O4 0.054184 0.596449 0.354763
O O5 0.840761 0.500000 0.168101
O O6 0.825999 0.687190 0.124001
O O7 0.000000 0.611372 0.500000
O O8 0.340770 0.159504 0.858723
O O9 0.195593 0.137045 0.861818
O O10 0.301233 0.000000 0.890695
O O11 0.487057 0.117859 0.228908
O O12 0.257540 0.839956 0.539533
O O13 0.067116 0.791427 0.443226
O O14 0.271199 0.141743 0.340676
O O15 0.229308 0.314203 0.229726
O O16 0.128493 0.182905 0.973681
O O17 0.000000 0.212217 0.000000
O O18 0.712616 0.000000 0.507821
O O19 0.240119 0.500000 0.266062
O O20 0.000000 0.592816 0.000000
#
# Coordination Sequence:
#
# PCOD8067409 Si02
#       8
#     4   4   4   4   4   4   4   4
#     4   9  16  27  50  85 119 146 181 232 285 335
#     4   9  16  28  49  82 121 156 190 230 282 343
#     4  11  26  43  59  83 115 157 200 243 303 359
#     4  11  19  39  65  90 118 150 197 246 288 342
#     4  11  20  38  59  89 118 149 195 245 290 345
#     4  11  22  36  61  90 122 152 192 244 295 343
#     4  11  24  42  62  84 113 154 200 245 298 357
#     4   9  15  26  49  81 116 148 181 228 280 335
#
# _framework density 20.419733999999998
#
# number of rings (size 3 to 8) (size 9 to 14) (size 15 to 20)
#    0.000    1.750    2.500    4.875    0.000    5.250 
#    0.000    1.250    0.000    3.750    0.000    1.750 
#    0.000    0.000    0.000    0.000    0.000    0.000 
#
# Total GULP energy -396593.503152 kJ/mol
# GULP energy per Si atom -12393.546973 kJ/mol
# Density = 2.037326 g / cm^3
# Si number density = 20.419734 Si / 1000 Ang^3
#
#
#
# Elastic Constant Matrix: (Units=GPa)
#
#
# Indices 1 2 3 4 5 6 
#
# 1 41.1342 19.1983 10.8239 0.0000 -11.3870 0.0000
# 2 19.1983 170.3232 47.6013 0.0000 -6.5462 0.0000
# 3 10.8239 47.6013 63.6232 0.0000 -14.1538 0.0000
# 4 0.0000 0.0000 0.0000 18.6191 0.0000 -15.1167
# 5 -11.3870 -6.5462 -14.1538 0.0000 26.5638 0.0000
# 6 0.0000 0.0000 0.0000 -15.1167 0.0000 14.2645
#
#
#
# Elastic Compliance Matrix: (Units=1/GPa)
#
#
# Indices 1 2 3 4 5 6 
#
# 1 0.028856 -0.002724 -0.000305 0.000000 0.011536 0.000000
# 2 -0.002724 0.007719 -0.005841 0.000000 -0.002378 0.000000
# 3 -0.000305 -0.005841 0.022451 0.000000 0.010393 0.000000
# 4 0.000000 0.000000 0.000000 0.384725 0.000000 0.407710
# 5 0.011536 -0.002378 0.010393 0.000000 0.047542 0.000000
# 6 0.000000 0.000000 0.000000 0.407710 0.000000 0.502172
#
#
# Mechanical properties :
#
#
# Convention : Reuss Voigt Hill
#
# Bulk Modulus (GPa) = 24.22072 47.81418 36.01745
# Shear Modulus (GPa) = 4.87821 25.05329 14.96575
#
# Velocity S-wave (km/s) = 1.54731 3.50654 2.71016
# Velocity P-wave (km/s) = 3.88322 6.31355 5.24120
#
# Compressibility (1/GPa) = 0.04128697
#
# Stress axis : x y z
#
# Youngs Moduli (GPa) = 34.65529 129.54673 44.54086
#
# Poissons Ratio (x) = 0.35288 0.01358
# Poissons Ratio (y) = 0.09440 0.26016
# Poissons Ratio (z) = 0.01056 0.75666
#
# Static dielectric constant tensor:
#      x y z
#    x 3.494360 0.000000 -0.263570 
#    y 0.000000 4.411160 0.000000 
#    z -0.263570 0.000000 3.375040 
# 
# 
# High freq. dielectric constant tensor:
#      x y z
#    x 1.777150 0.000000 -0.032350 
#    y 0.000000 1.826430 0.000000 
#    z -0.032350 0.000000 1.757070 
# 
# From -- ./inp_files/54044.got.cif
#   From: 2010.06.25/outbox.cif.g09.slc.cpg/sg10_28_cif.got.tgz:54044.got - 2010.06.27 22:07:45.
