data_PCOD8067579
_publ_section_title
;
Structure prediction by ZEFSAII (Michael W. Deem and Ramdas Pophale) SiO2 
 PCOD8067579
Probable space group: P 2/M
;
_chemical_formula_sum "Si O2"
_cell_formula_units_Z 28
_cell_length_a 21.833511
_cell_length_b 8.599595
_cell_length_c 14.807764
_cell_angle_alpha 90.000000
_cell_angle_beta 149.426154
_cell_angle_gamma 90.000000
_cell_volume 1414.193358
_symmetry_space_group_name_H-M "P 2/M"
_symmetry_group_IT_number 10
_symmetry_cell_setting 'monoclinic'
loop_
_space_group_symop_operation_xyz
x,y,z
-x,y,-z
-x,-y,-z
x,-y,z
loop_
_atom_site_type_symbol
_atom_site_label
_atom_site_fract_x
_atom_site_fract_y
_atom_site_fract_z
Si Si1 0.613765 0.818562 0.038172
Si Si2 0.344572 0.184356 0.711414
Si Si3 0.775972 0.819858 0.741730
Si Si4 0.875350 0.680652 0.048674
Si Si5 0.694405 0.181129 0.949172
Si Si6 0.138923 0.319028 0.327520
Si Si7 0.527278 0.319599 0.432709
O O1 0.477290 0.758545 0.848474
O O2 0.699330 0.777038 0.062151
O O3 0.598406 0.000000 0.032834
O O4 0.672272 0.758185 0.205842
O O5 0.248878 0.275558 0.530741
O O6 0.324344 0.000000 0.672737
O O7 0.808232 0.721582 0.870842
O O8 0.861164 0.775389 0.766297
O O9 0.639320 0.781153 0.539050
O O10 0.791129 0.000000 0.783809
O O11 0.854388 0.500000 0.040887
O O12 0.820815 0.775753 0.063665
O O13 0.015508 0.724540 0.221596
O O14 0.589202 0.283148 0.773438
O O15 0.665868 0.000000 0.898294
O O16 0.143712 0.500000 0.309181
O O17 0.500000 0.270443 0.500000
O O18 0.560508 0.500000 0.466278
#
# Coordination Sequence:
#
# PCOD8067579 Si02
#       7
#     4   4   4   4   4   4   4
#     4   8  17  34  59  90 117 143 177 229 290 339
#     4   9  17  36  63  87 114 145 183 230 283 340
#     4  12  24  38  60  86 111 145 193 241 283 334
#     4  11  24  41  56  76 113 157 193 233 284 339
#     4  11  21  35  58  87 117 150 193 238 282 333
#     4  11  24  40  58  81 113 150 191 236 286 341
#     4  11  22  36  56  82 118 154 183 223 281 338
#
# _framework density 19.799274
#
# number of rings (size 3 to 8) (size 9 to 14) (size 15 to 20)
#    0.000    1.571    1.429    5.143    0.000    5.714 
#    0.000    4.286    0.000    4.286    0.000    0.000 
#    0.000    0.000    0.000    0.000    0.000    0.000 
#
# Total GULP energy -347268.720502 kJ/mol
# GULP energy per Si atom -12402.454304 kJ/mol
# Density = 1.975421 g / cm^3
# Si number density = 19.799274 Si / 1000 Ang^3
#
#
#
# Elastic Constant Matrix: (Units=GPa)
#
#
# Indices 1 2 3 4 5 6 
#
# 1 143.1111 25.4316 34.1067 0.0000 0.4020 0.0000
# 2 25.4316 47.1407 10.2230 0.0000 5.0208 0.0000
# 3 34.1067 10.2230 51.5667 0.0000 8.2332 0.0000
# 4 0.0000 0.0000 0.0000 23.7039 0.0000 8.8955
# 5 0.4020 5.0208 8.2332 0.0000 25.6812 0.0000
# 6 0.0000 0.0000 0.0000 8.8955 0.0000 20.9068
#
#
#
# Elastic Compliance Matrix: (Units=1/GPa)
#
#
# Indices 1 2 3 4 5 6 
#
# 1 0.009001 -0.003906 -0.005563 0.000000 0.002406 0.000000
# 2 -0.003906 0.024095 -0.001530 0.000000 -0.004159 0.000000
# 3 -0.005563 -0.001530 0.024571 0.000000 -0.007491 0.000000
# 4 0.000000 0.000000 0.000000 0.050203 0.000000 -0.021361
# 5 0.002406 -0.004159 -0.007491 0.000000 0.042116 0.000000
# 6 0.000000 0.000000 0.000000 -0.021361 0.000000 0.056920
#
#
# Mechanical properties :
#
#
# Convention : Reuss Voigt Hill
#
# Bulk Modulus (GPa) = 28.03454 42.37122 35.20288
# Shear Modulus (GPa) = 20.76483 25.52887 23.14685
#
# Velocity S-wave (km/s) = 3.24198 3.59469 3.42288
# Velocity P-wave (km/s) = 5.31075 6.21900 5.78273
#
# Compressibility (1/GPa) = 0.03567028
#
# Stress axis : x y z
#
# Youngs Moduli (GPa) = 111.10319 41.50287 40.69828
#
# Poissons Ratio (x) = 0.16209 0.22640
# Poissons Ratio (y) = 0.43392 0.06225
# Poissons Ratio (z) = 0.61807 0.06348
#
# Static dielectric constant tensor:
#      x y z
#    x 3.991760 0.000000 0.023940 
#    y 0.000000 3.440640 0.000000 
#    z 0.023940 0.000000 3.475210 
# 
# 
# High freq. dielectric constant tensor:
#      x y z
#    x 1.784100 0.000000 0.002230 
#    y 0.000000 1.763910 0.000000 
#    z 0.002230 0.000000 1.757530 
# 
# From -- ./inp_files/49363.got.cif
#   From: 2010.06.25/outbox.cif.g09.slc.cpg/sg10_25_cif.got.tgz:49363.got - 2010.06.27 22:07:45.
