data_PCOD8067876
_publ_section_title
;
Structure prediction by ZEFSAII (Michael W. Deem and Ramdas Pophale) SiO2 
 PCOD8067876
Probable space group: P 2/M
;
_chemical_formula_sum "Si O2"
_cell_formula_units_Z 28
_cell_length_a 9.785907
_cell_length_b 9.446049
_cell_length_c 30.470729
_cell_angle_alpha 90.000000
_cell_angle_beta 143.407363
_cell_angle_gamma 90.000000
_cell_volume 1679.070978
_symmetry_space_group_name_H-M "P 2/M"
_symmetry_group_IT_number 10
_symmetry_cell_setting 'monoclinic'
loop_
_space_group_symop_operation_xyz
x,y,z
-x,y,-z
-x,-y,-z
x,-y,z
loop_
_atom_site_type_symbol
_atom_site_label
_atom_site_fract_x
_atom_site_fract_y
_atom_site_fract_z
Si Si1 0.238019 0.664263 0.432255
Si Si2 0.338044 0.845271 0.000000
Si Si3 0.048188 0.169299 0.157873
Si Si4 0.564801 0.835020 0.288971
Si Si5 0.880054 0.164980 0.288971
Si Si6 0.923256 0.664264 0.432255
Si Si7 0.741176 0.169299 0.157873
O O1 0.500000 0.715044 0.500000
O O2 0.217864 0.500000 0.414539
O O3 0.108379 0.752484 0.361530
O O4 0.130704 0.695445 0.452281
O O5 0.491707 0.768400 0.077459
O O6 0.268111 0.000000 1.000000
O O7 0.500000 0.863853 0.000000
O O8 0.104415 0.768399 0.922542
O O9 0.306813 0.225160 0.220689
O O10 0.942222 0.220871 0.176889
O O11 0.039811 0.000000 0.153049
O O12 0.676685 0.805411 0.270674
O O13 0.699271 0.752484 0.361530
O O14 0.570103 0.000000 0.302564
O O15 0.796635 0.225161 0.220689
O O16 0.942718 0.000000 0.302564
O O17 0.854832 0.500000 0.414540
O O18 0.000000 0.715045 0.500000
O O19 0.725439 0.000000 0.153050
#
# Coordination Sequence:
#
# PCOD8067876 Si02
#       7
#     4   4   4   4   4   4   4
#     4   9  18  32  47  61  79 105 135 165 198 238
#     4   7  10  18  33  53  78 107 136 164 194 229
#     4   8  13  22  37  57  81 109 138 165 195 234
#     4   9  17  28  41  60  86 109 129 161 204 241
#     4   9  17  28  41  60  86 109 129 161 204 241
#     4   9  18  32  47  61  79 105 135 165 198 238
#     4   8  13  22  37  57  81 109 138 165 195 234
#
# _framework density 16.675889000000002
#
# number of rings (size 3 to 8) (size 9 to 14) (size 15 to 20)
#    0.000    3.571    0.000    1.714    0.000    1.714 
#    0.000    0.714    0.000    4.286    0.000    1.000 
#    0.000    8.000    0.000    0.000    0.000    0.000 
#
# Total GULP energy -346933.982316 kJ/mol
# GULP energy per Si atom -12390.499368 kJ/mol
# Density = 1.663793 g / cm^3
# Si number density = 16.675889 Si / 1000 Ang^3
#
#
#
# Elastic Constant Matrix: (Units=GPa)
#
#
# Indices 1 2 3 4 5 6 
#
# 1 72.8001 22.5135 89.8948 0.0000 -1.1611 0.0000
# 2 22.5135 23.3729 43.3671 0.0000 -0.2790 0.0000
# 3 89.8948 43.3671 202.2157 0.0000 -0.5701 0.0000
# 4 0.0000 0.0000 0.0000 0.1137 0.0000 0.1636
# 5 -1.1611 -0.2790 -0.5701 0.0000 34.8448 0.0000
# 6 0.0000 0.0000 0.0000 0.1636 0.0000 12.3425
#
#
#
# Elastic Compliance Matrix: (Units=1/GPa)
#
#
# Indices 1 2 3 4 5 6 
#
# 1 0.031180 -0.007158 -0.012324 0.000000 0.000780 0.000000
# 2 -0.007158 0.072708 -0.012410 0.000000 0.000141 0.000000
# 3 -0.012324 -0.012410 0.013084 0.000000 -0.000296 0.000000
# 4 0.000000 0.000000 0.000000 8.965078 0.000000 -0.118838
# 5 0.000780 0.000141 -0.000296 0.000000 0.028721 0.000000
# 6 0.000000 0.000000 0.000000 -0.118838 0.000000 0.082596
#
#
# Mechanical properties :
#
#
# Convention : Reuss Voigt Hill
#
# Bulk Modulus (GPa) = 18.80129 67.77105 43.28617
# Shear Modulus (GPa) = 0.53909 18.96776 9.75342
#
# Velocity S-wave (km/s) = 0.56919 3.37625 2.42106
# Velocity P-wave (km/s) = 3.42505 7.47844 5.81627
#
# Compressibility (1/GPa) = 0.05318784
#
# Stress axis : x y z
#
# Youngs Moduli (GPa) = 32.07211 13.75363 76.42721
#
# Poissons Ratio (x) = 0.09845 0.94186
# Poissons Ratio (y) = 0.22958 0.94849
# Poissons Ratio (z) = 0.39524 0.17069
#
# Static dielectric constant tensor:
#      x y z
#    x 3.064520 0.000000 -0.006680 
#    y 0.000000 2.675350 0.000000 
#    z -0.006680 0.000000 3.564070 
# 
# 
# High freq. dielectric constant tensor:
#      x y z
#    x 1.626730 0.000000 -0.000450 
#    y 0.000000 1.587350 0.000000 
#    z -0.000450 0.000000 1.660440 
# 
# From -- ./inp_files/38044.got.cif
#   From: 2010.06.25/outbox.cif.g09.slc.cpg/sg10_20_cif.got.tgz:38044.got - 2010.06.27 22:07:45.
