data_PCOD8067795
_publ_section_title
;
Structure prediction by ZEFSAII (Michael W. Deem and Ramdas Pophale) SiO2 
 PCOD8067795
Probable space group: P 2/M
;
_chemical_formula_sum "Si O2"
_cell_formula_units_Z 24
_cell_length_a 14.729063
_cell_length_b 8.602667
_cell_length_c 14.866687
_cell_angle_alpha 90.000000
_cell_angle_beta 39.605918
_cell_angle_gamma 90.000000
_cell_volume 1200.895043
_symmetry_space_group_name_H-M "P 2/M"
_symmetry_group_IT_number 10
_symmetry_cell_setting 'monoclinic'
loop_
_space_group_symop_operation_xyz
x,y,z
-x,y,-z
-x,-y,-z
x,-y,z
loop_
_atom_site_type_symbol
_atom_site_label
_atom_site_fract_x
_atom_site_fract_y
_atom_site_fract_z
Si Si1 0.685539 0.179983 0.697303
Si Si2 0.879930 0.679362 0.406054
Si Si3 0.822564 0.180164 0.781597
Si Si4 0.384578 0.679362 0.918367
Si Si5 0.207088 0.180069 0.906152
Si Si6 0.891259 0.180103 0.211642
O O1 0.743898 0.283053 0.571067
O O2 0.772418 0.222948 0.720236
O O3 0.520843 0.218211 0.839232
O O4 0.703043 0.000000 0.659534
O O5 0.921523 0.500000 0.383391
O O6 0.837607 0.717174 0.335617
O O7 0.010509 0.785079 0.339060
O O8 0.794955 0.000000 0.825380
O O9 0.738441 0.284600 0.916528
O O10 0.426740 0.500000 0.890977
O O11 0.328958 0.719036 0.860719
O O12 0.195136 0.231822 0.811306
O O13 0.249094 0.000000 0.880638
O O14 0.058405 0.209275 0.069925
O O15 0.862639 0.000000 0.254197
#
# Coordination Sequence:
#
# PCOD8067795 Si02
#       6
#     4   4   4   4   4   4
#     4  11  25  43  62  83 116 163 205 244 290 351
#     4  12  24  38  60  92 125 155 191 246 305 351
#     4  11  23  41  64  87 114 157 209 246 284 349
#     4  12  24  38  60  92 125 155 191 246 305 351
#     4   9  18  35  61  89 117 154 199 242 285 344
#     4   9  18  35  61  89 117 154 199 242 285 344
#
# _framework density 19.985092999999999
#
# number of rings (size 3 to 8) (size 9 to 14) (size 15 to 20)
#    0.000    1.333    1.667    6.000    0.000    7.333 
#    0.000    2.500    0.000    5.000    0.000    0.000 
#    0.000    0.000    0.000    0.000    0.000    0.000 
#
# Total GULP energy -297757.269220 kJ/mol
# GULP energy per Si atom -12406.552884 kJ/mol
# Density = 1.993961 g / cm^3
# Si number density = 19.985093 Si / 1000 Ang^3
#
#
#
# Elastic Constant Matrix: (Units=GPa)
#
#
# Indices 1 2 3 4 5 6 
#
# 1 72.1799 48.8602 29.8743 0.0000 23.3290 0.0000
# 2 48.8602 71.8019 22.2334 0.0000 14.3023 0.0000
# 3 29.8743 22.2334 64.3142 0.0000 8.5387 0.0000
# 4 0.0000 0.0000 0.0000 25.7311 0.0000 -7.0055
# 5 23.3290 14.3023 8.5387 0.0000 28.1471 0.0000
# 6 0.0000 0.0000 0.0000 -7.0055 0.0000 16.1874
#
#
#
# Elastic Compliance Matrix: (Units=1/GPa)
#
#
# Indices 1 2 3 4 5 6 
#
# 1 0.034656 -0.017750 -0.007654 0.000000 -0.017382 0.000000
# 2 -0.017750 0.025942 -0.000965 0.000000 0.001823 0.000000
# 3 -0.007654 -0.000965 0.019308 0.000000 0.000977 0.000000
# 4 0.000000 0.000000 0.000000 0.044054 0.000000 0.019066
# 5 -0.017382 0.001823 0.000977 0.000000 0.048712 0.000000
# 6 0.000000 0.000000 0.000000 0.019066 0.000000 0.070028
#
#
# Mechanical properties :
#
#
# Convention : Reuss Voigt Hill
#
# Bulk Modulus (GPa) = 36.80915 45.58134 41.19524
# Shear Modulus (GPa) = 16.42073 21.16832 18.79453
#
# Velocity S-wave (km/s) = 2.86955 3.25807 3.06997
# Velocity P-wave (km/s) = 5.42562 6.08363 5.76403
#
# Compressibility (1/GPa) = 0.02716716
#
# Stress axis : x y z
#
# Youngs Moduli (GPa) = 28.85516 38.54780 51.79258
#
# Poissons Ratio (x) = 0.68424 0.39641
# Poissons Ratio (y) = 0.51219 0.04998
# Poissons Ratio (z) = 0.22085 0.03720
#
# Static dielectric constant tensor:
#      x y z
#    x 3.752820 0.000000 0.168470 
#    y 0.000000 3.476250 0.000000 
#    z 0.168470 0.000000 3.410110 
# 
# 
# High freq. dielectric constant tensor:
#      x y z
#    x 1.790530 0.000000 0.013080 
#    y 0.000000 1.776830 0.000000 
#    z 0.013080 0.000000 1.765920 
# 
# From -- ./inp_files/66332.got.cif
#   From: 2010.06.25/outbox.cif.g09.slc.cpg/sg10_34_cif.got.tgz:66332.got - 2010.06.27 22:07:45.
