data_PCOD8067544
_publ_section_title
;
Structure prediction by ZEFSAII (Michael W. Deem and Ramdas Pophale) SiO2 
 PCOD8067544
Probable space group: P 2/M
;
_chemical_formula_sum "Si O2"
_cell_formula_units_Z 28
_cell_length_a 13.655345
_cell_length_b 14.087615
_cell_length_c 9.054822
_cell_angle_alpha 90.000000
_cell_angle_beta 109.362752
_cell_angle_gamma 90.000000
_cell_volume 1643.363422
_symmetry_space_group_name_H-M "P 2/M"
_symmetry_group_IT_number 10
_symmetry_cell_setting 'monoclinic'
loop_
_space_group_symop_operation_xyz
x,y,z
-x,y,-z
-x,-y,-z
x,-y,z
loop_
_atom_site_type_symbol
_atom_site_label
_atom_site_fract_x
_atom_site_fract_y
_atom_site_fract_z
Si Si1 0.689493 0.213662 0.269022
Si Si2 0.378988 0.392325 0.269723
Si Si3 0.310507 0.213662 0.079529
Si Si4 0.621013 0.607674 0.390737
Si Si5 0.103348 0.891874 0.628747
Si Si6 0.103348 0.108127 0.974601
Si Si7 0.500000 0.888133 0.671054
O O1 0.686678 0.322944 0.319280
O O2 0.800063 0.171894 0.372910
O O3 0.601901 0.153107 0.304958
O O4 0.671822 0.206876 0.085911
O O5 0.354549 0.500000 0.209271
O O6 0.313324 0.322944 0.132602
O O7 0.347316 0.376399 0.423657
O O8 0.500000 0.369423 0.308548
O O9 0.398099 0.153105 0.203057
O O10 0.199937 0.171894 0.072846
O O11 0.645452 0.500000 0.354725
O O12 0.085136 0.885441 0.792568
O O13 0.000000 0.851846 0.500000
O O14 0.125325 0.000000 0.589662
O O15 0.125323 0.000000 0.035663
O O16 0.000000 0.148155 0.000000
O O17 0.500000 0.858399 0.500000
O O18 0.499998 0.000000 0.693306
#
# Coordination Sequence:
#
# PCOD8067544 Si02
#       7
#     4   4   4   4   4   4   4
#     4  11  21  33  52  78 106 134 166 212 262 305
#     4   9  18  33  52  74 103 137 172 210 251 301
#     4  11  21  33  52  78 106 134 166 212 262 305
#     4   9  18  33  52  74 103 137 172 210 251 301
#     4   9  19  35  53  74 101 134 172 211 252 299
#     4   9  19  35  53  74 101 134 172 211 252 299
#     4  11  23  35  48  71 104 141 175 204 244 305
#
# _framework density 17.038226999999999
#
# number of rings (size 3 to 8) (size 9 to 14) (size 15 to 20)
#    0.000    2.143    1.429    3.000    0.000    5.143 
#    0.000    4.286    0.000    0.857    0.000    0.000 
#    0.000    0.000    0.000    0.000    0.000    0.000 
#
# Total GULP energy -347267.965623 kJ/mol
# GULP energy per Si atom -12402.427344 kJ/mol
# Density = 1.699945 g / cm^3
# Si number density = 17.038227 Si / 1000 Ang^3
#
#
#
# Elastic Constant Matrix: (Units=GPa)
#
#
# Indices 1 2 3 4 5 6 
#
# 1 134.6864 71.5006 60.7759 0.0000 6.2304 0.0000
# 2 71.5006 109.3622 56.8260 0.0000 6.5792 0.0000
# 3 60.7759 56.8260 89.3639 0.0000 14.0902 0.0000
# 4 0.0000 0.0000 0.0000 30.0537 0.0000 -2.1463
# 5 6.2304 6.5792 14.0902 0.0000 26.4829 0.0000
# 6 0.0000 0.0000 0.0000 -2.1463 0.0000 25.2667
#
#
#
# Elastic Compliance Matrix: (Units=1/GPa)
#
#
# Indices 1 2 3 4 5 6 
#
# 1 0.012756 -0.005684 -0.005251 0.000000 0.001205 0.000000
# 2 -0.005684 0.016232 -0.006584 0.000000 0.000808 0.000000
# 3 -0.005251 -0.006584 0.020189 0.000000 -0.007871 0.000000
# 4 0.000000 0.000000 0.000000 0.033477 0.000000 0.002844
# 5 0.001205 0.000808 -0.007871 0.000000 0.041464 0.000000
# 6 0.000000 0.000000 0.000000 0.002844 0.000000 0.039819
#
#
# Mechanical properties :
#
#
# Convention : Reuss Voigt Hill
#
# Bulk Modulus (GPa) = 70.72096 79.06859 74.89478
# Shear Modulus (GPa) = 24.54749 25.98133 25.26441
#
# Velocity S-wave (km/s) = 3.79981 3.90921 3.85490
# Velocity P-wave (km/s) = 7.80056 8.17822 7.99162
#
# Compressibility (1/GPa) = 0.01414008
#
# Stress axis : x y z
#
# Youngs Moduli (GPa) = 78.39744 61.60504 49.53221
#
# Poissons Ratio (x) = 0.35014 0.26008
# Poissons Ratio (y) = 0.44558 0.32612
# Poissons Ratio (z) = 0.41164 0.40561
#
# Static dielectric constant tensor:
#      x y z
#    x 3.143330 0.000000 -0.016320 
#    y 0.000000 3.308190 0.000000 
#    z -0.016320 0.000000 3.179740 
# 
# 
# High freq. dielectric constant tensor:
#      x y z
#    x 1.644200 0.000000 -0.006690 
#    y 0.000000 1.661030 0.000000 
#    z -0.006690 0.000000 1.659120 
# 
# From -- ./inp_files/24876.got.cif
#   From: 2010.06.25/outbox.cif.g09.slc.cpg/sg10_13_cif.got.tgz:24876.got - 2010.06.27 22:07:45.
