data_PCOD8067277
_publ_section_title
;
Structure prediction by ZEFSAII (Michael W. Deem and Ramdas Pophale) SiO2 
 PCOD8067277
Probable space group: P 2/M
;
_chemical_formula_sum "Si O2"
_cell_formula_units_Z 28
_cell_length_a 8.798185
_cell_length_b 14.351101
_cell_length_c 12.582804
_cell_angle_alpha 90.000000
_cell_angle_beta 57.198780
_cell_angle_gamma 90.000000
_cell_volume 1335.432415
_symmetry_space_group_name_H-M "P 2/M"
_symmetry_group_IT_number 10
_symmetry_cell_setting 'monoclinic'
loop_
_space_group_symop_operation_xyz
x,y,z
-x,y,-z
-x,-y,-z
x,-y,z
loop_
_atom_site_type_symbol
_atom_site_label
_atom_site_fract_x
_atom_site_fract_y
_atom_site_fract_z
Si Si1 0.413291 0.319869 0.780703
Si Si2 0.316465 0.765432 0.026059
Si Si3 0.266225 0.610240 0.202979
Si Si4 0.991952 0.106148 0.129008
Si Si5 0.730187 0.500000 0.494497
Si Si6 0.087309 0.316479 0.569107
Si Si7 0.667617 0.807406 0.374836
Si Si8 0.679645 0.500000 0.280006
O O1 0.607378 0.351841 0.750138
O O2 0.435433 0.266572 0.660996
O O3 0.284376 0.409194 0.806191
O O4 0.316195 0.249454 0.899276
O O5 0.317387 0.661303 0.074143
O O6 0.144173 0.827816 0.124779
O O7 0.500000 0.816001 0.000000
O O8 0.289933 0.500000 0.180774
O O9 0.062239 0.640904 0.297430
O O10 0.794861 0.125815 0.255538
O O11 0.041990 0.000000 0.136752
O O12 0.000000 0.122763 0.000000
O O13 0.805705 0.405967 0.519297
O O14 0.793266 0.500000 0.345931
O O15 0.521352 0.500000 0.598116
O O16 0.210324 0.244724 0.585309
O O17 0.000000 0.264160 0.500000
O O18 0.500000 0.859505 0.500000
#
# Coordination Sequence:
#
# PCOD8067277 Si02
#       8
#     4   4   4   4   2   4   4   2
#     4  11  22  37  59  87 130 176 219 262 309 373
#     4  10  23  41  66  97 129 168 216 266 325 391
#     4  11  22  36  57  91 131 177 224 267 314 372
#     4  11  24  47  76 100 125 163 213 273 336 401
#     4  11  21  32  49  77 120 174 225 260 302 363
#     4  12  23  35  55  85 125 173 222 266 315 377
#     4  12  24  42  67  95 130 170 215 273 331 386
#     4  11  20  32  50  81 123 168 220 265 301 359
#
# _framework density 20.966991
#
# number of rings (size 3 to 8) (size 9 to 14) (size 15 to 20)
#    0.000    0.857    5.714    2.786    1.000    1.429 
#    0.000    0.000    0.000    3.429    0.000    0.000 
#    0.000    0.000    0.000    0.000    0.000    0.000 
#
# Total GULP energy -347050.351255 kJ/mol
# GULP energy per Si atom -12394.655402 kJ/mol
# Density = 2.091927 g / cm^3
# Si number density = 20.966991 Si / 1000 Ang^3
#
#
#
# Elastic Constant Matrix: (Units=GPa)
#
#
# Indices 1 2 3 4 5 6 
#
# 1 99.8785 41.3918 48.1417 0.0000 2.7931 0.0000
# 2 41.3918 89.9379 35.7815 0.0000 -6.6025 0.0000
# 3 48.1417 35.7815 103.9938 0.0000 -5.7687 0.0000
# 4 0.0000 0.0000 0.0000 0.0583 0.0000 -17.9000
# 5 2.7931 -6.6025 -5.7687 0.0000 43.6237 0.0000
# 6 0.0000 0.0000 0.0000 -17.9000 0.0000 8.4280
#
#
#
# Elastic Compliance Matrix: (Units=1/GPa)
#
#
# Indices 1 2 3 4 5 6 
#
# 1 0.014592 -0.004807 -0.005232 0.000000 -0.002354 0.000000
# 2 -0.004807 0.014548 -0.002661 0.000000 0.002158 0.000000
# 3 -0.005232 -0.002661 0.013045 0.000000 0.001657 0.000000
# 4 0.000000 0.000000 0.000000 -0.026344 0.000000 -0.055952
# 5 -0.002354 0.002158 0.001657 0.000000 0.023620 0.000000
# 6 0.000000 0.000000 0.000000 -0.055952 0.000000 -0.000182
#
#
# Mechanical properties :
#
#
# Convention : Reuss Voigt Hill
#
# Bulk Modulus (GPa) = 59.57096 60.49334 60.03215
# Shear Modulus (GPa) = 71.15206 21.65501 46.40354
#
# Velocity S-wave (km/s) = 5.83172 3.21723 4.70954
# Velocity P-wave (km/s) = 8.59178 6.53568 7.63328
#
# Compressibility (1/GPa) = 0.01678670
#
# Stress axis : x y z
#
# Youngs Moduli (GPa) = 68.53224 68.73810 76.65670
#
# Poissons Ratio (x) = 0.33042 0.40103
# Poissons Ratio (y) = 0.32943 0.20395
# Poissons Ratio (z) = 0.35853 0.18289
#
# Static dielectric constant tensor:
#      x y z
#    x 4.019650 0.000000 0.071070 
#    y 0.000000 3.498510 0.000000 
#    z 0.071070 0.000000 3.896790 
# 
# 
# High freq. dielectric constant tensor:
#      x y z
#    x 1.832210 0.000000 0.002000 
#    y 0.000000 1.780070 0.000000 
#    z 0.002000 0.000000 1.831700 
# 
# From -- ./inp_files/42911.got.cif
#   From: 2010.06.25/outbox.cif.g09.slc.cpg/sg10_22_cif.got.tgz:42911.got - 2010.06.27 22:07:45.
