data_PCOD8067270
_publ_section_title
;
Structure prediction by ZEFSAII (Michael W. Deem and Ramdas Pophale) SiO2 
 PCOD8067270
Probable space group: P 2/M
;
_chemical_formula_sum "Si O2"
_cell_formula_units_Z 28
_cell_length_a 8.910474
_cell_length_b 23.056571
_cell_length_c 14.262896
_cell_angle_alpha 90.000000
_cell_angle_beta 151.478683
_cell_angle_gamma 90.000000
_cell_volume 1399.147835
_symmetry_space_group_name_H-M "P 2/M"
_symmetry_group_IT_number 10
_symmetry_cell_setting 'monoclinic'
loop_
_space_group_symop_operation_xyz
x,y,z
-x,y,-z
-x,-y,-z
x,-y,z
loop_
_atom_site_type_symbol
_atom_site_label
_atom_site_fract_x
_atom_site_fract_y
_atom_site_fract_z
Si Si1 0.813456 0.721931 0.308797
Si Si2 0.268007 0.647515 0.452579
Si Si3 0.275276 0.933280 0.458746
Si Si4 0.794642 0.432282 0.096183
Si Si5 0.377631 0.937457 0.714392
Si Si6 0.326706 0.349752 0.138185
Si Si7 0.276060 0.847758 0.797502
O O1 0.462362 0.699007 0.139727
O O2 0.851450 0.791246 0.324140
O O3 0.000000 0.699193 0.500000
O O4 0.981232 0.693275 0.310569
O O5 0.500000 0.673533 0.500000
O O6 0.448565 0.634287 0.649696
O O7 0.109735 0.590240 0.321208
O O8 0.500000 0.913211 0.500000
O O9 0.492923 0.928000 0.671412
O O10 0.987788 0.888830 0.302963
O O11 0.154269 0.000000 0.380530
O O12 0.839518 0.500000 0.105461
O O13 0.500000 0.417506 0.000000
O O14 0.740698 0.406071 0.962581
O O15 0.489322 0.886111 0.843288
O O16 0.000000 0.935862 0.500000
O O17 0.492698 0.000000 0.816582
O O18 0.000000 0.325069 0.000000
O O19 0.500000 0.822961 0.000000
#
# Coordination Sequence:
#
# PCOD8067270 Si02
#       7
#     4   4   4   4   4   4   4
#     4  10  23  41  61  84 118 159 207 252 298 363
#     4  11  23  41  65  91 123 166 204 251 312 368
#     4   9  18  35  58  81 112 152 192 240 297 354
#     4  11  24  42  67  94 127 165 202 257 304 364
#     4   8  15  31  53  74 106 146 183 228 283 342
#     4  11  23  42  66  91 124 164 204 255 313 370
#     4  11  22  33  55  85 112 150 193 246 290 350
#
# _framework density 20.012183
#
# number of rings (size 3 to 8) (size 9 to 14) (size 15 to 20)
#    0.000    1.857    2.857    2.571    2.000    2.857 
#    0.000    5.000    0.000    2.571    0.000    0.000 
#    0.000    0.000    0.000    0.000    0.000    0.000 
#
# Total GULP energy -346935.892750 kJ/mol
# GULP energy per Si atom -12390.567598 kJ/mol
# Density = 1.996663 g / cm^3
# Si number density = 20.012183 Si / 1000 Ang^3
#
#
#
# Elastic Constant Matrix: (Units=GPa)
#
#
# Indices 1 2 3 4 5 6 
#
# 1 157.6694 63.1400 40.5467 0.0000 12.4920 0.0000
# 2 63.1400 118.1366 34.8477 0.0000 9.2833 0.0000
# 3 40.5467 34.8477 75.0628 0.0000 -6.7178 0.0000
# 4 0.0000 0.0000 0.0000 16.5356 0.0000 -7.9550
# 5 12.4920 9.2833 -6.7178 0.0000 36.4863 0.0000
# 6 0.0000 0.0000 0.0000 -7.9550 0.0000 16.5908
#
#
#
# Elastic Compliance Matrix: (Units=1/GPa)
#
#
# Indices 1 2 3 4 5 6 
#
# 1 0.008837 -0.003506 -0.003393 0.000000 -0.002758 0.000000
# 2 -0.003506 0.011629 -0.003724 0.000000 -0.002444 0.000000
# 3 -0.003393 -0.003724 0.017359 0.000000 0.005305 0.000000
# 4 0.000000 0.000000 0.000000 0.078608 0.000000 0.037691
# 5 -0.002758 -0.002444 0.005305 0.000000 0.029951 0.000000
# 6 0.000000 0.000000 0.000000 0.037691 0.000000 0.078346
#
#
# Mechanical properties :
#
#
# Convention : Reuss Voigt Hill
#
# Bulk Modulus (GPa) = 60.31417 69.77084 65.04251
# Shear Modulus (GPa) = 19.88060 28.07816 23.97938
#
# Velocity S-wave (km/s) = 3.15528 3.74980 3.46531
# Velocity P-wave (km/s) = 6.59383 7.32720 6.97017
#
# Compressibility (1/GPa) = 0.01657985
#
# Stress axis : x y z
#
# Youngs Moduli (GPa) = 113.15586 85.99245 57.60839
#
# Poissons Ratio (x) = 0.30146 0.19547
# Poissons Ratio (y) = 0.39668 0.21452
# Poissons Ratio (z) = 0.38395 0.32022
#
# Static dielectric constant tensor:
#      x y z
#    x 4.193160 0.000000 -0.111360 
#    y 0.000000 3.397380 0.000000 
#    z -0.111360 0.000000 3.486540 
# 
# 
# High freq. dielectric constant tensor:
#      x y z
#    x 1.799680 0.000000 -0.011900 
#    y 0.000000 1.767140 0.000000 
#    z -0.011900 0.000000 1.760850 
# 
# From -- ./inp_files/30419.got.cif
#   From: 2010.06.25/outbox.cif.g09.slc.cpg/sg10_16_cif.got.tgz:30419.got - 2010.06.27 22:07:45.
