data_PCOD8067280
_publ_section_title
;
Structure prediction by ZEFSAII (Michael W. Deem and Ramdas Pophale) SiO2 
 PCOD8067280
Probable space group: P 2/M
;
_chemical_formula_sum "Si O2"
_cell_formula_units_Z 28
_cell_length_a 8.841275
_cell_length_b 16.974140
_cell_length_c 14.525004
_cell_angle_alpha 90.000000
_cell_angle_beta 40.226387
_cell_angle_gamma 90.000000
_cell_volume 1407.742709
_symmetry_space_group_name_H-M "P 2/M"
_symmetry_group_IT_number 10
_symmetry_cell_setting 'monoclinic'
loop_
_space_group_symop_operation_xyz
x,y,z
-x,y,-z
-x,-y,-z
x,-y,z
loop_
_atom_site_type_symbol
_atom_site_label
_atom_site_fract_x
_atom_site_fract_y
_atom_site_fract_z
Si Si1 0.774340 0.589648 0.358444
Si Si2 0.544259 0.252936 0.080085
Si Si3 0.931326 0.691472 0.638696
Si Si4 0.778327 0.000000 0.384164
Si Si5 0.612746 0.168837 0.231512
Si Si6 0.040372 0.694935 0.880508
Si Si7 0.125602 0.146641 0.534126
Si Si8 0.193581 0.000000 0.832732
O O1 0.500000 0.594715 0.500000
O O2 0.861630 0.500000 0.312211
O O3 0.811657 0.632339 0.244439
O O4 0.917664 0.630052 0.373906
O O5 0.347242 0.315248 0.209309
O O6 0.582442 0.184237 0.136936
O O7 0.500000 0.215831 0.000000
O O8 0.788263 0.298031 0.950553
O O9 0.000000 0.678679 0.500000
O O10 0.981671 0.781725 0.646266
O O11 0.500000 0.000000 0.500000
O O12 0.859592 0.922813 0.399841
O O13 0.906019 0.000000 0.225365
O O14 0.822146 0.221187 0.176498
O O15 0.374224 0.187298 0.395811
O O16 0.648800 0.076430 0.227437
O O17 0.000000 0.659391 0.000000
O O18 0.000000 0.114684 0.500000
O O19 0.000000 0.000000 0.000000
#
# Coordination Sequence:
#
# PCOD8067280 Si02
#       8
#     4   4   4   2   4   4   4   2
#     4  11  25  43  66  99 134 167 214 272 321 386
#     4  11  21  41  64  99 125 167 222 265 315 385
#     4  11  23  41  68  93 129 171 216 262 326 387
#     4  12  25  40  65  89 123 174 223 264 319 382
#     4  11  22  43  65  93 131 173 214 274 318 382
#     4  10  23  41  70  94 128 174 217 262 321 391
#     4  11  22  41  66  95 126 164 220 275 318 379
#     4  12  26  42  59  93 136 166 220 273 326 381
#
# _framework density 19.889997999999999
#
# number of rings (size 3 to 8) (size 9 to 14) (size 15 to 20)
#    0.000    1.000    5.714    2.357    4.000    2.286 
#    0.000    1.786    0.000    0.000    0.000    0.000 
#    0.000    0.000    0.000    0.000    0.000    0.000 
#
# Total GULP energy -347146.129547 kJ/mol
# GULP energy per Si atom -12398.076055 kJ/mol
# Density = 1.984473 g / cm^3
# Si number density = 19.889998 Si / 1000 Ang^3
#
#
#
# Elastic Constant Matrix: (Units=GPa)
#
#
# Indices 1 2 3 4 5 6 
#
# 1 126.6941 66.5362 48.3273 0.0000 5.4198 0.0000
# 2 66.5362 130.7883 37.2808 0.0000 11.7607 0.0000
# 3 48.3273 37.2808 109.1013 0.0000 4.4201 0.0000
# 4 0.0000 0.0000 0.0000 9.7903 0.0000 -19.0144
# 5 5.4198 11.7607 4.4201 0.0000 41.0008 0.0000
# 6 0.0000 0.0000 0.0000 -19.0144 0.0000 -2.3427
#
#
#
# Elastic Compliance Matrix: (Units=1/GPa)
#
#
# Indices 1 2 3 4 5 6 
#
# 1 0.011895 -0.005063 -0.003549 0.000000 0.000263 0.000000
# 2 -0.005063 0.010815 -0.001360 0.000000 -0.002286 0.000000
# 3 -0.003549 -0.001360 0.011217 0.000000 -0.000350 0.000000
# 4 0.000000 0.000000 0.000000 0.006093 0.000000 -0.049454
# 5 0.000263 -0.002286 -0.000350 0.000000 0.025049 0.000000
# 6 0.000000 0.000000 0.000000 -0.049454 0.000000 -0.025463
#
#
# Mechanical properties :
#
#
# Convention : Reuss Voigt Hill
#
# Bulk Modulus (GPa) = 71.52404 74.54137 73.03271
# Shear Modulus (GPa) = 77.86857 23.98563 50.92710
#
# Velocity S-wave (km/s) = 6.26375 3.47640 5.06557
# Velocity P-wave (km/s) = 9.39950 7.32611 8.42682
#
# Compressibility (1/GPa) = 0.01398131
#
# Stress axis : x y z
#
# Youngs Moduli (GPa) = 84.07107 92.46408 89.15033
#
# Poissons Ratio (x) = 0.46815 0.31643
# Poissons Ratio (y) = 0.42566 0.12126
# Poissons Ratio (z) = 0.29840 0.12577
#
# Static dielectric constant tensor:
#      x y z
#    x 3.879110 0.000000 -0.134170 
#    y 0.000000 3.341370 0.000000 
#    z -0.134170 0.000000 4.022320 
# 
# 
# High freq. dielectric constant tensor:
#      x y z
#    x 1.788080 0.000000 -0.000200 
#    y 0.000000 1.748820 0.000000 
#    z -0.000200 0.000000 1.796590 
# 
# From -- ./inp_files/62335.got.cif
#   From: 2010.06.25/outbox.cif.g09.slc.cpg/sg10_32_cif.got.tgz:62335.got - 2010.06.27 22:07:45.
