data_PCOD8067061
_publ_section_title
;
Structure prediction by ZEFSAII (Michael W. Deem and Ramdas Pophale) SiO2 
 PCOD8067061
Probable space group: P 2/M
;
_chemical_formula_sum "Si O2"
_cell_formula_units_Z 32
_cell_length_a 14.535294
_cell_length_b 9.530741
_cell_length_c 21.708678
_cell_angle_alpha 90.000000
_cell_angle_beta 149.713578
_cell_angle_gamma 90.000000
_cell_volume 1516.675395
_symmetry_space_group_name_H-M "P 2/M"
_symmetry_group_IT_number 10
_symmetry_cell_setting 'monoclinic'
loop_
_space_group_symop_operation_xyz
x,y,z
-x,y,-z
-x,-y,-z
x,-y,z
loop_
_atom_site_type_symbol
_atom_site_label
_atom_site_fract_x
_atom_site_fract_y
_atom_site_fract_z
Si Si1 0.968599 0.839833 0.912794
Si Si2 0.973610 0.343716 0.376456
Si Si3 0.051116 0.254992 0.287825
Si Si4 0.740494 0.841798 0.021043
Si Si5 0.584122 0.664857 0.206954
Si Si6 0.281615 0.343917 0.311571
Si Si7 0.413114 0.847946 0.540760
Si Si8 0.701021 0.835234 0.390557
O O1 0.809995 0.742763 0.795818
O O2 0.153820 0.820454 0.981894
O O3 0.899978 0.000000 0.869880
O O4 0.000000 0.790017 0.000000
O O5 0.028961 0.500000 0.430977
O O6 0.766645 0.310070 0.273904
O O7 0.989438 0.341969 0.311669
O O8 0.098815 0.232046 0.484413
O O9 0.151293 0.353381 0.295699
O O10 0.203302 0.142833 0.396747
O O11 0.876058 0.180238 0.157020
O O12 0.661978 0.000000 0.980042
O O13 0.578412 0.728443 0.928771
O O14 0.548200 0.500000 0.199083
O O15 0.592927 0.752265 0.275292
O O16 0.323430 0.500000 0.313049
O O17 0.476596 0.267999 0.434513
O O18 0.416393 0.814047 0.615451
O O19 0.501681 0.000000 0.579433
O O20 0.722540 0.000000 0.386368
#
# Coordination Sequence:
#
# PCOD8067061 Si02
#       8
#     4   4   4   4   4   4   4   4
#     4   9  20  39  61  83 114 159 202 242 291 351
#     4  10  22  41  64  88 119 161 201 245 303 362
#     4  10  22  41  63  86 118 160 204 252 296 352
#     4  10  22  40  62  88 120 158 202 251 298 349
#     4  11  24  40  61  90 123 159 200 246 302 364
#     4  11  23  36  57  91 123 155 196 246 298 349
#     4  10  22  39  62  89 120 159 200 243 297 360
#     4  10  22  40  63  91 122 156 198 250 303 355
#
# _framework density 21.098779
#
# number of rings (size 3 to 8) (size 9 to 14) (size 15 to 20)
#    0.000    1.875    0.000    2.625    1.750   11.750 
#    0.000    1.875    0.000    0.000    0.000    0.000 
#    0.000    0.000    0.000    0.000    0.000    0.000 
#
# Total GULP energy -396776.100461 kJ/mol
# GULP energy per Si atom -12399.253139 kJ/mol
# Density = 2.105076 g / cm^3
# Si number density = 21.098779 Si / 1000 Ang^3
#
#
#
# Elastic Constant Matrix: (Units=GPa)
#
#
# Indices 1 2 3 4 5 6 
#
# 1 69.5665 36.9855 39.5632 0.0000 -8.6644 0.0000
# 2 36.9855 152.2472 60.1931 0.0000 6.6993 0.0000
# 3 39.5632 60.1931 112.0226 0.0000 -2.4211 0.0000
# 4 0.0000 0.0000 0.0000 8.0018 0.0000 23.0145
# 5 -8.6644 6.6993 -2.4211 0.0000 29.4985 0.0000
# 6 0.0000 0.0000 0.0000 23.0145 0.0000 5.2454
#
#
#
# Elastic Compliance Matrix: (Units=1/GPa)
#
#
# Indices 1 2 3 4 5 6 
#
# 1 0.019679 -0.002983 -0.005217 0.000000 0.006029 0.000000
# 2 -0.002983 0.008946 -0.003823 0.000000 -0.003222 0.000000
# 3 -0.005217 -0.003823 0.012832 0.000000 0.000389 0.000000
# 4 0.000000 0.000000 0.000000 -0.010756 0.000000 0.047190
# 5 0.006029 -0.003222 0.000389 0.000000 0.036435 0.000000
# 6 0.000000 0.000000 0.000000 0.047190 0.000000 -0.016407
#
#
# Mechanical properties :
#
#
# Convention : Reuss Voigt Hill
#
# Bulk Modulus (GPa) = 57.43638 67.47999 62.45818
# Shear Modulus (GPa) = 62.05170 21.68877 41.87024
#
# Velocity S-wave (km/s) = 5.42899 3.20967 4.45959
# Velocity P-wave (km/s) = 8.15967 6.76670 7.49562
#
# Compressibility (1/GPa) = 0.01741057
#
# Stress axis : x y z
#
# Youngs Moduli (GPa) = 50.81684 111.77791 77.93156
#
# Poissons Ratio (x) = 0.33348 0.40653
# Poissons Ratio (y) = 0.15161 0.29794
# Poissons Ratio (z) = 0.26509 0.42734
#
# Static dielectric constant tensor:
#      x y z
#    x 3.820580 0.000000 -0.042700 
#    y 0.000000 3.770600 0.000000 
#    z -0.042700 0.000000 3.748970 
# 
# 
# High freq. dielectric constant tensor:
#      x y z
#    x 1.827450 0.000000 -0.004880 
#    y 0.000000 1.825930 0.000000 
#    z -0.004880 0.000000 1.827550 
# 
# From -- ./inp_files/89637.got.cif
#   From: 2010.06.25/outbox.cif.g09.slc.cpg/sg10_45_cif.got.tgz:89637.got - 2010.06.27 22:07:45.
