data_PCOD8067950
_publ_section_title
;
Structure prediction by ZEFSAII (Michael W. Deem and Ramdas Pophale) SiO2 
 PCOD8067950
Probable space group: P 2/M
;
_chemical_formula_sum "Si O2"
_cell_formula_units_Z 32
_cell_length_a 19.999372
_cell_length_b 9.933003
_cell_length_c 19.999514
_cell_angle_alpha 90.000000
_cell_angle_beta 149.780473
_cell_angle_gamma 90.000000
_cell_volume 1999.658276
_symmetry_space_group_name_H-M "P 2/M"
_symmetry_group_IT_number 10
_symmetry_cell_setting 'monoclinic'
loop_
_space_group_symop_operation_xyz
x,y,z
-x,y,-z
-x,-y,-z
x,-y,z
loop_
_atom_site_type_symbol
_atom_site_label
_atom_site_fract_x
_atom_site_fract_y
_atom_site_fract_z
Si Si1 0.190855 0.150853 0.113930
Si Si2 0.933039 0.660060 0.588382
Si Si3 0.588411 0.339938 0.933080
Si Si4 0.750473 0.654270 0.946250
Si Si5 0.705684 0.339401 0.294296
Si Si6 0.886059 0.150851 0.809139
Si Si7 0.215890 0.660696 0.784061
Si Si8 0.946237 0.654270 0.750466
O O1 0.273327 0.256066 0.140438
O O2 0.202344 0.190118 0.202340
O O3 0.246543 0.000000 0.150551
O O4 0.038668 0.156859 0.961324
O O5 0.938497 0.500000 0.590394
O O6 0.811421 0.716601 0.439330
O O7 0.913605 0.706753 0.647957
O O8 0.070660 0.717392 0.677524
O O9 0.590413 0.500000 0.938527
O O10 0.647969 0.293251 0.913625
O O11 0.439364 0.283392 0.811480
O O12 0.677574 0.282608 0.070710
O O13 0.722827 0.500000 0.902388
O O14 0.897145 0.670657 0.102866
O O15 0.705597 0.500000 0.294375
O O16 0.744927 0.284871 0.255123
O O17 0.859549 0.256070 0.726669
O O18 0.849437 0.000000 0.753451
O O19 0.215404 0.500000 0.784550
O O20 0.902378 0.500000 0.722825
#
# Coordination Sequence:
#
# PCOD8067950 Si02
#       8
#     4   4   4   4   4   4   4   4
#     4   8  14  24  37  55  80 105 129 162 200 235
#     4   9  15  23  33  50  76 105 134 165 200 236
#     4   9  15  23  33  50  76 105 134 165 200 236
#     4   9  15  23  36  54  79 108 132 159 198 241
#     4   9  16  22  32  50  74 105 138 166 197 239
#     4   8  14  24  37  55  80 105 129 162 200 235
#     4   9  14  22  34  48  72 105 136 166 201 239
#     4   9  15  23  36  54  79 108 132 159 198 241
#
# _framework density 16.002735000000001
#
# number of rings (size 3 to 8) (size 9 to 14) (size 15 to 20)
#    0.000    3.250    1.250    1.500    0.000    3.500 
#    0.000    2.500    0.000    0.000    0.000    1.750 
#    0.000   13.000    0.000    0.000    0.000    0.000 
#
# Total GULP energy -396625.584916 kJ/mol
# GULP energy per Si atom -12394.549529 kJ/mol
# Density = 1.596631 g / cm^3
# Si number density = 16.002735 Si / 1000 Ang^3
#
#
#
# Elastic Constant Matrix: (Units=GPa)
#
#
# Indices 1 2 3 4 5 6 
#
# 1 162.8115 56.6280 65.3261 0.0000 -23.7861 0.0000
# 2 56.6280 43.1703 21.6487 0.0000 -10.1055 0.0000
# 3 65.3261 21.6487 83.0101 0.0000 0.7167 0.0000
# 4 0.0000 0.0000 0.0000 3.7522 0.0000 -0.0330
# 5 -23.7861 -10.1055 0.7167 0.0000 14.6530 0.0000
# 6 0.0000 0.0000 0.0000 -0.0330 0.0000 3.8584
#
#
#
# Elastic Compliance Matrix: (Units=1/GPa)
#
#
# Indices 1 2 3 4 5 6 
#
# 1 0.018437 -0.013683 -0.011123 0.000000 0.021037 0.000000
# 2 -0.013683 0.043167 -0.000555 0.000000 0.007586 0.000000
# 3 -0.011123 -0.000555 0.021113 0.000000 -0.019471 0.000000
# 4 0.000000 0.000000 0.000000 0.266529 0.000000 0.002281
# 5 0.021037 0.007586 -0.019471 0.000000 0.108578 0.000000
# 6 0.000000 0.000000 0.000000 0.002281 0.000000 0.259192
#
#
# Mechanical properties :
#
#
# Convention : Reuss Voigt Hill
#
# Bulk Modulus (GPa) = 31.25479 64.02194 47.63836
# Shear Modulus (GPa) = 6.42341 14.14535 10.28438
#
# Velocity S-wave (km/s) = 2.00566 2.97633 2.53783
# Velocity P-wave (km/s) = 4.99368 7.20452 6.19846
#
# Compressibility (1/GPa) = 0.03199510
#
# Stress axis : x y z
#
# Youngs Moduli (GPa) = 54.23743 23.16611 47.36432
#
# Poissons Ratio (x) = 0.31698 0.52683
# Poissons Ratio (y) = 0.74212 0.02630
# Poissons Ratio (z) = 0.60327 0.01286
#
# Static dielectric constant tensor:
#      x y z
#    x 3.322310 0.000000 -0.120910 
#    y 0.000000 2.638390 0.000000 
#    z -0.120910 0.000000 2.903510 
# 
# 
# High freq. dielectric constant tensor:
#      x y z
#    x 1.629020 0.000000 -0.013320 
#    y 0.000000 1.555320 0.000000 
#    z -0.013320 0.000000 1.582870 
# 
# From -- ./inp_files/36047.got.cif
#   From: 2010.06.25/outbox.cif.g09.slc.cpg/sg10_19_cif.got.tgz:36047.got - 2010.06.27 22:07:45.
