data_PCOD8067608
_publ_section_title
;
Structure prediction by ZEFSAII (Michael W. Deem and Ramdas Pophale) SiO2 
 PCOD8067608
Probable space group: P 2/M
;
_chemical_formula_sum "Si O2"
_cell_formula_units_Z 28
_cell_length_a 10.849699
_cell_length_b 14.073142
_cell_length_c 9.590423
_cell_angle_alpha 90.000000
_cell_angle_beta 111.411908
_cell_angle_gamma 90.000000
_cell_volume 1363.285627
_symmetry_space_group_name_H-M "P 2/M"
_symmetry_group_IT_number 10
_symmetry_cell_setting 'monoclinic'
loop_
_space_group_symop_operation_xyz
x,y,z
-x,y,-z
-x,-y,-z
x,-y,z
loop_
_atom_site_type_symbol
_atom_site_label
_atom_site_fract_x
_atom_site_fract_y
_atom_site_fract_z
Si Si1 0.238977 0.689481 0.882504
Si Si2 0.854078 0.183611 0.937285
Si Si3 0.143902 0.500000 0.406475
Si Si4 0.570020 0.387808 0.817425
Si Si5 0.747923 0.691322 0.658469
Si Si6 0.635219 0.251919 0.321774
Si Si7 0.437395 0.891560 0.125891
Si Si8 0.157414 0.500000 0.710768
O O1 0.260028 0.763123 0.761248
O O2 0.187731 0.589239 0.816046
O O3 0.129367 0.734618 0.939153
O O4 0.371052 0.672018 0.029562
O O5 0.832040 0.230210 0.776684
O O6 0.722782 0.123261 0.929015
O O7 0.000000 0.130288 0.000000
O O8 0.169020 0.596335 0.332583
O O9 0.227782 0.500000 0.586913
O O10 0.994371 0.500000 0.386023
O O11 0.588146 0.500000 0.845129
O O12 0.624249 0.347501 0.694188
O O13 0.416593 0.358381 0.742746
O O14 0.702953 0.745977 0.499958
O O15 0.516528 0.174207 0.269844
O O16 0.466530 0.000000 0.178508
O O17 0.500000 0.868854 0.000000
#
# Coordination Sequence:
#
# PCOD8067608 Si02
#       8
#     4   4   2   4   4   4   4   2
#     4  11  21  37  58  86 121 168 216 261 299 361
#     4  11  24  43  64  93 127 165 208 259 319 376
#     4  11  22  37  50  84 125 176 223 258 307 358
#     4  11  22  32  55  87 123 162 207 259 313 357
#     4  11  23  37  58  87 129 167 210 260 311 366
#     4  12  22  39  60  91 127 159 212 258 316 375
#     4  11  23  44  74 100 121 158 206 261 321 384
#     4  11  22  35  54  82 123 172 231 264 291 360
#
# _framework density 20.538615
#
# number of rings (size 3 to 8) (size 9 to 14) (size 15 to 20)
#    0.000    0.857    7.143    1.714    2.000    1.429 
#    0.000    3.571    0.000    0.000    0.000    2.000 
#    0.000    0.000    0.000    0.000    0.000    0.000 
#
# Total GULP energy -346873.563651 kJ/mol
# GULP energy per Si atom -12388.341559 kJ/mol
# Density = 2.049187 g / cm^3
# Si number density = 20.538615 Si / 1000 Ang^3
#
#
#
# Elastic Constant Matrix: (Units=GPa)
#
#
# Indices 1 2 3 4 5 6 
#
# 1 89.6267 27.6349 46.7427 0.0000 6.1258 0.0000
# 2 27.6349 73.3234 23.4049 0.0000 -3.0377 0.0000
# 3 46.7427 23.4049 122.0936 0.0000 -18.1513 0.0000
# 4 0.0000 0.0000 0.0000 16.9682 0.0000 -6.4895
# 5 6.1258 -3.0377 -18.1513 0.0000 23.5547 0.0000
# 6 0.0000 0.0000 0.0000 -6.4895 0.0000 17.0930
#
#
#
# Elastic Compliance Matrix: (Units=1/GPa)
#
#
# Indices 1 2 3 4 5 6 
#
# 1 0.017060 -0.004560 -0.007233 0.000000 -0.010598 0.000000
# 2 -0.004560 0.015748 -0.000898 0.000000 0.002525 0.000000
# 3 -0.007233 -0.000898 0.012868 0.000000 0.011681 0.000000
# 4 0.000000 0.000000 0.000000 0.068944 0.000000 0.026175
# 5 -0.010598 0.002525 0.011681 0.000000 0.054538 0.000000
# 6 0.000000 0.000000 0.000000 0.026175 0.000000 0.068441
#
#
# Mechanical properties :
#
#
# Convention : Reuss Voigt Hill
#
# Bulk Modulus (GPa) = 49.27291 53.40097 51.33694
# Shear Modulus (GPa) = 18.53599 24.00725 21.27162
#
# Velocity S-wave (km/s) = 3.00741 3.42260 3.22170
# Velocity P-wave (km/s) = 6.00848 6.45567 6.23609
#
# Compressibility (1/GPa) = 0.02029513
#
# Stress axis : x y z
#
# Youngs Moduli (GPa) = 58.61719 63.50012 77.71116
#
# Poissons Ratio (x) = 0.28956 0.56206
# Poissons Ratio (y) = 0.26730 0.06976
# Poissons Ratio (z) = 0.42396 0.05700
#
# Static dielectric constant tensor:
#      x y z
#    x 3.918020 0.000000 -0.372610 
#    y 0.000000 3.480520 0.000000 
#    z -0.372610 0.000000 4.127420 
# 
# 
# High freq. dielectric constant tensor:
#      x y z
#    x 1.805300 0.000000 -0.014110 
#    y 0.000000 1.775000 0.000000 
#    z -0.014110 0.000000 1.809350 
# 
# From -- ./inp_files/25093.got.cif
#   From: 2010.06.25/outbox.cif.g09.slc.cpg/sg10_13_cif.got.tgz:25093.got - 2010.06.27 22:07:45.
