data_PCOD8067521
_publ_section_title
;
Structure prediction by ZEFSAII (Michael W. Deem and Ramdas Pophale) SiO2 
 PCOD8067521
Probable space group: P 2/M
;
_chemical_formula_sum "Si O2"
_cell_formula_units_Z 32
_cell_length_a 20.813989
_cell_length_b 8.850669
_cell_length_c 15.418561
_cell_angle_alpha 90.000000
_cell_angle_beta 42.836987
_cell_angle_gamma 90.000000
_cell_volume 1931.211192
_symmetry_space_group_name_H-M "P 2/M"
_symmetry_group_IT_number 10
_symmetry_cell_setting 'monoclinic'
loop_
_space_group_symop_operation_xyz
x,y,z
-x,y,-z
-x,-y,-z
x,-y,z
loop_
_atom_site_type_symbol
_atom_site_label
_atom_site_fract_x
_atom_site_fract_y
_atom_site_fract_z
Si Si1 0.284098 0.177917 0.543984
Si Si2 0.387931 0.833698 0.112664
Si Si3 0.412174 0.822660 0.901222
Si Si4 0.107735 0.325573 0.993411
Si Si5 0.613856 0.677294 0.712668
Si Si6 0.290127 0.176216 0.856723
Si Si7 0.608297 0.677550 0.404703
Si Si8 0.105459 0.325360 0.793162
O O1 0.311618 0.243687 0.423825
O O2 0.353984 0.242464 0.547125
O O3 0.175675 0.221444 0.669057
O O4 0.295059 0.000000 0.531825
O O5 0.355344 0.718016 0.219276
O O6 0.345308 0.000000 0.175009
O O7 0.500000 0.844316 0.000000
O O8 0.359059 0.778936 0.044240
O O9 0.508697 0.731407 0.793525
O O10 0.341921 0.778523 0.893924
O O11 0.437839 0.000000 0.875945
O O12 0.128608 0.500000 0.993023
O O13 0.180143 0.221137 0.975219
O O14 0.121208 0.292635 0.878607
O O15 0.001551 0.283607 0.127611
O O16 0.619413 0.500000 0.694085
O O17 0.333848 0.271917 0.735977
O O18 0.300538 0.000000 0.825658
O O19 0.500000 0.724738 0.500000
O O20 0.621303 0.500000 0.404286
O O21 0.126906 0.500000 0.751753
#
# Coordination Sequence:
#
# PCOD8067521 Si02
#       8
#     4   4   4   4   4   4   4   4
#     4  12  23  34  50  72  97 129 165 203 245 292
#     4   8  15  31  51  69  95 130 163 200 246 289
#     4   9  19  34  50  71 102 135 165 201 244 288
#     4   9  18  33  53  72  96 128 160 201 249 291
#     4  11  21  32  49  73 100 130 166 207 244 288
#     4  11  21  32  49  74 100 129 165 202 239 287
#     4  11  23  36  48  65  95 134 170 202 238 282
#     4   9  18  34  53  72  95 126 162 202 248 292
#
# _framework density 16.569911999999999
#
# number of rings (size 3 to 8) (size 9 to 14) (size 15 to 20)
#    0.000    2.000    1.250    5.250    0.000    6.750 
#    0.000    1.250    0.000    0.000    0.000    0.875 
#    0.000    7.000    0.000    0.000    0.000    0.000 
#
# Total GULP energy -396805.107503 kJ/mol
# GULP energy per Si atom -12400.159609 kJ/mol
# Density = 1.653220 g / cm^3
# Si number density = 16.569912 Si / 1000 Ang^3
#
#
#
# Elastic Constant Matrix: (Units=GPa)
#
#
# Indices 1 2 3 4 5 6 
#
# 1 32.0226 11.1148 35.7246 0.0000 -2.1613 0.0000
# 2 11.1148 71.4044 39.3347 0.0000 -3.9192 0.0000
# 3 35.7246 39.3347 94.5040 0.0000 -0.2988 0.0000
# 4 0.0000 0.0000 0.0000 25.0164 0.0000 -0.5470
# 5 -2.1613 -3.9192 -0.2988 0.0000 26.0238 0.0000
# 6 0.0000 0.0000 0.0000 -0.5470 0.0000 7.9266
#
#
#
# Elastic Compliance Matrix: (Units=1/GPa)
#
#
# Indices 1 2 3 4 5 6 
#
# 1 0.055386 0.004121 -0.022637 0.000000 0.004961 0.000000
# 2 0.004121 0.018662 -0.009316 0.000000 0.003046 0.000000
# 3 -0.022637 -0.009316 0.023007 0.000000 -0.003019 0.000000
# 4 0.000000 0.000000 0.000000 0.040034 0.000000 0.002763
# 5 0.004961 0.003046 -0.003019 0.000000 0.039262 0.000000
# 6 0.000000 0.000000 0.000000 0.002763 0.000000 0.126349
#
#
# Mechanical properties :
#
#
# Convention : Reuss Voigt Hill
#
# Bulk Modulus (GPa) = 24.15951 41.14215 32.65083
# Shear Modulus (GPa) = 13.43506 19.24380 16.33943
#
# Velocity S-wave (km/s) = 2.85056 3.41159 3.14361
# Velocity P-wave (km/s) = 5.04443 6.35625 5.73795
#
# Compressibility (1/GPa) = 0.04139156
#
# Stress axis : x y z
#
# Youngs Moduli (GPa) = 18.05513 53.58406 43.46585
#
# Poissons Ratio (x) = -0.22081 0.98392
# Poissons Ratio (y) = -0.07440 0.40492
# Poissons Ratio (z) = 0.40871 0.49918
#
# Static dielectric constant tensor:
#      x y z
#    x 3.299200 0.000000 0.137140 
#    y 0.000000 3.109830 0.000000 
#    z 0.137140 0.000000 3.181520 
# 
# 
# High freq. dielectric constant tensor:
#      x y z
#    x 1.622590 0.000000 0.005070 
#    y 0.000000 1.643390 0.000000 
#    z 0.005070 0.000000 1.626120 
# 
# From -- ./inp_files/66148.got.cif
#   From: 2010.06.25/outbox.cif.g09.slc.cpg/sg10_34_cif.got.tgz:66148.got - 2010.06.27 22:07:45.
