data_PCOD8067671
_publ_section_title
;
Structure prediction by ZEFSAII (Michael W. Deem and Ramdas Pophale) SiO2 
 PCOD8067671
Probable space group: P 2/M
;
_chemical_formula_sum "Si O2"
_cell_formula_units_Z 28
_cell_length_a 11.200746
_cell_length_b 13.550262
_cell_length_c 14.901183
_cell_angle_alpha 90.000000
_cell_angle_beta 41.938018
_cell_angle_gamma 90.000000
_cell_volume 1511.485321
_symmetry_space_group_name_H-M "P 2/M"
_symmetry_group_IT_number 10
_symmetry_cell_setting 'monoclinic'
loop_
_space_group_symop_operation_xyz
x,y,z
-x,y,-z
-x,-y,-z
x,-y,z
loop_
_atom_site_type_symbol
_atom_site_label
_atom_site_fract_x
_atom_site_fract_y
_atom_site_fract_z
Si Si1 0.830360 0.384633 0.037462
Si Si2 0.964832 0.306768 0.780331
Si Si3 0.451115 0.700366 0.281548
Si Si4 0.667003 0.387004 0.470996
Si Si5 0.211098 0.111036 0.136742
Si Si6 0.144632 0.385565 0.347672
Si Si7 0.444476 0.110959 0.175858
O O1 0.800232 0.500000 0.069535
O O2 0.854583 0.361175 0.919501
O O3 0.657223 0.329070 0.171094
O O4 0.000000 0.346929 0.000000
O O5 0.168412 0.341460 0.675740
O O6 0.946456 0.187942 0.798929
O O7 0.879457 0.334586 0.733778
O O8 0.362549 0.681965 0.427147
O O9 0.346311 0.634629 0.267103
O O10 0.428268 0.815255 0.268870
O O11 0.500000 0.384523 0.500000
O O12 0.708015 0.500000 0.478257
O O13 0.279073 0.125797 0.200546
O O14 0.136868 0.000000 0.165398
O O15 0.373077 0.131804 0.978661
O O16 0.111273 0.500000 0.352275
O O17 0.000000 0.343280 0.500000
O O18 0.442452 0.000000 0.215804
#
# Coordination Sequence:
#
# PCOD8067671 Si02
#       7
#     4   4   4   4   4   4   4
#     4  11  24  39  56  83 118 155 199 244 284 340
#     4  12  21  37  61  86 118 151 193 246 292 346
#     4  12  21  37  61  86 118 151 193 246 292 346
#     4  11  24  41  60  81 114 167 209 228 274 354
#     4   9  18  35  58  86 118 151 187 231 293 361
#     4  11  22  35  54  85 124 158 185 231 298 359
#     4   9  18  35  58  86 118 151 187 231 293 361
#
# _framework density 18.524823000000001
#
# number of rings (size 3 to 8) (size 9 to 14) (size 15 to 20)
#    0.000    1.286    4.286    4.286    0.000    2.857 
#    0.000    2.143    0.000    7.714    0.000    0.000 
#    0.000    0.000    0.000    0.000    0.000    0.000 
#
# Total GULP energy -347266.149951 kJ/mol
# GULP energy per Si atom -12402.362498 kJ/mol
# Density = 1.848266 g / cm^3
# Si number density = 18.524823 Si / 1000 Ang^3
#
#
#
# Elastic Constant Matrix: (Units=GPa)
#
#
# Indices 1 2 3 4 5 6 
#
# 1 61.9479 24.7436 10.3448 0.0000 -8.0797 0.0000
# 2 24.7436 115.2132 29.9358 0.0000 -1.0437 0.0000
# 3 10.3448 29.9358 49.0585 0.0000 -4.4571 0.0000
# 4 0.0000 0.0000 0.0000 28.0583 0.0000 -1.9216
# 5 -8.0797 -1.0437 -4.4571 0.0000 34.9686 0.0000
# 6 0.0000 0.0000 0.0000 -1.9216 0.0000 18.4555
#
#
#
# Elastic Compliance Matrix: (Units=1/GPa)
#
#
# Indices 1 2 3 4 5 6 
#
# 1 0.018298 -0.003547 -0.001335 0.000000 0.003952 0.000000
# 2 -0.003547 0.011011 -0.006086 0.000000 -0.001267 0.000000
# 3 -0.001335 -0.006086 0.024620 0.000000 0.002648 0.000000
# 4 0.000000 0.000000 0.000000 0.035896 0.000000 0.003738
# 5 0.003952 -0.001267 0.002648 0.000000 0.029810 0.000000
# 6 0.000000 0.000000 0.000000 0.003738 0.000000 0.054573
#
#
# Mechanical properties :
#
#
# Convention : Reuss Voigt Hill
#
# Bulk Modulus (GPa) = 31.25754 39.58535 35.42145
# Shear Modulus (GPa) = 24.17694 27.04284 25.60989
#
# Velocity S-wave (km/s) = 3.61655 3.82490 3.72218
# Velocity P-wave (km/s) = 5.86082 6.39701 6.13477
#
# Compressibility (1/GPa) = 0.03199228
#
# Stress axis : x y z
#
# Youngs Moduli (GPa) = 54.65162 90.81622 40.61779
#
# Poissons Ratio (x) = 0.32213 0.05422
# Poissons Ratio (y) = 0.19385 0.24721
# Poissons Ratio (z) = 0.07296 0.55273
#
# Static dielectric constant tensor:
#      x y z
#    x 3.387300 0.000000 -0.053170 
#    y 0.000000 3.470070 0.000000 
#    z -0.053170 0.000000 3.441630 
# 
# 
# High freq. dielectric constant tensor:
#      x y z
#    x 1.712740 0.000000 -0.000860 
#    y 0.000000 1.715740 0.000000 
#    z -0.000860 0.000000 1.715330 
# 
# From -- ./inp_files/64917.got.cif
#   From: 2010.06.25/outbox.cif.g09.slc.cpg/sg10_33_cif.got.tgz:64917.got - 2010.06.27 22:07:45.
