data_PCOD8067468
_publ_section_title
;
Structure prediction by ZEFSAII (Michael W. Deem and Ramdas Pophale) SiO2 
 PCOD8067468
Probable space group: P 2/M
;
_chemical_formula_sum "Si O2"
_cell_formula_units_Z 32
_cell_length_a 16.893235
_cell_length_b 20.780375
_cell_length_c 16.183343
_cell_angle_alpha 90.000000
_cell_angle_beta 162.756509
_cell_angle_gamma 90.000000
_cell_volume 1684.073758
_symmetry_space_group_name_H-M "P 2/M"
_symmetry_group_IT_number 10
_symmetry_cell_setting 'monoclinic'
loop_
_space_group_symop_operation_xyz
x,y,z
-x,y,-z
-x,-y,-z
x,-y,z
loop_
_atom_site_type_symbol
_atom_site_label
_atom_site_fract_x
_atom_site_fract_y
_atom_site_fract_z
Si Si1 0.195059 0.073324 0.965485
Si Si2 0.392436 0.278397 0.580900
Si Si3 0.599192 0.353173 0.248259
Si Si4 0.740749 0.776214 0.297097
Si Si5 0.891093 0.735942 0.977506
Si Si6 0.235131 0.118830 0.181590
Si Si7 0.082477 0.573131 0.676618
Si Si8 0.320998 0.851532 0.601858
O O1 0.295919 0.076995 0.161042
O O2 0.429635 0.100086 0.140347
O O3 0.138698 0.000000 0.884248
O O4 0.925587 0.113775 0.687436
O O5 0.455363 0.331328 0.712772
O O6 0.597964 0.289748 0.710066
O O7 0.430490 0.206956 0.655140
O O8 0.091296 0.286026 0.249269
O O9 0.693902 0.294214 0.286752
O O10 0.831378 0.406441 0.482149
O O11 0.331783 0.381422 0.942824
O O12 0.774997 0.827520 0.404471
O O13 0.000000 0.774902 0.500000
O O14 0.500000 0.799145 0.000000
O O15 0.880190 0.812503 0.960826
O O16 0.000000 0.706281 0.000000
O O17 0.500000 0.126383 0.500000
O O18 0.000000 0.084451 0.000000
O O19 0.160856 0.500000 0.776192
O O20 0.000000 0.580833 0.500000
#
# Coordination Sequence:
#
# PCOD8067468 Si02
#       8
#     4   4   4   4   4   4   4   4
#     4  12  24  39  58  77 107 145 187 230 271 343
#     4  11  20  36  56  82 113 145 185 234 281 324
#     4  11  22  35  58  87 119 151 193 235 265 322
#     4  11  22  37  62  87 110 141 180 239 287 330
#     4  11  20  33  55  81 114 149 179 220 286 350
#     4  11  21  34  55  78 108 144 181 221 266 332
#     4  11  22  37  56  83 125 168 195 219 261 323
#     4  11  22  40  57  80 109 138 183 228 290 344
#
# _framework density 19.001543000000002
#
# number of rings (size 3 to 8) (size 9 to 14) (size 15 to 20)
#    0.000    0.875    2.500    7.125    0.000    5.500 
#    0.000    0.000    0.000    7.500    0.000    0.000 
#    0.000   35.000    0.000    0.000    0.000    0.000 
#
# Total GULP energy -396937.198014 kJ/mol
# GULP energy per Si atom -12404.287438 kJ/mol
# Density = 1.895829 g / cm^3
# Si number density = 19.001543 Si / 1000 Ang^3
#
#
#
# Elastic Constant Matrix: (Units=GPa)
#
#
# Indices 1 2 3 4 5 6 
#
# 1 107.2574 42.0550 36.8026 0.0000 10.9021 0.0000
# 2 42.0550 76.4153 33.2526 0.0000 -6.6008 0.0000
# 3 36.8026 33.2526 120.9226 0.0000 8.2484 0.0000
# 4 0.0000 0.0000 0.0000 19.7773 0.0000 -2.8277
# 5 10.9021 -6.6008 8.2484 0.0000 29.7612 0.0000
# 6 0.0000 0.0000 0.0000 -2.8277 0.0000 20.1710
#
#
#
# Elastic Compliance Matrix: (Units=1/GPa)
#
#
# Indices 1 2 3 4 5 6 
#
# 1 0.013292 -0.007098 -0.001686 0.000000 -0.005976 0.000000
# 2 -0.007098 0.019276 -0.003679 0.000000 0.007895 0.000000
# 3 -0.001686 -0.003679 0.009997 0.000000 -0.002969 0.000000
# 4 0.000000 0.000000 0.000000 0.051597 0.000000 0.007233
# 5 -0.005976 0.007895 -0.002969 0.000000 0.038364 0.000000
# 6 0.000000 0.000000 0.000000 0.007233 0.000000 0.050590
#
#
# Mechanical properties :
#
#
# Convention : Reuss Voigt Hill
#
# Bulk Modulus (GPa) = 56.69146 58.75730 57.72438
# Shear Modulus (GPa) = 23.37301 26.77424 25.07362
#
# Velocity S-wave (km/s) = 3.51102 3.75781 3.63651
# Velocity P-wave (km/s) = 6.80708 7.05817 6.93376
#
# Compressibility (1/GPa) = 0.01763934
#
# Stress axis : x y z
#
# Youngs Moduli (GPa) = 75.23092 51.87898 100.02941
#
# Poissons Ratio (x) = 0.36824 0.16865
# Poissons Ratio (y) = 0.53399 0.36800
# Poissons Ratio (z) = 0.12684 0.19086
#
# Static dielectric constant tensor:
#      x y z
#    x 3.646440 0.000000 0.070440 
#    y 0.000000 3.286690 0.000000 
#    z 0.070440 0.000000 3.540140 
# 
# 
# High freq. dielectric constant tensor:
#      x y z
#    x 1.741120 0.000000 0.009180 
#    y 0.000000 1.703320 0.000000 
#    z 0.009180 0.000000 1.757920 
# 
# From -- ./inp_files/67979.got.cif
#   From: 2010.06.25/outbox.cif.g09.slc.cpg/sg10_34_cif.got.tgz:67979.got - 2010.06.27 22:07:45.
