data_PCOD8067726
_publ_section_title
;
Structure prediction by ZEFSAII (Michael W. Deem and Ramdas Pophale) SiO2 
 PCOD8067726
Probable space group: P 2/M
;
_chemical_formula_sum "Si O2"
_cell_formula_units_Z 24
_cell_length_a 14.413783
_cell_length_b 8.448013
_cell_length_c 18.883986
_cell_angle_alpha 90.000000
_cell_angle_beta 31.106074
_cell_angle_gamma 90.000000
_cell_volume 1187.957447
_symmetry_space_group_name_H-M "P 2/M"
_symmetry_group_IT_number 10
_symmetry_cell_setting 'monoclinic'
loop_
_space_group_symop_operation_xyz
x,y,z
-x,y,-z
-x,-y,-z
x,-y,z
loop_
_atom_site_type_symbol
_atom_site_label
_atom_site_fract_x
_atom_site_fract_y
_atom_site_fract_z
Si Si1 0.710620 0.312323 0.697150
Si Si2 0.013291 0.685311 0.222624
Si Si3 0.691305 0.183238 0.345839
Si Si4 0.670628 0.182615 0.072318
Si Si5 0.205738 0.316580 0.863997
Si Si6 0.977347 0.312894 0.404438
O O1 0.676436 0.500000 0.720216
O O2 0.525862 0.220197 0.829005
O O3 0.839188 0.258218 0.677484
O O4 0.803458 0.256483 0.562666
O O5 0.058029 0.500000 0.194968
O O6 0.969035 0.752787 0.329904
O O7 0.844556 0.712944 0.282240
O O8 0.186778 0.776955 0.081456
O O9 0.500000 0.239177 0.500000
O O10 0.691383 0.214104 0.261933
O O11 0.727157 0.000000 0.338964
O O12 0.703973 0.288423 0.119548
O O13 0.688679 0.000000 0.081335
O O14 0.221475 0.500000 0.833577
O O15 0.000000 0.260567 0.000000
O O16 0.974166 0.500000 0.406153
#
# Coordination Sequence:
#
# PCOD8067726 Si02
#       6
#     4   4   4   4   4   4
#     4   9  18  39  65  90 117 152 197 246 296 354
#     4  11  22  39  61  89 118 156 205 249 291 345
#     4  11  25  42  60  89 126 160 192 237 299 358
#     4  12  25  39  58  88 123 160 196 242 303 359
#     4  11  23  41  65  89 114 155 205 248 287 344
#     4   8  18  37  64  91 117 150 196 250 298 342
#
# _framework density 20.202743000000002
#
# number of rings (size 3 to 8) (size 9 to 14) (size 15 to 20)
#    0.000    1.667    1.667    4.000    2.333    2.667 
#    0.000    7.500    0.000    0.000    0.000    0.000 
#    0.000    0.000    0.000    0.000    0.000    0.000 
#
# Total GULP energy -297702.341691 kJ/mol
# GULP energy per Si atom -12404.264237 kJ/mol
# Density = 2.015676 g / cm^3
# Si number density = 20.202743 Si / 1000 Ang^3
#
#
#
# Elastic Constant Matrix: (Units=GPa)
#
#
# Indices 1 2 3 4 5 6 
#
# 1 67.2705 10.1055 35.2455 0.0000 5.5144 0.0000
# 2 10.1055 49.7561 28.1113 0.0000 -5.7930 0.0000
# 3 35.2455 28.1113 132.4737 0.0000 -4.7263 0.0000
# 4 0.0000 0.0000 0.0000 27.6790 0.0000 0.2596
# 5 5.5144 -5.7930 -4.7263 0.0000 42.6698 0.0000
# 6 0.0000 0.0000 0.0000 0.2596 0.0000 10.8094
#
#
#
# Elastic Compliance Matrix: (Units=1/GPa)
#
#
# Indices 1 2 3 4 5 6 
#
# 1 0.017684 -0.001386 -0.004517 0.000000 -0.002974 0.000000
# 2 -0.001386 0.023229 -0.004459 0.000000 0.002839 0.000000
# 3 -0.004517 -0.004459 0.009734 0.000000 0.001057 0.000000
# 4 0.000000 0.000000 0.000000 0.036137 0.000000 -0.000868
# 5 -0.002974 0.002839 0.001057 0.000000 0.024323 0.000000
# 6 0.000000 0.000000 0.000000 -0.000868 0.000000 0.092533
#
#
# Mechanical properties :
#
#
# Convention : Reuss Voigt Hill
#
# Bulk Modulus (GPa) = 33.41855 44.04719 38.73287
# Shear Modulus (GPa) = 21.33665 27.96753 24.65209
#
# Velocity S-wave (km/s) = 3.25334 3.72471 3.49698
# Velocity P-wave (km/s) = 5.53983 6.35200 5.95977
#
# Compressibility (1/GPa) = 0.02992350
#
# Stress axis : x y z
#
# Youngs Moduli (GPa) = 56.54867 43.04873 102.72839
#
# Poissons Ratio (x) = 0.05966 0.46402
# Poissons Ratio (y) = 0.07837 0.45810
# Poissons Ratio (z) = 0.25543 0.19197
#
# Static dielectric constant tensor:
#      x y z
#    x 3.777700 0.000000 0.157480 
#    y 0.000000 3.387140 0.000000 
#    z 0.157480 0.000000 3.903300 
# 
# 
# High freq. dielectric constant tensor:
#      x y z
#    x 1.790390 0.000000 0.002110 
#    y 0.000000 1.772960 0.000000 
#    z 0.002110 0.000000 1.799620 
# 
# From -- ./inp_files/66688.got.cif
#   From: 2010.06.25/outbox.cif.g09.slc.cpg/sg10_34_cif.got.tgz:66688.got - 2010.06.27 22:07:45.
