data_PCOD8067343
_publ_section_title
;
Structure prediction by ZEFSAII (Michael W. Deem and Ramdas Pophale) SiO2 
 PCOD8067343
Probable space group: P 2/M
;
_chemical_formula_sum "Si O2"
_cell_formula_units_Z 24
_cell_length_a 12.192757
_cell_length_b 9.351209
_cell_length_c 23.820949
_cell_angle_alpha 90.000000
_cell_angle_beta 153.358765
_cell_angle_gamma 90.000000
_cell_volume 1217.858270
_symmetry_space_group_name_H-M "P 2/M"
_symmetry_group_IT_number 10
_symmetry_cell_setting 'monoclinic'
loop_
_space_group_symop_operation_xyz
x,y,z
-x,y,-z
-x,-y,-z
x,-y,z
loop_
_atom_site_type_symbol
_atom_site_label
_atom_site_fract_x
_atom_site_fract_y
_atom_site_fract_z
Si Si1 0.081407 0.165267 0.975570
Si Si2 0.557174 0.669098 0.157306
Si Si3 0.919650 0.335679 0.226916
Si Si4 0.977319 0.331779 0.428830
Si Si5 0.642332 0.663547 0.487124
Si Si6 0.164076 0.165101 0.250025
O O1 0.865160 0.185619 0.830728
O O2 0.158376 0.000000 0.015986
O O3 0.304872 0.252613 0.052344
O O4 0.000000 0.222941 0.000000
O O5 0.516897 0.500000 0.144442
O O6 0.743979 0.730263 0.289476
O O7 0.676584 0.704824 0.151180
O O8 0.902424 0.500000 0.200147
O O9 0.164516 0.309591 0.375192
O O10 0.936658 0.238676 0.178967
O O11 0.935671 0.500000 0.414433
O O12 0.000000 0.258664 0.500000
O O13 0.229214 0.299249 0.512686
O O14 0.549281 0.500000 0.446229
O O15 0.411612 0.765798 0.386506
O O16 0.166626 0.000000 0.267540
#
# Coordination Sequence:
#
# PCOD8067343 Si02
#       6
#     4   4   4   4   4   4
#     4  10  24  43  56  72 109 153 185 224 276 321
#     4   9  19  36  59  85 108 136 181 229 269 321
#     4   9  19  37  58  84 116 142 171 221 283 330
#     4   8  15  29  52  82 111 137 170 219 273 319
#     4   9  18  33  55  83 114 145 173 215 278 331
#     4  11  23  36  54  80 109 147 191 226 263 319
#
# _framework density 19.706726
#
# number of rings (size 3 to 8) (size 9 to 14) (size 15 to 20)
#    0.000    2.667    0.000    3.000    2.333    5.667 
#    0.000    5.833    0.000    1.000    0.000    0.000 
#    0.000    0.000    0.000    0.000    0.000    0.000 
#
# Total GULP energy -297491.304912 kJ/mol
# GULP energy per Si atom -12395.471038 kJ/mol
# Density = 1.966187 g / cm^3
# Si number density = 19.706726 Si / 1000 Ang^3
#
#
#
# Elastic Constant Matrix: (Units=GPa)
#
#
# Indices 1 2 3 4 5 6 
#
# 1 131.5911 50.6519 29.9525 0.0000 -3.6162 0.0000
# 2 50.6519 73.1484 31.4349 0.0000 7.9375 0.0000
# 3 29.9525 31.4349 43.7542 0.0000 15.3006 0.0000
# 4 0.0000 0.0000 0.0000 -33.1334 0.0000 -36.7635
# 5 -3.6162 7.9375 15.3006 0.0000 27.8090 0.0000
# 6 0.0000 0.0000 0.0000 -36.7635 0.0000 0.9566
#
#
#
# Elastic Compliance Matrix: (Units=1/GPa)
#
#
# Indices 1 2 3 4 5 6 
#
# 1 0.011432 -0.006204 -0.005581 0.000000 0.006328 0.000000
# 2 -0.006204 0.023308 -0.012246 0.000000 -0.000722 0.000000
# 3 -0.005581 -0.012246 0.042726 0.000000 -0.020738 0.000000
# 4 0.000000 0.000000 0.000000 -0.000692 0.000000 -0.026578
# 5 0.006328 -0.000722 -0.020738 0.000000 0.048399 0.000000
# 6 0.000000 0.000000 0.000000 -0.026578 0.000000 0.023953
#
#
# Mechanical properties :
#
#
# Convention : Reuss Voigt Hill
#
# Bulk Modulus (GPa) = 34.01055 52.50803 43.25929
# Shear Modulus (GPa) = 24.15589 8.22342 16.18966
#
# Velocity S-wave (km/s) = 3.50490 2.04498 2.86934
# Velocity P-wave (km/s) = 5.80301 5.68142 5.74253
#
# Compressibility (1/GPa) = 0.02940264
#
# Stress axis : x y z
#
# Youngs Moduli (GPa) = 87.47625 42.90430 23.40511
#
# Poissons Ratio (x) = 0.26618 0.13063
# Poissons Ratio (y) = 0.54271 0.28661
# Poissons Ratio (z) = 0.48824 0.52540
#
# Static dielectric constant tensor:
#      x y z
#    x 6.146760 0.000000 -1.305320 
#    y 0.000000 3.295000 0.000000 
#    z -1.305320 0.000000 4.079680 
# 
# 
# High freq. dielectric constant tensor:
#      x y z
#    x 1.783870 0.000000 -0.004610 
#    y 0.000000 1.736870 0.000000 
#    z -0.004610 0.000000 1.762370 
# 
# From -- ./inp_files/56692.got.cif
#   From: 2010.06.25/outbox.cif.g09.slc.cpg/sg10_29_cif.got.tgz:56692.got - 2010.06.27 22:07:45.
