data_PCOD8067333
_publ_section_title
;
Structure prediction by ZEFSAII (Michael W. Deem and Ramdas Pophale) SiO2 
 PCOD8067333
Probable space group: P 2/M
;
_chemical_formula_sum "Si O2"
_cell_formula_units_Z 20
_cell_length_a 8.624422
_cell_length_b 11.017542
_cell_length_c 13.139840
_cell_angle_alpha 90.000000
_cell_angle_beta 133.107889
_cell_angle_gamma 90.000000
_cell_volume 911.524229
_symmetry_space_group_name_H-M "P 2/M"
_symmetry_group_IT_number 10
_symmetry_cell_setting 'monoclinic'
loop_
_space_group_symop_operation_xyz
x,y,z
-x,y,-z
-x,-y,-z
x,-y,z
loop_
_atom_site_type_symbol
_atom_site_label
_atom_site_fract_x
_atom_site_fract_y
_atom_site_fract_z
Si Si1 0.919168 0.774495 0.850590
Si Si2 0.622687 0.000000 0.661254
Si Si3 0.220025 0.739598 0.653486
Si Si4 0.743142 0.637101 0.121669
Si Si5 0.529998 0.361035 0.629571
Si Si6 0.239875 0.000000 0.648941
O O1 0.780112 0.884742 0.743153
O O2 0.771796 0.654824 0.776286
O O3 0.124560 0.741302 0.875890
O O4 0.000000 0.804026 0.000000
O O5 0.500000 0.000000 0.500000
O O6 0.430365 0.000000 0.653471
O O7 0.214447 0.639833 0.738745
O O8 0.392271 0.718427 0.643803
O O9 0.263898 0.874029 0.722107
O O10 0.000000 0.733686 0.500000
O O11 0.792119 0.500000 0.104495
O O12 0.500000 0.672053 0.000000
O O13 0.500000 0.314664 0.500000
O O14 0.460206 0.500000 0.606462
O O15 0.000000 0.000000 0.500000
#
# Coordination Sequence:
#
# PCOD8067333 Si02
#       6
#     4   2   4   4   4   2
#     4  12  26  45  69 100 138 182 231 289 343 412
#     4  12  27  47  74 103 138 181 229 290 345 416
#     4  11  23  41  67  98 137 171 228 285 340 408
#     4  11  26  46  68  98 137 184 229 279 347 411
#     4  11  23  40  66 100 136 181 233 285 347 413
#     4  10  24  41  70 102 133 174 224 275 345 410
#
# _framework density 21.941271
#
# number of rings (size 3 to 8) (size 9 to 14) (size 15 to 20)
#    0.000    0.800    2.000    4.500    5.600    6.400 
#    0.000    1.000    0.000    0.000    0.000    0.000 
#    0.000    0.000    0.000    0.000    0.000    0.000 
#
# Total GULP energy -247859.689383 kJ/mol
# GULP energy per Si atom -12392.984469 kJ/mol
# Density = 2.189133 g / cm^3
# Si number density = 21.941271 Si / 1000 Ang^3
#
#
#
# Elastic Constant Matrix: (Units=GPa)
#
#
# Indices 1 2 3 4 5 6 
#
# 1 137.6081 50.2157 49.8132 0.0000 15.1247 0.0000
# 2 50.2157 101.1347 51.3625 0.0000 13.1730 0.0000
# 3 49.8132 51.3625 142.6364 0.0000 -0.3250 0.0000
# 4 0.0000 0.0000 0.0000 24.6941 0.0000 25.1378
# 5 15.1247 13.1730 -0.3250 0.0000 36.9207 0.0000
# 6 0.0000 0.0000 0.0000 25.1378 0.0000 1.5373
#
#
#
# Elastic Compliance Matrix: (Units=1/GPa)
#
#
# Indices 1 2 3 4 5 6 
#
# 1 0.009551 -0.003287 -0.002158 0.000000 -0.002759 0.000000
# 2 -0.003287 0.013975 -0.003893 0.000000 -0.003674 0.000000
# 3 -0.002158 -0.003893 0.009172 0.000000 0.002354 0.000000
# 4 0.000000 0.000000 0.000000 -0.002588 0.000000 0.042323
# 5 -0.002759 -0.003674 0.002354 0.000000 0.029547 0.000000
# 6 0.000000 0.000000 0.000000 0.042323 0.000000 -0.041576
#
#
# Mechanical properties :
#
#
# Convention : Reuss Voigt Hill
#
# Bulk Modulus (GPa) = 71.31607 76.01801 73.66704
# Shear Modulus (GPa) = 120.68353 27.96294 74.32323
#
# Velocity S-wave (km/s) = 7.42445 3.57381 5.82643
# Velocity P-wave (km/s) = 10.29904 7.19380 8.88316
#
# Compressibility (1/GPa) = 0.01402209
#
# Stress axis : x y z
#
# Youngs Moduli (GPa) = 104.70186 71.55404 109.03046
#
# Poissons Ratio (x) = 0.23519 0.23531
# Poissons Ratio (y) = 0.34414 0.42445
# Poissons Ratio (z) = 0.22597 0.27856
#
# Static dielectric constant tensor:
#      x y z
#    x 4.478620 0.000000 0.140970 
#    y 0.000000 4.283350 0.000000 
#    z 0.140970 0.000000 4.037030 
# 
# 
# High freq. dielectric constant tensor:
#      x y z
#    x 1.875780 0.000000 0.016570 
#    y 0.000000 1.877340 0.000000 
#    z 0.016570 0.000000 1.856030 
# 
# From -- ./inp_files/42168.got.cif
#   From: 2010.06.25/outbox.cif.g09.slc.cpg/sg10_22_cif.got.tgz:42168.got - 2010.06.27 22:07:45.
