data_PCOD8067219
_publ_section_title
;
Structure prediction by ZEFSAII (Michael W. Deem and Ramdas Pophale) SiO2 
 PCOD8067219
Probable space group: P 2/M
;
_chemical_formula_sum "Si O2"
_cell_formula_units_Z 28
_cell_length_a 16.587048
_cell_length_b 18.049438
_cell_length_c 9.735646
_cell_angle_alpha 90.000000
_cell_angle_beta 29.691980
_cell_angle_gamma 90.000000
_cell_volume 1443.771272
_symmetry_space_group_name_H-M "P 2/M"
_symmetry_group_IT_number 10
_symmetry_cell_setting 'monoclinic'
loop_
_space_group_symop_operation_xyz
x,y,z
-x,y,-z
-x,-y,-z
x,-y,z
loop_
_atom_site_type_symbol
_atom_site_label
_atom_site_fract_x
_atom_site_fract_y
_atom_site_fract_z
Si Si1 0.542240 0.807676 0.778868
Si Si2 0.555306 0.581401 0.134590
Si Si3 0.890427 0.260395 0.293856
Si Si4 0.385267 0.287823 0.792120
Si Si5 0.237890 0.414713 0.433112
Si Si6 0.095380 0.805210 0.217399
Si Si7 0.606180 0.915773 0.206852
O O1 0.722944 0.776803 0.493742
O O2 0.424498 0.747924 0.882501
O O3 0.504441 0.884178 0.754266
O O4 0.500000 0.817556 0.000000
O O5 0.539527 0.500000 0.215178
O O6 0.588119 0.625607 0.226233
O O7 0.388613 0.604309 0.308216
O O8 0.705534 0.588833 0.807799
O O9 0.883077 0.345154 0.364376
O O10 0.962809 0.199698 0.293089
O O11 0.000000 0.266526 0.000000
O O12 0.500000 0.256698 0.500000
O O13 0.197446 0.270410 0.042347
O O14 0.171086 0.500000 0.560956
O O15 0.000000 0.808726 0.500000
O O16 0.222753 0.873301 0.021932
O O17 0.500000 0.909543 0.500000
O O18 0.650622 0.000000 0.105051
#
# Coordination Sequence:
#
# PCOD8067219 Si02
#       7
#     4   4   4   4   4   4   4
#     4  11  21  38  63  86 112 150 199 237 269 334
#     4   9  17  32  56  80 104 146 202 249 286 335
#     4  12  22  34  57  87 117 147 191 246 290 332
#     4  11  21  36  57  82 117 152 194 243 291 344
#     4   9  18  33  54  80 111 151 196 242 295 341
#     4  11  23  38  57  86 119 153 186 227 290 347
#     4  10  22  43  66  87 118 155 186 226 286 348
#
# _framework density 19.393654000000002
#
# number of rings (size 3 to 8) (size 9 to 14) (size 15 to 20)
#    0.000    1.571    1.429    7.714    0.000    1.143 
#    0.000    1.429    0.000    5.143    0.000    0.000 
#    0.000    0.000    0.000    0.000    0.000    0.000 
#
# Total GULP energy -346932.571737 kJ/mol
# GULP energy per Si atom -12390.448991 kJ/mol
# Density = 1.934951 g / cm^3
# Si number density = 19.393654 Si / 1000 Ang^3
#
#
#
# Elastic Constant Matrix: (Units=GPa)
#
#
# Indices 1 2 3 4 5 6 
#
# 1 69.0305 35.9777 20.2578 0.0000 8.8804 0.0000
# 2 35.9777 113.9786 33.8752 0.0000 -0.9605 0.0000
# 3 20.2578 33.8752 98.1470 0.0000 6.6194 0.0000
# 4 0.0000 0.0000 0.0000 16.6983 0.0000 -0.3961
# 5 8.8804 -0.9605 6.6194 0.0000 28.8213 0.0000
# 6 0.0000 0.0000 0.0000 -0.3961 0.0000 29.9642
#
#
#
# Elastic Compliance Matrix: (Units=1/GPa)
#
#
# Indices 1 2 3 4 5 6 
#
# 1 0.018478 -0.005411 -0.001574 0.000000 -0.005512 0.000000
# 2 -0.005411 0.011397 -0.003001 0.000000 0.002736 0.000000
# 3 -0.001574 -0.003001 0.011705 0.000000 -0.002303 0.000000
# 4 0.000000 0.000000 0.000000 0.059905 0.000000 0.000792
# 5 -0.005512 0.002736 -0.002303 0.000000 0.037015 0.000000
# 6 0.000000 0.000000 0.000000 0.000792 0.000000 0.033384
#
#
# Mechanical properties :
#
#
# Convention : Reuss Voigt Hill
#
# Bulk Modulus (GPa) = 46.28390 51.26416 48.77403
# Shear Modulus (GPa) = 25.11825 27.83312 26.47568
#
# Velocity S-wave (km/s) = 3.60276 3.79247 3.69883
# Velocity P-wave (km/s) = 6.42058 6.75781 6.59135
#
# Compressibility (1/GPa) = 0.02160578
#
# Stress axis : x y z
#
# Youngs Moduli (GPa) = 54.11951 87.74531 85.43378
#
# Poissons Ratio (x) = 0.47479 0.13451
# Poissons Ratio (y) = 0.29284 0.25640
# Poissons Ratio (z) = 0.08521 0.26334
#
# Static dielectric constant tensor:
#      x y z
#    x 3.326420 0.000000 0.068200 
#    y 0.000000 3.751100 0.000000 
#    z 0.068200 0.000000 3.453430 
# 
# 
# High freq. dielectric constant tensor:
#      x y z
#    x 1.752090 0.000000 0.006870 
#    y 0.000000 1.753730 0.000000 
#    z 0.006870 0.000000 1.751360 
# 
# From -- ./inp_files/30363.got.cif
#   From: 2010.06.25/outbox.cif.g09.slc.cpg/sg10_16_cif.got.tgz:30363.got - 2010.06.27 22:07:45.
