data_PCOD8067341
_publ_section_title
;
Structure prediction by ZEFSAII (Michael W. Deem and Ramdas Pophale) SiO2 
 PCOD8067341
Probable space group: P 2/M
;
_chemical_formula_sum "Si O2"
_cell_formula_units_Z 32
_cell_length_a 13.963814
_cell_length_b 17.620058
_cell_length_c 5.855942
_cell_angle_alpha 90.000000
_cell_angle_beta 96.380767
_cell_angle_gamma 90.000000
_cell_volume 1431.889340
_symmetry_space_group_name_H-M "P 2/M"
_symmetry_group_IT_number 10
_symmetry_cell_setting 'monoclinic'
loop_
_space_group_symop_operation_xyz
x,y,z
-x,y,-z
-x,-y,-z
x,-y,z
loop_
_atom_site_type_symbol
_atom_site_label
_atom_site_fract_x
_atom_site_fract_y
_atom_site_fract_z
Si Si1 0.778207 0.087837 0.364325
Si Si2 0.397376 0.847518 0.927555
Si Si3 0.866414 0.310355 0.029421
Si Si4 0.263602 0.800712 0.277550
Si Si5 0.918564 0.585225 0.661563
Si Si6 0.049437 0.827407 0.763671
Si Si7 0.402507 0.292535 0.615737
Si Si8 0.260512 0.412843 0.699336
O O1 0.667985 0.100778 0.253489
O O2 0.792892 0.133586 0.602676
O O3 0.853655 0.121295 0.201408
O O4 0.797975 0.000000 0.413210
O O5 0.419785 0.763962 0.830960
O O6 0.500000 0.888362 0.000000
O O7 0.347086 0.839830 0.156192
O O8 0.927903 0.263784 0.235383
O O9 0.788521 0.368196 0.106425
O O10 0.815996 0.241030 0.888790
O O11 0.933693 0.357528 0.874951
O O12 0.312165 0.739633 0.454345
O O13 0.936353 0.500000 0.755492
O O14 0.810662 0.592853 0.535399
O O15 0.000000 0.606044 0.500000
O O16 0.000000 0.845525 0.500000
O O17 0.000000 0.845906 0.000000
O O18 0.500000 0.302592 0.500000
O O19 0.365509 0.375761 0.683664
O O20 0.276872 0.500000 0.776188
#
# Coordination Sequence:
#
# PCOD8067341 Si02
#       8
#     4   4   4   4   4   4   4   4
#     4  11  27  48  70 105 148 184 224 289 364 436
#     4  11  22  42  72 106 133 177 233 287 350 429
#     4  12  23  42  72  95 136 181 243 300 353 417
#     4  11  21  42  70  99 133 184 235 285 347 426
#     4  10  24  42  63  95 137 185 232 291 374 436
#     4  12  29  48  76 112 143 189 255 306 359 433
#     4  11  21  37  68  96 133 180 233 289 353 418
#     4  11  24  39  59  96 138 179 233 293 363 429
#
# _framework density 22.348094
#
# number of rings (size 3 to 8) (size 9 to 14) (size 15 to 20)
#    0.000    0.875    5.000    1.875    3.500    1.500 
#    0.000    2.500    0.000    2.250    0.000    0.000 
#    0.000    0.000    0.000    0.000    0.000    0.000 
#
# Total GULP energy -396668.471701 kJ/mol
# GULP energy per Si atom -12395.889741 kJ/mol
# Density = 2.229723 g / cm^3
# Si number density = 22.348094 Si / 1000 Ang^3
#
#
#
# Elastic Constant Matrix: (Units=GPa)
#
#
# Indices 1 2 3 4 5 6 
#
# 1 109.6594 49.2391 36.6268 0.0000 -20.6902 0.0000
# 2 49.2391 151.9952 47.0828 0.0000 -16.7664 0.0000
# 3 36.6268 47.0828 101.0178 0.0000 -13.7936 0.0000
# 4 0.0000 0.0000 0.0000 19.2106 0.0000 -6.0208
# 5 -20.6902 -16.7664 -13.7936 0.0000 44.7034 0.0000
# 6 0.0000 0.0000 0.0000 -6.0208 0.0000 21.5826
#
#
#
# Elastic Compliance Matrix: (Units=1/GPa)
#
#
# Indices 1 2 3 4 5 6 
#
# 1 0.011860 -0.002639 -0.002564 0.000000 0.003708 0.000000
# 2 -0.002639 0.008427 -0.002825 0.000000 0.001068 0.000000
# 3 -0.002564 -0.002825 0.012360 0.000000 0.001567 0.000000
# 4 0.000000 0.000000 0.000000 0.057042 0.000000 0.015913
# 5 0.003708 0.001068 0.001567 0.000000 0.024970 0.000000
# 6 0.000000 0.000000 0.000000 0.015913 0.000000 0.050773
#
#
# Mechanical properties :
#
#
# Convention : Reuss Voigt Hill
#
# Bulk Modulus (GPa) = 60.27390 69.84109 65.05750
# Shear Modulus (GPa) = 26.73554 32.41424 29.57489
#
# Velocity S-wave (km/s) = 3.46254 3.81258 3.64177
# Velocity P-wave (km/s) = 6.55855 7.12041 6.84525
#
# Compressibility (1/GPa) = 0.01659093
#
# Stress axis : x y z
#
# Youngs Moduli (GPa) = 84.31651 118.66797 80.90861
#
# Poissons Ratio (x) = 0.31314 0.20744
# Poissons Ratio (y) = 0.22249 0.22857
# Poissons Ratio (z) = 0.21618 0.33525
#
# Static dielectric constant tensor:
#      x y z
#    x 4.274320 0.000000 0.136650 
#    y 0.000000 3.890330 0.000000 
#    z 0.136650 0.000000 4.343440 
# 
# 
# High freq. dielectric constant tensor:
#      x y z
#    x 1.889600 0.000000 -0.003080 
#    y 0.000000 1.866210 0.000000 
#    z -0.003080 0.000000 1.884050 
# 
# From -- ./inp_files/9817.got.cif
#   From: 2010.06.25/outbox.cif.g09.slc.cpg/sg10_5_cif.got.tgz:9817.got - 2010.06.27 22:07:45.
