data_PCOD8067646
_publ_section_title
;
Structure prediction by ZEFSAII (Michael W. Deem and Ramdas Pophale) SiO2 
 PCOD8067646
Probable space group: P 2/M
;
_chemical_formula_sum "Si O2"
_cell_formula_units_Z 20
_cell_length_a 17.339614
_cell_length_b 9.637589
_cell_length_c 7.986804
_cell_angle_alpha 90.000000
_cell_angle_beta 49.573379
_cell_angle_gamma 90.000000
_cell_volume 1016.016582
_symmetry_space_group_name_H-M "P 2/M"
_symmetry_group_IT_number 10
_symmetry_cell_setting 'monoclinic'
loop_
_space_group_symop_operation_xyz
x,y,z
-x,y,-z
-x,-y,-z
x,-y,z
loop_
_atom_site_type_symbol
_atom_site_label
_atom_site_fract_x
_atom_site_fract_y
_atom_site_fract_z
Si Si1 0.008700 0.705208 0.682805
Si Si2 0.479343 0.000000 0.338587
Si Si3 0.704478 0.000000 0.627591
Si Si4 0.589360 0.230768 0.988918
Si Si5 0.945461 0.000000 0.254749
Si Si6 0.153403 0.500000 0.979046
Si Si7 0.694494 0.500000 0.927891
Si Si8 0.170814 0.500000 0.574916
O O1 0.108569 0.638619 0.621790
O O2 0.000000 0.666988 0.500000
O O3 0.913502 0.639469 0.913832
O O4 0.013537 0.869101 0.700035
O O5 0.500000 0.000000 0.500000
O O6 0.360800 0.000000 0.452321
O O7 0.533949 0.135033 0.197387
O O8 0.675390 0.859974 0.771169
O O9 0.823233 0.000000 0.414764
O O10 0.633300 0.358092 0.032451
O O11 0.500000 0.291429 0.000000
O O12 0.000000 0.000000 0.000000
O O13 0.229147 0.500000 0.026271
O O14 0.205355 0.500000 0.721729
O O15 0.733873 0.500000 0.681237
#
# Coordination Sequence:
#
# PCOD8067646 Si02
#       8
#     4   2   2   4   2   2   2   2
#     4  11  21  41  59  80 121 172 211 259 313 365
#     4   9  19  44  65  92 124 162 202 254 314 380
#     4   9  20  40  65  84 117 172 202 239 328 382
#     4   9  20  40  66  88 121 161 203 255 318 379
#     4  12  24  38  57  98 129 155 217 273 302 365
#     4  11  23  40  61  86 122 176 212 249 311 383
#     4  12  21  39  61  96 124 154 213 255 314 370
#     4  11  21  40  63  81 121 170 207 250 315 375
#
# _framework density 19.684718
#
# number of rings (size 3 to 8) (size 9 to 14) (size 15 to 20)
#    0.000    1.600    2.000    6.000    0.000    0.000 
#   14.400    0.500    0.000    0.000    0.000    0.000 
#    0.000    0.000    0.000    0.000    0.000    0.000 
#
# Total GULP energy -247910.753448 kJ/mol
# GULP energy per Si atom -12395.537672 kJ/mol
# Density = 1.963991 g / cm^3
# Si number density = 19.684718 Si / 1000 Ang^3
#
#
#
# Elastic Constant Matrix: (Units=GPa)
#
#
# Indices 1 2 3 4 5 6 
#
# 1 104.9448 48.2814 54.3345 0.0000 1.2361 0.0000
# 2 48.2814 138.7953 12.4121 0.0000 -11.5116 0.0000
# 3 54.3345 12.4121 89.5391 0.0000 4.5195 0.0000
# 4 0.0000 0.0000 0.0000 8.5842 0.0000 -0.1940
# 5 1.2361 -11.5116 4.5195 0.0000 39.5116 0.0000
# 6 0.0000 0.0000 0.0000 -0.1940 0.0000 28.7598
#
#
#
# Elastic Compliance Matrix: (Units=1/GPa)
#
#
# Indices 1 2 3 4 5 6 
#
# 1 0.016738 -0.005057 -0.009410 0.000000 -0.000921 0.000000
# 2 -0.005057 0.009029 0.001686 0.000000 0.002596 0.000000
# 3 -0.009410 0.001686 0.016701 0.000000 -0.001125 0.000000
# 4 0.000000 0.000000 0.000000 0.116510 0.000000 0.000786
# 5 -0.000921 0.002596 -0.001125 0.000000 0.026223 0.000000
# 6 0.000000 0.000000 0.000000 0.000786 0.000000 0.034776
#
#
# Mechanical properties :
#
#
# Convention : Reuss Voigt Hill
#
# Bulk Modulus (GPa) = 59.14781 62.59280 60.87031
# Shear Modulus (GPa) = 19.90652 29.92122 24.91387
#
# Velocity S-wave (km/s) = 3.18349 3.90298 3.56145
# Velocity P-wave (km/s) = 6.60497 7.22341 6.92110
#
# Compressibility (1/GPa) = 0.01690680
#
# Stress axis : x y z
#
# Youngs Moduli (GPa) = 59.74367 110.75888 59.87566
#
# Poissons Ratio (x) = 0.56016 0.56341
# Poissons Ratio (y) = 0.30215 -0.10097
# Poissons Ratio (z) = 0.56216 -0.18678
#
# Static dielectric constant tensor:
#      x y z
#    x 3.442600 0.000000 -0.090420 
#    y 0.000000 3.752070 0.000000 
#    z -0.090420 0.000000 3.483390 
# 
# 
# High freq. dielectric constant tensor:
#      x y z
#    x 1.766840 0.000000 0.004770 
#    y 0.000000 1.781120 0.000000 
#    z 0.004770 0.000000 1.755240 
# 
# From -- ./inp_files/31506.got.cif
#   From: 2010.06.25/outbox.cif.g09.slc.cpg/sg10_16_cif.got.tgz:31506.got - 2010.06.27 22:07:45.
