data_PCOD8067678
_publ_section_title
;
Structure prediction by ZEFSAII (Michael W. Deem and Ramdas Pophale) SiO2 
 PCOD8067678
Probable space group: P 2/M
;
_chemical_formula_sum "Si O2"
_cell_formula_units_Z 28
_cell_length_a 18.821092
_cell_length_b 8.806530
_cell_length_c 15.305589
_cell_angle_alpha 90.000000
_cell_angle_beta 142.512132
_cell_angle_gamma 90.000000
_cell_volume 1543.927639
_symmetry_space_group_name_H-M "P 2/M"
_symmetry_group_IT_number 10
_symmetry_cell_setting 'monoclinic'
loop_
_space_group_symop_operation_xyz
x,y,z
-x,y,-z
-x,-y,-z
x,-y,z
loop_
_atom_site_type_symbol
_atom_site_label
_atom_site_fract_x
_atom_site_fract_y
_atom_site_fract_z
Si Si1 0.887118 0.821090 0.074482
Si Si2 0.861944 0.328785 0.875173
Si Si3 0.255661 0.820624 0.896336
Si Si4 0.850365 0.823309 0.689791
Si Si5 0.133870 0.322847 0.613614
Si Si6 0.278503 0.177161 0.610762
Si Si7 0.508199 0.322261 0.906219
O O1 0.817069 0.764819 0.090823
O O2 0.020918 0.762507 0.212317
O O3 0.881296 0.000000 0.061612
O O4 0.823683 0.755033 0.926565
O O5 0.817969 0.500000 0.838710
O O6 0.803529 0.255029 0.732438
O O7 0.000000 0.314628 0.000000
O O8 0.210549 0.727644 0.769909
O O9 0.242577 0.000000 0.867646
O O10 0.390388 0.775519 0.040688
O O11 0.757561 0.787832 0.523785
O O12 0.860405 0.000000 0.719206
O O13 0.156623 0.500000 0.618095
O O14 0.169988 0.225484 0.564946
O O15 0.000000 0.285520 0.500000
O O16 0.389363 0.278388 0.742100
O O17 0.305897 0.000000 0.651963
O O18 0.532604 0.500000 0.917563
O O19 0.500000 0.278582 0.000000
#
# Coordination Sequence:
#
# PCOD8067678 Si02
#       7
#     4   4   4   4   4   4   4
#     4   9  18  33  53  79 110 141 173 214 265 316
#     4   9  17  29  49  78 109 142 177 211 253 313
#     4  11  22  36  57  80 104 138 183 227 265 312
#     4   9  18  33  53  79 110 141 173 214 265 316
#     4  11  23  36  51  76 111 145 173 211 268 323
#     4  11  22  36  57  80 104 138 183 227 265 312
#     4  11  23  39  57  76 104 141 182 224 273 323
#
# _framework density 18.135565
#
# number of rings (size 3 to 8) (size 9 to 14) (size 15 to 20)
#    0.000    1.857    1.429    3.000    0.000    6.857 
#    0.000    2.857    0.000    0.857    0.000    6.000 
#    0.000    0.000    0.000    0.000    0.000    0.000 
#
# Total GULP energy -347285.966139 kJ/mol
# GULP energy per Si atom -12403.070219 kJ/mol
# Density = 1.809429 g / cm^3
# Si number density = 18.135565 Si / 1000 Ang^3
#
#
#
# Elastic Constant Matrix: (Units=GPa)
#
#
# Indices 1 2 3 4 5 6 
#
# 1 31.7255 15.2072 17.8477 0.0000 -6.0953 0.0000
# 2 15.2072 38.2098 21.6027 0.0000 -7.0223 0.0000
# 3 17.8477 21.6027 81.0825 0.0000 -6.5522 0.0000
# 4 0.0000 0.0000 0.0000 21.3343 0.0000 6.1791
# 5 -6.0953 -7.0223 -6.5522 0.0000 30.3956 0.0000
# 6 0.0000 0.0000 0.0000 6.1791 0.0000 19.2524
#
#
#
# Elastic Compliance Matrix: (Units=1/GPa)
#
#
# Indices 1 2 3 4 5 6 
#
# 1 0.041442 -0.012661 -0.005408 0.000000 0.004220 0.000000
# 2 -0.012661 0.035592 -0.006347 0.000000 0.004316 0.000000
# 3 -0.005408 -0.006347 0.015274 0.000000 0.000742 0.000000
# 4 0.000000 0.000000 0.000000 0.051677 0.000000 -0.016586
# 5 0.004220 0.004316 0.000742 0.000000 0.034903 0.000000
# 6 0.000000 0.000000 0.000000 -0.016586 0.000000 0.057265
#
#
# Mechanical properties :
#
#
# Convention : Reuss Voigt Hill
#
# Bulk Modulus (GPa) = 23.00066 28.92588 25.96327
# Shear Modulus (GPa) = 16.69582 20.62049 18.65815
#
# Velocity S-wave (km/s) = 3.03745 3.37563 3.21100
# Velocity P-wave (km/s) = 5.00116 5.58369 5.30044
#
# Compressibility (1/GPa) = 0.04347701
#
# Stress axis : x y z
#
# Youngs Moduli (GPa) = 24.13000 28.09637 65.46863
#
# Poissons Ratio (x) = 0.35572 0.35405
# Poissons Ratio (y) = 0.30550 0.41554
# Poissons Ratio (z) = 0.13049 0.17833
#
# Static dielectric constant tensor:
#      x y z
#    x 3.476930 0.000000 -0.080790 
#    y 0.000000 3.350130 0.000000 
#    z -0.080790 0.000000 3.291790 
# 
# 
# High freq. dielectric constant tensor:
#      x y z
#    x 1.692540 0.000000 -0.014340 
#    y 0.000000 1.710220 0.000000 
#    z -0.014340 0.000000 1.692970 
# 
# From -- ./inp_files/54725.got.cif
#   From: 2010.06.25/outbox.cif.g09.slc.cpg/sg10_28_cif.got.tgz:54725.got - 2010.06.27 22:07:45.
