data_PCOD8067145
_publ_section_title
;
Structure prediction by ZEFSAII (Michael W. Deem and Ramdas Pophale) SiO2 
 PCOD8067145
Probable space group: P 2/M
;
_chemical_formula_sum "Si O2"
_cell_formula_units_Z 20
_cell_length_a 9.066651
_cell_length_b 11.759204
_cell_length_c 18.191545
_cell_angle_alpha 90.000000
_cell_angle_beta 28.275545
_cell_angle_gamma 90.000000
_cell_volume 918.774906
_symmetry_space_group_name_H-M "P 2/M"
_symmetry_group_IT_number 10
_symmetry_cell_setting 'monoclinic'
loop_
_space_group_symop_operation_xyz
x,y,z
-x,y,-z
-x,-y,-z
x,-y,z
loop_
_atom_site_type_symbol
_atom_site_label
_atom_site_fract_x
_atom_site_fract_y
_atom_site_fract_z
Si Si1 0.317450 0.726472 0.721633
Si Si2 0.981613 0.500000 0.196776
Si Si3 0.729056 0.698233 0.672660
Si Si4 0.114505 0.130109 0.584929
Si Si5 0.838004 0.128432 0.865261
Si Si6 0.619171 0.500000 0.833215
O O1 0.412118 0.710826 0.765110
O O2 0.586832 0.791742 0.559300
O O3 0.245045 0.607143 0.714421
O O4 0.003925 0.801576 0.856983
O O5 0.127957 0.500000 0.213290
O O6 0.262477 0.500000 0.015373
O O7 0.675851 0.612118 0.761617
O O8 0.000000 0.651140 0.500000
O O9 0.827120 0.820540 0.663335
O O10 0.043356 0.134862 0.702105
O O11 0.176721 0.000000 0.532946
O O12 0.793803 0.000000 0.912676
O O13 0.500000 0.184462 0.000000
#
# Coordination Sequence:
#
# PCOD8067145 Si02
#       6
#     4   2   4   4   4   2
#     4  11  23  40  65  96 129 167 221 263 323 384
#     4  11  27  42  67  98 125 177 221 270 325 382
#     4  10  23  41  66  98 132 174 212 268 325 393
#     4  10  22  42  67  96 132 176 217 266 322 384
#     4  10  22  40  64  94 132 172 219 270 321 382
#     4  11  24  46  66  90 137 172 216 271 329 389
#
# _framework density 21.768117
#
# number of rings (size 3 to 8) (size 9 to 14) (size 15 to 20)
#    0.000    1.600    0.000    3.300    5.600   11.600 
#    0.000    6.000    0.000    3.600    0.000    0.000 
#    0.000    0.000    0.000    0.000    0.000    0.000 
#
# Total GULP energy -248055.238642 kJ/mol
# GULP energy per Si atom -12402.761932 kJ/mol
# Density = 2.171857 g / cm^3
# Si number density = 21.768117 Si / 1000 Ang^3
#
#
#
# Elastic Constant Matrix: (Units=GPa)
#
#
# Indices 1 2 3 4 5 6 
#
# 1 168.3854 82.5434 45.2777 0.0000 -28.8350 0.0000
# 2 82.5434 166.7706 60.4126 0.0000 -17.3583 0.0000
# 3 45.2777 60.4126 71.2170 0.0000 -8.3000 0.0000
# 4 0.0000 0.0000 0.0000 16.3946 0.0000 -9.1214
# 5 -28.8350 -17.3583 -8.3000 0.0000 42.1746 0.0000
# 6 0.0000 0.0000 0.0000 -9.1214 0.0000 27.0584
#
#
#
# Elastic Compliance Matrix: (Units=1/GPa)
#
#
# Indices 1 2 3 4 5 6 
#
# 1 0.008835 -0.002991 -0.002578 0.000000 0.004302 0.000000
# 2 -0.002991 0.009867 -0.006380 0.000000 0.000760 0.000000
# 3 -0.002578 -0.006380 0.021064 0.000000 -0.000243 0.000000
# 4 0.000000 0.000000 0.000000 0.075077 0.000000 0.025309
# 5 0.004302 0.000760 -0.000243 0.000000 0.026917 0.000000
# 6 0.000000 0.000000 0.000000 0.025309 0.000000 0.045489
#
#
# Mechanical properties :
#
#
# Convention : Reuss Voigt Hill
#
# Bulk Modulus (GPa) = 63.02018 86.98226 75.00122
# Shear Modulus (GPa) = 23.10145 31.66815 27.38480
#
# Velocity S-wave (km/s) = 3.26122 3.81832 3.55071
# Velocity P-wave (km/s) = 6.57223 7.71263 7.16516
#
# Compressibility (1/GPa) = 0.01586793
#
# Stress axis : x y z
#
# Youngs Moduli (GPa) = 113.18600 101.34877 47.47369
#
# Poissons Ratio (x) = 0.30315 0.12240
# Poissons Ratio (y) = 0.33855 0.30287
# Poissons Ratio (z) = 0.29183 0.64657
#
# Static dielectric constant tensor:
#      x y z
#    x 4.162720 0.000000 -0.204120 
#    y 0.000000 4.079870 0.000000 
#    z -0.204120 0.000000 3.856150 
# 
# 
# High freq. dielectric constant tensor:
#      x y z
#    x 1.866670 0.000000 -0.013580 
#    y 0.000000 1.864580 0.000000 
#    z -0.013580 0.000000 1.846710 
# 
# From -- ./inp_files/32474.got.cif
#   From: 2010.06.25/outbox.cif.g09.slc.cpg/sg10_17_cif.got.tgz:32474.got - 2010.06.27 22:07:45.
