data_PCOD8067751
_publ_section_title
;
Structure prediction by ZEFSAII (Michael W. Deem and Ramdas Pophale) SiO2 
 PCOD8067751
Probable space group: P 2/M
;
_chemical_formula_sum "Si O2"
_cell_formula_units_Z 18
_cell_length_a 5.046695
_cell_length_b 7.801647
_cell_length_c 22.448383
_cell_angle_alpha 90.000000
_cell_angle_beta 70.072646
_cell_angle_gamma 90.000000
_cell_volume 830.929654
_symmetry_space_group_name_H-M "P 2/M"
_symmetry_group_IT_number 10
_symmetry_cell_setting 'monoclinic'
loop_
_space_group_symop_operation_xyz
x,y,z
-x,y,-z
-x,-y,-z
x,-y,z
loop_
_atom_site_type_symbol
_atom_site_label
_atom_site_fract_x
_atom_site_fract_y
_atom_site_fract_z
Si Si1 0.986750 0.194169 0.641303
Si Si2 0.253378 0.694228 0.857504
Si Si3 0.817054 0.500000 0.455592
Si Si4 0.643568 0.194443 0.929608
Si Si5 0.632294 0.703787 0.283940
O O1 0.128034 0.327878 0.585678
O O2 0.106267 0.225606 0.698201
O O3 0.652414 0.219063 0.667676
O O4 0.053073 0.000000 0.615153
O O5 0.360486 0.500000 0.854365
O O6 0.420904 0.803940 0.892959
O O7 0.321783 0.767999 0.786901
O O8 0.919457 0.696893 0.893751
O O9 0.500000 0.500000 0.500000
O O10 0.000000 0.500000 0.500000
O O11 0.738631 0.000000 0.934237
O O12 0.500000 0.271935 0.000000
O O13 0.622772 0.500000 0.288795
#
# Coordination Sequence:
#
# PCOD8067751 Si02
#       5
#     4   4   2   4   4
#     4  12  25  43  71 102 132 176 222 265 322 386
#     4  11  24  39  64  94 122 164 214 268 323 388
#     4  12  26  46  72  98 140 180 211 266 321 364
#     4  11  24  41  59  84 125 170 213 268 329 387
#     4  11  22  43  66  94 136 170 209 272 339 384
#
# _framework density 21.662483000000002
#
# number of rings (size 3 to 8) (size 9 to 14) (size 15 to 20)
#    0.000    0.667    2.222    5.333    0.000   14.222 
#    0.000    0.000    0.000    0.000    0.000    0.000 
#    0.000    0.000    0.000    0.000    0.000    0.000 
#
# Total GULP energy -223331.592571 kJ/mol
# GULP energy per Si atom -12407.310698 kJ/mol
# Density = 2.161318 g / cm^3
# Si number density = 21.662483 Si / 1000 Ang^3
#
#
#
# Elastic Constant Matrix: (Units=GPa)
#
#
# Indices 1 2 3 4 5 6 
#
# 1 105.5343 5.5627 19.7147 0.0000 3.0153 0.0000
# 2 5.5627 113.7446 30.6874 0.0000 1.1275 0.0000
# 3 19.7147 30.6874 100.3260 0.0000 -6.5372 0.0000
# 4 0.0000 0.0000 0.0000 -4.5946 0.0000 10.0895
# 5 3.0153 1.1275 -6.5372 0.0000 44.4958 0.0000
# 6 0.0000 0.0000 0.0000 10.0895 0.0000 28.9061
#
#
#
# Elastic Compliance Matrix: (Units=1/GPa)
#
#
# Indices 1 2 3 4 5 6 
#
# 1 0.009878 0.000073 -0.002027 0.000000 -0.000969 0.000000
# 2 0.000073 0.009603 -0.002997 0.000000 -0.000689 0.000000
# 3 -0.002027 -0.002997 0.011405 0.000000 0.001889 0.000000
# 4 0.000000 0.000000 0.000000 -0.123209 0.000000 0.043005
# 5 -0.000969 -0.000689 0.001889 0.000000 0.022835 0.000000
# 6 0.000000 0.000000 0.000000 0.043005 0.000000 0.019584
#
#
# Mechanical properties :
#
#
# Convention : Reuss Voigt Hill
#
# Bulk Modulus (GPa) = 47.64924 47.94826 47.79875
# Shear Modulus (GPa) = -151.47978 31.33748 -60.07115
#
# Velocity S-wave (km/s) = -8.37132 3.80758 -5.27169
# Velocity P-wave (km/s) = 8.44954 6.44302 3.86538
#
# Compressibility (1/GPa) = 0.02098670
#
# Stress axis : x y z
#
# Youngs Moduli (GPa) = 101.23501 104.13026 87.67732
#
# Poissons Ratio (x) = -0.00763 0.17769
# Poissons Ratio (y) = -0.00742 0.26274
# Poissons Ratio (z) = 0.20517 0.31205
#
# Static dielectric constant tensor:
#      x y z
#    x 3.918980 0.000000 0.085120 
#    y 0.000000 3.910700 0.000000 
#    z 0.085120 0.000000 4.026430 
# 
# 
# High freq. dielectric constant tensor:
#      x y z
#    x 1.865560 0.000000 0.002610 
#    y 0.000000 1.856230 0.000000 
#    z 0.002610 0.000000 1.853770 
# 
# From -- ./inp_files/80880.got.cif
#   From: 2010.06.25/outbox.cif.g09.slc.cpg/sg10_41_cif.got.tgz:80880.got - 2010.06.27 22:07:45.
