data_PCOD8067350
_publ_section_title
;
Structure prediction by ZEFSAII (Michael W. Deem and Ramdas Pophale) SiO2 
 PCOD8067350
Probable space group: P 2/M
;
_chemical_formula_sum "Si O2"
_cell_formula_units_Z 32
_cell_length_a 11.842019
_cell_length_b 8.595703
_cell_length_c 19.491523
_cell_angle_alpha 90.000000
_cell_angle_beta 128.473304
_cell_angle_gamma 90.000000
_cell_volume 1553.310153
_symmetry_space_group_name_H-M "P 2/M"
_symmetry_group_IT_number 10
_symmetry_cell_setting 'monoclinic'
loop_
_space_group_symop_operation_xyz
x,y,z
-x,y,-z
-x,-y,-z
x,-y,z
loop_
_atom_site_type_symbol
_atom_site_label
_atom_site_fract_x
_atom_site_fract_y
_atom_site_fract_z
Si Si1 0.362729 0.818918 0.749852
Si Si2 0.111406 0.181921 0.759202
Si Si3 0.875643 0.678592 0.089429
Si Si4 0.656305 0.317636 0.404403
Si Si5 0.195054 0.182129 0.415535
Si Si6 0.166891 0.820173 0.167695
Si Si7 0.334701 0.678442 0.108307
Si Si8 0.353435 0.681077 0.353704
O O1 0.228042 0.775330 0.746214
O O2 0.320056 0.773869 0.656849
O O3 0.498456 0.723234 0.828859
O O4 0.400514 0.000000 0.767602
O O5 0.153345 0.271711 0.843850
O O6 0.956126 0.238421 0.673493
O O7 0.107576 0.000000 0.774710
O O8 0.924633 0.500000 0.105331
O O9 0.998146 0.780924 0.098504
O O10 0.727714 0.704086 0.991460
O O11 0.658201 0.500000 0.389758
O O12 0.783391 0.271274 0.504513
O O13 0.504533 0.263558 0.379301
O O14 0.324183 0.225993 0.412638
O O15 0.195244 0.000000 0.430607
O O16 0.246290 0.785417 0.126956
O O17 0.228726 0.716036 0.252251
O O18 0.188157 0.000000 0.194797
O O19 0.318997 0.500000 0.126416
O O20 0.355677 0.500000 0.373088
#
# Coordination Sequence:
#
# PCOD8067350 Si02
#       8
#     4   4   4   4   4   4   4   4
#     4  11  24  43  66  90 121 164 212 262 312 366
#     4  10  24  44  64  90 124 163 210 262 313 364
#     4  11  24  41  65  93 126 166 205 253 312 371
#     4  11  24  41  63  92 128 165 204 257 311 371
#     4  11  23  40  64  93 126 164 208 257 306 369
#     4  12  23  37  63  95 127 164 205 250 307 372
#     4  11  24  42  63  93 128 163 206 255 311 373
#     4  11  22  38  62  92 128 164 201 250 310 372
#
# _framework density 20.601165000000002
#
# number of rings (size 3 to 8) (size 9 to 14) (size 15 to 20)
#    0.000    1.000    2.500    4.125    0.000    9.000 
#    0.000    5.000    0.000    0.000    0.000    0.000 
#    0.000    0.000    0.000    0.000    0.000    0.000 
#
# Total GULP energy -397045.816035 kJ/mol
# GULP energy per Si atom -12407.681751 kJ/mol
# Density = 2.055428 g / cm^3
# Si number density = 20.601165 Si / 1000 Ang^3
#
#
#
# Elastic Constant Matrix: (Units=GPa)
#
#
# Indices 1 2 3 4 5 6 
#
# 1 113.3649 32.3153 36.8786 0.0000 -5.0896 0.0000
# 2 32.3153 49.3394 29.8829 0.0000 -4.0806 0.0000
# 3 36.8786 29.8829 116.0183 0.0000 -11.1985 0.0000
# 4 0.0000 0.0000 0.0000 32.0321 0.0000 -0.4179
# 5 -5.0896 -4.0806 -11.1985 0.0000 13.8119 0.0000
# 6 0.0000 0.0000 0.0000 -0.4179 0.0000 26.2671
#
#
#
# Elastic Compliance Matrix: (Units=1/GPa)
#
#
# Indices 1 2 3 4 5 6 
#
# 1 0.011226 -0.006129 -0.001915 0.000000 0.000773 0.000000
# 2 -0.006129 0.027425 -0.004938 0.000000 0.001840 0.000000
# 3 -0.001915 -0.004938 0.011165 0.000000 0.006888 0.000000
# 4 0.000000 0.000000 0.000000 0.031225 0.000000 0.000497
# 5 0.000773 0.001840 0.006888 0.000000 0.078814 0.000000
# 6 0.000000 0.000000 0.000000 0.000497 0.000000 0.038078
#
#
# Mechanical properties :
#
#
# Convention : Reuss Voigt Hill
#
# Bulk Modulus (GPa) = 41.92569 52.98625 47.45597
# Shear Modulus (GPa) = 21.56592 26.39862 23.98227
#
# Velocity S-wave (km/s) = 3.23899 3.58357 3.41562
# Velocity P-wave (km/s) = 5.86373 6.54969 6.21618
#
# Compressibility (1/GPa) = 0.02385173
#
# Stress axis : x y z
#
# Youngs Moduli (GPa) = 89.08068 36.46346 89.56688
#
# Poissons Ratio (x) = 0.22347 0.17154
# Poissons Ratio (y) = 0.54593 0.44229
# Poissons Ratio (z) = 0.17060 0.18006
#
# Static dielectric constant tensor:
#      x y z
#    x 3.680350 0.000000 0.013860 
#    y 0.000000 3.745020 0.000000 
#    z 0.013860 0.000000 3.840140 
# 
# 
# High freq. dielectric constant tensor:
#      x y z
#    x 1.800180 0.000000 -0.003230 
#    y 0.000000 1.812170 0.000000 
#    z -0.003230 0.000000 1.818650 
# 
# From -- ./inp_files/49907.got.cif
#   From: 2010.06.25/outbox.cif.g09.slc.cpg/sg10_25_cif.got.tgz:49907.got - 2010.06.27 22:07:45.
