data_PCOD8067968
_publ_section_title
;
Structure prediction by ZEFSAII (Michael W. Deem and Ramdas Pophale) SiO2 
 PCOD8067968
Probable space group: P 2/M
;
_chemical_formula_sum "Si O2"
_cell_formula_units_Z 32
_cell_length_a 21.254714
_cell_length_b 9.854997
_cell_length_c 21.254680
_cell_angle_alpha 90.000000
_cell_angle_beta 155.281894
_cell_angle_gamma 90.000000
_cell_volume 1861.670188
_symmetry_space_group_name_H-M "P 2/M"
_symmetry_group_IT_number 10
_symmetry_cell_setting 'monoclinic'
loop_
_space_group_symop_operation_xyz
x,y,z
-x,y,-z
-x,-y,-z
x,-y,z
loop_
_atom_site_type_symbol
_atom_site_label
_atom_site_fract_x
_atom_site_fract_y
_atom_site_fract_z
Si Si1 0.009759 0.838557 0.821759
Si Si2 0.678236 0.161442 0.490237
Si Si3 0.289686 0.652035 0.861096
Si Si4 0.884682 0.838151 0.947631
Si Si5 0.580811 0.843461 0.264799
Si Si6 0.764805 0.843462 0.080818
Si Si7 0.638903 0.347965 0.210314
Si Si8 0.552371 0.838151 0.615319
O O1 0.123111 0.788430 0.870766
O O2 0.843633 0.781814 0.656362
O O3 0.008860 0.000000 0.823281
O O4 0.064742 0.780769 0.938695
O O5 0.629227 0.211575 0.376883
O O6 0.561302 0.219231 0.435255
O O7 0.676714 0.000000 0.491133
O O8 0.227540 0.500000 0.816493
O O9 0.202320 0.757851 0.826118
O O10 0.267531 0.692252 0.767530
O O11 0.464320 0.657383 0.035680
O O12 0.718839 0.782512 0.781162
O O13 0.884607 0.000000 0.948060
O O14 0.000000 0.783065 0.000000
O O15 0.673878 0.757854 0.297676
O O16 0.625394 0.000000 0.295733
O O17 0.402843 0.822093 0.097150
O O18 0.795737 0.000000 0.125401
O O19 0.683506 0.500000 0.272462
O O20 0.500000 0.783067 0.500000
O O21 0.551941 0.000000 0.615393
#
# Coordination Sequence:
#
# PCOD8067968 Si02
#       8
#     4   4   4   4   4   4   4   4
#     4   9  16  25  36  51  75 107 139 170 207 249
#     4   9  16  25  36  51  75 107 139 170 207 249
#     4   8  14  25  41  61  84 108 134 167 208 251
#     4   9  15  22  33  50  74 105 140 174 207 245
#     4   9  16  25  39  60  83 106 135 172 210 246
#     4   9  16  25  39  60  83 106 135 172 210 246
#     4   8  14  25  41  61  84 108 134 167 208 251
#     4   9  15  22  33  50  74 105 140 174 207 245
#
# _framework density 17.188866999999998
#
# number of rings (size 3 to 8) (size 9 to 14) (size 15 to 20)
#    0.000    3.250    0.000    2.250    0.000    6.500 
#    0.000    2.500    0.000    1.500    0.000    5.250 
#    0.000    1.000    0.000    2.750    0.000    5.000 
#
# Total GULP energy -396665.724512 kJ/mol
# GULP energy per Si atom -12395.803891 kJ/mol
# Density = 1.714974 g / cm^3
# Si number density = 17.188867 Si / 1000 Ang^3
#
#
#
# Elastic Constant Matrix: (Units=GPa)
#
#
# Indices 1 2 3 4 5 6 
#
# 1 185.8277 54.1560 73.9370 0.0000 -18.5610 0.0000
# 2 54.1560 38.3582 25.9574 0.0000 -8.1397 0.0000
# 3 73.9370 25.9574 95.8757 0.0000 -7.4050 0.0000
# 4 0.0000 0.0000 0.0000 4.8637 0.0000 0.3891
# 5 -18.5610 -8.1397 -7.4050 0.0000 27.0148 0.0000
# 6 0.0000 0.0000 0.0000 0.3891 0.0000 3.5167
#
#
#
# Elastic Compliance Matrix: (Units=1/GPa)
#
#
# Indices 1 2 3 4 5 6 
#
# 1 0.011098 -0.011562 -0.005219 0.000000 0.002711 0.000000
# 2 -0.011562 0.045482 -0.003017 0.000000 0.004933 0.000000
# 3 -0.005219 -0.003017 0.015247 0.000000 -0.000315 0.000000
# 4 0.000000 0.000000 0.000000 0.207441 0.000000 -0.022950
# 5 0.002711 0.004933 -0.000315 0.000000 0.040279 0.000000
# 6 0.000000 0.000000 0.000000 -0.022950 0.000000 0.286895
#
#
# Mechanical properties :
#
#
# Convention : Reuss Voigt Hill
#
# Bulk Modulus (GPa) = 31.02458 69.79582 50.41020
# Shear Modulus (GPa) = 7.61289 18.14645 12.87967
#
# Velocity S-wave (km/s) = 2.10679 3.25269 2.74031
# Velocity P-wave (km/s) = 4.89964 7.40271 6.27720
#
# Compressibility (1/GPa) = 0.03223251
#
# Stress axis : x y z
#
# Youngs Moduli (GPa) = 90.10545 21.98682 65.58565
#
# Poissons Ratio (x) = 0.25421 0.34229
# Poissons Ratio (y) = 1.04179 0.19784
# Poissons Ratio (z) = 0.47026 0.06632
#
# Static dielectric constant tensor:
#      x y z
#    x 3.531520 0.000000 -0.117070 
#    y 0.000000 2.737760 0.000000 
#    z -0.117070 0.000000 3.125990 
# 
# 
# High freq. dielectric constant tensor:
#      x y z
#    x 1.679830 0.000000 -0.009210 
#    y 0.000000 1.596170 0.000000 
#    z -0.009210 0.000000 1.647900 
# 
# From -- ./inp_files/33933.got.cif
#   From: 2010.06.25/outbox.cif.g09.slc.cpg/sg10_17_cif.got.tgz:33933.got - 2010.06.27 22:07:45.
