data_PCOD8067736
_publ_section_title
;
Structure prediction by ZEFSAII (Michael W. Deem and Ramdas Pophale) SiO2 
 PCOD8067736
Probable space group: P 2/M
;
_chemical_formula_sum "Si O2"
_cell_formula_units_Z 20
_cell_length_a 25.078321
_cell_length_b 8.305616
_cell_length_c 11.472164
_cell_angle_alpha 90.000000
_cell_angle_beta 156.152953
_cell_angle_gamma 90.000000
_cell_volume 966.085551
_symmetry_space_group_name_H-M "P 2/M"
_symmetry_group_IT_number 10
_symmetry_cell_setting 'monoclinic'
loop_
_space_group_symop_operation_xyz
x,y,z
-x,y,-z
-x,-y,-z
x,-y,z
loop_
_atom_site_type_symbol
_atom_site_label
_atom_site_fract_x
_atom_site_fract_y
_atom_site_fract_z
Si Si1 0.237616 0.812165 0.202858
Si Si2 0.847943 0.686845 0.206030
Si Si3 0.266292 0.812353 0.790314
Si Si4 0.481739 0.686454 0.830058
Si Si5 0.991762 0.808639 0.855309
O O1 0.367290 0.786027 0.538564
O O2 0.222365 0.000000 0.144192
O O3 0.236272 0.715720 0.079224
O O4 0.114220 0.742052 0.027386
O O5 0.848950 0.500000 0.240880
O O6 0.766371 0.783170 0.140117
O O7 0.000000 0.750597 0.500000
O O8 0.142449 0.747877 0.469879
O O9 0.295167 0.000000 0.827180
O O10 0.388837 0.710768 0.988928
O O11 0.442617 0.500000 0.753022
O O12 0.500000 0.749028 0.000000
O O13 0.997383 0.000000 0.870695
O O14 0.000000 0.733585 0.000000
#
# Coordination Sequence:
#
# PCOD8067736 Si02
#       5
#     4   4   4   4   4
#     4  11  22  39  65  93 124 163 212 262 310 366
#     4  11  23  40  63  92 131 168 204 254 317 380
#     4  11  22  39  65  93 124 163 212 262 310 366
#     4  11  25  44  63  90 131 171 207 253 314 379
#     4   9  18  33  57  90 122 153 198 257 312 361
#
# _framework density 20.702100999999999
#
# number of rings (size 3 to 8) (size 9 to 14) (size 15 to 20)
#    0.000    1.400    2.000    3.600    0.000    4.800 
#    0.000    4.000    0.000    4.800    0.000    0.000 
#    0.000    0.000    0.000    0.000    0.000    0.000 
#
# Total GULP energy -248077.490350 kJ/mol
# GULP energy per Si atom -12403.874518 kJ/mol
# Density = 2.065498 g / cm^3
# Si number density = 20.702101 Si / 1000 Ang^3
#
#
#
# Elastic Constant Matrix: (Units=GPa)
#
#
# Indices 1 2 3 4 5 6 
#
# 1 -55.5783 54.6483 -81.2705 0.0000 -36.3451 0.0000
# 2 54.6483 31.6771 39.2022 0.0000 7.0347 0.0000
# 3 -81.2705 39.2022 37.1887 0.0000 -26.0063 0.0000
# 4 0.0000 0.0000 0.0000 -1.8825 0.0000 -2.2124
# 5 -36.3451 7.0347 -26.0063 0.0000 41.0627 0.0000
# 6 0.0000 0.0000 0.0000 -2.2124 0.0000 23.4981
#
#
#
# Elastic Compliance Matrix: (Units=1/GPa)
#
#
# Indices 1 2 3 4 5 6 
#
# 1 0.001498 0.006835 -0.006860 0.000000 -0.004189 0.000000
# 2 0.006835 0.014923 0.002960 0.000000 0.005368 0.000000
# 3 -0.006860 0.002960 0.007499 0.000000 -0.001829 0.000000
# 4 0.000000 0.000000 0.000000 -0.478281 0.000000 -0.045032
# 5 -0.004189 0.005368 -0.001829 0.000000 0.018567 0.000000
# 6 0.000000 0.000000 0.000000 -0.045032 0.000000 0.038317
#
#
# Mechanical properties :
#
#
# Convention : Reuss Voigt Hill
#
# Bulk Modulus (GPa) = 33.56870 4.27195 18.92033
# Shear Modulus (GPa) = -12.70919 12.58282 -0.06319
#
# Velocity S-wave (km/s) = -2.48041 2.46804 -0.17489
# Velocity P-wave (km/s) = 2.83674 3.19212 3.01967
#
# Compressibility (1/GPa) = 0.02978965
#
# Stress axis : x y z
#
# Youngs Moduli (GPa) = 667.37112 67.01284 133.34274
#
# Poissons Ratio (x) = -0.45802 0.91472
# Poissons Ratio (y) = -4.56138 -0.39465
# Poissons Ratio (z) = 4.57810 -0.19834
#
# Static dielectric constant tensor:
#      x y z
#    x 3.925490 0.000000 -0.005700 
#    y 0.000000 3.540000 0.000000 
#    z -0.005700 0.000000 3.827630 
# 
# 
# High freq. dielectric constant tensor:
#      x y z
#    x 1.824340 0.000000 -0.004900 
#    y 0.000000 1.795700 0.000000 
#    z -0.004900 0.000000 1.814540 
# 
# From -- ./inp_files/22181.got.cif
#   From: 2010.06.25/outbox.cif.g09.slc.cpg/sg10_12_cif.got.tgz:22181.got - 2010.06.27 22:07:45.
