data_PCOD8067609
_publ_section_title
;
Structure prediction by ZEFSAII (Michael W. Deem and Ramdas Pophale) SiO2 
 PCOD8067609
Probable space group: P 2/M
;
_chemical_formula_sum "Si O2"
_cell_formula_units_Z 32
_cell_length_a 18.532344
_cell_length_b 22.568840
_cell_length_c 12.811808
_cell_angle_alpha 90.000000
_cell_angle_beta 19.429371
_cell_angle_gamma 90.000000
_cell_volume 1782.503925
_symmetry_space_group_name_H-M "P 2/M"
_symmetry_group_IT_number 10
_symmetry_cell_setting 'monoclinic'
loop_
_space_group_symop_operation_xyz
x,y,z
-x,y,-z
-x,-y,-z
x,-y,z
loop_
_atom_site_type_symbol
_atom_site_label
_atom_site_fract_x
_atom_site_fract_y
_atom_site_fract_z
Si Si1 0.804741 0.430419 0.695259
Si Si2 0.550008 0.362220 0.706583
Si Si3 0.152444 0.066402 0.503262
Si Si4 0.156950 0.281144 0.186107
Si Si5 0.463854 0.066403 0.880463
Si Si6 0.936814 0.362221 0.319780
Si Si7 0.295374 0.432327 0.704626
Si Si8 0.155822 0.854027 0.188362
O O1 0.812262 0.500000 0.687750
O O2 0.831994 0.409559 0.540500
O O3 0.000000 0.403723 0.500000
O O4 0.576975 0.409554 0.050524
O O5 0.746397 0.334970 0.507212
O O6 0.647675 0.397651 0.477203
O O7 0.390880 0.309604 0.889503
O O8 0.294739 0.084377 0.410515
O O9 0.956645 0.112870 0.756209
O O10 0.057611 0.000000 0.646298
O O11 0.303688 0.067663 0.196321
O O12 0.203703 0.213363 0.092594
O O13 0.000000 0.287125 0.500000
O O14 0.048344 0.309603 0.232050
O O15 0.465437 0.000000 0.830674
O O16 0.382364 0.112867 0.904791
O O17 0.102586 0.397642 0.022282
O O18 0.500000 0.432660 0.500000
O O19 0.225288 0.500000 0.774717
O O20 0.000000 0.856970 0.500000
#
# Coordination Sequence:
#
# PCOD8067609 Si02
#       8
#     4   4   4   4   4   4   4   4
#     4  11  21  37  59  80 107 137 168 211 264 320
#     4  12  23  38  58  79 106 138 173 216 266 319
#     4   8  13  22  37  60  89 122 166 216 261 302
#     4  11  22  38  50  73 106 143 188 223 257 309
#     4   8  13  22  37  60  89 122 166 216 261 302
#     4  12  23  38  58  79 106 138 173 216 266 319
#     4  11  23  41  63  84 107 131 164 219 278 330
#     4   9  17  26  42  60  90 131 176 217 253 299
#
# _framework density 17.952275
#
# number of rings (size 3 to 8) (size 9 to 14) (size 15 to 20)
#    0.000    1.750    3.750    2.625    0.000    7.500 
#    0.000    2.500    0.000    0.000    0.000    0.000 
#    0.000    0.000    0.000    9.000    0.000   38.000 
#
# Total GULP energy -396734.447277 kJ/mol
# GULP energy per Si atom -12397.951477 kJ/mol
# Density = 1.791141 g / cm^3
# Si number density = 17.952275 Si / 1000 Ang^3
#
#
#
# Elastic Constant Matrix: (Units=GPa)
#
#
# Indices 1 2 3 4 5 6 
#
# 1 127.1684 76.9295 54.4757 0.0000 -29.4589 0.0000
# 2 76.9295 147.7754 51.5199 0.0000 -22.4811 0.0000
# 3 54.4757 51.5199 87.8576 0.0000 -5.2983 0.0000
# 4 0.0000 0.0000 0.0000 5.0120 0.0000 17.5166
# 5 -29.4589 -22.4811 -5.2983 0.0000 41.0821 0.0000
# 6 0.0000 0.0000 0.0000 17.5166 0.0000 -14.7381
#
#
#
# Elastic Compliance Matrix: (Units=1/GPa)
#
#
# Indices 1 2 3 4 5 6 
#
# 1 0.014968 -0.004496 -0.006194 0.000000 0.007474 0.000000
# 2 -0.004496 0.010579 -0.003287 0.000000 0.002142 0.000000
# 3 -0.006194 -0.003287 0.016905 0.000000 -0.004060 0.000000
# 4 0.000000 0.000000 0.000000 0.038713 0.000000 0.046012
# 5 0.007474 0.002142 -0.004060 0.000000 0.030349 0.000000
# 6 0.000000 0.000000 0.000000 0.046012 0.000000 -0.013165
#
#
# Mechanical properties :
#
#
# Convention : Reuss Voigt Hill
#
# Bulk Modulus (GPa) = 68.96859 80.96130 74.96494
# Shear Modulus (GPa) = 38.12852 18.26294 28.19573
#
# Velocity S-wave (km/s) = 4.61356 3.19298 3.96737
# Velocity P-wave (km/s) = 8.17808 7.66743 7.92687
#
# Compressibility (1/GPa) = 0.01449936
#
# Stress axis : x y z
#
# Youngs Moduli (GPa) = 66.80996 94.52577 59.15358
#
# Poissons Ratio (x) = 0.42495 0.36638
# Poissons Ratio (y) = 0.30035 0.19444
# Poissons Ratio (z) = 0.41381 0.31071
#
# Static dielectric constant tensor:
#      x y z
#    x 3.539830 0.000000 -0.323020 
#    y 0.000000 3.395390 0.000000 
#    z -0.323020 0.000000 3.174790 
# 
# 
# High freq. dielectric constant tensor:
#      x y z
#    x 1.697320 0.000000 -0.029740 
#    y 0.000000 1.690560 0.000000 
#    z -0.029740 0.000000 1.663710 
# 
# From -- ./inp_files/54268.got.cif
#   From: 2010.06.25/outbox.cif.g09.slc.cpg/sg10_28_cif.got.tgz:54268.got - 2010.06.27 22:07:45.
