data_PCOD8067191
_publ_section_title
;
Structure prediction by ZEFSAII (Michael W. Deem and Ramdas Pophale) SiO2 
 PCOD8067191
Probable space group: P 2/M
;
_chemical_formula_sum "Si O2"
_cell_formula_units_Z 20
_cell_length_a 19.088527
_cell_length_b 8.469154
_cell_length_c 12.417677
_cell_angle_alpha 90.000000
_cell_angle_beta 151.653163
_cell_angle_gamma 90.000000
_cell_volume 953.170638
_symmetry_space_group_name_H-M "P 2/M"
_symmetry_group_IT_number 10
_symmetry_cell_setting 'monoclinic'
loop_
_space_group_symop_operation_xyz
x,y,z
-x,y,-z
-x,-y,-z
x,-y,z
loop_
_atom_site_type_symbol
_atom_site_label
_atom_site_fract_x
_atom_site_fract_y
_atom_site_fract_z
Si Si1 0.665389 0.318363 0.014519
Si Si2 0.648738 0.182642 0.391301
Si Si3 0.161331 0.816440 0.941082
Si Si4 0.844322 0.683372 0.836717
Si Si5 0.833428 0.184890 0.434570
O O1 0.619159 0.500000 0.959520
O O2 0.723756 0.282041 0.974291
O O3 0.793522 0.279125 0.272953
O O4 0.524985 0.210932 0.851899
O O5 0.715889 0.288106 0.576964
O O6 0.720658 0.233540 0.375843
O O7 0.682584 0.000000 0.461296
O O8 0.995797 0.761923 0.689903
O O9 0.184571 0.000000 0.948068
O O10 0.194844 0.782685 0.110711
O O11 0.852648 0.500000 0.878391
O O12 0.000000 0.743751 0.000000
O O13 0.826646 0.000000 0.399690
#
# Coordination Sequence:
#
# PCOD8067191 Si02
#       5
#     4   4   4   4   4
#     4  12  26  41  60  93 132 166 205 258 319 370
#     4  11  23  42  67  93 124 166 213 256 304 368
#     4  11  23  42  67  93 124 166 213 256 304 368
#     4  11  23  40  65  96 129 160 200 256 315 372
#     4  10  22  41  66  93 123 164 213 258 302 368
#
# _framework density 20.982600999999999
#
# number of rings (size 3 to 8) (size 9 to 14) (size 15 to 20)
#    0.000    1.000    2.000    4.800    0.000    9.600 
#    0.000    4.000    0.000    0.000    0.000    0.000 
#    0.000    0.000    0.000    0.000    0.000    0.000 
#
# Total GULP energy -248206.413837 kJ/mol
# GULP energy per Si atom -12410.320692 kJ/mol
# Density = 2.093484 g / cm^3
# Si number density = 20.982601 Si / 1000 Ang^3
#
#
#
# Elastic Constant Matrix: (Units=GPa)
#
#
# Indices 1 2 3 4 5 6 
#
# 1 111.0611 23.6017 9.4044 0.0000 -1.3284 0.0000
# 2 23.6017 57.4966 15.2338 0.0000 -0.0363 0.0000
# 3 9.4044 15.2338 51.5184 0.0000 -6.5775 0.0000
# 4 0.0000 0.0000 0.0000 28.8560 0.0000 -1.6429
# 5 -1.3284 -0.0363 -6.5775 0.0000 40.2721 0.0000
# 6 0.0000 0.0000 0.0000 -1.6429 0.0000 31.5744
#
#
#
# Elastic Compliance Matrix: (Units=1/GPa)
#
#
# Indices 1 2 3 4 5 6 
#
# 1 0.009887 -0.003893 -0.000626 0.000000 0.000220 0.000000
# 2 -0.003893 0.020436 -0.005460 0.000000 -0.001002 0.000000
# 3 -0.000626 -0.005460 0.021586 0.000000 0.003500 0.000000
# 4 0.000000 0.000000 0.000000 0.034758 0.000000 0.001809
# 5 0.000220 -0.001002 0.003500 0.000000 0.025409 0.000000
# 6 0.000000 0.000000 0.000000 0.001809 0.000000 0.031765
#
#
# Mechanical properties :
#
#
# Convention : Reuss Voigt Hill
#
# Bulk Modulus (GPa) = 31.29655 35.17289 33.23472
# Shear Modulus (GPa) = 28.66162 31.59625 30.12894
#
# Velocity S-wave (km/s) = 3.69991 3.88471 3.79344
# Velocity P-wave (km/s) = 5.76197 6.07623 5.92119
#
# Compressibility (1/GPa) = 0.03195240
#
# Stress axis : x y z
#
# Youngs Moduli (GPa) = 101.14420 48.93260 46.32592
#
# Poissons Ratio (x) = 0.19047 0.02898
# Poissons Ratio (y) = 0.39371 0.25295
# Poissons Ratio (z) = 0.06328 0.26719
#
# Static dielectric constant tensor:
#      x y z
#    x 3.826820 0.000000 0.031430 
#    y 0.000000 3.631450 0.000000 
#    z 0.031430 0.000000 3.672020 
# 
# 
# High freq. dielectric constant tensor:
#      x y z
#    x 1.833600 0.000000 -0.002260 
#    y 0.000000 1.820530 0.000000 
#    z -0.002260 0.000000 1.823480 
# 
# From -- ./inp_files/22135.got.cif
#   From: 2010.06.25/outbox.cif.g09.slc.cpg/sg10_12_cif.got.tgz:22135.got - 2010.06.27 22:07:45.
