data_PCOD8067790
_publ_section_title
;
Structure prediction by ZEFSAII (Michael W. Deem and Ramdas Pophale) SiO2 
 PCOD8067790
Probable space group: P 2/M
;
_chemical_formula_sum "Si O2"
_cell_formula_units_Z 20
_cell_length_a 11.395559
_cell_length_b 8.376521
_cell_length_c 9.837867
_cell_angle_alpha 90.000000
_cell_angle_beta 90.419215
_cell_angle_gamma 90.000000
_cell_volume 939.049829
_symmetry_space_group_name_H-M "P 2/M"
_symmetry_group_IT_number 10
_symmetry_cell_setting 'monoclinic'
loop_
_space_group_symop_operation_xyz
x,y,z
-x,y,-z
-x,-y,-z
x,-y,z
loop_
_atom_site_type_symbol
_atom_site_label
_atom_site_fract_x
_atom_site_fract_y
_atom_site_fract_z
Si Si1 0.735636 0.685181 0.272166
Si Si2 0.507870 0.812834 0.657042
Si Si3 0.746182 0.316215 0.764409
Si Si4 0.132631 0.184002 0.483105
Si Si5 0.866529 0.187252 0.020959
O O1 0.722236 0.500000 0.236419
O O2 0.609737 0.770064 0.262385
O O3 0.784495 0.706283 0.424402
O O4 0.827139 0.769713 0.172469
O O5 0.500000 0.756276 0.500000
O O6 0.610804 0.720863 0.734880
O O7 0.533474 0.000000 0.664402
O O8 0.771485 0.500000 0.733906
O O9 0.830407 0.207934 0.672081
O O10 0.777724 0.277250 0.919751
O O11 0.000000 0.240340 0.500000
O O12 0.149301 0.000000 0.525628
O O13 0.856963 0.000000 0.995364
O O14 0.000000 0.246495 0.000000
#
# Coordination Sequence:
#
# PCOD8067790 Si02
#       5
#     4   4   4   4   4
#     4  12  25  41  66  98 132 168 214 272 330 382
#     4  11  23  42  69  96 130 173 219 267 320 388
#     4  12  25  41  66  98 132 168 214 272 330 382
#     4  11  23  40  63  92 127 171 221 265 316 387
#     4  11  25  46  69  94 131 177 221 265 320 391
#
# _framework density 21.298124999999999
#
# number of rings (size 3 to 8) (size 9 to 14) (size 15 to 20)
#    0.000    0.600    2.000    6.600    0.000    9.600 
#    0.000    4.000    0.000    0.000    0.000    0.000 
#    0.000    0.000    0.000    0.000    0.000    0.000 
#
# Total GULP energy -248194.619171 kJ/mol
# GULP energy per Si atom -12409.730959 kJ/mol
# Density = 2.124965 g / cm^3
# Si number density = 21.298125 Si / 1000 Ang^3
#
#
#
# Elastic Constant Matrix: (Units=GPa)
#
#
# Indices 1 2 3 4 5 6 
#
# 1 101.9890 35.4512 18.5624 0.0000 -4.4079 0.0000
# 2 35.4512 73.8742 19.0842 0.0000 6.6495 0.0000
# 3 18.5624 19.0842 69.5056 0.0000 -1.9606 0.0000
# 4 0.0000 0.0000 0.0000 30.1710 0.0000 -7.3003
# 5 -4.4079 6.6495 -1.9606 0.0000 46.0356 0.0000
# 6 0.0000 0.0000 0.0000 -7.3003 0.0000 10.2379
#
#
#
# Elastic Compliance Matrix: (Units=1/GPa)
#
#
# Indices 1 2 3 4 5 6 
#
# 1 0.012121 -0.005559 -0.001657 0.000000 0.001893 0.000000
# 2 -0.005559 0.017362 -0.003372 0.000000 -0.003184 0.000000
# 3 -0.001657 -0.003372 0.015784 0.000000 0.001001 0.000000
# 4 0.000000 0.000000 0.000000 0.040055 0.000000 0.028562
# 5 0.001893 -0.003184 0.001001 0.000000 0.022406 0.000000
# 6 0.000000 0.000000 0.000000 0.028562 0.000000 0.118043
#
#
# Mechanical properties :
#
#
# Convention : Reuss Voigt Hill
#
# Bulk Modulus (GPa) = 41.51135 43.50717 42.50926
# Shear Modulus (GPa) = 19.60956 28.77364 24.19160
#
# Velocity S-wave (km/s) = 3.03762 3.67957 3.37390
# Velocity P-wave (km/s) = 5.64232 6.20680 5.93128
#
# Compressibility (1/GPa) = 0.02408980
#
# Stress axis : x y z
#
# Youngs Moduli (GPa) = 82.50389 57.59762 63.35490
#
# Poissons Ratio (x) = 0.32017 0.10500
# Poissons Ratio (y) = 0.45862 0.21365
# Poissons Ratio (z) = 0.13674 0.19424
#
# Static dielectric constant tensor:
#      x y z
#    x 3.925870 0.000000 -0.041460 
#    y 0.000000 3.739890 0.000000 
#    z -0.041460 0.000000 3.738340 
# 
# 
# High freq. dielectric constant tensor:
#      x y z
#    x 1.849010 0.000000 -0.002820 
#    y 0.000000 1.841680 0.000000 
#    z -0.002820 0.000000 1.833890 
# 
# From -- ./inp_files/22169.got.cif
#   From: 2010.06.25/outbox.cif.g09.slc.cpg/sg10_12_cif.got.tgz:22169.got - 2010.06.27 22:07:45.
