data_PCOD8067400
_publ_section_title
;
Structure prediction by ZEFSAII (Michael W. Deem and Ramdas Pophale) SiO2 
 PCOD8067400
Probable space group: P 2/M
;
_chemical_formula_sum "Si O2"
_cell_formula_units_Z 24
_cell_length_a 11.800321
_cell_length_b 12.466408
_cell_length_c 19.524035
_cell_angle_alpha 90.000000
_cell_angle_beta 152.783122
_cell_angle_gamma 90.000000
_cell_volume 1313.599056
_symmetry_space_group_name_H-M "P 2/M"
_symmetry_group_IT_number 10
_symmetry_cell_setting 'monoclinic'
loop_
_space_group_symop_operation_xyz
x,y,z
-x,y,-z
-x,-y,-z
x,-y,z
loop_
_atom_site_type_symbol
_atom_site_label
_atom_site_fract_x
_atom_site_fract_y
_atom_site_fract_z
Si Si1 0.584872 0.805079 0.969816
Si Si2 0.240447 0.623432 0.034490
Si Si3 0.439317 0.813776 0.574465
Si Si4 0.700336 0.000000 0.251655
Si Si5 0.128612 0.121687 0.289258
Si Si6 0.284102 0.000000 0.583834
Si Si7 0.316200 0.378182 0.233264
O O1 0.852457 0.858473 0.116838
O O2 0.500000 0.769617 0.000000
O O3 0.601490 0.699804 0.930813
O O4 0.395383 0.892992 0.837935
O O5 0.302722 0.500000 0.049330
O O6 0.310629 0.648834 0.150147
O O7 0.946063 0.644032 0.870179
O O8 0.690597 0.856511 0.676137
O O9 0.209736 0.807613 0.398282
O O10 0.393727 0.891320 0.613062
O O11 0.472746 0.693415 0.619055
O O12 0.618414 0.000000 0.286163
O O13 0.994750 0.000000 0.411915
O O14 0.158147 0.000000 0.330247
O O15 0.396330 0.500000 0.288016
#
# Coordination Sequence:
#
# PCOD8067400 Si02
#       7
#     4   4   4   2   4   2   4
#     4  12  23  37  58  82 114 157 193 231 274 344
#     4   9  19  37  58  84 113 147 189 235 288 334
#     4  11  19  35  58  83 113 151 185 232 288 334
#     4  11  25  39  55  84 116 147 196 230 281 342
#     4  11  21  36  54  83 117 152 191 228 283 340
#     4  11  22  38  59  83 112 150 187 240 283 337
#     4   9  18  35  60  85 115 144 181 241 293 335
#
# _framework density 18.270416000000001
#
# number of rings (size 3 to 8) (size 9 to 14) (size 15 to 20)
#    0.000    1.500    4.167    3.750    0.000    0.333 
#    0.000    3.333    0.000    3.000    0.000   11.667 
#    0.000    0.000    0.000    0.000    0.000    0.000 
#
# Total GULP energy -297585.156944 kJ/mol
# GULP energy per Si atom -12399.381539 kJ/mol
# Density = 1.822883 g / cm^3
# Si number density = 18.270416 Si / 1000 Ang^3
#
#
#
# Elastic Constant Matrix: (Units=GPa)
#
#
# Indices 1 2 3 4 5 6 
#
# 1 77.5417 28.9719 6.7024 0.0000 -17.2260 0.0000
# 2 28.9719 112.7029 35.0248 0.0000 -13.3609 0.0000
# 3 6.7024 35.0248 74.0019 0.0000 -9.8970 0.0000
# 4 0.0000 0.0000 0.0000 24.4786 0.0000 -10.6741
# 5 -17.2260 -13.3609 -9.8970 0.0000 18.2045 0.0000
# 6 0.0000 0.0000 0.0000 -10.6741 0.0000 26.3411
#
#
#
# Elastic Compliance Matrix: (Units=1/GPa)
#
#
# Indices 1 2 3 4 5 6 
#
# 1 0.017291 -0.003283 0.001999 0.000000 0.015039 0.000000
# 2 -0.003283 0.011533 -0.004793 0.000000 0.002752 0.000000
# 3 0.001999 -0.004793 0.016589 0.000000 0.007393 0.000000
# 4 0.000000 0.000000 0.000000 0.049620 0.000000 0.020107
# 5 0.015039 0.002752 0.007393 0.000000 0.075201 0.000000
# 6 0.000000 0.000000 0.000000 0.020107 0.000000 0.046111
#
#
# Mechanical properties :
#
#
# Convention : Reuss Voigt Hill
#
# Bulk Modulus (GPa) = 30.06710 45.07164 37.56937
# Shear Modulus (GPa) = 20.86932 26.70799 23.78865
#
# Velocity S-wave (km/s) = 3.38338 3.82752 3.61228
# Velocity P-wave (km/s) = 5.63520 6.65251 6.16488
#
# Compressibility (1/GPa) = 0.03325895
#
# Stress axis : x y z
#
# Youngs Moduli (GPa) = 57.83286 86.71038 60.27963
#
# Poissons Ratio (x) = 0.28470 -0.12051
# Poissons Ratio (y) = 0.18989 0.28892
# Poissons Ratio (z) = -0.11562 0.41560
#
# Static dielectric constant tensor:
#      x y z
#    x 3.445510 0.000000 -0.059840 
#    y 0.000000 3.348490 0.000000 
#    z -0.059840 0.000000 3.298760 
# 
# 
# High freq. dielectric constant tensor:
#      x y z
#    x 1.710900 0.000000 -0.008990 
#    y 0.000000 1.707110 0.000000 
#    z -0.008990 0.000000 1.703890 
# 
# From -- ./inp_files/76739.got.cif
#   From: 2010.06.25/outbox.cif.g09.slc.cpg/sg10_39_cif.got.tgz:76739.got - 2010.06.27 22:07:45.
