data_PCOD8067121
_publ_section_title
;
Structure prediction by ZEFSAII (Michael W. Deem and Ramdas Pophale) SiO2 
 PCOD8067121
Probable space group: P 2/M
;
_chemical_formula_sum "Si O2"
_cell_formula_units_Z 24
_cell_length_a 23.252171
_cell_length_b 8.667550
_cell_length_c 12.277911
_cell_angle_alpha 90.000000
_cell_angle_beta 27.187976
_cell_angle_gamma 90.000000
_cell_volume 1130.618821
_symmetry_space_group_name_H-M "P 2/M"
_symmetry_group_IT_number 10
_symmetry_cell_setting 'monoclinic'
loop_
_space_group_symop_operation_xyz
x,y,z
-x,y,-z
-x,-y,-z
x,-y,z
loop_
_atom_site_type_symbol
_atom_site_label
_atom_site_fract_x
_atom_site_fract_y
_atom_site_fract_z
Si Si1 0.856237 0.168690 0.710761
Si Si2 0.825557 0.179222 0.998002
Si Si3 0.687671 0.180629 0.674202
Si Si4 0.504178 0.680879 0.155331
Si Si5 0.553672 0.179816 0.524610
Si Si6 0.911046 0.321735 0.403318
O O1 0.788033 0.227015 0.936403
O O2 0.844921 0.289593 0.631700
O O3 0.000000 0.149678 0.500000
O O4 0.803660 0.000000 0.762104
O O5 0.942869 0.274714 0.846855
O O6 0.864972 0.000000 0.931547
O O7 0.703855 0.210405 0.276848
O O8 0.631102 0.269477 0.665269
O O9 0.833794 0.228024 0.441778
O O10 0.675756 0.000000 0.672599
O O11 0.612567 0.227381 0.909539
O O12 0.525668 0.500000 0.102946
O O13 0.512546 0.724476 0.268136
O O14 0.500000 0.238531 0.500000
O O15 0.522703 0.000000 0.592855
O O16 0.899109 0.500000 0.396795
#
# Coordination Sequence:
#
# PCOD8067121 Si02
#       6
#     4   4   4   4   4   4
#     4   8  15  29  49  75 109 152 193 234 282 339
#     4   9  19  36  55  81 117 158 203 245 284 346
#     4  11  22  40  66  89 115 156 202 246 294 355
#     4  11  23  41  62  91 125 153 192 249 303 351
#     4  10  22  40  63  89 119 163 209 241 283 352
#     4  11  21  33  54  87 120 152 192 247 307 354
#
# _framework density 21.227312999999999
#
# number of rings (size 3 to 8) (size 9 to 14) (size 15 to 20)
#    0.000    2.000    0.000    6.500    2.333    4.000 
#    0.000    0.833    0.000    5.000    0.000    0.000 
#    0.000    0.000    0.000    0.000    0.000    0.000 
#
# Total GULP energy -297578.481149 kJ/mol
# GULP energy per Si atom -12399.103381 kJ/mol
# Density = 2.117900 g / cm^3
# Si number density = 21.227313 Si / 1000 Ang^3
#
#
#
# Elastic Constant Matrix: (Units=GPa)
#
#
# Indices 1 2 3 4 5 6 
#
# 1 90.4603 19.8361 13.1806 0.0000 -4.1564 0.0000
# 2 19.8361 88.8682 9.9891 0.0000 -3.6702 0.0000
# 3 13.1806 9.9891 39.9986 0.0000 6.4813 0.0000
# 4 0.0000 0.0000 0.0000 17.3628 0.0000 0.0714
# 5 -4.1564 -3.6702 6.4813 0.0000 30.9294 0.0000
# 6 0.0000 0.0000 0.0000 0.0714 0.0000 30.4520
#
#
#
# Elastic Compliance Matrix: (Units=1/GPa)
#
#
# Indices 1 2 3 4 5 6 
#
# 1 0.012194 -0.002202 -0.003821 0.000000 0.002178 0.000000
# 2 -0.002202 0.012102 -0.002569 0.000000 0.001678 0.000000
# 3 -0.003821 -0.002569 0.027984 0.000000 -0.006682 0.000000
# 4 0.000000 0.000000 0.000000 0.057595 0.000000 -0.000135
# 5 0.002178 0.001678 -0.006682 0.000000 0.034224 0.000000
# 6 0.000000 0.000000 0.000000 -0.000135 0.000000 0.032839
#
#
# Mechanical properties :
#
#
# Convention : Reuss Voigt Hill
#
# Bulk Modulus (GPa) = 28.49290 33.92651 31.20970
# Shear Modulus (GPa) = 24.29280 27.50357 25.89818
#
# Velocity S-wave (km/s) = 3.38659 3.60345 3.49670
# Velocity P-wave (km/s) = 5.36133 5.77324 5.57109
#
# Compressibility (1/GPa) = 0.03509647
#
# Stress axis : x y z
#
# Youngs Moduli (GPa) = 82.00499 82.62922 35.73420
#
# Poissons Ratio (x) = 0.18198 0.13655
# Poissons Ratio (y) = 0.18061 0.09179
# Poissons Ratio (z) = 0.31336 0.21224
#
# Static dielectric constant tensor:
#      x y z
#    x 4.114010 0.000000 0.118660 
#    y 0.000000 3.626090 0.000000 
#    z 0.118660 0.000000 3.930950 
# 
# 
# High freq. dielectric constant tensor:
#      x y z
#    x 1.831180 0.000000 -0.013930 
#    y 0.000000 1.818950 0.000000 
#    z -0.013930 0.000000 1.817910 
# 
# From -- ./inp_files/56552.got.cif
#   From: 2010.06.25/outbox.cif.g09.slc.cpg/sg10_29_cif.got.tgz:56552.got - 2010.06.27 22:07:45.
