data_PCOD8067793
_publ_section_title
;
Structure prediction by ZEFSAII (Michael W. Deem and Ramdas Pophale) SiO2 
 PCOD8067793
Probable space group: P 2/M
;
_chemical_formula_sum "Si O2"
_cell_formula_units_Z 26
_cell_length_a 9.267891
_cell_length_b 19.995954
_cell_length_c 9.144645
_cell_angle_alpha 90.000000
_cell_angle_beta 47.671256
_cell_angle_gamma 90.000000
_cell_volume 1252.872009
_symmetry_space_group_name_H-M "P 2/M"
_symmetry_group_IT_number 10
_symmetry_cell_setting 'monoclinic'
loop_
_space_group_symop_operation_xyz
x,y,z
-x,y,-z
-x,-y,-z
x,-y,z
loop_
_atom_site_type_symbol
_atom_site_label
_atom_site_fract_x
_atom_site_fract_y
_atom_site_fract_z
Si Si1 0.576142 0.075582 0.110414
Si Si2 0.942322 0.843401 0.877767
Si Si3 0.000000 0.376445 0.000000
Si Si4 0.295437 0.424549 0.575283
Si Si5 0.234428 0.706277 0.069171
Si Si6 0.326512 0.687984 0.326701
Si Si7 0.650950 0.824314 0.527445
O O1 0.453042 0.125180 0.293603
O O2 0.544453 0.000000 0.187493
O O3 0.500000 0.085050 0.000000
O O4 0.807754 0.090667 0.962755
O O5 0.145942 0.858477 0.657995
O O6 0.806353 0.785309 0.903382
O O7 0.000000 0.821459 0.000000
O O8 0.152598 0.422972 0.812203
O O9 0.919478 0.330170 0.926809
O O10 0.500000 0.401512 0.500000
O O11 0.298454 0.500000 0.510397
O O12 0.249237 0.374569 0.473858
O O13 0.209494 0.683392 0.254123
O O14 0.444522 0.687239 0.863018
O O15 0.280940 0.755583 0.444911
O O16 0.500000 0.808070 0.500000
#
# Coordination Sequence:
#
# PCOD8067793 Si02
#       7
#     4   4   2   4   4   4   4
#     4  11  26  46  66  97 139 176 217 274 333 393
#     4  12  23  42  67 100 130 170 220 277 331 383
#     4  12  23  42  68  96 129 172 220 272 323 390
#     4  11  24  43  66  96 133 174 219 271 332 392
#     4  11  23  40  68 100 131 167 223 272 332 391
#     4  11  23  43  67  97 133 176 212 279 335 386
#     4  12  24  42  71  98 130 174 227 273 331 392
#
# _framework density 20.752319
#
# number of rings (size 3 to 8) (size 9 to 14) (size 15 to 20)
#    0.000    0.615    5.385    2.538    0.000    5.538 
#    0.000    5.385    0.000    0.000    0.000    0.000 
#    0.000    0.000    0.000    0.000    0.000    0.000 
#
# Total GULP energy -322439.552319 kJ/mol
# GULP energy per Si atom -12401.521243 kJ/mol
# Density = 2.070509 g / cm^3
# Si number density = 20.752319 Si / 1000 Ang^3
#
#
#
# Elastic Constant Matrix: (Units=GPa)
#
#
# Indices 1 2 3 4 5 6 
#
# 1 114.5709 47.4215 45.4564 0.0000 12.3282 0.0000
# 2 47.4215 111.7451 46.1221 0.0000 14.8793 0.0000
# 3 45.4564 46.1221 127.4001 0.0000 3.1655 0.0000
# 4 0.0000 0.0000 0.0000 25.2353 0.0000 9.8019
# 5 12.3282 14.8793 3.1655 0.0000 32.1901 0.0000
# 6 0.0000 0.0000 0.0000 9.8019 0.0000 50.4766
#
#
#
# Elastic Compliance Matrix: (Units=1/GPa)
#
#
# Indices 1 2 3 4 5 6 
#
# 1 0.011526 -0.003383 -0.002824 0.000000 -0.002573 0.000000
# 2 -0.003383 0.012207 -0.003112 0.000000 -0.004041 0.000000
# 3 -0.002824 -0.003112 0.009945 0.000000 0.001542 0.000000
# 4 0.000000 0.000000 0.000000 0.042860 0.000000 -0.008323
# 5 -0.002573 -0.004041 0.001542 0.000000 0.033767 0.000000
# 6 0.000000 0.000000 0.000000 -0.008323 0.000000 0.021427
#
#
# Mechanical properties :
#
#
# Convention : Reuss Voigt Hill
#
# Bulk Modulus (GPa) = 66.48681 70.19069 68.33875
# Shear Modulus (GPa) = 32.17868 35.89480 34.03674
#
# Velocity S-wave (km/s) = 3.94205 4.16345 4.05426
# Velocity P-wave (km/s) = 7.26825 7.55042 7.41068
#
# Compressibility (1/GPa) = 0.01504058
#
# Stress axis : x y z
#
# Youngs Moduli (GPa) = 86.76309 81.91978 100.55321
#
# Poissons Ratio (x) = 0.27715 0.28393
# Poissons Ratio (y) = 0.29353 0.31290
# Poissons Ratio (z) = 0.24499 0.25491
#
# Static dielectric constant tensor:
#      x y z
#    x 3.834290 0.000000 -0.084520 
#    y 0.000000 3.617740 0.000000 
#    z -0.084520 0.000000 3.836040 
# 
# 
# High freq. dielectric constant tensor:
#      x y z
#    x 1.822720 0.000000 -0.002490 
#    y 0.000000 1.800500 0.000000 
#    z -0.002490 0.000000 1.829350 
# 
# From -- ./inp_files/20424.got.cif
#   From: 2010.06.25/outbox.cif.g09.slc.cpg/sg10_11_cif.got.tgz:20424.got - 2010.06.27 22:07:45.
