data_PCOD8067661
_publ_section_title
;
Structure prediction by ZEFSAII (Michael W. Deem and Ramdas Pophale) SiO2 
 PCOD8067661
Probable space group: P 2/M
;
_chemical_formula_sum "Si O2"
_cell_formula_units_Z 24
_cell_length_a 10.087744
_cell_length_b 8.738501
_cell_length_c 21.454883
_cell_angle_alpha 90.000000
_cell_angle_beta 44.658207
_cell_angle_gamma 90.000000
_cell_volume 1329.339418
_symmetry_space_group_name_H-M "P 2/M"
_symmetry_group_IT_number 10
_symmetry_cell_setting 'monoclinic'
loop_
_space_group_symop_operation_xyz
x,y,z
-x,y,-z
-x,-y,-z
x,-y,z
loop_
_atom_site_type_symbol
_atom_site_label
_atom_site_fract_x
_atom_site_fract_y
_atom_site_fract_z
Si Si1 0.693909 0.818936 0.104749
Si Si2 0.016918 0.817491 0.231452
Si Si3 0.287918 0.320602 0.237052
Si Si4 0.986117 0.820552 0.575324
Si Si5 0.707963 0.820467 0.429217
Si Si6 0.993282 0.180685 0.904468
O O1 0.504475 0.723706 0.170474
O O2 0.818372 0.766711 0.122560
O O3 0.652304 0.000000 0.119919
O O4 0.806337 0.770767 0.004628
O O5 0.202958 0.758765 0.204081
O O6 0.011729 0.749002 0.163347
O O7 0.831175 0.756858 0.330123
O O8 0.024774 0.000000 0.229237
O O9 0.265685 0.500000 0.237060
O O10 0.183285 0.267143 0.334642
O O11 0.000000 0.762554 0.500000
O O12 0.184834 0.783031 0.542212
O O13 0.939861 0.000000 0.594485
O O14 0.500000 0.743229 0.500000
O O15 0.684666 0.000000 0.427690
O O16 0.998171 0.000000 0.898413
#
# Coordination Sequence:
#
# PCOD8067661 Si02
#       6
#     4   4   4   4   4   4
#     4   9  17  33  54  76 100 126 164 212 258 302
#     4   9  17  32  52  73  98 130 168 208 249 294
#     4  11  22  34  48  71 104 139 169 199 243 297
#     4   9  18  33  53  74  95 124 164 207 248 289
#     4   8  14  25  44  71  97 118 148 194 242 287
#     4   8  16  31  54  78  97 124 166 216 261 297
#
# _framework density 18.054078000000001
#
# number of rings (size 3 to 8) (size 9 to 14) (size 15 to 20)
#    0.000    3.000    0.000    3.500    0.000    2.333 
#    0.000   11.667    0.000    8.000    0.000    0.000 
#    0.000    0.000    0.000    0.000    0.000    0.000 
#
# Total GULP energy -297519.372403 kJ/mol
# GULP energy per Si atom -12396.640517 kJ/mol
# Density = 1.801299 g / cm^3
# Si number density = 18.054078 Si / 1000 Ang^3
#
#
#
# Elastic Constant Matrix: (Units=GPa)
#
#
# Indices 1 2 3 4 5 6 
#
# 1 128.5254 22.3311 92.7490 0.0000 8.2582 0.0000
# 2 22.3311 33.2433 24.6140 0.0000 0.4145 0.0000
# 3 92.7490 24.6140 114.3301 0.0000 6.4638 0.0000
# 4 0.0000 0.0000 0.0000 6.8358 0.0000 0.1702
# 5 8.2582 0.4145 6.4638 0.0000 44.9830 0.0000
# 6 0.0000 0.0000 0.0000 0.1702 0.0000 3.4756
#
#
#
# Elastic Compliance Matrix: (Units=1/GPa)
#
#
# Indices 1 2 3 4 5 6 
#
# 1 0.018915 -0.001646 -0.014916 0.000000 -0.001314 0.000000
# 2 -0.001646 0.035956 -0.006457 0.000000 0.000899 0.000000
# 3 -0.014916 -0.006457 0.022260 0.000000 -0.000401 0.000000
# 4 0.000000 0.000000 0.000000 0.146468 0.000000 -0.007172
# 5 -0.001314 0.000899 -0.000401 0.000000 0.022521 0.000000
# 6 0.000000 0.000000 0.000000 -0.007172 0.000000 0.288071
#
#
# Mechanical properties :
#
#
# Convention : Reuss Voigt Hill
#
# Bulk Modulus (GPa) = 32.16040 61.72078 46.94059
# Shear Modulus (GPa) = 8.46609 20.15254 14.30931
#
# Velocity S-wave (km/s) = 2.16783 3.34463 2.81834
# Velocity P-wave (km/s) = 4.91101 7.01258 6.05369
#
# Compressibility (1/GPa) = 0.03109414
#
# Stress axis : x y z
#
# Youngs Moduli (GPa) = 52.86882 27.81164 44.92445
#
# Poissons Ratio (x) = 0.04577 0.67008
# Poissons Ratio (y) = 0.08700 0.29007
# Poissons Ratio (z) = 0.78858 0.17957
#
# Static dielectric constant tensor:
#      x y z
#    x 3.588640 0.000000 0.193820 
#    y 0.000000 2.871460 0.000000 
#    z 0.193820 0.000000 3.690550 
# 
# 
# High freq. dielectric constant tensor:
#      x y z
#    x 1.705520 0.000000 0.001110 
#    y 0.000000 1.654720 0.000000 
#    z 0.001110 0.000000 1.704520 
# 
# From -- ./inp_files/33969.got.cif
#   From: 2010.06.25/outbox.cif.g09.slc.cpg/sg10_17_cif.got.tgz:33969.got - 2010.06.27 22:07:45.
