data_PCOD8067303
_publ_section_title
;
Structure prediction by ZEFSAII (Michael W. Deem and Ramdas Pophale) SiO2 
 PCOD8067303
Probable space group: P 2/M
;
_chemical_formula_sum "Si O2"
_cell_formula_units_Z 32
_cell_length_a 13.947609
_cell_length_b 8.766970
_cell_length_c 23.551440
_cell_angle_alpha 90.000000
_cell_angle_beta 146.629804
_cell_angle_gamma 90.000000
_cell_volume 1584.039745
_symmetry_space_group_name_H-M "P 2/M"
_symmetry_group_IT_number 10
_symmetry_cell_setting 'monoclinic'
loop_
_space_group_symop_operation_xyz
x,y,z
-x,y,-z
-x,-y,-z
x,-y,z
loop_
_atom_site_type_symbol
_atom_site_label
_atom_site_fract_x
_atom_site_fract_y
_atom_site_fract_z
Si Si1 0.520127 0.822241 0.299388
Si Si2 0.143229 0.177610 0.836487
Si Si3 0.169572 0.680216 0.616502
Si Si4 0.718902 0.821761 0.217757
Si Si5 0.805210 0.676757 0.916097
Si Si6 0.219183 0.325003 0.349307
Si Si7 0.349059 0.675858 0.039052
Si Si8 0.462492 0.325323 0.573718
O O1 0.653476 0.736880 0.324397
O O2 0.324783 0.771387 0.187899
O O3 0.561786 0.784921 0.385147
O O4 0.542114 0.000000 0.299756
O O5 0.219241 0.229229 0.813663
O O6 0.938386 0.209321 0.737117
O O7 0.178985 0.000000 0.866133
O O8 0.237915 0.279495 0.929674
O O9 0.171371 0.500000 0.616637
O O10 0.160241 0.736796 0.676652
O O11 0.000000 0.744316 0.500000
O O12 0.518468 0.779651 0.127293
O O13 0.742989 0.000000 0.238936
O O14 0.784472 0.500000 0.889290
O O15 0.768440 0.705574 0.964002
O O16 0.000000 0.735002 0.000000
O O17 0.154342 0.500000 0.315645
O O18 0.308641 0.289091 0.453636
O O19 0.352691 0.294578 0.364351
O O20 0.406482 0.500000 0.063000
O O21 0.450891 0.500000 0.588654
#
# Coordination Sequence:
#
# PCOD8067303 Si02
#       8
#     4   4   4   4   4   4   4   4
#     4  12  25  40  64  97 131 167 204 253 318 383
#     4  11  25  40  60  91 128 162 198 252 316 372
#     4  11  25  44  67  94 124 165 215 263 308 366
#     4  11  24  43  64  90 126 164 199 251 319 374
#     4  10  23  43  66  92 125 165 212 261 309 367
#     4   9  20  40  64  90 119 161 211 257 303 356
#     4  11  23  41  66  92 119 161 211 255 305 366
#     4   9  20  40  64  88 122 163 207 256 303 358
#
# _framework density 20.201512999999998
#
# number of rings (size 3 to 8) (size 9 to 14) (size 15 to 20)
#    0.000    1.500    1.250    3.750    3.500    6.250 
#    0.000    1.250    0.000    0.000    0.000    0.000 
#    0.000    0.000    0.000    0.000    0.000    0.000 
#
# Total GULP energy -397010.243353 kJ/mol
# GULP energy per Si atom -12406.570105 kJ/mol
# Density = 2.015553 g / cm^3
# Si number density = 20.201513 Si / 1000 Ang^3
#
#
#
# Elastic Constant Matrix: (Units=GPa)
#
#
# Indices 1 2 3 4 5 6 
#
# 1 56.8097 17.0506 22.4131 0.0000 -11.8282 0.0000
# 2 17.0506 53.8791 21.1956 0.0000 -6.8927 0.0000
# 3 22.4131 21.1956 102.6857 0.0000 -2.7758 0.0000
# 4 0.0000 0.0000 0.0000 14.0216 0.0000 -6.1732
# 5 -11.8282 -6.8927 -2.7758 0.0000 36.8883 0.0000
# 6 0.0000 0.0000 0.0000 -6.1732 0.0000 22.7366
#
#
#
# Elastic Compliance Matrix: (Units=1/GPa)
#
#
# Indices 1 2 3 4 5 6 
#
# 1 0.021635 -0.004691 -0.003598 0.000000 0.005790 0.000000
# 2 -0.004691 0.021670 -0.003387 0.000000 0.002290 0.000000
# 3 -0.003598 -0.003387 0.011197 0.000000 -0.000944 0.000000
# 4 0.000000 0.000000 0.000000 0.081001 0.000000 0.021992
# 5 0.005790 0.002290 -0.000944 0.000000 0.029322 0.000000
# 6 0.000000 0.000000 0.000000 0.021992 0.000000 0.049953
#
#
# Mechanical properties :
#
#
# Convention : Reuss Voigt Hill
#
# Bulk Modulus (GPa) = 32.10105 37.18814 34.64459
# Shear Modulus (GPa) = 20.11957 24.91031 22.51494
#
# Velocity S-wave (km/s) = 3.15928 3.51535 3.34206
# Velocity P-wave (km/s) = 5.40675 5.90978 5.66385
#
# Compressibility (1/GPa) = 0.03115163
#
# Stress axis : x y z
#
# Youngs Moduli (GPa) = 46.22048 46.14678 89.30691
#
# Poissons Ratio (x) = 0.21646 0.32129
# Poissons Ratio (y) = 0.21681 0.30250
# Poissons Ratio (z) = 0.16628 0.15631
#
# Static dielectric constant tensor:
#      x y z
#    x 3.783920 0.000000 -0.108130 
#    y 0.000000 3.579490 0.000000 
#    z -0.108130 0.000000 3.836470 
# 
# 
# High freq. dielectric constant tensor:
#      x y z
#    x 1.798050 0.000000 -0.005250 
#    y 0.000000 1.786140 0.000000 
#    z -0.005250 0.000000 1.800180 
# 
# From -- ./inp_files/89614.got.cif
#   From: 2010.06.25/outbox.cif.g09.slc.cpg/sg10_45_cif.got.tgz:89614.got - 2010.06.27 22:07:45.
