data_PCOD8067809
_publ_section_title
;
Structure prediction by ZEFSAII (Michael W. Deem and Ramdas Pophale) SiO2 
 PCOD8067809
Probable space group: P 2/M
;
_chemical_formula_sum "Si O2"
_cell_formula_units_Z 24
_cell_length_a 12.565013
_cell_length_b 14.745707
_cell_length_c 16.094454
_cell_angle_alpha 90.000000
_cell_angle_beta 151.978878
_cell_angle_gamma 90.000000
_cell_volume 1400.925548
_symmetry_space_group_name_H-M "P 2/M"
_symmetry_group_IT_number 10
_symmetry_cell_setting 'monoclinic'
loop_
_space_group_symop_operation_xyz
x,y,z
-x,y,-z
-x,-y,-z
x,-y,z
loop_
_atom_site_type_symbol
_atom_site_label
_atom_site_fract_x
_atom_site_fract_y
_atom_site_fract_z
Si Si1 0.113429 0.000000 0.825194
Si Si2 0.183902 0.000000 0.692017
Si Si3 0.000000 0.857682 0.000000
Si Si4 0.476612 0.604631 0.349971
Si Si5 0.722883 0.724185 0.925739
Si Si6 0.465502 0.844801 0.068383
Si Si7 0.869314 0.395209 0.742836
Si Si8 0.752012 0.000000 0.715507
O O1 0.047916 0.000000 0.684132
O O2 0.247620 0.092639 0.932955
O O3 0.896727 0.000000 0.732423
O O4 0.322917 0.909387 0.773070
O O5 0.000000 0.000000 0.500000
O O6 0.848111 0.798911 0.956934
O O7 0.817875 0.914388 0.819228
O O8 0.494023 0.500000 0.336332
O O9 0.440574 0.662984 0.243091
O O10 0.261402 0.619776 0.260970
O O11 0.707061 0.635198 0.555117
O O12 0.551542 0.766046 0.875329
O O13 0.905898 0.664719 0.101974
O O14 0.500000 0.802386 0.000000
O O15 0.937847 0.500000 0.780335
O O16 0.500000 0.000000 0.500000
#
# Coordination Sequence:
#
# PCOD8067809 Si02
#       8
#     2   2   2   4   4   4   4   2
#     4   9  17  38  56  68 104 145 171 224 270 311
#     4   9  19  37  61  78  93 134 194 232 271 309
#     4  11  24  34  49  82 112 140 181 220 264 333
#     4   9  18  32  51  80 112 145 183 213 256 327
#     4  12  19  33  56  78 113 139 173 227 275 311
#     4   9  20  37  55  75 102 137 183 231 267 310
#     4   9  18  32  51  79 114 147 178 212 261 327
#     4  11  24  39  51  75 116 159 175 200 277 349
#
# _framework density 17.131530999999999
#
# number of rings (size 3 to 8) (size 9 to 14) (size 15 to 20)
#    0.000    2.167    3.333    2.500    0.000    4.000 
#    6.000    0.000    0.000    2.000    0.000    2.333 
#    0.000    0.000    0.000    0.000    0.000    0.000 
#
# Total GULP energy -297413.769556 kJ/mol
# GULP energy per Si atom -12392.240398 kJ/mol
# Density = 1.709254 g / cm^3
# Si number density = 17.131531 Si / 1000 Ang^3
#
#
#
# Elastic Constant Matrix: (Units=GPa)
#
#
# Indices 1 2 3 4 5 6 
#
# 1 118.5103 55.2174 55.7353 0.0000 -9.0083 0.0000
# 2 55.2174 82.6695 49.3461 0.0000 -17.4068 0.0000
# 3 55.7353 49.3461 122.2242 0.0000 -23.3508 0.0000
# 4 0.0000 0.0000 0.0000 -14.0182 0.0000 -11.0599
# 5 -9.0083 -17.4068 -23.3508 0.0000 20.5323 0.0000
# 6 0.0000 0.0000 0.0000 -11.0599 0.0000 28.7511
#
#
#
# Elastic Compliance Matrix: (Units=1/GPa)
#
#
# Indices 1 2 3 4 5 6 
#
# 1 0.013550 -0.007728 -0.004056 0.000000 -0.005220 0.000000
# 2 -0.007728 0.021419 -0.002941 0.000000 0.011423 0.000000
# 3 -0.004056 -0.002941 0.013290 0.000000 0.010841 0.000000
# 4 0.000000 0.000000 0.000000 -0.054726 0.000000 -0.021052
# 5 -0.005220 0.011423 0.010841 0.000000 0.068427 0.000000
# 6 0.000000 0.000000 0.000000 -0.021052 0.000000 0.026683
#
#
# Mechanical properties :
#
#
# Convention : Reuss Voigt Hill
#
# Bulk Modulus (GPa) = 53.16837 71.55575 62.36206
# Shear Modulus (GPa) = 40.20514 17.92671 29.06592
#
# Velocity S-wave (km/s) = 4.84969 3.23834 4.12349
# Velocity P-wave (km/s) = 7.90329 7.47273 7.69102
#
# Compressibility (1/GPa) = 0.01880818
#
# Stress axis : x y z
#
# Youngs Moduli (GPa) = 73.80306 46.68729 75.24586
#
# Poissons Ratio (x) = 0.36081 0.30518
# Poissons Ratio (y) = 0.57037 0.22131
# Poissons Ratio (z) = 0.29933 0.13731
#
# Static dielectric constant tensor:
#      x y z
#    x 3.058920 0.000000 -0.200220 
#    y 0.000000 3.218370 0.000000 
#    z -0.200220 0.000000 3.181840 
# 
# 
# High freq. dielectric constant tensor:
#      x y z
#    x 1.645540 0.000000 -0.015850 
#    y 0.000000 1.660320 0.000000 
#    z -0.015850 0.000000 1.662080 
# 
# From -- ./inp_files/65215.got.cif
#   From: 2010.06.25/outbox.cif.g09.slc.cpg/sg10_33_cif.got.tgz:65215.got - 2010.06.27 22:07:45.
