data_PCOD8067406
_publ_section_title
;
Structure prediction by ZEFSAII (Michael W. Deem and Ramdas Pophale) SiO2 
 PCOD8067406
Probable space group: P 2/M
;
_chemical_formula_sum "Si O2"
_cell_formula_units_Z 24
_cell_length_a 14.902959
_cell_length_b 10.234354
_cell_length_c 15.158951
_cell_angle_alpha 90.000000
_cell_angle_beta 151.626554
_cell_angle_gamma 90.000000
_cell_volume 1098.736582
_symmetry_space_group_name_H-M "P 2/M"
_symmetry_group_IT_number 10
_symmetry_cell_setting 'monoclinic'
loop_
_space_group_symop_operation_xyz
x,y,z
-x,y,-z
-x,-y,-z
x,-y,z
loop_
_atom_site_type_symbol
_atom_site_label
_atom_site_fract_x
_atom_site_fract_y
_atom_site_fract_z
Si Si1 0.811541 0.854899 0.066153
Si Si2 0.467076 0.500000 0.836301
Si Si3 0.403771 0.237466 0.680137
Si Si4 0.097384 0.354564 0.993887
Si Si5 0.826273 0.500000 0.257415
Si Si6 0.483822 0.644645 0.582069
Si Si7 0.994022 0.777676 0.593340
O O1 0.928630 0.749211 0.108495
O O2 0.852297 0.835623 0.205894
O O3 0.877717 0.000000 0.095204
O O4 0.585050 0.851826 0.856576
O O5 0.439751 0.376719 0.752838
O O6 0.316038 0.500000 0.783594
O O7 0.687982 0.500000 0.054228
O O8 0.363502 0.259526 0.540480
O O9 0.212299 0.178198 0.552313
O O10 0.016589 0.500000 0.899020
O O11 0.317042 0.368075 0.198906
O O12 0.000000 0.303683 0.000000
O O13 0.967998 0.622375 0.379824
O O14 0.500000 0.710558 0.500000
O O15 0.390790 0.500000 0.491507
O O16 0.000000 0.838195 0.500000
#
# Coordination Sequence:
#
# PCOD8067406 Si02
#       7
#     4   2   4   4   2   4   4
#     4  11  27  46  65  93 133 181 226 270 333 402
#     4  11  19  38  66  94 135 170 212 278 343 389
#     4  11  22  40  65  90 132 174 215 274 328 393
#     4   9  20  40  67  97 129 165 214 276 335 392
#     4  11  22  37  64 100 135 160 221 284 341 397
#     4   9  18  31  53  91 129 159 198 252 321 388
#     4  12  25  40  66  99 130 173 226 281 335 397
#
# _framework density 21.843268999999999
#
# number of rings (size 3 to 8) (size 9 to 14) (size 15 to 20)
#    0.000    1.500    4.167    0.750    4.667    2.000 
#    0.000    0.833    0.000    2.000    0.000    0.000 
#    0.000    0.000    0.000    0.000    0.000    0.000 
#
# Total GULP energy -297438.404125 kJ/mol
# GULP energy per Si atom -12393.266839 kJ/mol
# Density = 2.179355 g / cm^3
# Si number density = 21.843269 Si / 1000 Ang^3
#
#
#
# Elastic Constant Matrix: (Units=GPa)
#
#
# Indices 1 2 3 4 5 6 
#
# 1 160.4738 36.3371 46.5891 0.0000 -17.5789 0.0000
# 2 36.3371 97.6675 16.2150 0.0000 -13.2246 0.0000
# 3 46.5891 16.2150 86.5946 0.0000 -12.9876 0.0000
# 4 0.0000 0.0000 0.0000 8.5871 0.0000 4.1780
# 5 -17.5789 -13.2246 -12.9876 0.0000 43.6815 0.0000
# 6 0.0000 0.0000 0.0000 4.1780 0.0000 9.8222
#
#
#
# Elastic Compliance Matrix: (Units=1/GPa)
#
#
# Indices 1 2 3 4 5 6 
#
# 1 0.007938 -0.002150 -0.003649 0.000000 0.001458 0.000000
# 2 -0.002150 0.011471 -0.000628 0.000000 0.002421 0.000000
# 3 -0.003649 -0.000628 0.014005 0.000000 0.002505 0.000000
# 4 0.000000 0.000000 0.000000 0.146845 0.000000 -0.062462
# 5 0.001458 0.002421 0.002505 0.000000 0.024958 0.000000
# 6 0.000000 0.000000 0.000000 -0.062462 0.000000 0.128379
#
#
# Mechanical properties :
#
#
# Convention : Reuss Voigt Hill
#
# Bulk Modulus (GPa) = 48.64150 60.33537 54.48844
# Shear Modulus (GPa) = 14.15219 28.79115 21.47167
#
# Velocity S-wave (km/s) = 2.54814 3.63447 3.13867
# Velocity P-wave (km/s) = 5.56544 6.73012 6.17530
#
# Compressibility (1/GPa) = 0.02055858
#
# Stress axis : x y z
#
# Youngs Moduli (GPa) = 125.98331 87.17827 71.40436
#
# Poissons Ratio (x) = 0.18742 0.26057
# Poissons Ratio (y) = 0.27084 0.04486
# Poissons Ratio (z) = 0.45974 0.05477
#
# Static dielectric constant tensor:
#      x y z
#    x 4.432490 0.000000 -0.068540 
#    y 0.000000 3.013120 0.000000 
#    z -0.068540 0.000000 4.056540 
# 
# 
# High freq. dielectric constant tensor:
#      x y z
#    x 1.870030 0.000000 -0.008410 
#    y 0.000000 1.819220 0.000000 
#    z -0.008410 0.000000 1.863850 
# 
# From -- ./inp_files/67442.got.cif
#   From: 2010.06.25/outbox.cif.g09.slc.cpg/sg10_34_cif.got.tgz:67442.got - 2010.06.27 22:07:45.
