data_PCOD8067040
_publ_section_title
;
Structure prediction by ZEFSAII (Michael W. Deem and Ramdas Pophale) SiO2 
 PCOD8067040
Probable space group: P 2/M
;
_chemical_formula_sum "Si O2"
_cell_formula_units_Z 28
_cell_length_a 29.902317
_cell_length_b 7.676170
_cell_length_c 9.659157
_cell_angle_alpha 90.000000
_cell_angle_beta 35.455415
_cell_angle_gamma 90.000000
_cell_volume 1286.081558
_symmetry_space_group_name_H-M "P 2/M"
_symmetry_group_IT_number 10
_symmetry_cell_setting 'monoclinic'
loop_
_space_group_symop_operation_xyz
x,y,z
-x,y,-z
-x,-y,-z
x,-y,z
loop_
_atom_site_type_symbol
_atom_site_label
_atom_site_fract_x
_atom_site_fract_y
_atom_site_fract_z
Si Si1 0.879156 0.303807 0.571776
Si Si2 0.401094 0.000000 0.894935
Si Si3 0.950768 0.803427 0.857592
Si Si4 0.329158 0.297015 0.260727
Si Si5 0.650454 0.694714 0.478199
Si Si6 0.816507 0.195940 0.006015
Si Si7 0.844767 0.296483 0.357371
Si Si8 0.582709 0.000000 0.464941
O O1 0.849674 0.500000 0.666604
O O2 0.839195 0.187253 0.788375
O O3 0.848990 0.226389 0.503145
O O4 0.971749 0.306816 0.344638
O O5 0.491720 0.000000 0.687948
O O6 0.381148 0.000000 0.781052
O O7 0.368201 0.824799 0.047418
O O8 0.888498 0.721932 0.908038
O O9 0.971639 0.000000 0.762020
O O10 0.912240 0.801488 0.105710
O O11 0.341779 0.500000 0.187453
O O12 0.365001 0.256535 0.321654
O O13 0.238433 0.252891 0.496956
O O14 0.618373 0.500000 0.529669
O O15 0.609193 0.828586 0.480145
O O16 0.741700 0.688368 0.220876
O O17 0.798748 0.000000 0.102405
O O18 0.863461 0.500000 0.305607
#
# Coordination Sequence:
#
# PCOD8067040 Si02
#       8
#     4   2   4   4   4   4   4   2
#     4  11  24  38  56  84 123 170 218 272 333 385
#     4  11  27  47  75 101 142 179 210 262 338 396
#     4  11  23  38  58  85 122 168 218 274 328 382
#     4  10  23  43  71 104 135 178 230 275 325 395
#     4  11  23  42  72 103 136 179 226 276 330 391
#     4  11  23  39  61  90 126 168 222 275 326 389
#     4  10  22  39  59  87 122 163 216 271 322 384
#     4  11  27  49  69 109 140 175 214 264 330 406
#
# _framework density 21.771557000000001
#
# number of rings (size 3 to 8) (size 9 to 14) (size 15 to 20)
#    0.000    1.286    2.143    2.571    3.000    8.571 
#    0.000    2.857    0.000    0.000    0.000    0.000 
#    0.000    0.000    0.000    0.000    0.000    0.000 
#
# Total GULP energy -347283.965528 kJ/mol
# GULP energy per Si atom -12402.998769 kJ/mol
# Density = 2.172200 g / cm^3
# Si number density = 21.771557 Si / 1000 Ang^3
#
#
#
# Elastic Constant Matrix: (Units=GPa)
#
#
# Indices 1 2 3 4 5 6 
#
# 1 83.0037 25.2478 5.0245 0.0000 13.3147 0.0000
# 2 25.2478 87.9557 22.0652 0.0000 6.9289 0.0000
# 3 5.0245 22.0652 74.9961 0.0000 14.1995 0.0000
# 4 0.0000 0.0000 0.0000 26.1915 0.0000 2.1256
# 5 13.3147 6.9289 14.1995 0.0000 36.4228 0.0000
# 6 0.0000 0.0000 0.0000 2.1256 0.0000 48.5826
#
#
#
# Elastic Compliance Matrix: (Units=1/GPa)
#
#
# Indices 1 2 3 4 5 6 
#
# 1 0.013936 -0.003904 0.001122 0.000000 -0.004789 0.000000
# 2 -0.003904 0.013403 -0.003746 0.000000 0.000338 0.000000
# 3 0.001122 -0.003746 0.015444 0.000000 -0.005718 0.000000
# 4 0.000000 0.000000 0.000000 0.038316 0.000000 -0.001676
# 5 -0.004789 0.000338 -0.005718 0.000000 0.031371 0.000000
# 6 0.000000 0.000000 0.000000 -0.001676 0.000000 0.020657
#
#
# Mechanical properties :
#
#
# Convention : Reuss Voigt Hill
#
# Bulk Modulus (GPa) = 33.64111 38.95895 36.30003
# Shear Modulus (GPa) = 32.03241 35.14726 33.58983
#
# Velocity S-wave (km/s) = 3.83991 4.02228 3.93215
# Velocity P-wave (km/s) = 5.92835 6.28529 6.10943
#
# Compressibility (1/GPa) = 0.02972553
#
# Stress axis : x y z
#
# Youngs Moduli (GPa) = 71.75892 74.60895 64.75157
#
# Poissons Ratio (x) = 0.29130 -0.07264
# Poissons Ratio (y) = 0.28017 0.24255
# Poissons Ratio (z) = -0.08050 0.27947
#
# Static dielectric constant tensor:
#      x y z
#    x 4.080560 0.000000 0.146400 
#    y 0.000000 3.824360 0.000000 
#    z 0.146400 0.000000 3.783930 
# 
# 
# High freq. dielectric constant tensor:
#      x y z
#    x 1.859870 0.000000 0.011710 
#    y 0.000000 1.856970 0.000000 
#    z 0.011710 0.000000 1.848750 
# 
# From -- ./inp_files/37219.got.cif
#   From: 2010.06.25/outbox.cif.g09.slc.cpg/sg10_19_cif.got.tgz:37219.got - 2010.06.27 22:07:45.
