data_PCOD8067325
_publ_section_title
;
Structure prediction by ZEFSAII (Michael W. Deem and Ramdas Pophale) SiO2 
 PCOD8067325
Probable space group: P 2/M
;
_chemical_formula_sum "Si O2"
_cell_formula_units_Z 26
_cell_length_a 10.430647
_cell_length_b 16.367788
_cell_length_c 8.987998
_cell_angle_alpha 90.000000
_cell_angle_beta 65.819427
_cell_angle_gamma 90.000000
_cell_volume 1399.852860
_symmetry_space_group_name_H-M "P 2/M"
_symmetry_group_IT_number 10
_symmetry_cell_setting 'monoclinic'
loop_
_space_group_symop_operation_xyz
x,y,z
-x,y,-z
-x,-y,-z
x,-y,z
loop_
_atom_site_type_symbol
_atom_site_label
_atom_site_fract_x
_atom_site_fract_y
_atom_site_fract_z
Si Si1 0.402347 0.589813 0.687802
Si Si2 0.626840 0.000000 0.827903
Si Si3 0.000000 0.244799 0.500000
Si Si4 0.231802 0.171027 0.187120
Si Si5 0.445222 0.735368 0.268903
Si Si6 0.408712 0.000000 0.687814
Si Si7 0.779190 0.712541 0.379474
Si Si8 0.721161 0.165386 0.169320
O O1 0.500000 0.578581 0.500000
O O2 0.368663 0.500000 0.771882
O O3 0.481858 0.645221 0.775255
O O4 0.256790 0.631793 0.700461
O O5 0.721438 0.920082 0.798222
O O6 0.550649 0.000000 0.711158
O O7 0.500000 0.000000 0.000000
O O8 0.905440 0.187387 0.648901
O O9 0.908633 0.302154 0.431901
O O10 0.349510 0.240512 0.172047
O O11 0.199240 0.174914 0.026783
O O12 0.356325 0.739961 0.462596
O O13 0.564022 0.802298 0.227065
O O14 0.500000 0.000000 0.500000
O O15 0.299404 0.926621 0.766504
O O16 0.812340 0.785732 0.248333
#
# Coordination Sequence:
#
# PCOD8067325 Si02
#       8
#     4   2   2   4   4   2   4   4
#     4   8  14  27  52  84 112 134 164 217 273 316
#     4  12  20  37  55  82 109 135 175 225 273 309
#     4  10  24  39  51  70 102 150 188 216 255 309
#     4  11  21  35  54  75 108 145 179 218 258 316
#     4   9  16  30  52  81 107 134 167 213 273 319
#     4  12  22  30  53  86 110 129 169 216 278 317
#     4   9  19  34  52  74 108 140 179 214 257 321
#     4  11  19  32  54  80 103 133 176 227 271 307
#
# _framework density 18.573381999999999
#
# number of rings (size 3 to 8) (size 9 to 14) (size 15 to 20)
#    0.000    2.000    3.077    2.769    2.154    0.923 
#    0.000    1.154    0.000   10.154    0.000    4.308 
#    0.000    0.000    0.000    0.000    0.000    0.000 
#
# Total GULP energy -322112.314248 kJ/mol
# GULP energy per Si atom -12388.935163 kJ/mol
# Density = 1.853111 g / cm^3
# Si number density = 18.573382 Si / 1000 Ang^3
#
#
#
# Elastic Constant Matrix: (Units=GPa)
#
#
# Indices 1 2 3 4 5 6 
#
# 1 92.8748 44.2381 36.2147 0.0000 8.9629 0.0000
# 2 44.2381 145.4332 34.6913 0.0000 8.7614 0.0000
# 3 36.2147 34.6913 87.0478 0.0000 11.6226 0.0000
# 4 0.0000 0.0000 0.0000 11.4258 0.0000 4.1895
# 5 8.9629 8.7614 11.6226 0.0000 31.6581 0.0000
# 6 0.0000 0.0000 0.0000 4.1895 0.0000 21.4862
#
#
#
# Elastic Compliance Matrix: (Units=1/GPa)
#
#
# Indices 1 2 3 4 5 6 
#
# 1 0.014141 -0.003155 -0.004424 0.000000 -0.001506 0.000000
# 2 -0.003155 0.008335 -0.001914 0.000000 -0.000711 0.000000
# 3 -0.004424 -0.001914 0.014568 0.000000 -0.003566 0.000000
# 4 0.000000 0.000000 0.000000 0.094260 0.000000 -0.018379
# 5 -0.001506 -0.000711 -0.003566 0.000000 0.033520 0.000000
# 6 0.000000 0.000000 0.000000 -0.018379 0.000000 0.050125
#
#
# Mechanical properties :
#
#
# Convention : Reuss Voigt Hill
#
# Bulk Modulus (GPa) = 55.38440 61.73823 58.56132
# Shear Modulus (GPa) = 20.83726 26.92814 23.88270
#
# Velocity S-wave (km/s) = 3.35309 3.81179 3.58977
# Velocity P-wave (km/s) = 6.69888 7.25846 6.98428
#
# Compressibility (1/GPa) = 0.01805563
#
# Stress axis : x y z
#
# Youngs Moduli (GPa) = 70.71830 119.97305 68.64526
#
# Poissons Ratio (x) = 0.37854 0.30372
# Poissons Ratio (y) = 0.22313 0.13141
# Poissons Ratio (z) = 0.31289 0.22966
#
# Static dielectric constant tensor:
#      x y z
#    x 3.342690 0.000000 0.261740 
#    y 0.000000 3.617700 0.000000 
#    z 0.261740 0.000000 3.258620 
# 
# 
# High freq. dielectric constant tensor:
#      x y z
#    x 1.704290 0.000000 0.014940 
#    y 0.000000 1.707890 0.000000 
#    z 0.014940 0.000000 1.715380 
# 
# From -- ./inp_files/24843.got.cif
#   From: 2010.06.25/outbox.cif.g09.slc.cpg/sg10_13_cif.got.tgz:24843.got - 2010.06.27 22:07:45.
