data_PCOD8067681
_publ_section_title
;
Structure prediction by ZEFSAII (Michael W. Deem and Ramdas Pophale) SiO2 
 PCOD8067681
Probable space group: P 2/M
;
_chemical_formula_sum "Si O2"
_cell_formula_units_Z 28
_cell_length_a 14.605374
_cell_length_b 8.658507
_cell_length_c 21.484891
_cell_angle_alpha 90.000000
_cell_angle_beta 149.037235
_cell_angle_gamma 90.000000
_cell_volume 1397.842110
_symmetry_space_group_name_H-M "P 2/M"
_symmetry_group_IT_number 10
_symmetry_cell_setting 'monoclinic'
loop_
_space_group_symop_operation_xyz
x,y,z
-x,y,-z
-x,-y,-z
x,-y,z
loop_
_atom_site_type_symbol
_atom_site_label
_atom_site_fract_x
_atom_site_fract_y
_atom_site_fract_z
Si Si1 0.537638 0.179156 0.621862
Si Si2 0.556793 0.679167 0.311100
Si Si3 0.833723 0.677486 0.127637
Si Si4 0.443619 0.820887 0.119785
Si Si5 0.748157 0.322536 0.216416
Si Si6 0.938075 0.821330 0.532936
Si Si7 0.212603 0.820875 0.344850
O O1 0.562876 0.282214 0.698292
O O2 0.699833 0.218799 0.670520
O O3 0.350778 0.219872 0.479979
O O4 0.542117 0.000000 0.642787
O O5 0.606028 0.500000 0.337497
O O6 0.450615 0.723951 0.187238
O O7 0.733035 0.780750 0.420171
O O8 0.813654 0.500000 0.096331
O O9 0.732726 0.706795 0.133862
O O10 0.040301 0.717180 0.253916
O O11 0.741569 0.782571 0.021838
O O12 0.608531 0.783139 0.171101
O O13 0.451231 0.000000 0.141367
O O14 0.708033 0.500000 0.209584
O O15 0.947855 0.280219 0.353006
O O16 0.000000 0.781016 0.500000
O O17 0.966660 0.000000 0.565980
O O18 0.159146 0.000000 0.316995
#
# Coordination Sequence:
#
# PCOD8067681 Si02
#       7
#     4   4   4   4   4   4   4
#     4   9  19  38  64  92 122 153 191 237 288 347
#     4  12  24  38  59  87 121 157 193 240 298 349
#     4  11  24  40  59  86 119 154 194 243 294 345
#     4  12  25  41  60  82 113 157 203 244 287 345
#     4  11  23  39  60  87 119 155 194 241 296 347
#     4  11  22  36  57  85 117 154 195 237 283 339
#     4   9  19  38  64  92 120 153 192 239 288 340
#
# _framework density 20.030873
#
# number of rings (size 3 to 8) (size 9 to 14) (size 15 to 20)
#    0.000    1.286    1.429    6.000    0.000    8.000 
#    0.000    2.143    0.000    4.286    0.000    0.000 
#    0.000    0.000    0.000    0.000    0.000    0.000 
#
# Total GULP energy -347375.430061 kJ/mol
# GULP energy per Si atom -12406.265359 kJ/mol
# Density = 1.998528 g / cm^3
# Si number density = 20.030873 Si / 1000 Ang^3
#
#
#
# Elastic Constant Matrix: (Units=GPa)
#
#
# Indices 1 2 3 4 5 6 
#
# 1 99.0011 38.1476 25.3591 0.0000 -14.7102 0.0000
# 2 38.1476 66.6451 21.0409 0.0000 -6.7743 0.0000
# 3 25.3591 21.0409 71.0008 0.0000 -7.8533 0.0000
# 4 0.0000 0.0000 0.0000 23.0794 0.0000 -8.0482
# 5 -14.7102 -6.7743 -7.8533 0.0000 23.9649 0.0000
# 6 0.0000 0.0000 0.0000 -8.0482 0.0000 26.5621
#
#
#
# Elastic Compliance Matrix: (Units=1/GPa)
#
#
# Indices 1 2 3 4 5 6 
#
# 1 0.014221 -0.006767 -0.002407 0.000000 0.006027 0.000000
# 2 -0.006767 0.020012 -0.003473 0.000000 0.000365 0.000000
# 3 -0.002407 -0.003473 0.016292 0.000000 0.002880 0.000000
# 4 0.000000 0.000000 0.000000 0.048448 0.000000 0.014679
# 5 0.006027 0.000365 0.002880 0.000000 0.046474 0.000000
# 6 0.000000 0.000000 0.000000 0.014679 0.000000 0.042095
#
#
# Mechanical properties :
#
#
# Convention : Reuss Voigt Hill
#
# Bulk Modulus (GPa) = 39.63588 45.08246 42.35917
# Shear Modulus (GPa) = 22.59925 24.86124 23.73025
#
# Velocity S-wave (km/s) = 3.36254 3.52681 3.44566
# Velocity P-wave (km/s) = 5.90813 6.25619 6.08465
#
# Compressibility (1/GPa) = 0.02522966
#
# Stress axis : x y z
#
# Youngs Moduli (GPa) = 70.32051 49.96996 61.38060
#
# Poissons Ratio (x) = 0.33816 0.14774
# Poissons Ratio (y) = 0.47588 0.21318
# Poissons Ratio (z) = 0.16926 0.17355
#
# Static dielectric constant tensor:
#      x y z
#    x 3.785570 0.000000 -0.160860 
#    y 0.000000 3.586140 0.000000 
#    z -0.160860 0.000000 3.573100 
# 
# 
# High freq. dielectric constant tensor:
#      x y z
#    x 1.784750 0.000000 -0.009860 
#    y 0.000000 1.784710 0.000000 
#    z -0.009860 0.000000 1.775870 
# 
# From -- ./inp_files/49091.got.cif
#   From: 2010.06.25/outbox.cif.g09.slc.cpg/sg10_25_cif.got.tgz:49091.got - 2010.06.27 22:07:45.
