data_PCOD8067398
_publ_section_title
;
Structure prediction by ZEFSAII (Michael W. Deem and Ramdas Pophale) SiO2 
 PCOD8067398
Probable space group: P 2/M
;
_chemical_formula_sum "Si O2"
_cell_formula_units_Z 20
_cell_length_a 7.805650
_cell_length_b 12.753391
_cell_length_c 9.685359
_cell_angle_alpha 90.000000
_cell_angle_beta 96.796131
_cell_angle_gamma 90.000000
_cell_volume 957.388333
_symmetry_space_group_name_H-M "P 2/M"
_symmetry_group_IT_number 10
_symmetry_cell_setting 'monoclinic'
loop_
_space_group_symop_operation_xyz
x,y,z
-x,y,-z
-x,-y,-z
x,-y,z
loop_
_atom_site_type_symbol
_atom_site_label
_atom_site_fract_x
_atom_site_fract_y
_atom_site_fract_z
Si Si1 0.500000 0.327522 0.000000
Si Si2 0.360444 0.820990 0.208788
Si Si3 0.100426 0.000000 0.717935
Si Si4 0.433735 0.000000 0.640919
Si Si5 0.798182 0.000000 0.984561
Si Si6 0.962383 0.776212 0.659515
Si Si7 0.877878 0.382658 0.115249
O O1 0.535554 0.265028 0.864334
O O2 0.323342 0.390004 0.949171
O O3 0.506541 0.891756 0.288373
O O4 0.237106 0.762425 0.310602
O O5 0.260384 0.892852 0.089687
O O6 0.985472 0.103012 0.707132
O O7 0.226678 0.000000 0.599102
O O8 0.244986 0.000000 0.856372
O O9 0.500000 0.000000 0.500000
O O10 0.000000 0.000000 0.000000
O O11 0.000000 0.758504 0.500000
O O12 0.088025 0.697599 0.755022
O O13 0.932372 0.500000 0.167129
O O14 0.000000 0.345644 0.000000
#
# Coordination Sequence:
#
# PCOD8067398 Si02
#       7
#     2   4   2   2   2   4   4
#     4  12  23  41  72 100 124 157 230 286 337 386
#     4  11  22  36  58  93 127 173 221 269 326 382
#     4  12  22  36  62  92 134 180 217 267 324 387
#     4  11  22  36  50  81 136 182 219 259 316 393
#     4  11  19  33  56  86 131 168 221 266 306 381
#     4  12  24  41  66  98 139 180 220 265 333 408
#     4  11  25  47  73  99 130 171 224 284 337 392
#
# _framework density 20.890166000000001
#
# number of rings (size 3 to 8) (size 9 to 14) (size 15 to 20)
#    0.000    0.600    4.000    6.000    0.000    2.000 
#    0.000    0.000    0.000    1.200    0.000    0.000 
#    0.000    0.000    0.000    0.000    0.000    0.000 
#
# Total GULP energy -247811.468659 kJ/mol
# GULP energy per Si atom -12390.573433 kJ/mol
# Density = 2.084262 g / cm^3
# Si number density = 20.890166 Si / 1000 Ang^3
#
#
#
# Elastic Constant Matrix: (Units=GPa)
#
#
# Indices 1 2 3 4 5 6 
#
# 1 105.5228 19.4384 18.7655 0.0000 -21.0143 0.0000
# 2 19.4384 103.8183 43.5181 0.0000 2.0060 0.0000
# 3 18.7655 43.5181 116.5659 0.0000 -20.8595 0.0000
# 4 0.0000 0.0000 0.0000 14.4465 0.0000 0.8870
# 5 -21.0143 2.0060 -20.8595 0.0000 39.0925 0.0000
# 6 0.0000 0.0000 0.0000 0.8870 0.0000 28.5226
#
#
#
# Elastic Compliance Matrix: (Units=1/GPa)
#
#
# Indices 1 2 3 4 5 6 
#
# 1 0.011093 -0.002264 0.000163 0.000000 0.006166 0.000000
# 2 -0.002264 0.012247 -0.005017 0.000000 -0.004523 0.000000
# 3 0.000163 -0.005017 0.011594 0.000000 0.006532 0.000000
# 4 0.000000 0.000000 0.000000 0.069353 0.000000 -0.002157
# 5 0.006166 -0.004523 0.006532 0.000000 0.032612 0.000000
# 6 0.000000 0.000000 0.000000 -0.002157 0.000000 0.035127
#
#
# Mechanical properties :
#
#
# Convention : Reuss Voigt Hill
#
# Bulk Modulus (GPa) = 48.31572 54.37234 51.34403
# Shear Modulus (GPa) = 25.88505 32.69132 29.28818
#
# Velocity S-wave (km/s) = 3.52391 3.96019 3.74840
# Velocity P-wave (km/s) = 6.30364 6.85529 6.58525
#
# Compressibility (1/GPa) = 0.02069720
#
# Stress axis : x y z
#
# Youngs Moduli (GPa) = 90.14936 81.65586 86.24846
#
# Poissons Ratio (x) = 0.18490 -0.01406
# Poissons Ratio (y) = 0.20414 0.43269
# Poissons Ratio (z) = -0.01470 0.40965
#
# Static dielectric constant tensor:
#      x y z
#    x 3.774110 0.000000 -0.287720 
#    y 0.000000 5.100910 0.000000 
#    z -0.287720 0.000000 3.512940 
# 
# 
# High freq. dielectric constant tensor:
#      x y z
#    x 1.837110 0.000000 -0.018890 
#    y 0.000000 1.800500 0.000000 
#    z -0.018890 0.000000 1.819960 
# 
# From -- ./inp_files/17919.got.cif
#   From: 2010.06.25/outbox.cif.g09.slc.cpg/sg10_9_cif.got.tgz:17919.got - 2010.06.27 22:07:45.
