data_PCOD8067977
_publ_section_title
;
Structure prediction by ZEFSAII (Michael W. Deem and Ramdas Pophale) SiO2 
 PCOD8067977
Probable space group: P 2/M
;
_chemical_formula_sum "Si O2"
_cell_formula_units_Z 32
_cell_length_a 23.016360
_cell_length_b 9.183359
_cell_length_c 28.457349
_cell_angle_alpha 90.000000
_cell_angle_beta 17.975188
_cell_angle_gamma 90.000000
_cell_volume 1856.246963
_symmetry_space_group_name_H-M "P 2/M"
_symmetry_group_IT_number 10
_symmetry_cell_setting 'monoclinic'
loop_
_space_group_symop_operation_xyz
x,y,z
-x,y,-z
-x,-y,-z
x,-y,z
loop_
_atom_site_type_symbol
_atom_site_label
_atom_site_fract_x
_atom_site_fract_y
_atom_site_fract_z
Si Si1 0.212650 0.328636 0.848735
Si Si2 0.527335 0.828605 0.290435
Si Si3 0.047365 0.164574 0.267296
Si Si4 0.729462 0.160807 0.590957
Si Si5 0.215458 0.330240 0.590610
Si Si6 0.491506 0.330632 0.455009
Si Si7 0.288607 0.329183 0.151014
Si Si8 0.977008 0.670863 0.465398
O O1 0.241878 0.500000 0.835839
O O2 0.268448 0.237614 0.853127
O O3 0.342828 0.269272 0.705867
O O4 0.000000 0.290483 0.000000
O O5 0.474902 0.805347 0.275355
O O6 0.383431 0.732006 0.430549
O O7 0.511476 0.000000 0.315302
O O8 0.227489 0.245856 0.150745
O O9 0.878907 0.170797 0.433929
O O10 0.978441 0.245719 0.272585
O O11 0.104342 0.000000 0.210686
O O12 0.784164 0.270153 0.590537
O O13 0.730830 0.000000 0.612071
O O14 0.186866 0.500000 0.600968
O O15 0.283080 0.306308 0.592603
O O16 0.500000 0.255168 0.500000
O O17 0.534524 0.500000 0.427725
O O18 0.272015 0.500000 0.153791
O O19 0.157855 0.282818 0.295545
O O20 0.500000 0.281663 0.000000
O O21 0.953463 0.500000 0.486064
O O22 0.000000 0.736262 0.500000
#
# Coordination Sequence:
#
# PCOD8067977 Si02
#       8
#     4   4   4   4   4   4   4   4
#     4   9  17  28  43  64  87 110 139 175 212 250
#     4   9  16  26  41  62  86 110 140 177 213 248
#     4   9  16  26  41  62  87 111 139 176 213 248
#     4   8  15  26  40  60  83 108 138 171 205 244
#     4   9  15  24  41  63  85 110 141 176 212 248
#     4   8  14  25  42  63  85 109 137 170 208 250
#     4   9  17  29  45  64  86 112 141 173 209 250
#     4   9  17  28  43  64  87 109 135 171 212 249
#
# _framework density 17.239086
#
# number of rings (size 3 to 8) (size 9 to 14) (size 15 to 20)
#    0.000    3.250    0.000    2.625    0.000    4.250 
#    0.000    0.000    0.000   10.875    0.000    8.750 
#    0.000    0.000    0.000    0.000    0.000    0.000 
#
# Total GULP energy -396480.376713 kJ/mol
# GULP energy per Si atom -12390.011772 kJ/mol
# Density = 1.719985 g / cm^3
# Si number density = 17.239086 Si / 1000 Ang^3
#
#
#
# Elastic Constant Matrix: (Units=GPa)
#
#
# Indices 1 2 3 4 5 6 
#
# 1 146.5175 56.1959 50.8672 0.0000 -33.5479 0.0000
# 2 56.1959 66.5678 27.6285 0.0000 -18.6903 0.0000
# 3 50.8672 27.6285 56.7194 0.0000 -25.7805 0.0000
# 4 0.0000 0.0000 0.0000 13.8387 0.0000 -9.3770
# 5 -33.5479 -18.6903 -25.7805 0.0000 29.3301 0.0000
# 6 0.0000 0.0000 0.0000 -9.3770 0.0000 21.2147
#
#
#
# Elastic Compliance Matrix: (Units=1/GPa)
#
#
# Indices 1 2 3 4 5 6 
#
# 1 0.012566 -0.006850 -0.005635 0.000000 0.005055 0.000000
# 2 -0.006850 0.023352 -0.003379 0.000000 0.004075 0.000000
# 3 -0.005635 -0.003379 0.034010 0.000000 0.021294 0.000000
# 4 0.000000 0.000000 0.000000 0.103156 0.000000 0.045596
# 5 0.005055 0.004075 0.021294 0.000000 0.061191 0.000000
# 6 0.000000 0.000000 0.000000 0.045596 0.000000 0.067291
#
#
# Mechanical properties :
#
#
# Convention : Reuss Voigt Hill
#
# Bulk Modulus (GPa) = 26.17924 59.90973 43.04449
# Shear Modulus (GPa) = 14.44971 21.88423 18.16697
#
# Velocity S-wave (km/s) = 2.89830 3.56681 3.24979
# Velocity P-wave (km/s) = 5.13995 7.19656 6.25339
#
# Compressibility (1/GPa) = 0.03819820
#
# Stress axis : x y z
#
# Youngs Moduli (GPa) = 79.57760 42.82321 29.40346
#
# Poissons Ratio (x) = 0.29335 0.16570
# Poissons Ratio (y) = 0.54512 0.09936
# Poissons Ratio (z) = 0.44846 0.14471
#
# Static dielectric constant tensor:
#      x y z
#    x 3.718280 0.000000 -0.385330 
#    y 0.000000 3.185570 0.000000 
#    z -0.385330 0.000000 2.932010 
# 
# 
# High freq. dielectric constant tensor:
#      x y z
#    x 1.672710 0.000000 -0.037740 
#    y 0.000000 1.658090 0.000000 
#    z -0.037740 0.000000 1.611900 
# 
# From -- ./inp_files/95744.got.cif
#   From: 2010.06.25/outbox.cif.g09.slc.cpg/sg10_48_cif.got.tgz:95744.got - 2010.06.27 22:07:45.
