data_PCOD8067233
_publ_section_title
;
Structure prediction by ZEFSAII (Michael W. Deem and Ramdas Pophale) SiO2 
 PCOD8067233
Probable space group: P 2/M
;
_chemical_formula_sum "Si O2"
_cell_formula_units_Z 28
_cell_length_a 7.341455
_cell_length_b 13.113866
_cell_length_c 14.079183
_cell_angle_alpha 90.000000
_cell_angle_beta 111.034691
_cell_angle_gamma 90.000000
_cell_volume 1265.147159
_symmetry_space_group_name_H-M "P 2/M"
_symmetry_group_IT_number 10
_symmetry_cell_setting 'monoclinic'
loop_
_space_group_symop_operation_xyz
x,y,z
-x,y,-z
-x,-y,-z
x,-y,z
loop_
_atom_site_type_symbol
_atom_site_label
_atom_site_fract_x
_atom_site_fract_y
_atom_site_fract_z
Si Si1 0.048414 0.615536 0.784693
Si Si2 0.178152 0.114498 0.268503
Si Si3 0.400771 0.614661 0.602581
Si Si4 0.777577 0.817658 0.123817
Si Si5 0.353994 0.819249 0.101448
Si Si6 0.355751 0.613210 0.178505
Si Si7 0.213147 0.301561 0.405252
O O1 0.131185 0.500000 0.804438
O O2 0.199558 0.694467 0.860125
O O3 0.840854 0.627572 0.797715
O O4 0.996039 0.650743 0.666335
O O5 0.279839 0.139964 0.187689
O O6 0.246479 0.188905 0.366370
O O7 0.946885 0.123518 0.210517
O O8 0.231962 0.000000 0.309475
O O9 0.321360 0.500000 0.575481
O O10 0.446506 0.635559 0.722663
O O11 0.613619 0.623198 0.594092
O O12 0.242119 0.694719 0.526337
O O13 0.574897 0.857054 0.129429
O O14 0.781186 0.850619 0.013051
O O15 0.352103 0.695959 0.095278
O O16 0.362732 0.500000 0.135726
#
# Coordination Sequence:
#
# PCOD8067233 Si02
#       7
#     4   4   4   4   4   4   4
#     4   9  16  30  50  78 112 148 178 213 264 324
#     4  11  23  40  59  80 107 140 184 239 287 327
#     4   9  14  25  52  88 117 145 179 216 258 322
#     4  10  23  36  58  81 107 146 185 229 279 338
#     4  11  21  39  56  81 111 142 186 231 280 326
#     4   9  17  30  54  85 117 152 187 217 264 327
#     4   9  15  28  51  81 110 141 180 220 267 324
#
# _framework density 22.131813000000001
#
# number of rings (size 3 to 8) (size 9 to 14) (size 15 to 20)
#    0.000    2.286    4.286    3.000    0.000    2.857 
#    0.000    5.714    0.000    3.429    0.000   10.000 
#    0.000    0.000    0.000    0.000    0.000    0.000 
#
# Total GULP energy -346874.195511 kJ/mol
# GULP energy per Si atom -12388.364125 kJ/mol
# Density = 2.208144 g / cm^3
# Si number density = 22.131813 Si / 1000 Ang^3
#
#
#
# Elastic Constant Matrix: (Units=GPa)
#
#
# Indices 1 2 3 4 5 6 
#
# 1 24.5414 0.6887 9.5655 0.0000 13.3495 0.0000
# 2 0.6887 105.0185 21.3614 0.0000 -2.8822 0.0000
# 3 9.5655 21.3614 67.3596 0.0000 11.4833 0.0000
# 4 0.0000 0.0000 0.0000 16.8257 0.0000 4.1530
# 5 13.3495 -2.8822 11.4833 0.0000 21.8845 0.0000
# 6 0.0000 0.0000 0.0000 4.1530 0.0000 8.2670
#
#
#
# Elastic Compliance Matrix: (Units=1/GPa)
#
#
# Indices 1 2 3 4 5 6 
#
# 1 0.061470 -0.000954 -0.002211 0.000000 -0.036462 0.000000
# 2 -0.000954 0.010420 -0.003846 0.000000 0.003972 0.000000
# 3 -0.002211 -0.003846 0.017831 0.000000 -0.008514 0.000000
# 4 0.000000 0.000000 0.000000 0.067845 0.000000 -0.034082
# 5 -0.036462 0.003972 -0.008514 0.000000 0.072927 0.000000
# 6 0.000000 0.000000 0.000000 -0.034082 0.000000 0.138084
#
#
# Mechanical properties :
#
#
# Convention : Reuss Voigt Hill
#
# Bulk Modulus (GPa) = 13.21026 28.90562 21.05794
# Shear Modulus (GPa) = 12.26000 20.41571 16.33785
#
# Velocity S-wave (km/s) = 2.35618 3.04050 2.71994
# Velocity P-wave (km/s) = 3.65841 5.04135 4.40449
#
# Compressibility (1/GPa) = 0.07569872
#
# Stress axis : x y z
#
# Youngs Moduli (GPa) = 16.26818 95.97183 56.08272
#
# Poissons Ratio (x) = 0.09157 0.12397
# Poissons Ratio (y) = 0.01552 0.21570
# Poissons Ratio (z) = 0.03596 0.36911
#
# Static dielectric constant tensor:
#      x y z
#    x 3.632460 0.000000 0.136440 
#    y 0.000000 3.902690 0.000000 
#    z 0.136440 0.000000 4.293150 
# 
# 
# High freq. dielectric constant tensor:
#      x y z
#    x 1.850290 0.000000 0.014210 
#    y 0.000000 1.846220 0.000000 
#    z 0.014210 0.000000 1.865730 
# 
# From -- ./inp_files/61612.got.cif
#   From: 2010.06.25/outbox.cif.g09.slc.cpg/sg10_31_cif.got.tgz:61612.got - 2010.06.27 22:07:45.
