data_PCOD8067596
_publ_section_title
;
Structure prediction by ZEFSAII (Michael W. Deem and Ramdas Pophale) SiO2 
 PCOD8067596
Probable space group: P 2/M
;
_chemical_formula_sum "Si O2"
_cell_formula_units_Z 24
_cell_length_a 17.382143
_cell_length_b 8.814278
_cell_length_c 24.950642
_cell_angle_alpha 90.000000
_cell_angle_beta 19.452733
_cell_angle_gamma 90.000000
_cell_volume 1273.074944
_symmetry_space_group_name_H-M "P 2/M"
_symmetry_group_IT_number 10
_symmetry_cell_setting 'monoclinic'
loop_
_space_group_symop_operation_xyz
x,y,z
-x,y,-z
-x,-y,-z
x,-y,z
loop_
_atom_site_type_symbol
_atom_site_label
_atom_site_fract_x
_atom_site_fract_y
_atom_site_fract_z
Si Si1 0.818665 0.179016 0.468483
Si Si2 0.329961 0.179127 0.957084
Si Si3 0.569394 0.676705 0.539462
Si Si4 0.286682 0.180153 0.106513
Si Si5 0.134020 0.676634 0.757184
Si Si6 0.219637 0.679488 0.390250
O O1 0.608763 0.227142 0.567524
O O2 0.799111 0.258918 0.537866
O O3 0.052351 0.239411 0.287250
O O4 0.816596 0.000000 0.478675
O O5 0.548985 0.257596 0.787507
O O6 0.363163 0.000000 0.931798
O O7 0.307380 0.239991 0.032535
O O8 0.096250 0.227140 0.079943
O O9 0.601963 0.500000 0.530776
O O10 0.309882 0.709990 0.690154
O O11 0.749352 0.728365 0.375303
O O12 0.290772 0.000000 0.104252
O O13 0.500000 0.247429 0.000000
O O14 0.071097 0.500000 0.796224
O O15 0.232107 0.500000 0.383671
O O16 0.000000 0.735970 0.500000
#
# Coordination Sequence:
#
# PCOD8067596 Si02
#       6
#     4   4   4   4   4   4
#     4  11  21  36  59  87 117 151 191 240 292 342
#     4  11  21  36  59  87 117 151 191 240 292 342
#     4   9  18  34  57  85 119 157 192 231 284 344
#     4   9  18  32  52  81 114 144 181 231 286 341
#     4   9  18  34  57  85 119 157 192 231 284 344
#     4  11  25  43  60  81 114 157 199 238 286 347
#
# _framework density 18.851994000000001
#
# number of rings (size 3 to 8) (size 9 to 14) (size 15 to 20)
#    0.000    2.000    1.667    3.500    0.000    3.333 
#    0.000    2.500    0.000    9.000    0.000    0.000 
#    0.000    0.000    0.000    0.000    0.000    0.000 
#
# Total GULP energy -297657.779078 kJ/mol
# GULP energy per Si atom -12402.407462 kJ/mol
# Density = 1.880909 g / cm^3
# Si number density = 18.851994 Si / 1000 Ang^3
#
#
#
# Elastic Constant Matrix: (Units=GPa)
#
#
# Indices 1 2 3 4 5 6 
#
# 1 143.8664 44.9609 81.4583 0.0000 -4.4789 0.0000
# 2 44.9609 58.9605 46.2313 0.0000 -1.5093 0.0000
# 3 81.4583 46.2313 149.3222 0.0000 0.9505 0.0000
# 4 0.0000 0.0000 0.0000 2559.1620 0.0000 1430.0335
# 5 -4.4789 -1.5093 0.9505 0.0000 34.1512 0.0000
# 6 0.0000 0.0000 0.0000 1430.0335 0.0000 836.3056
#
#
#
# Elastic Compliance Matrix: (Units=1/GPa)
#
#
# Indices 1 2 3 4 5 6 
#
# 1 0.011089 -0.004848 -0.004557 0.000000 0.001367 0.000000
# 2 -0.004848 0.024565 -0.004965 0.000000 0.000588 0.000000
# 3 -0.004557 -0.004965 0.010727 0.000000 -0.001116 0.000000
# 4 0.000000 0.000000 0.000000 0.008781 0.000000 -0.015014
# 5 0.001367 0.000588 -0.001116 0.000000 0.029518 0.000000
# 6 0.000000 0.000000 0.000000 -0.015014 0.000000 0.026869
#
#
# Mechanical properties :
#
#
# Convention : Reuss Voigt Hill
#
# Bulk Modulus (GPa) = 56.68263 77.49443 67.08853
# Shear Modulus (GPa) = 34.20735 697.89032 366.04884
#
# Velocity S-wave (km/s) = 4.26434 19.26131 13.94960
# Velocity P-wave (km/s) = 7.37418 23.14865 17.17904
#
# Compressibility (1/GPa) = 0.01764209
#
# Stress axis : x y z
#
# Youngs Moduli (GPa) = 90.18306 40.70817 93.22234
#
# Poissons Ratio (x) = 0.19734 0.42480
# Poissons Ratio (y) = 0.43717 0.46283
# Poissons Ratio (z) = 0.41095 0.20211
#
# Static dielectric constant tensor:
#      x y z
#    x 5.423270 0.000000 2.939990 
#    y 0.000000 3.261350 0.000000 
#    z 2.939990 0.000000 8.526610 
# 
# 
# High freq. dielectric constant tensor:
#      x y z
#    x 1.742000 0.000000 -0.012160 
#    y 0.000000 1.721460 0.000000 
#    z -0.012160 0.000000 1.728110 
# 
# From -- ./inp_files/84159.got.cif
#   From: 2010.06.25/outbox.cif.g09.slc.cpg/sg10_43_cif.got.tgz:84159.got - 2010.06.27 22:07:45.
