data_PCOD8067490
_publ_section_title
;
Structure prediction by ZEFSAII (Michael W. Deem and Ramdas Pophale) SiO2 
 PCOD8067490
Probable space group: P 2/M
;
_chemical_formula_sum "Si O2"
_cell_formula_units_Z 30
_cell_length_a 13.853846
_cell_length_b 24.750283
_cell_length_c 15.925656
_cell_angle_alpha 90.000000
_cell_angle_beta 17.858624
_cell_angle_gamma 90.000000
_cell_volume 1674.627516
_symmetry_space_group_name_H-M "P 2/M"
_symmetry_group_IT_number 10
_symmetry_cell_setting 'monoclinic'
loop_
_space_group_symop_operation_xyz
x,y,z
-x,y,-z
-x,-y,-z
x,-y,z
loop_
_atom_site_type_symbol
_atom_site_label
_atom_site_fract_x
_atom_site_fract_y
_atom_site_fract_z
Si Si1 0.787212 0.060864 0.093516
Si Si2 0.737202 0.560825 0.917824
Si Si3 0.362375 0.702249 0.854054
Si Si4 0.371321 0.331630 0.192098
Si Si5 0.698018 0.246839 0.421731
Si Si6 0.712678 0.123981 0.405720
Si Si7 0.633464 0.500000 0.299847
Si Si8 0.454676 0.584232 0.320666
O O1 0.482208 0.098690 0.356164
O O2 0.684523 0.000000 0.155421
O O3 0.000000 0.060428 0.000000
O O4 0.979913 0.086924 0.857678
O O5 0.684570 0.500000 0.923659
O O6 0.083381 0.582042 0.604919
O O7 0.488098 0.605846 0.093631
O O8 0.678859 0.556422 0.065848
O O9 0.515304 0.702701 0.820815
O O10 0.502004 0.743392 0.669703
O O11 0.425538 0.644226 0.761670
O O12 0.993477 0.713230 0.171306
O O13 0.000000 0.332140 0.500000
O O14 0.500000 0.303607 0.000000
O O15 0.500000 0.254492 0.500000
O O16 0.817237 0.185539 0.333616
O O17 0.500000 0.120697 0.500000
O O18 0.500000 0.500000 0.500000
O O19 0.497192 0.553408 0.371272
O O20 0.000000 0.500000 0.000000
#
# Coordination Sequence:
#
# PCOD8067490 Si02
#       8
#     4   4   4   4   4   4   2   4
#     4   9  15  24  40  64  96 136 179 218 260 303
#     4  11  20  37  61  76 101 131 151 190 253 322
#     4  11  23  39  59  77 105 141 174 222 275 316
#     4  11  23  39  58  84 109 131 169 211 264 338
#     4  11  22  37  56  79 106 141 191 233 264 302
#     4   9  17  28  43  66  98 134 177 229 260 288
#     4  12  24  36  54  76  98 130 168 212 266 314
#     4  11  22  39  53  74 101 130 164 205 257 320
#
# _framework density 17.914431
#
# number of rings (size 3 to 8) (size 9 to 14) (size 15 to 20)
#    0.000    1.467    1.333    6.400    0.000    5.867 
#    0.000    0.000    0.000    0.000    0.000    0.000 
#    0.000    0.000    0.000    0.000    0.000  168.000 
#
# Total GULP energy -371830.606433 kJ/mol
# GULP energy per Si atom -12394.353548 kJ/mol
# Density = 1.787366 g / cm^3
# Si number density = 17.914431 Si / 1000 Ang^3
#
#
#
# Elastic Constant Matrix: (Units=GPa)
#
#
# Indices 1 2 3 4 5 6 
#
# 1 95.5070 30.2536 33.1892 0.0000 8.8247 0.0000
# 2 30.2536 88.3459 34.7485 0.0000 0.1669 0.0000
# 3 33.1892 34.7485 126.5052 0.0000 7.4203 0.0000
# 4 0.0000 0.0000 0.0000 127.6832 0.0000 -72.6686
# 5 8.8247 0.1669 7.4203 0.0000 30.7855 0.0000
# 6 0.0000 0.0000 0.0000 -72.6686 0.0000 77.5752
#
#
#
# Elastic Compliance Matrix: (Units=1/GPa)
#
#
# Indices 1 2 3 4 5 6 
#
# 1 0.012605 -0.003454 -0.002178 0.000000 -0.003070 0.000000
# 2 -0.003454 0.013655 -0.002940 0.000000 0.001625 0.000000
# 3 -0.002178 -0.002940 0.009379 0.000000 -0.001620 0.000000
# 4 0.000000 0.000000 0.000000 0.016775 0.000000 0.015714
# 5 -0.003070 0.001625 -0.001620 0.000000 0.033744 0.000000
# 6 0.000000 0.000000 0.000000 0.015714 0.000000 0.027611
#
#
# Mechanical properties :
#
#
# Convention : Reuss Voigt Hill
#
# Bulk Modulus (GPa) = 54.06905 56.30450 55.18677
# Shear Modulus (GPa) = 36.47514 61.35324 48.91419
#
# Velocity S-wave (km/s) = 4.51719 5.85852 5.23103
# Velocity P-wave (km/s) = 7.57984 8.78982 8.20716
#
# Compressibility (1/GPa) = 0.01849487
#
# Stress axis : x y z
#
# Youngs Moduli (GPa) = 79.33290 73.23201 106.62275
#
# Poissons Ratio (x) = 0.25294 0.23225
# Poissons Ratio (y) = 0.27402 0.31346
# Poissons Ratio (z) = 0.17280 0.21530
#
# Static dielectric constant tensor:
#      x y z
#    x 3.352670 0.000000 0.261560 
#    y 0.000000 3.301180 0.000000 
#    z 0.261560 0.000000 3.520290 
# 
# 
# High freq. dielectric constant tensor:
#      x y z
#    x 1.661800 0.000000 0.029440 
#    y 0.000000 1.682700 0.000000 
#    z 0.029440 0.000000 1.710630 
# 
# From -- ./inp_files/65539.got.cif
#   From: 2010.06.25/outbox.cif.g09.slc.cpg/sg10_33_cif.got.tgz:65539.got - 2010.06.27 22:07:45.
