data_PCOD8067928
_publ_section_title
;
Structure prediction by ZEFSAII (Michael W. Deem and Ramdas Pophale) SiO2 
 PCOD8067928
Probable space group: P 2/M
;
_chemical_formula_sum "Si O2"
_cell_formula_units_Z 24
_cell_length_a 21.029468
_cell_length_b 7.551313
_cell_length_c 11.475238
_cell_angle_alpha 90.000000
_cell_angle_beta 132.542595
_cell_angle_gamma 90.000000
_cell_volume 1342.601946
_symmetry_space_group_name_H-M "P 2/M"
_symmetry_group_IT_number 10
_symmetry_cell_setting 'monoclinic'
loop_
_space_group_symop_operation_xyz
x,y,z
-x,y,-z
-x,-y,-z
x,-y,z
loop_
_atom_site_type_symbol
_atom_site_label
_atom_site_fract_x
_atom_site_fract_y
_atom_site_fract_z
Si Si1 0.047564 0.710596 0.887122
Si Si2 0.127537 0.709893 0.220673
Si Si3 0.611155 0.000000 0.022663
Si Si4 0.080708 0.710403 0.672375
Si Si5 0.260816 0.297385 0.789257
Si Si6 0.422112 0.000000 0.746390
Si Si7 0.293593 0.296594 0.559745
O O1 0.045063 0.500000 0.879674
O O2 0.077003 0.787857 0.799156
O O3 0.952118 0.782798 0.800613
O O4 0.115011 0.772046 0.071025
O O5 0.127193 0.500000 0.229360
O O6 0.218178 0.779389 0.382897
O O7 0.665415 0.823312 0.060718
O O8 0.586888 0.000000 0.127003
O O9 0.523356 0.000000 0.837495
O O10 0.075476 0.500000 0.667595
O O11 0.168996 0.772147 0.721597
O O12 0.000000 0.788011 0.500000
O O13 0.278856 0.500000 0.848827
O O14 0.259608 0.276727 0.648966
O O15 0.377695 0.822950 0.640341
O O16 0.318035 0.500000 0.562272
#
# Coordination Sequence:
#
# PCOD8067928 Si02
#       7
#     4   4   2   4   4   2   4
#     4   8  13  21  36  60  89 121 152 178 210 250
#     4   8  13  22  38  61  88 117 148 181 214 250
#     4   9  18  32  45  63  91 114 140 178 221 270
#     4   9  15  23  38  62  91 121 151 179 208 249
#     4   9  17  28  44  65  89 118 146 175 214 256
#     4   9  18  30  46  66  87 113 140 177 227 268
#     4   9  16  27  44  66  89 113 144 179 217 260
#
# _framework density 17.875738999999999
#
# number of rings (size 3 to 8) (size 9 to 14) (size 15 to 20)
#    0.000    3.333    0.000    2.000    0.000    4.667 
#    0.000    3.750    0.000    4.000    0.000    2.333 
#    0.000    6.667    0.000    0.000    0.000    0.000 
#
# Total GULP energy -297452.923935 kJ/mol
# GULP energy per Si atom -12393.871831 kJ/mol
# Density = 1.783505 g / cm^3
# Si number density = 17.875739 Si / 1000 Ang^3
#
#
#
# Elastic Constant Matrix: (Units=GPa)
#
#
# Indices 1 2 3 4 5 6 
#
# 1 80.4095 28.5516 66.5066 0.0000 13.1686 0.0000
# 2 28.5516 66.8980 47.6507 0.0000 16.0738 0.0000
# 3 66.5066 47.6507 152.7816 0.0000 27.0689 0.0000
# 4 0.0000 0.0000 0.0000 -27.8303 0.0000 -15.6418
# 5 13.1686 16.0738 27.0689 0.0000 33.9001 0.0000
# 6 0.0000 0.0000 0.0000 -15.6418 0.0000 -4.7436
#
#
#
# Elastic Compliance Matrix: (Units=1/GPa)
#
#
# Indices 1 2 3 4 5 6 
#
# 1 0.019887 -0.002959 -0.007704 0.000000 -0.000171 0.000000
# 2 -0.002959 0.020426 -0.004159 0.000000 -0.005215 0.000000
# 3 -0.007704 -0.004159 0.012016 0.000000 -0.004630 0.000000
# 4 0.000000 0.000000 0.000000 0.042109 0.000000 -0.138852
# 5 -0.000171 -0.005215 -0.004630 0.000000 0.035735 0.000000
# 6 0.000000 0.000000 0.000000 -0.138852 0.000000 0.247050
#
#
# Mechanical properties :
#
#
# Convention : Reuss Voigt Hill
#
# Bulk Modulus (GPa) = 44.07961 65.05631 54.56796
# Shear Modulus (GPa) = 12.06485 10.75725 11.41105
#
# Velocity S-wave (km/s) = 2.60076 2.45578 2.52931
# Velocity P-wave (km/s) = 5.80784 6.67187 6.25479
#
# Compressibility (1/GPa) = 0.02268622
#
# Stress axis : x y z
#
# Youngs Moduli (GPa) = 50.28489 48.95655 83.22191
#
# Poissons Ratio (x) = 0.14488 0.64110
# Poissons Ratio (y) = 0.14881 0.34608
# Poissons Ratio (z) = 0.38737 0.20359
#
# Static dielectric constant tensor:
#      x y z
#    x 3.229730 0.000000 0.060610 
#    y 0.000000 3.101860 0.000000 
#    z 0.060610 0.000000 3.571530 
# 
# 
# High freq. dielectric constant tensor:
#      x y z
#    x 1.655650 0.000000 0.006290 
#    y 0.000000 1.678560 0.000000 
#    z 0.006290 0.000000 1.684270 
# 
# From -- ./inp_files/55075.got.cif
#   From: 2010.06.25/outbox.cif.g09.slc.cpg/sg10_28_cif.got.tgz:55075.got - 2010.06.27 22:07:45.
