data_PCOD8067297
_publ_section_title
;
Structure prediction by ZEFSAII (Michael W. Deem and Ramdas Pophale) SiO2 
 PCOD8067297
Probable space group: P 2/M
;
_chemical_formula_sum "Si O2"
_cell_formula_units_Z 32
_cell_length_a 11.956846
_cell_length_b 8.769467
_cell_length_c 17.577822
_cell_angle_alpha 90.000000
_cell_angle_beta 65.172382
_cell_angle_gamma 90.000000
_cell_volume 1672.774925
_symmetry_space_group_name_H-M "P 2/M"
_symmetry_group_IT_number 10
_symmetry_cell_setting 'monoclinic'
loop_
_space_group_symop_operation_xyz
x,y,z
-x,y,-z
-x,-y,-z
x,-y,z
loop_
_atom_site_type_symbol
_atom_site_label
_atom_site_fract_x
_atom_site_fract_y
_atom_site_fract_z
Si Si1 0.369806 0.328431 0.997560
Si Si2 0.950108 0.677586 0.394884
Si Si3 0.920791 0.820736 0.097054
Si Si4 0.192634 0.322290 0.417026
Si Si5 0.982445 0.177145 0.765392
Si Si6 0.587637 0.820056 0.730493
Si Si7 0.733464 0.319761 0.823438
Si Si8 0.656777 0.681328 0.160661
O O1 0.327376 0.500000 0.992704
O O2 0.278760 0.256199 0.086322
O O3 0.500000 0.322493 0.000000
O O4 0.365248 0.246349 0.917631
O O5 0.954883 0.500000 0.373355
O O6 0.840001 0.710112 0.485812
O O7 0.916673 0.773149 0.327064
O O8 0.079190 0.730781 0.396366
O O9 0.990086 0.778077 0.155508
O O10 0.793410 0.731945 0.143599
O O11 0.894127 0.000000 0.098800
O O12 0.000000 0.766982 0.000000
O O13 0.217307 0.500000 0.395084
O O14 0.317897 0.232767 0.361820
O O15 0.870703 0.275969 0.762240
O O16 0.953005 0.000000 0.768104
O O17 0.633788 0.759816 0.798677
O O18 0.449686 0.753534 0.755435
O O19 0.579926 0.000000 0.732842
O O20 0.708518 0.500000 0.825687
O O21 0.644894 0.500000 0.169328
#
# Coordination Sequence:
#
# PCOD8067297 Si02
#       8
#     4   4   4   4   4   4   4   4
#     4   9  17  31  50  74 104 137 177 227 277 321
#     4   9  18  33  56  83 114 150 188 231 279 335
#     4  10  23  43  61  80 115 156 192 238 287 332
#     4   9  18  34  55  82 115 152 187 225 280 339
#     4  11  22  35  55  83 114 148 189 233 284 337
#     4  12  23  34  52  82 118 151 182 223 283 345
#     4  11  20  33  53  77 110 147 186 232 278 328
#     4  11  22  38  60  82 107 146 196 240 281 335
#
# _framework density 19.12989
#
# number of rings (size 3 to 8) (size 9 to 14) (size 15 to 20)
#    0.000    1.750    2.500    3.750    0.000    1.750 
#    0.000    3.750    0.000    0.750    0.000    5.250 
#    0.000    0.000    0.000    0.000    0.000    0.000 
#
# Total GULP energy -396548.693662 kJ/mol
# GULP energy per Si atom -12392.146677 kJ/mol
# Density = 1.908635 g / cm^3
# Si number density = 19.129890 Si / 1000 Ang^3
#
#
#
# Elastic Constant Matrix: (Units=GPa)
#
#
# Indices 1 2 3 4 5 6 
#
# 1 59.5870 37.3415 44.0300 0.0000 -14.9055 0.0000
# 2 37.3415 81.1169 43.8595 0.0000 -9.7754 0.0000
# 3 44.0300 43.8595 124.8803 0.0000 -5.6490 0.0000
# 4 0.0000 0.0000 0.0000 22.5275 0.0000 -0.3223
# 5 -14.9055 -9.7754 -5.6490 0.0000 34.6274 0.0000
# 6 0.0000 0.0000 0.0000 -0.3223 0.0000 26.2108
#
#
#
# Elastic Compliance Matrix: (Units=1/GPa)
#
#
# Indices 1 2 3 4 5 6 
#
# 1 0.029766 -0.008821 -0.006981 0.000000 0.009184 0.000000
# 2 -0.008821 0.018252 -0.003263 0.000000 0.000823 0.000000
# 3 -0.006981 -0.003263 0.011523 0.000000 -0.002047 0.000000
# 4 0.000000 0.000000 0.000000 0.044398 0.000000 0.000546
# 5 0.009184 0.000823 -0.002047 0.000000 0.032731 0.000000
# 6 0.000000 0.000000 0.000000 0.000546 0.000000 0.038159
#
#
# Mechanical properties :
#
#
# Convention : Reuss Voigt Hill
#
# Bulk Modulus (GPa) = 46.70744 57.33848 52.02296
# Shear Modulus (GPa) = 22.71738 26.03001 24.37369
#
# Velocity S-wave (km/s) = 3.44980 3.69277 3.57335
# Velocity P-wave (km/s) = 6.35115 6.94409 6.65423
#
# Compressibility (1/GPa) = 0.02140986
#
# Stress axis : x y z
#
# Youngs Moduli (GPa) = 33.59533 54.78819 86.78614
#
# Poissons Ratio (x) = 0.48329 0.60588
# Poissons Ratio (y) = 0.29635 0.28318
# Poissons Ratio (z) = 0.23454 0.17877
#
# Static dielectric constant tensor:
#      x y z
#    x 3.224510 0.000000 -0.090780 
#    y 0.000000 3.284230 0.000000 
#    z -0.090780 0.000000 4.050200 
# 
# 
# High freq. dielectric constant tensor:
#      x y z
#    x 1.708830 0.000000 -0.008610 
#    y 0.000000 1.729760 0.000000 
#    z -0.008610 0.000000 1.764160 
# 
# From -- ./inp_files/83339.got.cif
#   From: 2010.06.25/outbox.cif.g09.slc.cpg/sg10_42_cif.got.tgz:83339.got - 2010.06.27 22:07:45.
