data_PCOD8067482
_publ_section_title
;
Structure prediction by ZEFSAII (Michael W. Deem and Ramdas Pophale) SiO2 
 PCOD8067482
Probable space group: P 2/M
;
_chemical_formula_sum "Si O2"
_cell_formula_units_Z 32
_cell_length_a 20.288460
_cell_length_b 14.601964
_cell_length_c 24.253722
_cell_angle_alpha 90.000000
_cell_angle_beta 17.029342
_cell_angle_gamma 90.000000
_cell_volume 2104.267229
_symmetry_space_group_name_H-M "P 2/M"
_symmetry_group_IT_number 10
_symmetry_cell_setting 'monoclinic'
loop_
_space_group_symop_operation_xyz
x,y,z
-x,y,-z
-x,-y,-z
x,-y,z
loop_
_atom_site_type_symbol
_atom_site_label
_atom_site_fract_x
_atom_site_fract_y
_atom_site_fract_z
Si Si1 0.289791 0.901517 0.628450
Si Si2 0.710155 0.390970 0.867115
Si Si3 0.883164 0.901521 0.035077
Si Si4 0.901073 0.390973 0.521660
Si Si5 0.218762 0.708113 0.863502
Si Si6 0.074171 0.391450 0.087916
Si Si7 0.603562 0.609005 0.073221
Si Si8 0.610285 0.708104 0.471978
O O1 0.500000 0.909707 0.500000
O O2 0.320972 0.812185 0.565075
O O3 0.067396 0.883348 0.841303
O O4 0.270514 0.000000 0.611595
O O5 0.701282 0.500000 0.874226
O O6 0.942201 0.356110 0.653899
O O7 0.500000 0.352906 0.000000
O O8 0.695456 0.353343 0.941214
O O9 0.757909 0.000000 0.124197
O O10 0.723208 0.812188 0.162834
O O11 0.000000 0.909697 0.000000
O O12 0.899258 0.500000 0.525234
O O13 0.648776 0.353339 0.714556
O O14 0.000000 0.352898 0.500000
O O15 0.431746 0.669640 0.659130
O O16 0.000000 0.709551 0.000000
O O17 0.174048 0.642692 0.950480
O O18 0.067336 0.500000 0.091319
O O19 0.824064 0.357309 0.300469
O O20 0.235625 0.354338 0.007186
O O21 0.600984 0.500000 0.074502
O O22 0.500000 0.709563 0.500000
#
# Coordination Sequence:
#
# PCOD8067482 Si02
#       8
#     4   4   4   4   4   4   4   4
#     4   9  15  25  45  71  94 109 128 170 230 291
#     4   9  14  22  40  63  83 104 130 165 217 274
#     4   9  15  25  45  71  94 109 128 170 230 291
#     4   9  14  22  40  63  83 104 130 165 217 274
#     4  11  20  35  52  66  85 113 154 198 241 282
#     4  11  24  38  47  61  86 118 165 212 239 255
#     4   9  18  30  42  59  84 108 138 188 230 263
#     4  11  20  35  52  66  85 113 154 198 241 282
#
# _framework density 15.207193999999999
#
# number of rings (size 3 to 8) (size 9 to 14) (size 15 to 20)
#    0.000    2.250    3.750    2.250    0.000    3.500 
#    0.000    2.500    0.000    0.000    0.000    0.000 
#    0.000    0.000    0.000    0.000    0.000    5.000 
#
# Total GULP energy -396492.147425 kJ/mol
# GULP energy per Si atom -12390.379607 kJ/mol
# Density = 1.517258 g / cm^3
# Si number density = 15.207194 Si / 1000 Ang^3
#
#
#
# Elastic Constant Matrix: (Units=GPa)
#
#
# Indices 1 2 3 4 5 6 
#
# 1 85.1126 27.5472 57.0588 0.0000 3.4626 0.0000
# 2 27.5472 55.1445 27.9220 0.0000 0.1454 0.0000
# 3 57.0588 27.9220 134.2617 0.0000 15.2658 0.0000
# 4 0.0000 0.0000 0.0000 10.6933 0.0000 3.7142
# 5 3.4626 0.1454 15.2658 0.0000 23.0650 0.0000
# 6 0.0000 0.0000 0.0000 3.7142 0.0000 0.9400
#
#
#
# Elastic Compliance Matrix: (Units=1/GPa)
#
#
# Indices 1 2 3 4 5 6 
#
# 1 0.017960 -0.005601 -0.006667 0.000000 0.001752 0.000000
# 2 -0.005601 0.022193 -0.002503 0.000000 0.002358 0.000000
# 3 -0.006667 -0.002503 0.011556 0.000000 -0.006632 0.000000
# 4 0.000000 0.000000 0.000000 -0.251170 0.000000 0.992378
# 5 0.001752 0.002358 -0.006632 0.000000 0.047467 0.000000
# 6 0.000000 0.000000 0.000000 0.992378 0.000000 -2.857133
#
#
# Mechanical properties :
#
#
# Convention : Reuss Voigt Hill
#
# Bulk Modulus (GPa) = 45.11151 55.50832 50.30991
# Shear Modulus (GPa) = -1.68226 17.73907 8.02840
#
# Velocity S-wave (km/s) = -1.05291 3.41910 2.30018
# Velocity P-wave (km/s) = 5.31515 7.22271 6.34107
#
# Compressibility (1/GPa) = 0.02216729
#
# Stress axis : x y z
#
# Youngs Moduli (GPa) = 55.67869 45.05862 86.53315
#
# Poissons Ratio (x) = 0.25236 0.57693
# Poissons Ratio (y) = 0.31184 0.21662
# Poissons Ratio (z) = 0.37122 0.11280
#
# Static dielectric constant tensor:
#      x y z
#    x 2.792110 0.000000 0.132420 
#    y 0.000000 2.906930 0.000000 
#    z 0.132420 0.000000 3.139300 
# 
# 
# High freq. dielectric constant tensor:
#      x y z
#    x 1.547370 0.000000 0.019700 
#    y 0.000000 1.541760 0.000000 
#    z 0.019700 0.000000 1.599040 
# 
# From -- ./inp_files/79719.got.cif
#   From: 2010.06.25/outbox.cif.g09.slc.cpg/sg10_40_cif.got.tgz:79719.got - 2010.06.27 22:07:45.
