data_PCOD8067534
_publ_section_title
;
Structure prediction by ZEFSAII (Michael W. Deem and Ramdas Pophale) SiO2 
 PCOD8067534
Probable space group: P 2/M
;
_chemical_formula_sum "Si O2"
_cell_formula_units_Z 20
_cell_length_a 5.099105
_cell_length_b 13.749237
_cell_length_c 20.561860
_cell_angle_alpha 90.000000
_cell_angle_beta 60.110462
_cell_angle_gamma 90.000000
_cell_volume 1249.821281
_symmetry_space_group_name_H-M "P 2/M"
_symmetry_group_IT_number 10
_symmetry_cell_setting 'monoclinic'
loop_
_space_group_symop_operation_xyz
x,y,z
-x,y,-z
-x,-y,-z
x,-y,z
loop_
_atom_site_type_symbol
_atom_site_label
_atom_site_fract_x
_atom_site_fract_y
_atom_site_fract_z
Si Si1 0.252291 0.303792 0.413300
Si Si2 0.890090 0.387428 0.340501
Si Si3 0.137146 0.384431 0.172291
Si Si4 0.352943 0.105215 0.449448
Si Si5 0.185667 0.616115 0.915483
O O1 0.529484 0.376196 0.394247
O O2 0.400333 0.194876 0.393775
O O3 0.000000 0.315222 0.500000
O O4 0.091216 0.325128 0.365214
O O5 0.975368 0.500000 0.340206
O O6 0.978852 0.349181 0.258015
O O7 0.140018 0.500000 0.170221
O O8 0.475183 0.343406 0.124125
O O9 0.955281 0.342576 0.133512
O O10 0.500000 0.135206 0.500000
O O11 0.000000 0.090841 0.500000
O O12 0.488890 0.000000 0.408839
O O13 0.179664 0.500000 0.916874
O O14 0.000000 0.656928 0.000000
#
# Coordination Sequence:
#
# PCOD8067534 Si02
#       5
#     4   4   4   4   4
#     4  11  21  33  47  64  83 109 152 193 222 255
#     4  11  22  33  44  59  86 123 155 183 214 249
#     4   9  17  28  39  54  78 108 141 172 207 251
#     4   9  17  31  50  68  84 101 128 177 235 280
#     4   9  15  24  40  59  76  97 133 179 214 243
#
# _framework density 16.002288
#
# number of rings (size 3 to 8) (size 9 to 14) (size 15 to 20)
#    0.000    2.200    0.000    5.400    0.000    8.000 
#    0.000    0.000    0.000    0.000    0.000    0.000 
#    0.000    0.000    0.000    0.000    0.000   70.000 
#
# Total GULP energy -247875.752382 kJ/mol
# GULP energy per Si atom -12393.787619 kJ/mol
# Density = 1.596587 g / cm^3
# Si number density = 16.002288 Si / 1000 Ang^3
#
#
#
# Elastic Constant Matrix: (Units=GPa)
#
#
# Indices 1 2 3 4 5 6 
#
# 1 111.4533 16.5689 33.8616 0.0000 15.0833 0.0000
# 2 16.5689 46.1226 33.0049 0.0000 8.5574 0.0000
# 3 33.8616 33.0049 86.1992 0.0000 12.8109 0.0000
# 4 0.0000 0.0000 0.0000 1.5508 0.0000 4.3369
# 5 15.0833 8.5574 12.8109 0.0000 34.5174 0.0000
# 6 0.0000 0.0000 0.0000 4.3369 0.0000 18.6659
#
#
#
# Elastic Compliance Matrix: (Units=1/GPa)
#
#
# Indices 1 2 3 4 5 6 
#
# 1 0.010541 -0.000790 -0.003369 0.000000 -0.003160 0.000000
# 2 -0.000790 0.030292 -0.010820 0.000000 -0.003149 0.000000
# 3 -0.003369 -0.010820 0.017410 0.000000 -0.002307 0.000000
# 4 0.000000 0.000000 0.000000 1.841204 0.000000 -0.427794
# 5 -0.003160 -0.003149 -0.002307 0.000000 0.031989 0.000000
# 6 0.000000 0.000000 0.000000 -0.427794 0.000000 0.152969
#
#
# Mechanical properties :
#
#
# Convention : Reuss Voigt Hill
#
# Bulk Modulus (GPa) = 35.35361 45.62735 40.49048
# Shear Modulus (GPa) = 2.35428 21.63613 11.99520
#
# Velocity S-wave (km/s) = 1.21425 3.68103 2.74084
# Velocity P-wave (km/s) = 4.90986 6.82946 5.94762
#
# Compressibility (1/GPa) = 0.02828566
#
# Stress axis : x y z
#
# Youngs Moduli (GPa) = 94.86836 33.01174 57.43723
#
# Poissons Ratio (x) = 0.02607 0.19349
# Poissons Ratio (y) = 0.07492 0.62150
# Poissons Ratio (z) = 0.31959 0.35720
#
# Static dielectric constant tensor:
#      x y z
#    x 3.269620 0.000000 0.046760 
#    y 0.000000 3.033010 0.000000 
#    z 0.046760 0.000000 3.029880 
# 
# 
# High freq. dielectric constant tensor:
#      x y z
#    x 1.644380 0.000000 0.007690 
#    y 0.000000 1.559390 0.000000 
#    z 0.007690 0.000000 1.597170 
# 
# From -- ./inp_files/12536.got.cif
#   From: 2010.06.25/outbox.cif.g09.slc.cpg/sg10_7_cif.got.tgz:12536.got - 2010.06.27 22:07:45.
