data_PCOD8067637
_publ_section_title
;
Structure prediction by ZEFSAII (Michael W. Deem and Ramdas Pophale) SiO2 
 PCOD8067637
Probable space group: P 2/M
;
_chemical_formula_sum "Si O2"
_cell_formula_units_Z 28
_cell_length_a 12.244996
_cell_length_b 13.734466
_cell_length_c 10.001054
_cell_angle_alpha 90.000000
_cell_angle_beta 124.612920
_cell_angle_gamma 90.000000
_cell_volume 1384.268747
_symmetry_space_group_name_H-M "P 2/M"
_symmetry_group_IT_number 10
_symmetry_cell_setting 'monoclinic'
loop_
_space_group_symop_operation_xyz
x,y,z
-x,y,-z
-x,-y,-z
x,-y,z
loop_
_atom_site_type_symbol
_atom_site_label
_atom_site_fract_x
_atom_site_fract_y
_atom_site_fract_z
Si Si1 0.502109 0.612747 0.144688
Si Si2 0.859779 0.810946 0.454548
Si Si3 0.835457 0.190197 0.997215
Si Si4 0.117106 0.111985 0.245636
Si Si5 0.783742 0.391700 0.361151
Si Si6 0.786040 0.392734 0.042751
Si Si7 0.344324 0.885469 0.904714
O O1 0.522062 0.500000 0.126977
O O2 0.637536 0.640191 0.317491
O O3 0.361986 0.628963 0.121831
O O4 0.500000 0.669094 0.000000
O O5 0.822601 0.855334 0.571546
O O6 0.879783 0.693192 0.481616
O O7 0.739477 0.835402 0.271691
O O8 0.000000 0.854544 0.500000
O O9 0.812324 0.172508 0.823853
O O10 0.874324 0.304307 0.047872
O O11 0.704950 0.159022 0.988594
O O12 0.958930 0.127167 0.135302
O O13 0.150091 0.000000 0.244334
O O14 0.829347 0.500000 0.443305
O O15 0.779069 0.391343 0.197510
O O16 0.836669 0.500000 0.030126
O O17 0.317165 0.000000 0.881783
O O18 0.500000 0.862157 0.000000
#
# Coordination Sequence:
#
# PCOD8067637 Si02
#       7
#     4   4   4   4   4   4   4
#     4   7  12  23  45  76 111 151 193 232 281 344
#     4  12  23  38  62  94 122 160 206 255 312 367
#     4  11  21  39  64  90 119 163 208 248 309 371
#     4  11  24  42  63  85 118 163 213 258 305 372
#     4   9  17  30  51  84 123 157 194 245 301 355
#     4   9  16  29  53  87 121 154 196 243 294 363
#     4  11  24  40  63  95 125 155 206 270 313 352
#
# _framework density 20.227285999999999
#
# number of rings (size 3 to 8) (size 9 to 14) (size 15 to 20)
#    0.000    2.000    2.857    3.857    2.000    0.857 
#    0.000    3.571    0.000    2.571    0.000    3.000 
#    0.000    0.000    0.000    0.000    0.000    0.000 
#
# Total GULP energy -346900.972195 kJ/mol
# GULP energy per Si atom -12389.320436 kJ/mol
# Density = 2.018125 g / cm^3
# Si number density = 20.227286 Si / 1000 Ang^3
#
#
#
# Elastic Constant Matrix: (Units=GPa)
#
#
# Indices 1 2 3 4 5 6 
#
# 1 78.9831 21.1752 38.7126 0.0000 -7.6287 0.0000
# 2 21.1752 135.3240 22.4176 0.0000 -12.2788 0.0000
# 3 38.7126 22.4176 74.1026 0.0000 -7.9144 0.0000
# 4 0.0000 0.0000 0.0000 27.1452 0.0000 -0.8456
# 5 -7.6287 -12.2788 -7.9144 0.0000 26.3935 0.0000
# 6 0.0000 0.0000 0.0000 -0.8456 0.0000 21.6373
#
#
#
# Elastic Compliance Matrix: (Units=1/GPa)
#
#
# Indices 1 2 3 4 5 6 
#
# 1 0.017315 -0.001126 -0.008499 0.000000 0.001932 0.000000
# 2 -0.001126 0.008091 -0.001542 0.000000 0.002976 0.000000
# 3 -0.008499 -0.001542 0.018660 0.000000 0.002422 0.000000
# 4 0.000000 0.000000 0.000000 0.036884 0.000000 0.001441
# 5 0.001932 0.002976 0.002422 0.000000 0.040557 0.000000
# 6 0.000000 0.000000 0.000000 0.001441 0.000000 0.046273
#
#
# Mechanical properties :
#
#
# Convention : Reuss Voigt Hill
#
# Bulk Modulus (GPa) = 46.01244 50.33560 48.17402
# Shear Modulus (GPa) = 25.33478 28.77550 27.05514
#
# Velocity S-wave (km/s) = 3.54291 3.77584 3.66123
# Velocity P-wave (km/s) = 6.28756 6.62935 6.46072
#
# Compressibility (1/GPa) = 0.02173325
#
# Stress axis : x y z
#
# Youngs Moduli (GPa) = 57.75341 123.58887 53.59165
#
# Poissons Ratio (x) = 0.13919 0.45545
# Poissons Ratio (y) = 0.06504 0.08261
# Poissons Ratio (z) = 0.49082 0.19052
#
# Static dielectric constant tensor:
#      x y z
#    x 3.708260 0.000000 0.203440 
#    y 0.000000 4.037180 0.000000 
#    z 0.203440 0.000000 3.407500 
# 
# 
# High freq. dielectric constant tensor:
#      x y z
#    x 1.768160 0.000000 0.017130 
#    y 0.000000 1.810600 0.000000 
#    z 0.017130 0.000000 1.746950 
# 
# From -- ./inp_files/25414.got.cif
#   From: 2010.06.25/outbox.cif.g09.slc.cpg/sg10_13_cif.got.tgz:25414.got - 2010.06.27 22:07:45.
