data_PCOD8067348
_publ_section_title
;
Structure prediction by ZEFSAII (Michael W. Deem and Ramdas Pophale) SiO2 
 PCOD8067348
Probable space group: P 2/M
;
_chemical_formula_sum "Si O2"
_cell_formula_units_Z 28
_cell_length_a 16.933993
_cell_length_b 8.707425
_cell_length_c 9.230969
_cell_angle_alpha 90.000000
_cell_angle_beta 80.993753
_cell_angle_gamma 90.000000
_cell_volume 1344.339116
_symmetry_space_group_name_H-M "P 2/M"
_symmetry_group_IT_number 10
_symmetry_cell_setting 'monoclinic'
loop_
_space_group_symop_operation_xyz
x,y,z
-x,y,-z
-x,-y,-z
x,-y,z
loop_
_atom_site_type_symbol
_atom_site_label
_atom_site_fract_x
_atom_site_fract_y
_atom_site_fract_z
Si Si1 0.428922 0.827758 0.632771
Si Si2 0.529216 0.669382 0.830525
Si Si3 0.861713 0.820204 0.204590
Si Si4 0.273658 0.678502 0.564359
Si Si5 0.993714 0.320771 0.669905
Si Si6 0.852535 0.177047 0.873016
Si Si7 0.698244 0.176512 0.741280
O O1 0.500000 0.817136 0.500000
O O2 0.465330 0.781021 0.775415
O O3 0.360291 0.711654 0.605704
O O4 0.393755 0.000000 0.653039
O O5 0.527995 0.500000 0.758428
O O6 0.619221 0.728745 0.796615
O O7 0.500000 0.658058 0.000000
O O8 0.792340 0.725941 0.301200
O O9 0.945737 0.779394 0.252671
O O10 0.844329 0.000000 0.225888
O O11 0.863537 0.771692 0.035789
O O12 0.265133 0.500000 0.532771
O O13 0.260352 0.770229 0.419530
O O14 0.013057 0.500000 0.683984
O O15 0.000000 0.273062 0.500000
O O16 0.905591 0.283514 0.753678
O O17 0.760280 0.201019 0.854511
O O18 0.878164 0.000000 0.844177
O O19 0.673253 0.000000 0.731371
#
# Coordination Sequence:
#
# PCOD8067348 Si02
#       7
#     4   4   4   4   4   4   4
#     4  11  23  41  66  93 122 166 217 263 314 376
#     4  11  25  42  62  93 129 166 210 263 323 378
#     4  11  24  43  66  95 129 166 209 258 310 373
#     4  12  25  41  64  94 128 165 209 264 321 376
#     4  11  24  42  66  97 130 166 208 254 309 371
#     4  10  24  43  65  94 127 165 209 258 310 368
#     4  11  23  42  65  92 124 167 215 260 313 377
#
# _framework density 20.828078000000001
#
# number of rings (size 3 to 8) (size 9 to 14) (size 15 to 20)
#    0.000    1.000    1.429    4.714    2.000    9.143 
#    0.000    0.000    0.000    0.000    0.000    0.000 
#    0.000    0.000    0.000    0.000    0.000    0.000 
#
# Total GULP energy -347379.799469 kJ/mol
# GULP energy per Si atom -12406.421410 kJ/mol
# Density = 2.078067 g / cm^3
# Si number density = 20.828078 Si / 1000 Ang^3
#
#
#
# Elastic Constant Matrix: (Units=GPa)
#
#
# Indices 1 2 3 4 5 6 
#
# 1 81.6048 19.3505 34.3183 0.0000 10.3577 0.0000
# 2 19.3505 59.3356 25.5417 0.0000 -4.6114 0.0000
# 3 34.3183 25.5417 115.8277 0.0000 8.4200 0.0000
# 4 0.0000 0.0000 0.0000 33.0690 0.0000 -4.6542
# 5 10.3577 -4.6114 8.4200 0.0000 38.2014 0.0000
# 6 0.0000 0.0000 0.0000 -4.6542 0.0000 37.6907
#
#
#
# Elastic Compliance Matrix: (Units=1/GPa)
#
#
# Indices 1 2 3 4 5 6 
#
# 1 0.015035 -0.003755 -0.003351 0.000000 -0.003791 0.000000
# 2 -0.003755 0.019953 -0.003594 0.000000 0.004219 0.000000
# 3 -0.003351 -0.003594 0.010553 0.000000 -0.001851 0.000000
# 4 0.000000 0.000000 0.000000 0.030775 0.000000 0.003800
# 5 -0.003791 0.004219 -0.001851 0.000000 0.028122 0.000000
# 6 0.000000 0.000000 0.000000 0.003800 0.000000 0.027001
#
#
# Mechanical properties :
#
#
# Convention : Reuss Voigt Hill
#
# Bulk Modulus (GPa) = 41.42354 46.13210 43.77782
# Shear Modulus (GPa) = 31.07768 33.62939 32.35354
#
# Velocity S-wave (km/s) = 3.86697 4.02259 3.94555
# Velocity P-wave (km/s) = 6.31422 6.61605 6.46690
#
# Compressibility (1/GPa) = 0.02414086
#
# Stress axis : x y z
#
# Youngs Moduli (GPa) = 66.51092 50.11799 94.75566
#
# Poissons Ratio (x) = 0.18821 0.31753
# Poissons Ratio (y) = 0.24978 0.34054
# Poissons Ratio (z) = 0.22288 0.18012
#
# Static dielectric constant tensor:
#      x y z
#    x 4.541620 0.000000 0.306100 
#    y 0.000000 3.934500 0.000000 
#    z 0.306100 0.000000 3.943200 
# 
# 
# High freq. dielectric constant tensor:
#      x y z
#    x 1.825400 0.000000 0.003600 
#    y 0.000000 1.825140 0.000000 
#    z 0.003600 0.000000 1.824220 
# 
# From -- ./inp_files/31524.got.cif
#   From: 2010.06.25/outbox.cif.g09.slc.cpg/sg10_16_cif.got.tgz:31524.got - 2010.06.27 22:07:45.
