data_PCOD8067996
_publ_section_title
;
Structure prediction by ZEFSAII (Michael W. Deem and Ramdas Pophale) SiO2 
 PCOD8067996
Probable space group: P 2/M
;
_chemical_formula_sum "Si O2"
_cell_formula_units_Z 32
_cell_length_a 24.069749
_cell_length_b 9.362282
_cell_length_c 29.245577
_cell_angle_alpha 90.000000
_cell_angle_beta 162.495140
_cell_angle_gamma 90.000000
_cell_volume 1982.312395
_symmetry_space_group_name_H-M "P 2/M"
_symmetry_group_IT_number 10
_symmetry_cell_setting 'monoclinic'
loop_
_space_group_symop_operation_xyz
x,y,z
-x,y,-z
-x,-y,-z
x,-y,z
loop_
_atom_site_type_symbol
_atom_site_label
_atom_site_fract_x
_atom_site_fract_y
_atom_site_fract_z
Si Si1 0.859319 0.167572 0.429650
Si Si2 0.158351 0.169771 0.158368
Si Si3 0.801752 0.334305 0.570152
Si Si4 0.565000 0.167568 0.452121
Si Si5 0.472790 0.340870 0.812952
Si Si6 0.166765 0.340870 0.506891
Si Si7 0.124610 0.334307 0.892972
Si Si8 0.886629 0.832433 0.773708
O O1 0.658884 0.237496 0.259752
O O2 0.937515 0.237508 0.538412
O O3 0.000000 0.205494 0.500000
O O4 0.834915 0.000000 0.417456
O O5 0.359230 0.224773 0.300373
O O6 0.123564 0.224753 0.182487
O O7 0.157409 0.000000 0.157415
O O8 0.000000 0.229741 0.000000
O O9 0.744614 0.500000 0.524199
O O10 0.635007 0.247101 0.461806
O O11 0.840001 0.275988 0.549218
O O12 0.988325 0.307565 0.744130
O O13 0.694399 0.204243 0.597213
O O14 0.566875 0.000000 0.443399
O O15 0.480707 0.500000 0.841392
O O16 0.381821 0.350257 0.690953
O O17 0.676942 0.275998 0.967785
O O18 0.076754 0.500000 0.437385
O O19 0.137052 0.500000 0.916587
O O20 0.057858 0.247107 0.884607
O O21 0.927140 0.000000 0.803614
#
# Coordination Sequence:
#
# PCOD8067996 Si02
#       8
#     4   4   4   4   4   4   4   4
#     4   9  17  29  47  71  95 118 149 186 219 253
#     4   9  17  29  44  63  86 112 146 189 230 266
#     4   9  17  30  47  67  92 119 147 184 227 267
#     4   9  17  29  45  63  84 114 150 184 222 271
#     4   8  16  29  45  66  90 119 151 180 216 261
#     4   8  16  29  45  66  90 119 151 180 216 261
#     4   9  17  30  47  67  92 119 147 184 227 267
#     4   9  17  29  45  63  84 114 150 184 222 271
#
# _framework density 16.142762999999999
#
# number of rings (size 3 to 8) (size 9 to 14) (size 15 to 20)
#    0.750    2.500    0.000    0.375    0.000    4.500 
#    0.000    0.625    0.000    4.500    0.000    5.250 
#    0.000    0.000    0.000    0.000    0.000    0.000 
#
# Total GULP energy -396547.938967 kJ/mol
# GULP energy per Si atom -12392.123093 kJ/mol
# Density = 1.610602 g / cm^3
# Si number density = 16.142763 Si / 1000 Ang^3
#
#
#
# Elastic Constant Matrix: (Units=GPa)
#
#
# Indices 1 2 3 4 5 6 
#
# 1 144.6205 56.8475 63.5938 0.0000 16.6611 0.0000
# 2 56.8475 53.6501 36.9482 0.0000 13.7349 0.0000
# 3 63.5938 36.9482 89.3362 0.0000 21.5460 0.0000
# 4 0.0000 0.0000 0.0000 16.7875 0.0000 3.2032
# 5 16.6611 13.7349 21.5460 0.0000 25.1466 0.0000
# 6 0.0000 0.0000 0.0000 3.2032 0.0000 21.4406
#
#
#
# Elastic Compliance Matrix: (Units=1/GPa)
#
#
# Indices 1 2 3 4 5 6 
#
# 1 0.013386 -0.010876 -0.005451 0.000000 0.001742 0.000000
# 2 -0.010876 0.035716 -0.005121 0.000000 -0.007914 0.000000
# 3 -0.005451 -0.005121 0.019722 0.000000 -0.010489 0.000000
# 4 0.000000 0.000000 0.000000 0.061316 0.000000 -0.009161
# 5 0.001742 -0.007914 -0.010489 0.000000 0.051923 0.000000
# 6 0.000000 0.000000 0.000000 -0.009161 0.000000 0.048009
#
#
# Mechanical properties :
#
#
# Convention : Reuss Voigt Hill
#
# Bulk Modulus (GPa) = 38.56749 66.93173 52.74961
# Shear Modulus (GPa) = 17.75510 21.35609 19.55559
#
# Velocity S-wave (km/s) = 3.32004 3.64119 3.48432
# Velocity P-wave (km/s) = 6.21613 7.69610 6.99537
#
# Compressibility (1/GPa) = 0.02592857
#
# Stress axis : x y z
#
# Youngs Moduli (GPa) = 74.70584 27.99866 50.70597
#
# Poissons Ratio (x) = 0.30450 0.27638
# Poissons Ratio (y) = 0.81247 0.25967
# Poissons Ratio (z) = 0.40720 0.14338
#
# Static dielectric constant tensor:
#      x y z
#    x 3.005110 0.000000 0.002440 
#    y 0.000000 2.903350 0.000000 
#    z 0.002440 0.000000 3.001650 
# 
# 
# High freq. dielectric constant tensor:
#      x y z
#    x 1.611930 0.000000 0.003230 
#    y 0.000000 1.605910 0.000000 
#    z 0.003230 0.000000 1.607240 
# 
# From -- ./inp_files/93830.got.cif
#   From: 2010.06.25/outbox.cif.g09.slc.cpg/sg10_47_cif.got.tgz:93830.got - 2010.06.27 22:07:45.
