data_PCOD8067926
_publ_section_title
;
Structure prediction by ZEFSAII (Michael W. Deem and Ramdas Pophale) SiO2 
 PCOD8067926
Probable space group: P 2/M
;
_chemical_formula_sum "Si O2"
_cell_formula_units_Z 28
_cell_length_a 25.070695
_cell_length_b 9.391303
_cell_length_c 21.393531
_cell_angle_alpha 90.000000
_cell_angle_beta 163.624534
_cell_angle_gamma 90.000000
_cell_volume 1420.093682
_symmetry_space_group_name_H-M "P 2/M"
_symmetry_group_IT_number 10
_symmetry_cell_setting 'monoclinic'
loop_
_space_group_symop_operation_xyz
x,y,z
-x,y,-z
-x,-y,-z
x,-y,z
loop_
_atom_site_type_symbol
_atom_site_label
_atom_site_fract_x
_atom_site_fract_y
_atom_site_fract_z
Si Si1 0.073961 0.668242 0.147962
Si Si2 0.284413 0.340306 0.858210
Si Si3 0.863605 0.340309 0.437625
Si Si4 0.471188 0.333466 0.646283
Si Si5 0.877837 0.666451 0.052811
Si Si6 0.593479 0.159665 0.897569
Si Si7 0.986039 0.840368 0.682154
O O1 0.068305 0.500000 0.135515
O O2 0.289429 0.717258 0.402480
O O3 0.000000 0.737793 0.000000
O O4 0.935316 0.716418 0.048058
O O5 0.368209 0.500000 0.956011
O O6 0.272308 0.290120 0.772164
O O7 0.077726 0.340187 0.655347
O O8 0.419314 0.234471 0.048851
O O9 0.807937 0.500000 0.396035
O O10 0.840405 0.234519 0.470256
O O11 0.461626 0.500000 0.652414
O O12 0.656688 0.298108 0.813874
O O13 0.468276 0.248034 0.707890
O O14 0.918671 0.500000 0.109577
O O15 0.009968 0.752148 0.249276
O O16 0.512165 0.000000 0.811757
O O17 0.807615 0.157117 0.115494
O O18 0.913701 0.000000 0.614342
#
# Coordination Sequence:
#
# PCOD8067926 Si02
#       7
#     4   4   4   4   4   4   4
#     4   9  18  32  51  77 102 121 152 197 237 280
#     4   8  13  21  34  55  86 123 161 201 243 285
#     4   8  13  21  34  55  86 123 161 201 243 285
#     4   9  17  30  49  71  96 127 159 193 236 283
#     4   9  17  30  49  71  96 127 159 193 236 283
#     4   9  16  25  39  61  90 124 162 202 239 279
#     4   9  16  25  39  61  90 124 162 202 239 279
#
# _framework density 19.717008
#
# number of rings (size 3 to 8) (size 9 to 14) (size 15 to 20)
#    0.000    3.286    0.000    1.714    0.000    4.571 
#    0.000    6.429    0.000    1.714    0.000    5.000 
#    0.000    8.000    0.000    0.857    0.000    0.000 
#
# Total GULP energy -347062.281260 kJ/mol
# GULP energy per Si atom -12395.081474 kJ/mol
# Density = 1.967213 g / cm^3
# Si number density = 19.717008 Si / 1000 Ang^3
#
#
#
# Elastic Constant Matrix: (Units=GPa)
#
#
# Indices 1 2 3 4 5 6 
#
# 1 96.4014 63.2977 110.3882 0.0000 -53.9456 0.0000
# 2 63.2977 99.8967 46.2114 0.0000 -29.5843 0.0000
# 3 110.3882 46.2114 57.4542 0.0000 -18.9524 0.0000
# 4 0.0000 0.0000 0.0000 4.5599 0.0000 -3.3130
# 5 -53.9456 -29.5843 -18.9524 0.0000 36.8427 0.0000
# 6 0.0000 0.0000 0.0000 -3.3130 0.0000 6.5398
#
#
#
# Elastic Compliance Matrix: (Units=1/GPa)
#
#
# Indices 1 2 3 4 5 6 
#
# 1 -0.006848 -0.004122 0.014541 0.000000 -0.005857 0.000000
# 2 -0.004122 0.015375 -0.002849 0.000000 0.004845 0.000000
# 3 0.014541 -0.002849 -0.002375 0.000000 0.017781 0.000000
# 4 0.000000 0.000000 0.000000 0.347034 0.000000 0.175802
# 5 -0.005857 0.004845 0.017781 0.000000 0.031604 0.000000
# 6 0.000000 0.000000 0.000000 0.175802 0.000000 0.241968
#
#
# Mechanical properties :
#
#
# Convention : Reuss Voigt Hill
#
# Bulk Modulus (GPa) = 46.96684 77.06076 62.01380
# Shear Modulus (GPa) = 8.08127 11.84549 9.96338
#
# Velocity S-wave (km/s) = 2.02670 2.45373 2.25037
# Velocity P-wave (km/s) = 5.41746 6.86993 6.18647
#
# Compressibility (1/GPa) = 0.02129162
#
# Stress axis : x y z
#
# Youngs Moduli (GPa) = -146.02569 65.04202 -421.00740
#
# Poissons Ratio (x) = 0.26808 6.12169
# Poissons Ratio (y) = -0.60187 -1.19934
# Poissons Ratio (z) = 2.12330 0.18529
#
# Static dielectric constant tensor:
#      x y z
#    x 3.652450 0.000000 -0.327590 
#    y 0.000000 3.585270 0.000000 
#    z -0.327590 0.000000 3.462230 
# 
# 
# High freq. dielectric constant tensor:
#      x y z
#    x 1.760600 0.000000 -0.012900 
#    y 0.000000 1.742670 0.000000 
#    z -0.012900 0.000000 1.753030 
# 
# From -- ./inp_files/86550.got.cif
#   From: 2010.06.25/outbox.cif.g09.slc.cpg/sg10_44_cif.got.tgz:86550.got - 2010.06.27 22:07:45.
