data_PCOD8067046
_publ_section_title
;
Structure prediction by ZEFSAII (Michael W. Deem and Ramdas Pophale) SiO2 
 PCOD8067046
Probable space group: P 2/M
;
_chemical_formula_sum "Si O2"
_cell_formula_units_Z 28
_cell_length_a 8.929963
_cell_length_b 19.165345
_cell_length_c 15.228831
_cell_angle_alpha 90.000000
_cell_angle_beta 30.032092
_cell_angle_gamma 90.000000
_cell_volume 1304.439457
_symmetry_space_group_name_H-M "P 2/M"
_symmetry_group_IT_number 10
_symmetry_cell_setting 'monoclinic'
loop_
_space_group_symop_operation_xyz
x,y,z
-x,y,-z
-x,-y,-z
x,-y,z
loop_
_atom_site_type_symbol
_atom_site_label
_atom_site_fract_x
_atom_site_fract_y
_atom_site_fract_z
Si Si1 0.609257 0.839065 0.530975
Si Si2 0.645394 0.077998 0.684974
Si Si3 0.773296 0.290575 0.234221
Si Si4 0.578212 0.701397 0.144115
Si Si5 0.158973 0.574996 0.684436
Si Si6 0.179161 0.419578 0.321332
Si Si7 0.688658 0.176251 0.815035
O O1 0.500000 0.882468 0.500000
O O2 0.517096 0.878024 0.667679
O O3 0.419150 0.766932 0.616890
O O4 0.962540 0.829985 0.341581
O O5 0.558656 0.112616 0.822126
O O6 0.000000 0.075790 0.500000
O O7 0.510173 0.000000 0.750282
O O8 0.574492 0.307182 0.250424
O O9 0.862250 0.361427 0.238428
O O10 0.106862 0.264185 0.043762
O O11 0.485923 0.624965 0.154874
O O12 0.329280 0.754576 0.235231
O O13 0.500000 0.558222 0.500000
O O14 0.013814 0.500000 0.790025
O O15 0.022004 0.597422 0.660746
O O16 0.274266 0.500000 0.278675
O O17 0.000000 0.396875 0.500000
O O18 0.500000 0.181086 0.000000
#
# Coordination Sequence:
#
# PCOD8067046 Si02
#       7
#     4   4   4   4   4   4   4
#     4  11  23  40  66  97 134 175 216 264 322 387
#     4   9  20  42  69  97 133 176 217 260 319 387
#     4  11  24  41  60  90 126 169 213 272 326 386
#     4  11  25  39  62  90 126 165 216 271 325 382
#     4  10  22  39  60  88 122 164 213 267 324 385
#     4  10  23  40  61  90 125 168 219 270 330 397
#     4  11  24  41  66 100 133 170 217 267 321 388
#
# _framework density 21.465159
#
# number of rings (size 3 to 8) (size 9 to 14) (size 15 to 20)
#    0.000    1.571    1.429    2.143    8.000    2.857 
#    0.000    2.857    0.000    6.000    0.000    0.000 
#    0.000    0.000    0.000    0.000    0.000    0.000 
#
# Total GULP energy -346933.325204 kJ/mol
# GULP energy per Si atom -12390.475900 kJ/mol
# Density = 2.141630 g / cm^3
# Si number density = 21.465159 Si / 1000 Ang^3
#
#
#
# Elastic Constant Matrix: (Units=GPa)
#
#
# Indices 1 2 3 4 5 6 
#
# 1 176.3277 63.2318 43.6340 0.0000 10.9570 0.0000
# 2 63.2318 121.0136 31.9052 0.0000 6.7307 0.0000
# 3 43.6340 31.9052 67.7949 0.0000 0.0746 0.0000
# 4 0.0000 0.0000 0.0000 22.2200 0.0000 6.9637
# 5 10.9570 6.7307 0.0746 0.0000 33.2978 0.0000
# 6 0.0000 0.0000 0.0000 6.9637 0.0000 19.3897
#
#
#
# Elastic Compliance Matrix: (Units=1/GPa)
#
#
# Indices 1 2 3 4 5 6 
#
# 1 0.007752 -0.003000 -0.003575 0.000000 -0.001936 0.000000
# 2 -0.003000 0.010717 -0.003111 0.000000 -0.001172 0.000000
# 3 -0.003575 -0.003111 0.018514 0.000000 0.001764 0.000000
# 4 0.000000 0.000000 0.000000 0.050712 0.000000 -0.018213
# 5 -0.001936 -0.001172 0.001764 0.000000 0.030902 0.000000
# 6 0.000000 0.000000 0.000000 -0.018213 0.000000 0.058115
#
#
# Mechanical properties :
#
#
# Convention : Reuss Voigt Hill
#
# Bulk Modulus (GPa) = 56.78874 71.40871 64.09872
# Shear Modulus (GPa) = 24.75794 30.07251 27.41523
#
# Velocity S-wave (km/s) = 3.39986 3.74704 3.57767
# Velocity P-wave (km/s) = 6.47501 7.21526 6.85513
#
# Compressibility (1/GPa) = 0.01760912
#
# Stress axis : x y z
#
# Youngs Moduli (GPa) = 128.99406 93.31244 54.01408
#
# Poissons Ratio (x) = 0.27997 0.19312
# Poissons Ratio (y) = 0.38703 0.16804
# Poissons Ratio (z) = 0.46120 0.29030
#
# Static dielectric constant tensor:
#      x y z
#    x 4.148910 0.000000 0.001040 
#    y 0.000000 4.096570 0.000000 
#    z 0.001040 0.000000 3.516110 
# 
# 
# High freq. dielectric constant tensor:
#      x y z
#    x 1.867910 0.000000 0.002380 
#    y 0.000000 1.835380 0.000000 
#    z 0.002380 0.000000 1.822090 
# 
# From -- ./inp_files/62544.got.cif
#   From: 2010.06.25/outbox.cif.g09.slc.cpg/sg10_32_cif.got.tgz:62544.got - 2010.06.27 22:07:45.
