data_PCOD8067213
_publ_section_title
;
Structure prediction by ZEFSAII (Michael W. Deem and Ramdas Pophale) SiO2 
 PCOD8067213
Probable space group: P 2/M
;
_chemical_formula_sum "Si O2"
_cell_formula_units_Z 16
_cell_length_a 4.921279
_cell_length_b 20.330773
_cell_length_c 8.224888
_cell_angle_alpha 90.000000
_cell_angle_beta 59.358032
_cell_angle_gamma 90.000000
_cell_volume 708.021738
_symmetry_space_group_name_H-M "P 2/M"
_symmetry_group_IT_number 10
_symmetry_cell_setting 'monoclinic'
loop_
_space_group_symop_operation_xyz
x,y,z
-x,y,-z
-x,-y,-z
x,-y,z
loop_
_atom_site_type_symbol
_atom_site_label
_atom_site_fract_x
_atom_site_fract_y
_atom_site_fract_z
Si Si1 0.500000 0.263168 0.500000
Si Si2 0.000000 0.651826 0.500000
Si Si3 0.120318 0.843254 0.794992
Si Si4 0.706524 0.073856 0.709466
Si Si5 0.130046 0.425327 0.129646
O O1 0.322442 0.305755 0.415986
O O2 0.778884 0.219100 0.340763
O O3 0.985218 0.610817 0.671795
O O4 0.402416 0.896015 0.714804
O O5 0.807230 0.880423 0.827894
O O6 0.000000 0.813811 0.000000
O O7 0.000000 0.073919 0.500000
O O8 0.625112 0.000000 0.792094
O O9 0.004678 0.500000 0.183929
O O10 0.500000 0.422420 0.000000
O O11 0.000000 0.393923 0.000000
#
# Coordination Sequence:
#
# PCOD8067213 Si02
#       5
#     2   2   4   4   4
#     4  12  26  44  62  92 132 176 226 270 312 386
#     4  12  25  42  70  94 133 182 224 268 322 392
#     4  12  25  43  65  90 126 169 214 268 329 390
#     4  11  22  41  68  94 125 160 205 272 339 399
#     4  10  22  42  69 103 138 169 214 274 331 387
#
# _framework density 22.598175999999999
#
# number of rings (size 3 to 8) (size 9 to 14) (size 15 to 20)
#    0.000    0.750    2.500    4.875    0.000    8.000 
#    0.000    5.000    0.000    0.000    0.000    0.000 
#    0.000    0.000    0.000    0.000    0.000    0.000 
#
# Total GULP energy -198389.701525 kJ/mol
# GULP energy per Si atom -12399.356345 kJ/mol
# Density = 2.254674 g / cm^3
# Si number density = 22.598176 Si / 1000 Ang^3
#
#
#
# Elastic Constant Matrix: (Units=GPa)
#
#
# Indices 1 2 3 4 5 6 
#
# 1 132.3558 45.7165 19.8059 0.0000 20.2428 0.0000
# 2 45.7165 108.7178 43.6636 0.0000 16.1429 0.0000
# 3 19.8059 43.6636 113.5723 0.0000 28.9445 0.0000
# 4 0.0000 0.0000 0.0000 10.0701 0.0000 2.4913
# 5 20.2428 16.1429 28.9445 0.0000 42.1260 0.0000
# 6 0.0000 0.0000 0.0000 2.4913 0.0000 48.4087
#
#
#
# Elastic Compliance Matrix: (Units=1/GPa)
#
#
# Indices 1 2 3 4 5 6 
#
# 1 0.009249 -0.003641 0.000684 0.000000 -0.003519 0.000000
# 2 -0.003641 0.012398 -0.004081 0.000000 -0.000197 0.000000
# 3 0.000684 -0.004081 0.012050 0.000000 -0.007044 0.000000
# 4 0.000000 0.000000 0.000000 0.100584 0.000000 -0.005176
# 5 -0.003519 -0.000197 -0.007044 0.000000 0.030345 0.000000
# 6 0.000000 0.000000 0.000000 -0.005176 0.000000 0.020924
#
#
# Mechanical properties :
#
#
# Convention : Reuss Voigt Hill
#
# Bulk Modulus (GPa) = 50.97051 63.66866 57.31958
# Shear Modulus (GPa) = 24.25226 36.48498 30.36862
#
# Velocity S-wave (km/s) = 3.27952 4.02246 3.66984
# Velocity P-wave (km/s) = 6.07819 7.05755 6.58610
#
# Compressibility (1/GPa) = 0.01961919
#
# Stress axis : x y z
#
# Youngs Moduli (GPa) = 108.11971 80.66021 82.98774
#
# Poissons Ratio (x) = 0.29372 -0.05675
# Poissons Ratio (y) = 0.39371 0.33869
# Poissons Ratio (z) = -0.07393 0.32919
#
# Static dielectric constant tensor:
#      x y z
#    x 4.965590 0.000000 0.011390 
#    y 0.000000 4.228770 0.000000 
#    z 0.011390 0.000000 3.718200 
# 
# 
# High freq. dielectric constant tensor:
#      x y z
#    x 1.909990 0.000000 0.002340 
#    y 0.000000 1.885280 0.000000 
#    z 0.002340 0.000000 1.895460 
# 
# From -- ./inp_files/14634.got.cif
#   From: 2010.06.25/outbox.cif.g09.slc.cpg/sg10_8_cif.got.tgz:14634.got - 2010.06.27 22:07:45.
