data_PCOD8067690
_publ_section_title
;
Structure prediction by ZEFSAII (Michael W. Deem and Ramdas Pophale) SiO2 
 PCOD8067690
Probable space group: P 2/M
;
_chemical_formula_sum "Si O2"
_cell_formula_units_Z 28
_cell_length_a 20.987977
_cell_length_b 7.884094
_cell_length_c 18.428883
_cell_angle_alpha 90.000000
_cell_angle_beta 151.655508
_cell_angle_gamma 90.000000
_cell_volume 1447.792383
_symmetry_space_group_name_H-M "P 2/M"
_symmetry_group_IT_number 10
_symmetry_cell_setting 'monoclinic'
loop_
_space_group_symop_operation_xyz
x,y,z
-x,y,-z
-x,-y,-z
x,-y,z
loop_
_atom_site_type_symbol
_atom_site_label
_atom_site_fract_x
_atom_site_fract_y
_atom_site_fract_z
Si Si1 0.840648 0.194751 0.659055
Si Si2 0.841725 0.500000 0.922762
Si Si3 0.155274 0.806491 0.974114
Si Si4 0.739621 0.809677 0.402018
Si Si5 0.489705 0.308179 0.071004
Si Si6 0.764155 0.808990 0.103109
Si Si7 0.159866 0.500000 0.240611
Si Si8 0.011804 0.308379 0.431342
O O1 0.757897 0.243097 0.504079
O O2 0.791567 0.327603 0.670872
O O3 0.997909 0.218344 0.799898
O O4 0.811918 0.000000 0.654945
O O5 0.778788 0.500000 0.778952
O O6 0.793786 0.672064 0.914906
O O7 0.000757 0.500000 0.077250
O O8 0.237561 0.762595 0.983761
O O9 0.183654 0.000000 0.029122
O O10 0.633141 0.691587 0.254694
O O11 0.883877 0.803327 0.508611
O O12 0.684524 0.000000 0.341730
O O13 0.437842 0.500000 0.012827
O O14 0.500000 0.229785 0.000000
O O15 0.384500 0.204747 0.013668
O O16 0.866287 0.689450 0.248277
O O17 0.816829 0.000000 0.165034
O O18 0.066571 0.500000 0.489629
O O19 0.000000 0.231361 0.500000
#
# Coordination Sequence:
#
# PCOD8067690 Si02
#       8
#     4   2   4   4   4   4   2   4
#     4   9  18  32  52  81 112 144 185 230 273 328
#     4   9  18  30  50  81 114 151 181 213 275 337
#     4   9  18  32  52  81 112 144 185 230 273 328
#     4  11  22  37  57  80 107 147 191 233 284 335
#     4  11  25  41  55  77 111 148 189 240 292 338
#     4  11  22  37  57  80 107 147 191 233 284 335
#     4   9  18  30  50  81 114 151 181 213 275 337
#     4  11  23  35  53  81 109 142 185 234 286 336
#
# _framework density 19.339791000000002
#
# number of rings (size 3 to 8) (size 9 to 14) (size 15 to 20)
#    0.000    1.857    1.429    2.571    4.000    6.286 
#    0.000    2.857    0.000    0.000    0.000    2.000 
#    0.000    4.571    0.000    0.000    0.000    0.000 
#
# Total GULP energy -347232.307410 kJ/mol
# GULP energy per Si atom -12401.153836 kJ/mol
# Density = 1.929577 g / cm^3
# Si number density = 19.339791 Si / 1000 Ang^3
#
#
#
# Elastic Constant Matrix: (Units=GPa)
#
#
# Indices 1 2 3 4 5 6 
#
# 1 132.6809 60.1892 52.9093 0.0000 -30.5730 0.0000
# 2 60.1892 96.9979 30.5418 0.0000 -25.1892 0.0000
# 3 52.9093 30.5418 78.0069 0.0000 -14.9179 0.0000
# 4 0.0000 0.0000 0.0000 18.3631 0.0000 -1.1519
# 5 -30.5730 -25.1892 -14.9179 0.0000 34.0126 0.0000
# 6 0.0000 0.0000 0.0000 -1.1519 0.0000 22.5154
#
#
#
# Elastic Compliance Matrix: (Units=1/GPa)
#
#
# Indices 1 2 3 4 5 6 
#
# 1 0.013596 -0.004985 -0.006155 0.000000 0.005830 0.000000
# 2 -0.004985 0.015521 -0.001479 0.000000 0.006366 0.000000
# 3 -0.006155 -0.001479 0.017799 0.000000 0.001179 0.000000
# 4 0.000000 0.000000 0.000000 0.054632 0.000000 0.002795
# 5 0.005830 0.006366 0.001179 0.000000 0.039873 0.000000
# 6 0.000000 0.000000 0.000000 0.002795 0.000000 0.044557
#
#
# Mechanical properties :
#
#
# Convention : Reuss Voigt Hill
#
# Bulk Modulus (GPa) = 46.12798 66.10737 56.11767
# Shear Modulus (GPa) = 22.88950 25.91458 24.40204
#
# Velocity S-wave (km/s) = 3.44400 3.66452 3.55597
# Velocity P-wave (km/s) = 6.30222 7.22227 6.77787
#
# Compressibility (1/GPa) = 0.02167882
#
# Stress axis : x y z
#
# Youngs Moduli (GPa) = 73.55158 64.42786 56.18430
#
# Poissons Ratio (x) = 0.32114 0.34582
# Poissons Ratio (y) = 0.36662 0.08308
# Poissons Ratio (z) = 0.45272 0.09527
#
# Static dielectric constant tensor:
#      x y z
#    x 3.527460 0.000000 -0.246510 
#    y 0.000000 3.537750 0.000000 
#    z -0.246510 0.000000 3.161480 
# 
# 
# High freq. dielectric constant tensor:
#      x y z
#    x 1.740590 0.000000 -0.016280 
#    y 0.000000 1.763670 0.000000 
#    z -0.016280 0.000000 1.720590 
# 
# From -- ./inp_files/79331.got.cif
#   From: 2010.06.25/outbox.cif.g09.slc.cpg/sg10_40_cif.got.tgz:79331.got - 2010.06.27 22:07:45.
