data_PCOD8067249
_publ_section_title
;
Structure prediction by ZEFSAII (Michael W. Deem and Ramdas Pophale) SiO2 
 PCOD8067249
Probable space group: P 2/M
;
_chemical_formula_sum "Si O2"
_cell_formula_units_Z 20
_cell_length_a 5.448110
_cell_length_b 21.507605
_cell_length_c 8.017101
_cell_angle_alpha 90.000000
_cell_angle_beta 59.618870
_cell_angle_gamma 90.000000
_cell_volume 810.410661
_symmetry_space_group_name_H-M "P 2/M"
_symmetry_group_IT_number 10
_symmetry_cell_setting 'monoclinic'
loop_
_space_group_symop_operation_xyz
x,y,z
-x,y,-z
-x,-y,-z
x,-y,z
loop_
_atom_site_type_symbol
_atom_site_label
_atom_site_fract_x
_atom_site_fract_y
_atom_site_fract_z
Si Si1 0.284156 0.676046 0.297029
Si Si2 0.836558 0.000000 0.377517
Si Si3 0.360329 0.815519 0.216078
Si Si4 0.500000 0.601065 0.500000
Si Si5 0.935065 0.567028 0.829875
Si Si6 0.140505 0.131919 0.776464
O O1 0.406648 0.741726 0.197200
O O2 0.518970 0.645108 0.332519
O O3 0.245638 0.627546 0.158173
O O4 0.000000 0.687080 0.500000
O O5 0.500000 0.000000 0.500000
O O6 0.917550 0.940006 0.241945
O O7 0.000000 0.000000 0.500000
O O8 0.522502 0.848278 0.319942
O O9 0.020256 0.830860 0.319667
O O10 0.500000 0.843793 0.000000
O O11 0.785521 0.560888 0.385433
O O12 0.777080 0.500000 0.855329
O O13 0.000000 0.574735 0.000000
O O14 0.000000 0.151025 0.000000
#
# Coordination Sequence:
#
# PCOD8067249 Si02
#       6
#     4   2   4   2   4   4
#     4  10  24  40  60  91 128 168 214 273 336 403
#     4  12  25  42  65 102 134 174 216 270 329 382
#     4  10  23  40  68  96 126 172 224 267 330 389
#     4  10  23  40  60  92 124 171 214 272 354 393
#     4  10  23  41  64  92 124 169 222 279 343 409
#     4  10  23  44  66  95 130 177 219 268 322 396
#
# _framework density 24.678846
#
# number of rings (size 3 to 8) (size 9 to 14) (size 15 to 20)
#    0.000    1.800    0.000    1.800    8.400    7.600 
#    0.000    6.000    0.000    0.000    0.000    0.000 
#    0.000    0.000    0.000    0.000    0.000    0.000 
#
# Total GULP energy -247832.975472 kJ/mol
# GULP energy per Si atom -12391.648774 kJ/mol
# Density = 2.462268 g / cm^3
# Si number density = 24.678846 Si / 1000 Ang^3
#
#
#
# Elastic Constant Matrix: (Units=GPa)
#
#
# Indices 1 2 3 4 5 6 
#
# 1 180.9151 66.0379 25.2838 0.0000 28.9446 0.0000
# 2 66.0379 198.7705 14.2165 0.0000 38.9876 0.0000
# 3 25.2838 14.2165 39.4410 0.0000 18.7016 0.0000
# 4 0.0000 0.0000 0.0000 105.1443 0.0000 100.8308
# 5 28.9446 38.9876 18.7016 0.0000 39.6445 0.0000
# 6 0.0000 0.0000 0.0000 100.8308 0.0000 178.6313
#
#
#
# Elastic Compliance Matrix: (Units=1/GPa)
#
#
# Indices 1 2 3 4 5 6 
#
# 1 0.006860 -0.001680 -0.002835 0.000000 -0.002019 0.000000
# 2 -0.001680 0.006667 0.001547 0.000000 -0.006060 0.000000
# 3 -0.002835 0.001547 0.033947 0.000000 -0.015466 0.000000
# 4 0.000000 0.000000 0.000000 0.020734 0.000000 -0.011704
# 5 -0.002019 -0.006060 -0.015466 0.000000 0.039953 0.000000
# 6 0.000000 0.000000 0.000000 -0.011704 0.000000 0.012205
#
#
# Mechanical properties :
#
#
# Convention : Reuss Voigt Hill
#
# Bulk Modulus (GPa) = 24.07380 70.02256 47.04818
# Shear Modulus (GPa) = 35.67647 85.58989 60.63318
#
# Velocity S-wave (km/s) = 3.80627 5.89549 4.96208
# Velocity P-wave (km/s) = 5.39378 8.64740 7.20661
#
# Compressibility (1/GPa) = 0.04153894
#
# Stress axis : x y z
#
# Youngs Moduli (GPa) = 145.77310 149.98986 29.45741
#
# Poissons Ratio (x) = 0.25204 0.08350
# Poissons Ratio (y) = 0.24496 -0.04558
# Poissons Ratio (z) = 0.41323 -0.23209
#
# Static dielectric constant tensor:
#      x y z
#    x 4.783390 0.000000 0.180620 
#    y 0.000000 4.659990 0.000000 
#    z 0.180620 0.000000 4.123950 
# 
# 
# High freq. dielectric constant tensor:
#      x y z
#    x 1.989200 0.000000 0.008660 
#    y 0.000000 1.980800 0.000000 
#    z 0.008660 0.000000 1.982020 
# 
# From -- ./inp_files/15171.got.cif
#   From: 2010.06.25/outbox.cif.g09.slc.cpg/sg10_8_cif.got.tgz:15171.got - 2010.06.27 22:07:45.
