data_PCOD8067281
_publ_section_title
;
Structure prediction by ZEFSAII (Michael W. Deem and Ramdas Pophale) SiO2 
 PCOD8067281
Probable space group: P 2/M
;
_chemical_formula_sum "Si O2"
_cell_formula_units_Z 32
_cell_length_a 11.760299
_cell_length_b 9.003222
_cell_length_c 15.088679
_cell_angle_alpha 90.000000
_cell_angle_beta 87.657248
_cell_angle_gamma 90.000000
_cell_volume 1596.262807
_symmetry_space_group_name_H-M "P 2/M"
_symmetry_group_IT_number 10
_symmetry_cell_setting 'monoclinic'
loop_
_space_group_symop_operation_xyz
x,y,z
-x,y,-z
-x,-y,-z
x,-y,z
loop_
_atom_site_type_symbol
_atom_site_label
_atom_site_fract_x
_atom_site_fract_y
_atom_site_fract_z
Si Si1 0.067411 0.675504 0.869593
Si Si2 0.337845 0.169447 0.615960
Si Si3 0.313449 0.826147 0.419116
Si Si4 0.170193 0.674989 0.051041
Si Si5 0.579374 0.676878 0.917152
Si Si6 0.094368 0.829433 0.695553
Si Si7 0.079406 0.332134 0.412981
Si Si8 0.479185 0.324482 0.278298
O O1 0.080305 0.500000 0.851993
O O2 0.126477 0.771343 0.791577
O O3 0.933646 0.721347 0.881058
O O4 0.137280 0.725694 0.953608
O O5 0.369864 0.209341 0.513312
O O6 0.203165 0.192344 0.629510
O O7 0.401448 0.274077 0.683721
O O8 0.373110 0.000000 0.635775
O O9 0.184501 0.774417 0.425239
O O10 0.377751 0.742716 0.339051
O O11 0.317706 0.000000 0.399726
O O12 0.180869 0.500000 0.052111
O O13 0.292222 0.742977 0.076197
O O14 0.582224 0.500000 0.920872
O O15 0.530273 0.729892 0.823534
O O16 0.500000 0.737564 0.000000
O O17 0.990606 0.727422 0.668014
O O18 0.055637 0.000000 0.698433
O O19 0.120154 0.500000 0.391977
O O20 0.000000 0.324839 0.500000
O O21 0.470185 0.500000 0.283596
#
# Coordination Sequence:
#
# PCOD8067281 Si02
#       8
#     4   4   4   4   4   4   4   4
#     4   9  18  33  58  87 112 150 196 245 294 349
#     4  10  23  42  61  82 118 165 205 242 296 362
#     4  11  23  42  65  86 120 166 202 238 297 371
#     4   8  16  33  55  81 116 151 192 240 299 360
#     4   9  19  35  55  83 120 155 189 241 303 360
#     4  11  23  38  58  86 121 160 198 239 295 366
#     4  11  23  39  61  90 121 152 193 247 297 342
#     4  11  24  38  61  94 120 151 205 261 300 343
#
# _framework density 20.046825999999999
#
# number of rings (size 3 to 8) (size 9 to 14) (size 15 to 20)
#    0.000    2.000    1.250    2.625    3.500    4.000 
#    0.000    1.250    0.000    3.000    0.000    0.000 
#    0.000    0.000    0.000    0.000    0.000    0.000 
#
# Total GULP energy -396763.594612 kJ/mol
# GULP energy per Si atom -12398.862332 kJ/mol
# Density = 2.000120 g / cm^3
# Si number density = 20.046826 Si / 1000 Ang^3
#
#
#
# Elastic Constant Matrix: (Units=GPa)
#
#
# Indices 1 2 3 4 5 6 
#
# 1 93.0234 31.0397 42.7367 0.0000 15.1182 0.0000
# 2 31.0397 49.7558 48.7517 0.0000 1.7400 0.0000
# 3 42.7367 48.7517 139.2635 0.0000 2.3045 0.0000
# 4 0.0000 0.0000 0.0000 18.8659 0.0000 -2.3461
# 5 15.1182 1.7400 2.3045 0.0000 30.9214 0.0000
# 6 0.0000 0.0000 0.0000 -2.3461 0.0000 29.1209
#
#
#
# Elastic Compliance Matrix: (Units=1/GPa)
#
#
# Indices 1 2 3 4 5 6 
#
# 1 0.015223 -0.007291 -0.002005 0.000000 -0.006883 0.000000
# 2 -0.007291 0.034110 -0.009742 0.000000 0.002371 0.000000
# 3 -0.002005 -0.009742 0.011195 0.000000 0.000694 0.000000
# 4 0.000000 0.000000 0.000000 0.053542 0.000000 0.004314
# 5 -0.006883 0.002371 0.000694 0.000000 0.035520 0.000000
# 6 0.000000 0.000000 0.000000 0.004314 0.000000 0.034687
#
#
# Mechanical properties :
#
#
# Convention : Reuss Voigt Hill
#
# Bulk Modulus (GPa) = 44.54385 58.56653 51.55519
# Shear Modulus (GPa) = 21.75451 26.41594 24.08522
#
# Velocity S-wave (km/s) = 3.29779 3.63397 3.46995
# Velocity P-wave (km/s) = 6.06372 6.84733 6.46740
#
# Compressibility (1/GPa) = 0.02244979
#
# Stress axis : x y z
#
# Youngs Moduli (GPa) = 65.69135 29.31732 89.32542
#
# Poissons Ratio (x) = 0.21375 0.17912
# Poissons Ratio (y) = 0.47896 0.87025
# Poissons Ratio (z) = 0.13173 0.28562
#
# Static dielectric constant tensor:
#      x y z
#    x 3.821930 0.000000 0.050760 
#    y 0.000000 3.385930 0.000000 
#    z 0.050760 0.000000 3.768850 
# 
# 
# High freq. dielectric constant tensor:
#      x y z
#    x 1.788780 0.000000 0.000660 
#    y 0.000000 1.754380 0.000000 
#    z 0.000660 0.000000 1.792330 
# 
# From -- ./inp_files/63843.got.cif
#   From: 2010.06.25/outbox.cif.g09.slc.cpg/sg10_32_cif.got.tgz:63843.got - 2010.06.27 22:07:45.
