data_PCOD8067278
_publ_section_title
;
Structure prediction by ZEFSAII (Michael W. Deem and Ramdas Pophale) SiO2 
 PCOD8067278
Probable space group: P 2/M
;
_chemical_formula_sum "Si O2"
_cell_formula_units_Z 20
_cell_length_a 8.802027
_cell_length_b 12.883092
_cell_length_c 8.586684
_cell_angle_alpha 90.000000
_cell_angle_beta 93.325693
_cell_angle_gamma 90.000000
_cell_volume 972.067167
_symmetry_space_group_name_H-M "P 2/M"
_symmetry_group_IT_number 10
_symmetry_cell_setting 'monoclinic'
loop_
_space_group_symop_operation_xyz
x,y,z
-x,y,-z
-x,-y,-z
x,-y,z
loop_
_atom_site_type_symbol
_atom_site_label
_atom_site_fract_x
_atom_site_fract_y
_atom_site_fract_z
Si Si1 0.695886 0.790735 0.282593
Si Si2 0.925449 0.000000 0.667305
Si Si3 0.500000 0.664789 0.500000
Si Si4 0.280673 0.385878 0.223088
Si Si5 0.666711 0.000000 0.445631
Si Si6 0.500000 0.286448 0.000000
Si Si7 0.017483 0.777471 0.184624
O O1 0.626717 0.733026 0.424729
O O2 0.716634 0.908189 0.335107
O O3 0.582148 0.787457 0.129324
O O4 0.859626 0.740301 0.253074
O O5 0.956509 0.102876 0.769032
O O6 0.000000 0.000000 0.500000
O O7 0.748065 0.000000 0.617566
O O8 0.596266 0.600065 0.630826
O O9 0.205041 0.500000 0.195511
O O10 0.152226 0.298931 0.251110
O O11 0.372408 0.357758 0.072392
O O12 0.500000 0.000000 0.500000
O O13 0.000000 0.768500 0.000000
#
# Coordination Sequence:
#
# PCOD8067278 Si02
#       7
#     4   2   2   4   2   2   4
#     4  11  22  42  64  97 134 173 222 276 322 395
#     4  12  25  42  68  92 136 182 210 266 328 397
#     4  10  23  41  68  94 132 169 224 272 335 382
#     4  11  24  44  69  97 133 175 222 275 331 391
#     4  12  24  37  65 100 127 174 227 267 325 383
#     4  10  23  43  64  94 132 179 218 272 329 394
#     4  12  25  44  66 101 138 173 222 265 336 395
#
# _framework density 20.574708999999999
#
# number of rings (size 3 to 8) (size 9 to 14) (size 15 to 20)
#    0.000    0.800    5.000    2.100    2.800    0.800 
#    0.000    3.000    0.000    0.000    0.000    0.000 
#    0.000    0.000    0.000    0.000    0.000    0.000 
#
# Total GULP energy -247909.449688 kJ/mol
# GULP energy per Si atom -12395.472484 kJ/mol
# Density = 2.052788 g / cm^3
# Si number density = 20.574709 Si / 1000 Ang^3
#
#
#
# Elastic Constant Matrix: (Units=GPa)
#
#
# Indices 1 2 3 4 5 6 
#
# 1 146.8136 39.6117 30.0752 0.0000 -21.9660 0.0000
# 2 39.6117 119.9030 23.6843 0.0000 -4.4339 0.0000
# 3 30.0752 23.6843 93.8550 0.0000 -4.0342 0.0000
# 4 0.0000 0.0000 0.0000 9.4286 0.0000 4.6425
# 5 -21.9660 -4.4339 -4.0342 0.0000 42.9946 0.0000
# 6 0.0000 0.0000 0.0000 4.6425 0.0000 24.3837
#
#
#
# Elastic Compliance Matrix: (Units=1/GPa)
#
#
# Indices 1 2 3 4 5 6 
#
# 1 0.008398 -0.002244 -0.001958 0.000000 0.003875 0.000000
# 2 -0.002244 0.009398 -0.001667 0.000000 -0.000334 0.000000
# 3 -0.001958 -0.001667 0.011700 0.000000 -0.000075 0.000000
# 4 0.000000 0.000000 0.000000 0.117031 0.000000 -0.022282
# 5 0.003875 -0.000334 -0.000075 0.000000 0.025197 0.000000
# 6 0.000000 0.000000 0.000000 -0.022282 0.000000 0.045253
#
#
# Mechanical properties :
#
#
# Convention : Reuss Voigt Hill
#
# Bulk Modulus (GPa) = 56.31466 60.81266 58.56366
# Shear Modulus (GPa) = 21.30968 33.17474 27.24221
#
# Velocity S-wave (km/s) = 3.22176 4.01983 3.64272
# Velocity P-wave (km/s) = 6.42416 7.15308 6.79840
#
# Compressibility (1/GPa) = 0.01775737
#
# Stress axis : x y z
#
# Youngs Moduli (GPa) = 119.07855 106.40095 85.47274
#
# Poissons Ratio (x) = 0.23879 0.16737
# Poissons Ratio (y) = 0.26724 0.14247
# Poissons Ratio (z) = 0.23317 0.17736
#
# Static dielectric constant tensor:
#      x y z
#    x 4.043540 0.000000 0.069300 
#    y 0.000000 3.617220 0.000000 
#    z 0.069300 0.000000 4.174840 
# 
# 
# High freq. dielectric constant tensor:
#      x y z
#    x 1.822540 0.000000 0.000420 
#    y 0.000000 1.794010 0.000000 
#    z 0.000420 0.000000 1.816180 
# 
# From -- ./inp_files/17988.got.cif
#   From: 2010.06.25/outbox.cif.g09.slc.cpg/sg10_9_cif.got.tgz:17988.got - 2010.06.27 22:07:45.
