data_PCOD8067585
_publ_section_title
;
Structure prediction by ZEFSAII (Michael W. Deem and Ramdas Pophale) SiO2 
 PCOD8067585
Probable space group: P 2/M
;
_chemical_formula_sum "Si O2"
_cell_formula_units_Z 18
_cell_length_a 21.328802
_cell_length_b 9.549945
_cell_length_c 9.156387
_cell_angle_alpha 90.000000
_cell_angle_beta 28.901627
_cell_angle_gamma 90.000000
_cell_volume 901.394237
_symmetry_space_group_name_H-M "P 2/M"
_symmetry_group_IT_number 10
_symmetry_cell_setting 'monoclinic'
loop_
_space_group_symop_operation_xyz
x,y,z
-x,y,-z
-x,-y,-z
x,-y,z
loop_
_atom_site_type_symbol
_atom_site_label
_atom_site_fract_x
_atom_site_fract_y
_atom_site_fract_z
Si Si1 0.608143 0.000000 0.904993
Si Si2 0.498617 0.787705 0.662818
Si Si3 0.235473 0.731186 0.743161
Si Si4 0.142010 0.500000 0.146706
Si Si5 0.136272 0.000000 0.800330
Si Si6 0.357845 0.500000 0.955860
Si Si7 0.656416 0.500000 0.687208
O O1 0.750014 0.000000 0.549736
O O2 0.500000 0.000000 0.000000
O O3 0.596772 0.135455 0.030761
O O4 0.500000 0.858417 0.500000
O O5 0.642946 0.802162 0.427763
O O6 0.454026 0.628837 0.739132
O O7 0.286712 0.638881 0.503328
O O8 0.143487 0.857942 0.880420
O O9 0.157053 0.637820 0.017914
O O10 0.245009 0.500000 0.067265
O O11 0.000000 0.500000 0.500000
O O12 0.000000 0.000000 0.000000
O O13 0.294802 0.500000 0.245451
O O14 0.500000 0.500000 0.000000
#
# Coordination Sequence:
#
# PCOD8067585 Si02
#       7
#     2   4   4   2   2   2   2
#     4  12  25  42  69  97 131 179 231 284 335 405
#     4  12  22  39  68 103 136 166 224 288 352 394
#     4  11  23  44  69  99 137 183 225 290 345 405
#     4  11  26  46  66  96 143 188 229 277 350 427
#     4  12  28  48  69  99 144 186 235 285 344 418
#     4  12  22  36  66 103 134 170 223 283 341 403
#     4  11  21  35  70 108 136 167 226 292 353 401
#
# _framework density 19.969066000000002
#
# number of rings (size 3 to 8) (size 9 to 14) (size 15 to 20)
#    0.000    0.444    6.667    2.667    0.000    3.556 
#    0.000    2.778    0.000    0.000    0.000    0.000 
#    0.000    0.000    0.000    0.000    0.000    0.000 
#
# Total GULP energy -223264.292105 kJ/mol
# GULP energy per Si atom -12403.571784 kJ/mol
# Density = 1.992362 g / cm^3
# Si number density = 19.969066 Si / 1000 Ang^3
#
#
#
# Elastic Constant Matrix: (Units=GPa)
#
#
# Indices 1 2 3 4 5 6 
#
# 1 162.0030 67.8947 65.5050 0.0000 3.1593 0.0000
# 2 67.8947 134.9584 44.8268 0.0000 -2.6882 0.0000
# 3 65.5050 44.8268 125.7563 0.0000 3.1820 0.0000
# 4 0.0000 0.0000 0.0000 18.2848 0.0000 -6.8423
# 5 3.1593 -2.6882 3.1820 0.0000 47.3016 0.0000
# 6 0.0000 0.0000 0.0000 -6.8423 0.0000 29.7656
#
#
#
# Elastic Compliance Matrix: (Units=1/GPa)
#
#
# Indices 1 2 3 4 5 6 
#
# 1 0.009007 -0.003390 -0.003469 0.000000 -0.000561 0.000000
# 2 -0.003390 0.009703 -0.001715 0.000000 0.000893 0.000000
# 3 -0.003469 -0.001715 0.010385 0.000000 -0.000564 0.000000
# 4 0.000000 0.000000 0.000000 0.059838 0.000000 0.013755
# 5 -0.000561 0.000893 -0.000564 0.000000 0.021267 0.000000
# 6 0.000000 0.000000 0.000000 0.013755 0.000000 0.036758
#
#
# Mechanical properties :
#
#
# Convention : Reuss Voigt Hill
#
# Bulk Modulus (GPa) = 83.71455 86.57452 85.14454
# Shear Modulus (GPa) = 29.74633 35.36980 32.55807
#
# Velocity S-wave (km/s) = 3.86375 4.21316 4.04223
# Velocity P-wave (km/s) = 7.86879 8.19244 8.03225
#
# Compressibility (1/GPa) = 0.01194535
#
# Stress axis : x y z
#
# Youngs Moduli (GPa) = 111.02234 103.06330 96.29640
#
# Poissons Ratio (x) = 0.34941 0.33406
# Poissons Ratio (y) = 0.37639 0.16518
# Poissons Ratio (z) = 0.38515 0.17678
#
# Static dielectric constant tensor:
#      x y z
#    x 4.077870 0.000000 0.160800 
#    y 0.000000 3.850120 0.000000 
#    z 0.160800 0.000000 3.382360 
# 
# 
# High freq. dielectric constant tensor:
#      x y z
#    x 1.789780 0.000000 0.022610 
#    y 0.000000 1.795910 0.000000 
#    z 0.022610 0.000000 1.767680 
# 
# From -- ./inp_files/33641.got.cif
#   From: 2010.06.25/outbox.cif.g09.slc.cpg/sg10_17_cif.got.tgz:33641.got - 2010.06.27 22:07:45.
