data_PCOD8067299
_publ_section_title
;
Structure prediction by ZEFSAII (Michael W. Deem and Ramdas Pophale) SiO2 
 PCOD8067299
Probable space group: P 2/M
;
_chemical_formula_sum "Si O2"
_cell_formula_units_Z 20
_cell_length_a 13.984757
_cell_length_b 11.522872
_cell_length_c 11.601313
_cell_angle_alpha 90.000000
_cell_angle_beta 32.184097
_cell_angle_gamma 90.000000
_cell_volume 995.766965
_symmetry_space_group_name_H-M "P 2/M"
_symmetry_group_IT_number 10
_symmetry_cell_setting 'monoclinic'
loop_
_space_group_symop_operation_xyz
x,y,z
-x,y,-z
-x,-y,-z
x,-y,z
loop_
_atom_site_type_symbol
_atom_site_label
_atom_site_fract_x
_atom_site_fract_y
_atom_site_fract_z
Si Si1 0.234729 0.500000 0.346543
Si Si2 0.709339 0.127397 0.294263
Si Si3 0.377976 0.500000 0.941438
Si Si4 0.068546 0.743752 0.551413
Si Si5 0.635563 0.136076 0.618731
Si Si6 0.269675 0.741240 0.950875
O O1 0.410127 0.500000 0.248486
O O2 0.110325 0.607779 0.504577
O O3 0.277979 0.500000 0.166287
O O4 0.500000 0.106827 0.500000
O O5 0.742113 0.170282 0.391914
O O6 0.770430 0.227166 0.142501
O O7 0.800549 0.000000 0.176765
O O8 0.323639 0.608248 0.917190
O O9 0.252575 0.810030 0.391114
O O10 0.000000 0.791080 0.500000
O O11 0.913729 0.772886 0.799468
O O12 0.432344 0.181368 0.832336
O O13 0.625255 0.000000 0.644230
#
# Coordination Sequence:
#
# PCOD8067299 Si02
#       6
#     2   4   2   4   4   4
#     4  11  22  43  63  88 122 167 210 247 303 375
#     4   8  17  38  65  88 119 163 205 246 301 363
#     4  11  21  38  71  87 119 167 205 250 314 358
#     4  12  24  39  64  92 124 162 207 254 304 363
#     4  10  23  43  63  90 127 164 206 253 299 363
#     4  11  21  38  65  96 119 160 206 251 305 365
#
# _framework density 20.08502
#
# number of rings (size 3 to 8) (size 9 to 14) (size 15 to 20)
#    0.000    1.600    4.000    2.700    0.000    3.600 
#    0.000    8.500    0.000    2.400    0.000    0.000 
#    0.000    0.000    0.000    0.000    0.000    0.000 
#
# Total GULP energy -247916.908513 kJ/mol
# GULP energy per Si atom -12395.845426 kJ/mol
# Density = 2.003931 g / cm^3
# Si number density = 20.085020 Si / 1000 Ang^3
#
#
#
# Elastic Constant Matrix: (Units=GPa)
#
#
# Indices 1 2 3 4 5 6 
#
# 1 62.5831 30.1540 15.7738 0.0000 -3.4748 0.0000
# 2 30.1540 105.9483 33.8344 0.0000 10.3665 0.0000
# 3 15.7738 33.8344 98.0150 0.0000 0.0262 0.0000
# 4 0.0000 0.0000 0.0000 13.0611 0.0000 28.0506
# 5 -3.4748 10.3665 0.0262 0.0000 28.1887 0.0000
# 6 0.0000 0.0000 0.0000 28.0506 0.0000 -2.9035
#
#
#
# Elastic Compliance Matrix: (Units=1/GPa)
#
#
# Indices 1 2 3 4 5 6 
#
# 1 0.019176 -0.005509 -0.001186 0.000000 0.004391 0.000000
# 2 -0.005509 0.012637 -0.003474 0.000000 -0.005323 0.000000
# 3 -0.001186 -0.003474 0.011592 0.000000 0.001121 0.000000
# 4 0.000000 0.000000 0.000000 0.003520 0.000000 0.034011
# 5 0.004391 -0.005323 0.001121 0.000000 0.037973 0.000000
# 6 0.000000 0.000000 0.000000 0.034011 0.000000 -0.015836
#
#
# Mechanical properties :
#
#
# Convention : Reuss Voigt Hill
#
# Bulk Modulus (GPa) = 43.35050 47.34119 45.34585
# Shear Modulus (GPa) = 51.49986 20.12153 35.81070
#
# Velocity S-wave (km/s) = 5.06918 3.16858 4.22709
# Velocity P-wave (km/s) = 7.47613 6.08343 6.81545
#
# Compressibility (1/GPa) = 0.02306778
#
# Stress axis : x y z
#
# Youngs Moduli (GPa) = 52.14984 79.13475 86.26417
#
# Poissons Ratio (x) = 0.43592 0.10228
# Poissons Ratio (y) = 0.28727 0.29970
# Poissons Ratio (z) = 0.06183 0.27493
#
# Static dielectric constant tensor:
#      x y z
#    x 4.343600 0.000000 0.285170 
#    y 0.000000 3.634310 0.000000 
#    z 0.285170 0.000000 3.763640 
# 
# 
# High freq. dielectric constant tensor:
#      x y z
#    x 1.790740 0.000000 -0.009080 
#    y 0.000000 1.779160 0.000000 
#    z -0.009080 0.000000 1.781430 
# 
# From -- ./inp_files/50557.got.cif
#   From: 2010.06.25/outbox.cif.g09.slc.cpg/sg10_26_cif.got.tgz:50557.got - 2010.06.27 22:07:45.
