data_PCOD8067069
_publ_section_title
;
Structure prediction by ZEFSAII (Michael W. Deem and Ramdas Pophale) SiO2 
 PCOD8067069
Probable space group: P 2/M
;
_chemical_formula_sum "Si O2"
_cell_formula_units_Z 28
_cell_length_a 18.987713
_cell_length_b 8.770694
_cell_length_c 14.394027
_cell_angle_alpha 90.000000
_cell_angle_beta 147.280148
_cell_angle_gamma 90.000000
_cell_volume 1295.717206
_symmetry_space_group_name_H-M "P 2/M"
_symmetry_group_IT_number 10
_symmetry_cell_setting 'monoclinic'
loop_
_space_group_symop_operation_xyz
x,y,z
-x,y,-z
-x,-y,-z
x,-y,z
loop_
_atom_site_type_symbol
_atom_site_label
_atom_site_fract_x
_atom_site_fract_y
_atom_site_fract_z
Si Si1 0.042604 0.172979 0.311362
Si Si2 0.416086 0.822823 0.498939
Si Si3 0.799231 0.825683 0.148486
Si Si4 0.615845 0.165096 0.195057
Si Si5 0.882088 0.180793 0.806026
Si Si6 0.473770 0.678900 0.199017
Si Si7 0.846896 0.324452 0.384180
O O1 0.089877 0.245526 0.266560
O O2 0.104281 0.263143 0.464018
O O3 0.885885 0.180925 0.150885
O O4 0.090640 0.000000 0.369769
O O5 0.500000 0.793739 0.500000
O O6 0.263161 0.771264 0.319708
O O7 0.490473 0.721656 0.656684
O O8 0.421434 0.000000 0.533864
O O9 0.889282 0.757441 0.333866
O O10 0.760924 0.000000 0.130718
O O11 0.672148 0.727649 0.988458
O O12 0.578360 0.234825 0.252170
O O13 0.694236 0.288663 0.221373
O O14 0.686318 0.000000 0.291665
O O15 0.500000 0.126771 0.000000
O O16 0.894331 0.000000 0.819286
O O17 0.000000 0.248371 0.000000
O O18 0.485898 0.500000 0.196884
O O19 0.881264 0.500000 0.411183
#
# Coordination Sequence:
#
# PCOD8067069 Si02
#       7
#     4   4   4   4   4   4   4
#     4  10  22  39  63  89 122 167 215 265 317 379
#     4  10  22  40  68 100 129 165 214 267 321 385
#     4  11  23  39  61  90 123 167 220 266 313 377
#     4  11  22  38  62  87 118 162 210 260 308 372
#     4   9  19  38  66  97 125 157 206 268 321 369
#     4  12  25  40  62  92 130 168 209 263 332 392
#     4  12  24  38  60  90 128 167 208 259 323 386
#
# _framework density 21.609653999999999
#
# number of rings (size 3 to 8) (size 9 to 14) (size 15 to 20)
#    0.000    1.286    1.429    4.714    2.000    4.857 
#    0.000    0.000    0.000    0.857    0.000    0.000 
#    0.000    0.000    0.000    0.000    0.000    0.000 
#
# Total GULP energy -347010.109821 kJ/mol
# GULP energy per Si atom -12393.218208 kJ/mol
# Density = 2.156047 g / cm^3
# Si number density = 21.609654 Si / 1000 Ang^3
#
#
#
# Elastic Constant Matrix: (Units=GPa)
#
#
# Indices 1 2 3 4 5 6 
#
# 1 160.5872 36.2068 48.7102 0.0000 -5.0669 0.0000
# 2 36.2068 99.9863 24.3996 0.0000 -10.7515 0.0000
# 3 48.7102 24.3996 109.6912 0.0000 -17.3273 0.0000
# 4 0.0000 0.0000 0.0000 -15.0192 0.0000 1.7073
# 5 -5.0669 -10.7515 -17.3273 0.0000 20.3212 0.0000
# 6 0.0000 0.0000 0.0000 1.7073 0.0000 12.2459
#
#
#
# Elastic Compliance Matrix: (Units=1/GPa)
#
#
# Indices 1 2 3 4 5 6 
#
# 1 0.007635 -0.002195 -0.003219 0.000000 -0.002002 0.000000
# 2 -0.002195 0.011518 -0.000822 0.000000 0.004846 0.000000
# 3 -0.003219 -0.000822 0.012173 0.000000 0.009142 0.000000
# 4 0.000000 0.000000 0.000000 -0.065543 0.000000 0.009138
# 5 -0.002002 0.004846 0.009142 0.000000 0.059069 0.000000
# 6 0.000000 0.000000 0.000000 0.009138 0.000000 0.080386
#
#
# Mechanical properties :
#
#
# Convention : Reuss Voigt Hill
#
# Bulk Modulus (GPa) = 53.03573 65.43311 59.23442
# Shear Modulus (GPa) = 40.32483 20.90612 30.61548
#
# Velocity S-wave (km/s) = 4.32447 3.11375 3.76806
# Velocity P-wave (km/s) = 7.03780 6.57819 6.81187
#
# Compressibility (1/GPa) = 0.01885521
#
# Stress axis : x y z
#
# Youngs Moduli (GPa) = 130.97487 86.82266 82.15127
#
# Poissons Ratio (x) = 0.19054 0.26440
# Poissons Ratio (y) = 0.28744 0.06753
# Poissons Ratio (z) = 0.42154 0.07137
#
# Static dielectric constant tensor:
#      x y z
#    x 4.601570 0.000000 0.308620 
#    y 0.000000 3.743880 0.000000 
#    z 0.308620 0.000000 4.099560 
# 
# 
# High freq. dielectric constant tensor:
#      x y z
#    x 1.867650 0.000000 0.009350 
#    y 0.000000 1.823120 0.000000 
#    z 0.009350 0.000000 1.853840 
# 
# From -- ./inp_files/70308.got.cif
#   From: 2010.06.25/outbox.cif.g09.slc.cpg/sg10_36_cif.got.tgz:70308.got - 2010.06.27 22:07:45.
