data_PCOD8067555
_publ_section_title
;
Structure prediction by ZEFSAII (Michael W. Deem and Ramdas Pophale) SiO2 
 PCOD8067555
Probable space group: P 2/M
;
_chemical_formula_sum "Si O2"
_cell_formula_units_Z 28
_cell_length_a 18.139480
_cell_length_b 11.625923
_cell_length_c 24.185554
_cell_angle_alpha 90.000000
_cell_angle_beta 161.680671
_cell_angle_gamma 90.000000
_cell_volume 1603.135708
_symmetry_space_group_name_H-M "P 2/M"
_symmetry_group_IT_number 10
_symmetry_cell_setting 'monoclinic'
loop_
_space_group_symop_operation_xyz
x,y,z
-x,y,-z
-x,-y,-z
x,-y,z
loop_
_atom_site_type_symbol
_atom_site_label
_atom_site_fract_x
_atom_site_fract_y
_atom_site_fract_z
Si Si1 0.038578 0.363181 0.840841
Si Si2 0.694627 0.000000 0.231608
Si Si3 0.755876 0.000000 0.398054
Si Si4 0.786034 0.242165 0.461764
Si Si5 0.436153 0.363964 0.798459
Si Si6 0.347409 0.363132 0.523193
Si Si7 0.323565 0.241445 0.828029
Si Si8 0.306923 0.364736 0.318807
O O1 0.042746 0.500000 0.844474
O O2 0.870864 0.324275 0.670832
O O3 0.938590 0.317889 0.829856
O O4 0.299230 0.313953 0.018519
O O5 0.617714 0.000000 0.241283
O O6 0.592109 0.885974 0.129978
O O7 0.972544 0.000000 0.424027
O O8 0.690480 0.887781 0.387079
O O9 0.727781 0.313037 0.365518
O O10 0.660206 0.298572 0.424321
O O11 0.064511 0.242304 0.669097
O O12 0.432578 0.500000 0.790971
O O13 0.328967 0.327710 0.780505
O O14 0.341260 0.500000 0.528920
O O15 0.596882 0.323177 0.672592
O O16 0.500000 0.288503 0.000000
O O17 0.500000 0.327270 0.500000
O O18 0.288287 0.500000 0.301677
#
# Coordination Sequence:
#
# PCOD8067555 Si02
#       8
#     4   2   2   4   4   4   4   4
#     4   8  15  29  47  70 101 131 162 197 231 276
#     4   9  17  36  56  72  87 114 163 209 239 274
#     4   9  18  34  54  68  89 125 160 198 243 279
#     4  11  21  34  50  70  97 128 162 196 239 287
#     4  11  22  33  47  70 101 135 162 189 235 291
#     4   9  16  28  49  76 102 127 157 195 239 285
#     4  11  22  35  53  73  94 123 161 204 241 278
#     4   7  11  23  45  70  96 127 159 193 234 275
#
# _framework density 17.465771
#
# number of rings (size 3 to 8) (size 9 to 14) (size 15 to 20)
#    0.000    2.571    1.429    3.643    0.000    2.000 
#    0.000    0.714    0.000    3.429    0.000    7.500 
#    0.000    0.000    0.000    0.000    0.000    0.000 
#
# Total GULP energy -346947.545508 kJ/mol
# GULP energy per Si atom -12390.983768 kJ/mol
# Density = 1.742602 g / cm^3
# Si number density = 17.465771 Si / 1000 Ang^3
#
#
#
# Elastic Constant Matrix: (Units=GPa)
#
#
# Indices 1 2 3 4 5 6 
#
# 1 120.4042 35.2467 19.8415 0.0000 -8.9535 0.0000
# 2 35.2467 67.6552 9.4646 0.0000 -4.7849 0.0000
# 3 19.8415 9.4646 30.4724 0.0000 -9.5963 0.0000
# 4 0.0000 0.0000 0.0000 9.8224 0.0000 -10.4970
# 5 -8.9535 -4.7849 -9.5963 0.0000 27.1478 0.0000
# 6 0.0000 0.0000 0.0000 -10.4970 0.0000 10.7546
#
#
#
# Elastic Compliance Matrix: (Units=1/GPa)
#
#
# Indices 1 2 3 4 5 6 
#
# 1 0.010608 -0.004744 -0.005171 0.000000 0.000835 0.000000
# 2 -0.004744 0.017606 -0.002132 0.000000 0.000785 0.000000
# 3 -0.005171 -0.002132 0.040724 0.000000 0.012314 0.000000
# 4 0.000000 0.000000 0.000000 -2.362633 0.000000 -2.306056
# 5 0.000835 0.000785 0.012314 0.000000 0.041602 0.000000
# 6 0.000000 0.000000 0.000000 -2.306056 0.000000 -2.157850
#
#
# Mechanical properties :
#
#
# Convention : Reuss Voigt Hill
#
# Bulk Modulus (GPa) = 22.29981 38.62637 30.46309
# Shear Modulus (GPa) = -1.14393 19.81023 9.33315
#
# Velocity S-wave (km/s) = -0.81017 3.37149 2.31415
# Velocity P-wave (km/s) = 3.45257 6.10896 4.96184
#
# Compressibility (1/GPa) = 0.04484343
#
# Stress axis : x y z
#
# Youngs Moduli (GPa) = 94.26503 56.79803 24.55574
#
# Poissons Ratio (x) = 0.26947 0.12698
# Poissons Ratio (y) = 0.44722 0.05236
# Poissons Ratio (z) = 0.48745 0.12110
#
# Static dielectric constant tensor:
#      x y z
#    x 3.475500 0.000000 0.208780 
#    y 0.000000 3.023420 0.000000 
#    z 0.208780 0.000000 3.282150 
# 
# 
# High freq. dielectric constant tensor:
#      x y z
#    x 1.683250 0.000000 0.001920 
#    y 0.000000 1.636740 0.000000 
#    z 0.001920 0.000000 1.659980 
# 
# From -- ./inp_files/34569.got.cif
#   From: 2010.06.25/outbox.cif.g09.slc.cpg/sg10_18_cif.got.tgz:34569.got - 2010.06.27 22:07:45.
