data_PCOD8067142
_publ_section_title
;
Structure prediction by ZEFSAII (Michael W. Deem and Ramdas Pophale) SiO2 
 PCOD8067142
Probable space group: P 2/M
;
_chemical_formula_sum "Si O2"
_cell_formula_units_Z 28
_cell_length_a 30.835977
_cell_length_b 7.859127
_cell_length_c 9.929061
_cell_angle_alpha 90.000000
_cell_angle_beta 36.131421
_cell_angle_gamma 90.000000
_cell_volume 1418.817944
_symmetry_space_group_name_H-M "P 2/M"
_symmetry_group_IT_number 10
_symmetry_cell_setting 'monoclinic'
loop_
_space_group_symop_operation_xyz
x,y,z
-x,y,-z
-x,-y,-z
x,-y,z
loop_
_atom_site_type_symbol
_atom_site_label
_atom_site_fract_x
_atom_site_fract_y
_atom_site_fract_z
Si Si1 0.070816 0.000000 0.729933
Si Si2 0.822444 0.693775 0.539373
Si Si3 0.335936 0.308379 0.147123
Si Si4 0.929176 0.000000 0.585198
Si Si5 0.418390 0.807847 0.692761
Si Si6 0.582214 0.807955 0.804685
Si Si7 0.178154 0.305199 0.146788
Si Si8 0.335097 0.309036 0.651575
O O1 0.115162 0.171146 0.656398
O O2 0.049048 0.000000 0.626948
O O3 0.000000 0.000000 0.000000
O O4 0.849652 0.500000 0.440840
O O5 0.750295 0.740826 0.633351
O O6 0.800825 0.713973 0.749665
O O7 0.343501 0.500000 0.074337
O O8 0.368869 0.296928 0.213522
O O9 0.380414 0.189539 0.933856
O O10 0.884850 0.171358 0.733953
O O11 0.000000 0.000000 0.500000
O O12 0.500000 0.730072 0.500000
O O13 0.372758 0.696599 0.702659
O O14 0.422346 0.000000 0.627896
O O15 0.622714 0.809877 0.559297
O O16 0.575633 0.000000 0.874322
O O17 0.500000 0.728617 0.000000
O O18 0.152539 0.500000 0.180424
O O19 0.249898 0.255535 0.880180
O O20 0.340294 0.500000 0.583210
#
# Coordination Sequence:
#
# PCOD8067142 Si02
#       8
#     2   4   4   2   4   4   4   4
#     4  10  22  40  64  92 121 156 190 228 291 356
#     4   9  19  37  62  91 120 154 196 242 292 350
#     4  11  22  38  60  85 114 155 205 249 298 355
#     4  10  22  40  64  92 121 156 190 228 291 356
#     4  11  23  35  55  87 119 152 197 252 300 348
#     4  11  25  41  55  79 119 164 203 250 310 360
#     4   9  19  37  62  91 120 154 196 242 292 350
#     4  11  22  38  60  85 114 155 205 249 298 355
#
# _framework density 19.734736999999999
#
# number of rings (size 3 to 8) (size 9 to 14) (size 15 to 20)
#    0.000    1.714    1.429    2.571    4.000    6.286 
#    2.571    0.000    0.000    0.000    0.000    0.000 
#    0.000    0.000    0.000    0.000    0.000    0.000 
#
# Total GULP energy -347262.868402 kJ/mol
# GULP energy per Si atom -12402.245300 kJ/mol
# Density = 1.968982 g / cm^3
# Si number density = 19.734737 Si / 1000 Ang^3
#
#
#
# Elastic Constant Matrix: (Units=GPa)
#
#
# Indices 1 2 3 4 5 6 
#
# 1 128.2540 43.2717 57.0461 0.0000 -23.3268 0.0000
# 2 43.2717 94.6273 55.4901 0.0000 -21.2153 0.0000
# 3 57.0461 55.4901 142.5567 0.0000 -15.4395 0.0000
# 4 0.0000 0.0000 0.0000 18.4354 0.0000 -2.0530
# 5 -23.3268 -21.2153 -15.4395 0.0000 32.0980 0.0000
# 6 0.0000 0.0000 0.0000 -2.0530 0.0000 20.9322
#
#
#
# Elastic Compliance Matrix: (Units=1/GPa)
#
#
# Indices 1 2 3 4 5 6 
#
# 1 0.010710 -0.002045 -0.002946 0.000000 0.005014 0.000000
# 2 -0.002045 0.015674 -0.004559 0.000000 0.006681 0.000000
# 3 -0.002946 -0.004559 0.009927 0.000000 -0.000379 0.000000
# 4 0.000000 0.000000 0.000000 0.054842 0.000000 0.005379
# 5 0.005014 0.006681 -0.000379 0.000000 0.039031 0.000000
# 6 0.000000 0.000000 0.000000 0.005379 0.000000 0.048301
#
#
# Mechanical properties :
#
#
# Convention : Reuss Voigt Hill
#
# Bulk Modulus (GPa) = 58.10813 75.22820 66.66817
# Shear Modulus (GPa) = 24.59122 28.26846 26.42984
#
# Velocity S-wave (km/s) = 3.53383 3.78884 3.66355
# Velocity P-wave (km/s) = 6.79405 7.57251 7.19381
#
# Compressibility (1/GPa) = 0.01720930
#
# Stress axis : x y z
#
# Youngs Moduli (GPa) = 93.37432 63.79803 100.73177
#
# Poissons Ratio (x) = 0.13050 0.29679
# Poissons Ratio (y) = 0.19099 0.45926
# Poissons Ratio (z) = 0.27512 0.29087
#
# Static dielectric constant tensor:
#      x y z
#    x 3.386180 0.000000 -0.110630 
#    y 0.000000 3.657580 0.000000 
#    z -0.110630 0.000000 3.369150 
# 
# 
# High freq. dielectric constant tensor:
#      x y z
#    x 1.756710 0.000000 -0.004860 
#    y 0.000000 1.780010 0.000000 
#    z -0.004860 0.000000 1.757250 
# 
# From -- ./inp_files/37156.got.cif
#   From: 2010.06.25/outbox.cif.g09.slc.cpg/sg10_19_cif.got.tgz:37156.got - 2010.06.27 22:07:45.
