data_PCOD8067218
_publ_section_title
;
Structure prediction by ZEFSAII (Michael W. Deem and Ramdas Pophale) SiO2 
 PCOD8067218
Probable space group: P 2/M
;
_chemical_formula_sum "Si O2"
_cell_formula_units_Z 20
_cell_length_a 8.825881
_cell_length_b 11.684308
_cell_length_c 8.552566
_cell_angle_alpha 90.000000
_cell_angle_beta 88.481582
_cell_angle_gamma 90.000000
_cell_volume 881.667786
_symmetry_space_group_name_H-M "P 2/M"
_symmetry_group_IT_number 10
_symmetry_cell_setting 'monoclinic'
loop_
_space_group_symop_operation_xyz
x,y,z
-x,y,-z
-x,-y,-z
x,-y,z
loop_
_atom_site_type_symbol
_atom_site_label
_atom_site_fract_x
_atom_site_fract_y
_atom_site_fract_z
Si Si1 0.278257 0.500000 0.115958
Si Si2 0.233021 0.719166 0.661805
Si Si3 0.734055 0.869429 0.644494
Si Si4 0.069893 0.284393 0.166782
Si Si5 0.562939 0.129595 0.157580
Si Si6 0.611669 0.500000 0.237040
O O1 0.433313 0.500000 0.209026
O O2 0.186321 0.388562 0.166836
O O3 0.298833 0.500000 0.929013
O O4 0.240442 0.782593 0.497120
O O5 0.061109 0.684809 0.704867
O O6 0.287142 0.804005 0.797594
O O7 0.342445 0.609143 0.660054
O O8 0.559448 0.863071 0.700746
O O9 0.842609 0.830818 0.783535
O O10 0.774794 0.000000 0.595304
O O11 0.000000 0.262707 0.000000
O O12 0.610824 0.000000 0.119950
O O13 0.500000 0.187152 0.000000
#
# Coordination Sequence:
#
# PCOD8067218 Si02
#       6
#     2   4   4   4   4   2
#     4  11  24  46  71 102 137 174 231 296 341 402
#     4  12  24  41  69 101 139 182 226 280 349 407
#     4  11  26  46  68 101 143 184 228 283 344 407
#     4  12  24  43  70 100 140 182 230 283 344 408
#     4  10  22  42  69  99 133 179 234 285 335 402
#     4  11  25  43  74 102 134 180 232 285 346 407
#
# _framework density 22.684282
#
# number of rings (size 3 to 8) (size 9 to 14) (size 15 to 20)
#    0.000    0.800    2.000    5.100    2.800    5.200 
#    0.000    5.000    0.000    0.000    0.000    0.000 
#    0.000    0.000    0.000    0.000    0.000    0.000 
#
# Total GULP energy -248127.247505 kJ/mol
# GULP energy per Si atom -12406.362375 kJ/mol
# Density = 2.263265 g / cm^3
# Si number density = 22.684282 Si / 1000 Ang^3
#
#
#
# Elastic Constant Matrix: (Units=GPa)
#
#
# Indices 1 2 3 4 5 6 
#
# 1 116.8246 63.8127 29.7949 0.0000 -3.3834 0.0000
# 2 63.8127 147.0041 64.8730 0.0000 10.5242 0.0000
# 3 29.7949 64.8730 100.0782 0.0000 -5.1632 0.0000
# 4 0.0000 0.0000 0.0000 40.5954 0.0000 7.1873
# 5 -3.3834 10.5242 -5.1632 0.0000 32.4083 0.0000
# 6 0.0000 0.0000 0.0000 7.1873 0.0000 7.9690
#
#
#
# Elastic Compliance Matrix: (Units=1/GPa)
#
#
# Indices 1 2 3 4 5 6 
#
# 1 0.011479 -0.005254 0.000139 0.000000 0.002927 0.000000
# 2 -0.005254 0.012509 -0.006839 0.000000 -0.005700 0.000000
# 3 0.000139 -0.006839 0.014619 0.000000 0.004564 0.000000
# 4 0.000000 0.000000 0.000000 0.029314 0.000000 -0.026438
# 5 0.002927 -0.005700 0.004564 0.000000 0.033740 0.000000
# 6 0.000000 0.000000 0.000000 -0.026438 0.000000 0.149330
#
#
# Mechanical properties :
#
#
# Convention : Reuss Voigt Hill
#
# Bulk Modulus (GPa) = 68.02412 75.65204 71.83808
# Shear Modulus (GPa) = 17.87001 29.88964 23.87982
#
# Velocity S-wave (km/s) = 2.80977 3.63386 3.24806
# Velocity P-wave (km/s) = 6.37015 7.14346 6.76786
#
# Compressibility (1/GPa) = 0.01470067
#
# Stress axis : x y z
#
# Youngs Moduli (GPa) = 87.11666 79.94180 68.40322
#
# Poissons Ratio (x) = 0.42000 -0.00952
# Poissons Ratio (y) = 0.45769 0.46778
# Poissons Ratio (z) = -0.01212 0.54669
#
# Static dielectric constant tensor:
#      x y z
#    x 4.260250 0.000000 0.067890 
#    y 0.000000 4.153180 0.000000 
#    z 0.067890 0.000000 4.040230 
# 
# 
# High freq. dielectric constant tensor:
#      x y z
#    x 1.904180 0.000000 0.004610 
#    y 0.000000 1.899760 0.000000 
#    z 0.004610 0.000000 1.898510 
# 
# From -- ./inp_files/17878.got.cif
#   From: 2010.06.25/outbox.cif.g09.slc.cpg/sg10_9_cif.got.tgz:17878.got - 2010.06.27 22:07:45.
