data_PCOD8067806
_publ_section_title
;
Structure prediction by ZEFSAII (Michael W. Deem and Ramdas Pophale) SiO2 
 PCOD8067806
Probable space group: P 2/M
;
_chemical_formula_sum "Si O2"
_cell_formula_units_Z 18
_cell_length_a 8.923858
_cell_length_b 9.929188
_cell_length_c 20.478330
_cell_angle_alpha 90.000000
_cell_angle_beta 29.572183
_cell_angle_gamma 90.000000
_cell_volume 895.499585
_symmetry_space_group_name_H-M "P 2/M"
_symmetry_group_IT_number 10
_symmetry_cell_setting 'monoclinic'
loop_
_space_group_symop_operation_xyz
x,y,z
-x,y,-z
-x,-y,-z
x,-y,z
loop_
_atom_site_type_symbol
_atom_site_label
_atom_site_fract_x
_atom_site_fract_y
_atom_site_fract_z
Si Si1 0.173783 0.500000 0.867573
Si Si2 0.156872 0.000000 0.605014
Si Si3 0.785657 0.500000 0.843300
Si Si4 0.137678 0.279053 0.778095
Si Si5 0.143863 0.000000 0.143190
Si Si6 0.809236 0.500000 0.686194
Si Si7 0.153268 0.758087 0.510842
O O1 0.079345 0.364437 0.865698
O O2 0.534611 0.500000 0.739413
O O3 0.000000 0.500000 0.000000
O O4 0.500000 0.000000 0.500000
O O5 0.081112 0.127244 0.589865
O O6 0.934202 0.000000 0.750941
O O7 0.675759 0.500000 0.810166
O O8 0.985861 0.364924 0.777200
O O9 0.500000 0.500000 0.000000
O O10 0.489736 0.260072 0.631479
O O11 0.988121 0.132468 0.842175
O O12 0.500000 0.000000 0.000000
O O13 0.018965 0.625686 0.593077
O O14 0.000000 0.794831 0.500000
#
# Coordination Sequence:
#
# PCOD8067806 Si02
#       7
#     2   2   2   4   2   2   4
#     4  11  24  43  66  96 140 181 222 270 344 403
#     4  12  25  44  71  97 133 181 221 276 339 401
#     4  11  24  40  64  95 133 175 225 269 338 397
#     4  11  23  44  68  94 136 177 216 286 329 393
#     4  12  26  46  71 101 138 172 231 281 332 400
#     4  12  23  38  68 101 127 174 227 281 325 397
#     4  12  24  43  68  99 135 170 226 278 340 392
#
# _framework density 20.100512999999999
#
# number of rings (size 3 to 8) (size 9 to 14) (size 15 to 20)
#    0.000    0.444    4.444    5.333    0.000    2.667 
#    0.000    0.556    0.000    0.000    0.000    0.000 
#    0.000    0.000    0.000    0.000    0.000    0.000 
#
# Total GULP energy -223274.818138 kJ/mol
# GULP energy per Si atom -12404.156563 kJ/mol
# Density = 2.005476 g / cm^3
# Si number density = 20.100513 Si / 1000 Ang^3
#
#
#
# Elastic Constant Matrix: (Units=GPa)
#
#
# Indices 1 2 3 4 5 6 
#
# 1 131.2762 73.8431 57.5562 0.0000 8.4398 0.0000
# 2 73.8431 201.5631 64.6844 0.0000 2.2675 0.0000
# 3 57.5562 64.6844 146.3345 0.0000 3.3819 0.0000
# 4 0.0000 0.0000 0.0000 19.9408 0.0000 5.3950
# 5 8.4398 2.2675 3.3819 0.0000 42.6323 0.0000
# 6 0.0000 0.0000 0.0000 5.3950 0.0000 19.9742
#
#
#
# Elastic Compliance Matrix: (Units=1/GPa)
#
#
# Indices 1 2 3 4 5 6 
#
# 1 0.010641 -0.002970 -0.002833 0.000000 -0.001724 0.000000
# 2 -0.002970 0.006611 -0.001763 0.000000 0.000376 0.000000
# 3 -0.002833 -0.001763 0.008728 0.000000 -0.000038 0.000000
# 4 0.000000 0.000000 0.000000 0.054102 0.000000 -0.014613
# 5 -0.001724 0.000376 -0.000038 0.000000 0.023781 0.000000
# 6 0.000000 0.000000 0.000000 -0.014613 0.000000 0.054012
#
#
# Mechanical properties :
#
#
# Convention : Reuss Voigt Hill
#
# Bulk Modulus (GPa) = 92.17501 96.81570 94.49535
# Shear Modulus (GPa) = 28.30930 35.38212 31.84571
#
# Velocity S-wave (km/s) = 3.75692 4.20010 3.98467
# Velocity P-wave (km/s) = 8.04834 8.47298 8.26339
#
# Compressibility (1/GPa) = 0.01084893
#
# Stress axis : x y z
#
# Youngs Moduli (GPa) = 93.97753 151.26998 114.57584
#
# Poissons Ratio (x) = 0.44925 0.32455
# Poissons Ratio (y) = 0.27910 0.20197
# Poissons Ratio (z) = 0.26620 0.26665
#
# Static dielectric constant tensor:
#      x y z
#    x 3.335450 0.000000 -0.199370 
#    y 0.000000 5.003050 0.000000 
#    z -0.199370 0.000000 3.562290 
# 
# 
# High freq. dielectric constant tensor:
#      x y z
#    x 1.796650 0.000000 -0.006100 
#    y 0.000000 1.801340 0.000000 
#    z -0.006100 0.000000 1.791920 
# 
# From -- ./inp_files/33644.got.cif
#   From: 2010.06.25/outbox.cif.g09.slc.cpg/sg10_17_cif.got.tgz:33644.got - 2010.06.27 22:07:45.
