data_PCOD8067323
_publ_section_title
;
Structure prediction by ZEFSAII (Michael W. Deem and Ramdas Pophale) SiO2 
 PCOD8067323
Probable space group: P 2/M
;
_chemical_formula_sum "Si O2"
_cell_formula_units_Z 16
_cell_length_a 5.132866
_cell_length_b 12.758210
_cell_length_c 12.582978
_cell_angle_alpha 90.000000
_cell_angle_beta 128.510791
_cell_angle_gamma 90.000000
_cell_volume 644.781258
_symmetry_space_group_name_H-M "P 2/M"
_symmetry_group_IT_number 10
_symmetry_cell_setting 'monoclinic'
loop_
_space_group_symop_operation_xyz
x,y,z
-x,y,-z
-x,-y,-z
x,-y,z
loop_
_atom_site_type_symbol
_atom_site_label
_atom_site_fract_x
_atom_site_fract_y
_atom_site_fract_z
Si Si1 0.597993 0.883364 0.193100
Si Si2 0.628180 0.669627 0.920668
Si Si3 0.633210 0.617963 0.366913
Si Si4 0.348927 0.173875 0.352728
O O1 0.363416 0.797137 0.077627
O O2 0.566682 0.874333 0.312577
O O3 0.970468 0.860936 0.248539
O O4 0.492609 0.000000 0.129400
O O5 0.386996 0.627506 0.766324
O O6 0.500000 0.625528 0.000000
O O7 0.000000 0.626686 0.000000
O O8 0.544704 0.500000 0.381079
O O9 0.370173 0.698699 0.352277
O O10 0.000000 0.650166 0.500000
O O11 0.500000 0.130129 0.500000
#
# Coordination Sequence:
#
# PCOD8067323 Si02
#       4
#     4   4   4   4
#     4  11  24  41  64  95 132 178 227 275 331 395
#     4  11  24  44  68  98 139 179 222 277 334 397
#     4  10  23  45  73 102 135 178 225 276 337 402
#     4  11  22  40  64  96 138 175 220 279 334 397
#
# _framework density 24.814616000000001
#
# number of rings (size 3 to 8) (size 9 to 14) (size 15 to 20)
#    0.000    1.250    0.000    7.500    0.000    5.500 
#    0.000   12.500    0.000    0.000    0.000    0.000 
#    0.000    0.000    0.000    0.000    0.000    0.000 
#
# Total GULP energy -198427.566239 kJ/mol
# GULP energy per Si atom -12401.722890 kJ/mol
# Density = 2.475814 g / cm^3
# Si number density = 24.814616 Si / 1000 Ang^3
#
#
#
# Elastic Constant Matrix: (Units=GPa)
#
#
# Indices 1 2 3 4 5 6 
#
# 1 144.9305 11.4199 47.3365 0.0000 -4.7043 0.0000
# 2 11.4199 119.2510 -11.7921 0.0000 16.4385 0.0000
# 3 47.3365 -11.7921 128.4837 0.0000 -11.6605 0.0000
# 4 0.0000 0.0000 0.0000 25.0156 0.0000 28.8126
# 5 -4.7043 16.4385 -11.6605 0.0000 37.3881 0.0000
# 6 0.0000 0.0000 0.0000 28.8126 0.0000 47.5325
#
#
#
# Elastic Compliance Matrix: (Units=1/GPa)
#
#
# Indices 1 2 3 4 5 6 
#
# 1 0.007986 -0.001140 -0.002995 0.000000 0.000572 0.000000
# 2 -0.001140 0.009118 0.000906 0.000000 -0.003870 0.000000
# 3 -0.002995 0.000906 0.009159 0.000000 0.002081 0.000000
# 4 0.000000 0.000000 0.000000 0.132444 0.000000 -0.080283
# 5 0.000572 -0.003870 0.002081 0.000000 0.029169 0.000000
# 6 0.000000 0.000000 0.000000 -0.080283 0.000000 0.069703
#
#
# Mechanical properties :
#
#
# Convention : Reuss Voigt Hill
#
# Bulk Modulus (GPa) = 50.49458 54.06596 52.28027
# Shear Modulus (GPa) = 18.47480 45.03397 31.75439
#
# Velocity S-wave (km/s) = 2.73154 4.26469 3.58112
# Velocity P-wave (km/s) = 5.50829 6.78862 6.18169
#
# Compressibility (1/GPa) = 0.01980410
#
# Stress axis : x y z
#
# Youngs Moduli (GPa) = 125.21147 109.67531 109.18743
#
# Poissons Ratio (x) = 0.12501 0.32703
# Poissons Ratio (y) = 0.14272 -0.09888
# Poissons Ratio (z) = 0.37502 -0.09932
#
# Static dielectric constant tensor:
#      x y z
#    x 4.394310 0.000000 -0.197150 
#    y 0.000000 4.617790 0.000000 
#    z -0.197150 0.000000 4.356600 
# 
# 
# High freq. dielectric constant tensor:
#      x y z
#    x 1.989910 0.000000 -0.011850 
#    y 0.000000 1.985260 0.000000 
#    z -0.011850 0.000000 1.983860 
# 
# From -- ./inp_files/47536.got.cif
#   From: 2010.06.25/outbox.cif.g09.slc.cpg/sg10_24_cif.got.tgz:47536.got - 2010.06.27 22:07:45.
