data_PCOD8067308
_publ_section_title
;
Structure prediction by ZEFSAII (Michael W. Deem and Ramdas Pophale) SiO2 
 PCOD8067308
Probable space group: P 2/M
;
_chemical_formula_sum "Si O2"
_cell_formula_units_Z 28
_cell_length_a 14.497000
_cell_length_b 8.550067
_cell_length_c 12.444428
_cell_angle_alpha 90.000000
_cell_angle_beta 120.676152
_cell_angle_gamma 90.000000
_cell_volume 1326.641927
_symmetry_space_group_name_H-M "P 2/M"
_symmetry_group_IT_number 10
_symmetry_cell_setting 'monoclinic'
loop_
_space_group_symop_operation_xyz
x,y,z
-x,y,-z
-x,-y,-z
x,-y,z
loop_
_atom_site_type_symbol
_atom_site_label
_atom_site_fract_x
_atom_site_fract_y
_atom_site_fract_z
Si Si1 0.615528 0.681621 0.029485
Si Si2 0.621723 0.818714 0.584514
Si Si3 0.014300 0.317764 0.705274
Si Si4 0.775257 0.682128 0.498886
Si Si5 0.790190 0.181483 0.285924
Si Si6 0.909276 0.821135 0.031671
Si Si7 0.308964 0.678028 0.157170
O O1 0.635199 0.500000 0.068954
O O2 0.707211 0.781370 0.141573
O O3 0.500000 0.739802 0.000000
O O4 0.617902 0.711480 0.903315
O O5 0.500000 0.759924 0.500000
O O6 0.696750 0.721792 0.549685
O O7 0.657089 0.793225 0.727952
O O8 0.632819 0.000000 0.561750
O O9 0.018815 0.500000 0.738106
O O10 0.099891 0.279966 0.662606
O O11 0.895984 0.267300 0.599094
O O12 0.044046 0.212440 0.824013
O O13 0.767311 0.500000 0.469519
O O14 0.738747 0.773419 0.370068
O O15 0.818283 0.000000 0.298715
O O16 0.813289 0.704733 0.948556
O O17 0.869400 0.000000 0.002710
O O18 0.000000 0.785939 0.000000
O O19 0.322322 0.500000 0.204650
#
# Coordination Sequence:
#
# PCOD8067308 Si02
#       7
#     4   4   4   4   4   4   4
#     4  10  23  43  67  97 130 169 216 265 318 380
#     4  11  26  46  67  95 132 170 214 268 325 383
#     4  11  23  41  64  94 129 169 216 264 318 382
#     4  11  25  44  68  95 129 172 220 268 318 381
#     4  12  25  41  66  99 134 171 212 263 326 386
#     4  11  23  38  61  93 130 170 209 261 323 380
#     4  11  23  41  67  96 128 169 215 264 317 378
#
# _framework density 21.105920999999999
#
# number of rings (size 3 to 8) (size 9 to 14) (size 15 to 20)
#    0.000    1.000    1.429    4.714    2.000    9.429 
#    0.000    0.000    0.000    0.000    0.000    0.000 
#    0.000    0.000    0.000    0.000    0.000    0.000 
#
# Total GULP energy -347433.198918 kJ/mol
# GULP energy per Si atom -12408.328533 kJ/mol
# Density = 2.105788 g / cm^3
# Si number density = 21.105921 Si / 1000 Ang^3
#
#
#
# Elastic Constant Matrix: (Units=GPa)
#
#
# Indices 1 2 3 4 5 6 
#
# 1 125.7728 33.9596 30.2182 0.0000 -6.2516 0.0000
# 2 33.9596 51.1450 16.0461 0.0000 2.4819 0.0000
# 3 30.2182 16.0461 83.1921 0.0000 -13.6287 0.0000
# 4 0.0000 0.0000 0.0000 37.4909 0.0000 -3.7670
# 5 -6.2516 2.4819 -13.6287 0.0000 32.4875 0.0000
# 6 0.0000 0.0000 0.0000 -3.7670 0.0000 32.4479
#
#
#
# Elastic Compliance Matrix: (Units=1/GPa)
#
#
# Indices 1 2 3 4 5 6 
#
# 1 0.010235 -0.006149 -0.002289 0.000000 0.001479 0.000000
# 2 -0.006149 0.024887 -0.003299 0.000000 -0.004468 0.000000
# 3 -0.002289 -0.003299 0.014450 0.000000 0.005874 0.000000
# 4 0.000000 0.000000 0.000000 0.026988 0.000000 0.003133
# 5 0.001479 -0.004468 0.005874 0.000000 0.033871 0.000000
# 6 0.000000 0.000000 0.000000 0.003133 0.000000 0.031182
#
#
# Mechanical properties :
#
#
# Convention : Reuss Voigt Hill
#
# Bulk Modulus (GPa) = 38.31731 46.72862 42.52297
# Shear Modulus (GPa) = 28.77086 32.47766 30.62426
#
# Velocity S-wave (km/s) = 3.69611 3.92700 3.81331
# Velocity P-wave (km/s) = 6.03400 6.53834 6.29123
#
# Compressibility (1/GPa) = 0.02609787
#
# Stress axis : x y z
#
# Youngs Moduli (GPa) = 97.70663 40.18155 69.20250
#
# Poissons Ratio (x) = 0.24709 0.15842
# Poissons Ratio (y) = 0.60083 0.22827
# Poissons Ratio (z) = 0.22367 0.13254
#
# Static dielectric constant tensor:
#      x y z
#    x 3.924550 0.000000 -0.101390 
#    y 0.000000 3.703500 0.000000 
#    z -0.101390 0.000000 3.754180 
# 
# 
# High freq. dielectric constant tensor:
#      x y z
#    x 1.839330 0.000000 -0.007770 
#    y 0.000000 1.829940 0.000000 
#    z -0.007770 0.000000 1.832910 
# 
# From -- ./inp_files/50067.got.cif
#   From: 2010.06.25/outbox.cif.g09.slc.cpg/sg10_26_cif.got.tgz:50067.got - 2010.06.27 22:07:45.
