data_PCOD8067532
_publ_section_title
;
Structure prediction by ZEFSAII (Michael W. Deem and Ramdas Pophale) SiO2 
 PCOD8067532
Probable space group: P 2/M
;
_chemical_formula_sum "Si O2"
_cell_formula_units_Z 28
_cell_length_a 28.823702
_cell_length_b 13.739618
_cell_length_c 27.415250
_cell_angle_alpha 90.000000
_cell_angle_beta 169.907188
_cell_angle_gamma 90.000000
_cell_volume 1902.645328
_symmetry_space_group_name_H-M "P 2/M"
_symmetry_group_IT_number 10
_symmetry_cell_setting 'monoclinic'
loop_
_space_group_symop_operation_xyz
x,y,z
-x,y,-z
-x,-y,-z
x,-y,z
loop_
_atom_site_type_symbol
_atom_site_label
_atom_site_fract_x
_atom_site_fract_y
_atom_site_fract_z
Si Si1 0.442169 0.383900 0.386142
Si Si2 0.225759 0.384454 0.942393
Si Si3 0.115848 0.383954 0.229994
Si Si4 0.217945 0.616191 0.444173
Si Si5 0.521536 0.696103 0.964206
Si Si6 0.281870 0.894691 0.814990
Si Si7 0.966010 0.612728 0.361063
O O1 0.500000 0.343047 0.500000
O O2 0.443621 0.500000 0.388625
O O3 0.661665 0.343937 0.576219
O O4 0.162363 0.343970 0.077681
O O5 0.229808 0.500000 0.948684
O O6 0.163834 0.349903 0.823532
O O7 0.009205 0.342914 0.755644
O O8 0.507290 0.342118 0.250600
O O9 0.116233 0.500000 0.231156
O O10 0.169977 0.343236 0.340116
O O11 0.219276 0.500000 0.444932
O O12 0.233111 0.674402 0.644289
O O13 0.500000 0.683985 0.000000
O O14 0.617196 0.805043 0.047104
O O15 0.748571 0.624503 0.178773
O O16 0.000000 0.865182 0.500000
O O17 0.256120 0.000000 0.816140
O O18 0.500000 0.908096 0.000000
O O19 0.049427 0.500000 0.445032
#
# Coordination Sequence:
#
# PCOD8067532 Si02
#       7
#     4   4   4   4   4   4   4
#     4   9  15  21  27  37  56  78  96 118 158 215
#     4   9  17  28  39  50  65  88 116 147 182 214
#     4   9  15  21  30  43  55  71  98 132 168 206
#     4   9  15  24  37  49  60  76 107 149 183 210
#     4  11  21  33  47  64  83 104 131 158 185 225
#     4   9  17  31  50  68  84 101 123 155 192 224
#     4  11  22  33  44  59  82 110 135 157 186 228
#
# _framework density 14.716353
#
# number of rings (size 3 to 8) (size 9 to 14) (size 15 to 20)
#    0.000    2.429    0.000    4.714    0.000    9.143 
#    0.000    0.000    0.000    0.000    0.000    0.000 
#    0.000    0.000    0.000    0.000    0.000    0.000 
#
# Total GULP energy -347049.241522 kJ/mol
# GULP energy per Si atom -12394.615769 kJ/mol
# Density = 1.468286 g / cm^3
# Si number density = 14.716353 Si / 1000 Ang^3
#
#
#
# Elastic Constant Matrix: (Units=GPa)
#
#
# Indices 1 2 3 4 5 6 
#
# 1 98.1227 18.2381 54.4054 0.0000 1.4793 0.0000
# 2 18.2381 29.9758 24.1228 0.0000 -6.5584 0.0000
# 3 54.4054 24.1228 146.0153 0.0000 2.3062 0.0000
# 4 0.0000 0.0000 0.0000 11.0739 0.0000 4.4975
# 5 1.4793 -6.5584 2.3062 0.0000 32.3253 0.0000
# 6 0.0000 0.0000 0.0000 4.4975 0.0000 2.1682
#
#
#
# Elastic Compliance Matrix: (Units=1/GPa)
#
#
# Indices 1 2 3 4 5 6 
#
# 1 0.013469 -0.005159 -0.004145 0.000000 -0.001367 0.000000
# 2 -0.005159 0.042794 -0.005295 0.000000 0.009296 0.000000
# 3 -0.004145 -0.005295 0.009292 0.000000 -0.001547 0.000000
# 4 0.000000 0.000000 0.000000 0.573220 0.000000 -1.189052
# 5 -0.001367 0.009296 -0.001547 0.000000 0.032994 0.000000
# 6 0.000000 0.000000 0.000000 -1.189052 0.000000 2.927719
#
#
# Mechanical properties :
#
#
# Convention : Reuss Voigt Hill
#
# Bulk Modulus (GPa) = 27.50365 51.96072 39.73218
# Shear Modulus (GPa) = 1.37332 20.93663 11.15498
#
# Velocity S-wave (km/s) = 0.96707 3.77593 2.75616
# Velocity P-wave (km/s) = 4.46953 7.37530 6.09802
#
# Compressibility (1/GPa) = 0.03635881
#
# Stress axis : x y z
#
# Youngs Moduli (GPa) = 74.24551 23.36802 107.61902
#
# Poissons Ratio (x) = 0.12055 0.44604
# Poissons Ratio (y) = 0.38300 0.56979
# Poissons Ratio (z) = 0.30772 0.12372
#
# Static dielectric constant tensor:
#      x y z
#    x 2.967610 0.000000 0.061710 
#    y 0.000000 2.544040 0.000000 
#    z 0.061710 0.000000 3.080050 
# 
# 
# High freq. dielectric constant tensor:
#      x y z
#    x 1.565810 0.000000 0.013070 
#    y 0.000000 1.479250 0.000000 
#    z 0.013070 0.000000 1.586400 
# 
# From -- ./inp_files/13276.got.cif
#   From: 2010.06.25/outbox.cif.g09.slc.cpg/sg10_7_cif.got.tgz:13276.got - 2010.06.27 22:07:45.
