data_PCOD8067517
_publ_section_title
;
Structure prediction by ZEFSAII (Michael W. Deem and Ramdas Pophale) SiO2 
 PCOD8067517
Probable space group: P 2/M
;
_chemical_formula_sum "Si O2"
_cell_formula_units_Z 22
_cell_length_a 17.797953
_cell_length_b 16.620368
_cell_length_c 5.104767
_cell_angle_alpha 90.000000
_cell_angle_beta 89.946279
_cell_angle_gamma 90.000000
_cell_volume 1510.032951
_symmetry_space_group_name_H-M "P 2/M"
_symmetry_group_IT_number 10
_symmetry_cell_setting 'monoclinic'
loop_
_space_group_symop_operation_xyz
x,y,z
-x,y,-z
-x,-y,-z
x,-y,z
loop_
_atom_site_type_symbol
_atom_site_label
_atom_site_fract_x
_atom_site_fract_y
_atom_site_fract_z
Si Si1 0.086319 0.837980 0.416950
Si Si2 0.159162 0.093132 0.924884
Si Si3 0.584687 0.096058 0.484744
Si Si4 0.051951 0.671465 0.251391
Si Si5 0.672403 0.904403 0.983661
Si Si6 0.052045 0.500000 0.248556
O O1 0.135256 0.855443 0.672919
O O2 0.105255 0.748185 0.306008
O O3 0.000000 0.848405 0.500000
O O4 0.104905 0.897453 0.176446
O O5 0.241670 0.124592 0.003695
O O6 0.159440 0.000000 0.840425
O O7 0.500000 0.129742 0.500000
O O8 0.624518 0.129600 0.225639
O O9 0.583421 0.000000 0.487836
O O10 0.633424 0.130279 0.724549
O O11 0.000000 0.661649 0.500000
O O12 0.097944 0.585545 0.230730
O O13 0.000000 0.689349 0.000000
O O14 0.670060 0.000000 0.982392
O O15 0.000000 0.500000 0.500000
O O16 0.000000 0.500000 0.000000
#
# Coordination Sequence:
#
# PCOD8067517 Si02
#       6
#     4   4   4   4   4   2
#     4  11  21  32  44  57  74  98 135 181 214 235
#     4  11  22  33  43  54  73 105 140 175 210 236
#     4   9  15  24  40  59  75  90 111 147 193 235
#     4   9  16  28  43  60  78  94 116 154 203 247
#     4   9  17  28  39  53  73  95 122 155 192 234
#     4   8  14  24  42  62  78  94 110 138 193 256
#
# _framework density 14.569219
#
# number of rings (size 3 to 8) (size 9 to 14) (size 15 to 20)
#    0.000    2.364    0.000    4.909    0.000    7.273 
#    0.000    0.000    0.000    0.000    0.000    0.000 
#    0.000    0.000    0.000    0.000    0.000    0.000 
#
# Total GULP energy -272554.311683 kJ/mol
# GULP energy per Si atom -12388.832349 kJ/mol
# Density = 1.453606 g / cm^3
# Si number density = 14.569219 Si / 1000 Ang^3
#
#
#
# Elastic Constant Matrix: (Units=GPa)
#
#
# Indices 1 2 3 4 5 6 
#
# 1 62.9367 27.8021 26.7176 0.0000 6.7561 0.0000
# 2 27.8021 53.9427 20.1769 0.0000 10.1406 0.0000
# 3 26.7176 20.1769 112.2085 0.0000 8.4261 0.0000
# 4 0.0000 0.0000 0.0000 16.9111 0.0000 0.2283
# 5 6.7561 10.1406 8.4261 0.0000 27.6614 0.0000
# 6 0.0000 0.0000 0.0000 0.2283 0.0000 0.3616
#
#
#
# Elastic Compliance Matrix: (Units=1/GPa)
#
#
# Indices 1 2 3 4 5 6 
#
# 1 0.021721 -0.009811 -0.003356 0.000000 -0.000686 0.000000
# 2 -0.009811 0.025456 -0.001761 0.000000 -0.006400 0.000000
# 3 -0.003356 -0.001761 0.010150 0.000000 -0.001627 0.000000
# 4 0.000000 0.000000 0.000000 0.059641 0.000000 -0.037646
# 5 -0.000686 -0.006400 -0.001627 0.000000 0.039161 0.000000
# 6 0.000000 0.000000 0.000000 -0.037646 0.000000 2.788880
#
#
# Mechanical properties :
#
#
# Convention : Reuss Voigt Hill
#
# Bulk Modulus (GPa) = 36.40114 42.05346 39.22730
# Shear Modulus (GPa) = 1.67559 19.27959 10.47759
#
# Velocity S-wave (km/s) = 1.07359 3.64168 2.68462
# Velocity P-wave (km/s) = 5.15519 6.82713 6.04920
#
# Compressibility (1/GPa) = 0.02747167
#
# Stress axis : x y z
#
# Youngs Moduli (GPa) = 46.03767 39.28299 98.52290
#
# Poissons Ratio (x) = 0.38539 0.33068
# Poissons Ratio (y) = 0.45166 0.17349
# Poissons Ratio (z) = 0.15452 0.06917
#
# Static dielectric constant tensor:
#      x y z
#    x 2.717490 0.000000 -0.011800 
#    y 0.000000 3.150120 0.000000 
#    z -0.011800 0.000000 3.076740 
# 
# 
# High freq. dielectric constant tensor:
#      x y z
#    x 1.523020 0.000000 -0.003610 
#    y 0.000000 1.514570 0.000000 
#    z -0.003610 0.000000 1.588950 
# 
# From -- ./inp_files/9119.got.cif
#   From: 2010.06.25/outbox.cif.g09.slc.cpg/sg10_5_cif.got.tgz:9119.got - 2010.06.27 22:07:45.
