data_PCOD8067991
_publ_section_title
;
Structure prediction by ZEFSAII (Michael W. Deem and Ramdas Pophale) SiO2 
 PCOD8067991
Probable space group: P 2/M
;
_chemical_formula_sum "Si O2"
_cell_formula_units_Z 28
_cell_length_a 21.191345
_cell_length_b 17.738146
_cell_length_c 14.891971
_cell_angle_alpha 90.000000
_cell_angle_beta 158.759175
_cell_angle_gamma 90.000000
_cell_volume 2028.027418
_symmetry_space_group_name_H-M "P 2/M"
_symmetry_group_IT_number 10
_symmetry_cell_setting 'monoclinic'
loop_
_space_group_symop_operation_xyz
x,y,z
-x,y,-z
-x,-y,-z
x,-y,z
loop_
_atom_site_type_symbol
_atom_site_label
_atom_site_fract_x
_atom_site_fract_y
_atom_site_fract_z
Si Si1 0.292136 0.585308 0.225625
Si Si2 0.505693 0.810487 0.403065
Si Si3 0.004119 0.814211 0.402507
Si Si4 0.839911 0.280331 0.853713
Si Si5 0.670423 0.086310 0.959474
Si Si6 0.829824 0.716054 0.037098
Si Si7 0.664228 0.913318 0.157191
O O1 0.500000 0.588486 0.500000
O O2 0.222956 0.500000 0.139031
O O3 0.228801 0.632877 0.228970
O O4 0.207597 0.625819 0.024486
O O5 0.500000 0.833794 0.500000
O O6 0.687221 0.773092 0.614742
O O7 0.479657 0.883306 0.305758
O O8 0.355010 0.751035 0.180736
O O9 0.975182 0.738724 0.303710
O O10 0.000000 0.787783 0.500000
O O11 0.182733 0.855750 0.613346
O O12 0.852645 0.873416 0.181290
O O13 0.893936 0.251662 0.025281
O O14 0.000000 0.274898 0.000000
O O15 0.701303 0.000000 0.977506
O O16 0.610448 0.098334 0.982405
O O17 0.724333 0.000000 0.253034
O O18 0.500000 0.892214 0.000000
#
# Coordination Sequence:
#
# PCOD8067991 Si02
#       7
#     4   4   4   4   4   4   4
#     4   9  15  27  46  64  85 111 131 160 203 243
#     4   9  15  28  41  55  82 108 136 166 202 239
#     4   9  16  27  45  60  76 106 139 175 204 238
#     4   9  16  26  40  62  85 109 132 162 197 241
#     4   9  17  27  42  60  77 104 139 175 206 237
#     4   8  15  28  40  59  83 105 134 167 198 239
#     4   9  17  28  40  59  84 104 130 172 215 248
#
# _framework density 13.806519
#
# number of rings (size 3 to 8) (size 9 to 14) (size 15 to 20)
#    0.857    2.286    1.429    0.429    0.000    3.429 
#    0.000    0.000    0.000    0.857    0.000    0.000 
#    0.000    0.571    0.000    0.286    0.000    0.000 
#
# Total GULP energy -346874.756611 kJ/mol
# GULP energy per Si atom -12388.384165 kJ/mol
# Density = 1.377509 g / cm^3
# Si number density = 13.806519 Si / 1000 Ang^3
#
#
#
# Elastic Constant Matrix: (Units=GPa)
#
#
# Indices 1 2 3 4 5 6 
#
# 1 67.6088 34.3023 48.8215 0.0000 11.2982 0.0000
# 2 34.3023 79.1440 47.0960 0.0000 -9.9938 0.0000
# 3 48.8215 47.0960 79.4105 0.0000 -2.3884 0.0000
# 4 0.0000 0.0000 0.0000 22.3945 0.0000 -2.3214
# 5 11.2982 -9.9938 -2.3884 0.0000 25.6501 0.0000
# 6 0.0000 0.0000 0.0000 -2.3214 0.0000 11.9451
#
#
#
# Elastic Compliance Matrix: (Units=1/GPa)
#
#
# Indices 1 2 3 4 5 6 
#
# 1 0.034126 -0.006798 -0.017530 0.000000 -0.019312 0.000000
# 2 -0.006798 0.022043 -0.008569 0.000000 0.010785 0.000000
# 3 -0.017530 -0.008569 0.028664 0.000000 0.007052 0.000000
# 4 0.000000 0.000000 0.000000 0.045572 0.000000 0.008857
# 5 -0.019312 0.010785 0.007052 0.000000 0.052351 0.000000
# 6 0.000000 0.000000 0.000000 0.008857 0.000000 0.085438
#
#
# Mechanical properties :
#
#
# Convention : Reuss Voigt Hill
#
# Bulk Modulus (GPa) = 52.52342 54.06699 53.29521
# Shear Modulus (GPa) = 14.69148 18.39417 16.54283
#
# Velocity S-wave (km/s) = 3.26559 3.65400 3.46524
# Velocity P-wave (km/s) = 7.23490 7.55300 7.39566
#
# Compressibility (1/GPa) = 0.01903912
#
# Stress axis : x y z
#
# Youngs Moduli (GPa) = 29.30336 45.36679 34.88684
#
# Poissons Ratio (x) = 0.30840 0.61155
# Poissons Ratio (y) = 0.19920 0.29895
# Poissons Ratio (z) = 0.51368 0.38875
#
# Static dielectric constant tensor:
#      x y z
#    x 2.626100 0.000000 -0.114210 
#    y 0.000000 2.735170 0.000000 
#    z -0.114210 0.000000 2.689140 
# 
# 
# High freq. dielectric constant tensor:
#      x y z
#    x 1.515360 0.000000 0.001120 
#    y 0.000000 1.510720 0.000000 
#    z 0.001120 0.000000 1.515490 
# 
# From -- ./inp_files/70827.got.cif
#   From: 2010.06.25/outbox.cif.g09.slc.cpg/sg10_36_cif.got.tgz:70827.got - 2010.06.27 22:07:45.
