data_PCOD8067581
_publ_section_title
;
Structure prediction by ZEFSAII (Michael W. Deem and Ramdas Pophale) SiO2 
 PCOD8067581
Probable space group: P 2/M
;
_chemical_formula_sum "Si O2"
_cell_formula_units_Z 32
_cell_length_a 28.913134
_cell_length_b 8.689553
_cell_length_c 11.824428
_cell_angle_alpha 90.000000
_cell_angle_beta 31.094567
_cell_angle_gamma 90.000000
_cell_volume 1534.273632
_symmetry_space_group_name_H-M "P 2/M"
_symmetry_group_IT_number 10
_symmetry_cell_setting 'monoclinic'
loop_
_space_group_symop_operation_xyz
x,y,z
-x,y,-z
-x,-y,-z
x,-y,z
loop_
_atom_site_type_symbol
_atom_site_label
_atom_site_fract_x
_atom_site_fract_y
_atom_site_fract_z
Si Si1 0.997664 0.819419 0.632652
Si Si2 0.322070 0.176090 0.950372
Si Si3 0.779084 0.682093 0.460565
Si Si4 0.165959 0.678761 0.898135
Si Si5 0.837461 0.681298 0.579571
Si Si6 0.515723 0.323902 0.283781
Si Si7 0.674982 0.174736 0.314297
Si Si8 0.417514 0.676141 0.105459
O O1 0.076704 0.752968 0.541991
O O2 0.000000 0.751580 0.500000
O O3 0.010638 0.000000 0.600354
O O4 0.903827 0.780570 0.887050
O O5 0.252429 0.272814 0.168481
O O6 0.324526 0.000000 0.987539
O O7 0.420551 0.251326 0.753753
O O8 0.292050 0.185723 0.883593
O O9 0.767300 0.500000 0.495639
O O10 0.836157 0.725828 0.229974
O O11 0.831272 0.741519 0.462762
O O12 0.678438 0.754227 0.664155
O O13 0.142522 0.500000 0.963161
O O14 0.265019 0.711722 0.736751
O O15 0.848335 0.500000 0.561583
O O16 0.492836 0.500000 0.362616
O O17 0.426704 0.225522 0.460031
O O18 0.569715 0.310829 0.054601
O O19 0.684617 0.000000 0.337913
O O20 0.414572 0.500000 0.152747
O O21 0.500000 0.757939 0.000000
#
# Coordination Sequence:
#
# PCOD8067581 Si02
#       8
#     4   4   4   4   4   4   4   4
#     4  11  25  45  66  91 127 164 197 245 312 371
#     4  11  23  39  58  84 124 167 202 248 314 371
#     4   9  19  37  60  91 126 157 196 252 314 357
#     4  11  23  41  67  94 120 156 204 253 300 361
#     4  11  22  40  67  94 122 158 206 257 301 363
#     4  11  21  35  59  88 117 158 212 259 299 360
#     4  11  24  40  57  83 125 168 202 250 315 369
#     4   9  16  30  55  84 117 157 200 247 299 352
#
# _framework density 20.856774999999999
#
# number of rings (size 3 to 8) (size 9 to 14) (size 15 to 20)
#    0.000    1.500    1.250    4.125    0.000   10.000 
#    0.000    5.000    0.000    1.500    0.000    0.000 
#    0.000    0.000    0.000    0.000    0.000    0.000 
#
# Total GULP energy -396884.693772 kJ/mol
# GULP energy per Si atom -12402.646680 kJ/mol
# Density = 2.080930 g / cm^3
# Si number density = 20.856775 Si / 1000 Ang^3
#
#
#
# Elastic Constant Matrix: (Units=GPa)
#
#
# Indices 1 2 3 4 5 6 
#
# 1 121.5748 35.8184 36.0832 0.0000 -2.5216 0.0000
# 2 35.8184 59.4009 22.7934 0.0000 3.5606 0.0000
# 3 36.0832 22.7934 95.4159 0.0000 3.3492 0.0000
# 4 0.0000 0.0000 0.0000 26.1561 0.0000 -14.7222
# 5 -2.5216 3.5606 3.3492 0.0000 32.7110 0.0000
# 6 0.0000 0.0000 0.0000 -14.7222 0.0000 0.9680
#
#
#
# Elastic Compliance Matrix: (Units=1/GPa)
#
#
# Indices 1 2 3 4 5 6 
#
# 1 0.010708 -0.005485 -0.002799 0.000000 0.001709 0.000000
# 2 -0.005485 0.021424 -0.002958 0.000000 -0.002452 0.000000
# 3 -0.002799 -0.002958 0.012286 0.000000 -0.001152 0.000000
# 4 0.000000 0.000000 0.000000 -0.005057 0.000000 -0.076909
# 5 0.001709 -0.002452 -0.001152 0.000000 0.031087 0.000000
# 6 0.000000 0.000000 0.000000 -0.076909 0.000000 -0.136639
#
#
# Mechanical properties :
#
#
# Convention : Reuss Voigt Hill
#
# Bulk Modulus (GPa) = 45.59046 51.75349 48.67198
# Shear Modulus (GPa) = -137.37454 24.08013 -56.64721
#
# Velocity S-wave (km/s) = -8.12457 3.40155 -5.21719
# Velocity P-wave (km/s) = 8.13051 6.34783 3.59237
#
# Compressibility (1/GPa) = 0.02193441
#
# Stress axis : x y z
#
# Youngs Moduli (GPa) = 93.39200 46.67648 81.39448
#
# Poissons Ratio (x) = 0.25602 0.22782
# Poissons Ratio (y) = 0.51226 0.24073
# Poissons Ratio (z) = 0.26140 0.13805
#
# Static dielectric constant tensor:
#      x y z
#    x 4.106160 0.000000 0.052810 
#    y 0.000000 3.606220 0.000000 
#    z 0.052810 0.000000 3.839850 
# 
# 
# High freq. dielectric constant tensor:
#      x y z
#    x 1.831700 0.000000 0.001580 
#    y 0.000000 1.795670 0.000000 
#    z 0.001580 0.000000 1.821480 
# 
# From -- ./inp_files/49953.got.cif
#   From: 2010.06.25/outbox.cif.g09.slc.cpg/sg10_25_cif.got.tgz:49953.got - 2010.06.27 22:07:45.
