data_PCOD8067687
_publ_section_title
;
Structure prediction by ZEFSAII (Michael W. Deem and Ramdas Pophale) SiO2 
 PCOD8067687
Probable space group: P 2/M
;
_chemical_formula_sum "Si O2"
_cell_formula_units_Z 20
_cell_length_a 5.170532
_cell_length_b 8.214649
_cell_length_c 22.712103
_cell_angle_alpha 90.000000
_cell_angle_beta 96.531490
_cell_angle_gamma 90.000000
_cell_volume 958.415017
_symmetry_space_group_name_H-M "P 2/M"
_symmetry_group_IT_number 10
_symmetry_cell_setting 'monoclinic'
loop_
_space_group_symop_operation_xyz
x,y,z
-x,y,-z
-x,-y,-z
x,-y,z
loop_
_atom_site_type_symbol
_atom_site_label
_atom_site_fract_x
_atom_site_fract_y
_atom_site_fract_z
Si Si1 0.034924 0.694266 0.566914
Si Si2 0.836281 0.810822 0.168083
Si Si3 0.431915 0.693810 0.364970
Si Si4 0.767683 0.806090 0.033863
Si Si5 0.632356 0.689196 0.769191
O O1 0.035083 0.500000 0.566384
O O2 0.802451 0.761381 0.601358
O O3 0.000000 0.761833 0.500000
O O4 0.301769 0.763189 0.600876
O O5 0.799916 0.742746 0.101164
O O6 0.641085 0.713626 0.205069
O O7 0.135469 0.786272 0.193783
O O8 0.764327 0.000000 0.169653
O O9 0.438165 0.500000 0.365633
O O10 0.398229 0.757548 0.297707
O O11 0.772975 0.000000 0.033021
O O12 0.500000 0.738320 0.000000
O O13 0.000000 0.735200 0.000000
O O14 0.705826 0.500000 0.770661
#
# Coordination Sequence:
#
# PCOD8067687 Si02
#       5
#     4   4   4   4   4
#     4   9  15  24  40  64  96 131 168 214 264 309
#     4  11  22  37  59  85 110 139 184 233 268 313
#     4   9  17  28  43  66  98 137 173 206 258 323
#     4   9  17  31  53  79 104 133 173 222 272 317
#     4  11  22  37  56  79 114 153 182 215 270 335
#
# _framework density 20.867785999999999
#
# number of rings (size 3 to 8) (size 9 to 14) (size 15 to 20)
#    0.000    2.200    0.000    4.200    0.000    8.800 
#    0.000    0.000    0.000   12.000    0.000    0.000 
#    0.000   56.000    0.000    0.000    0.000    0.000 
#
# Total GULP energy -248055.845772 kJ/mol
# GULP energy per Si atom -12402.792289 kJ/mol
# Density = 2.082029 g / cm^3
# Si number density = 20.867786 Si / 1000 Ang^3
#
#
#
# Elastic Constant Matrix: (Units=GPa)
#
#
# Indices 1 2 3 4 5 6 
#
# 1 177.7524 4.2257 87.8725 0.0000 -1.2721 0.0000
# 2 4.2257 19.5703 14.5127 0.0000 -1.0091 0.0000
# 3 87.8725 14.5127 205.7214 0.0000 -1.3019 0.0000
# 4 0.0000 0.0000 0.0000 33.1469 0.0000 -4.7339
# 5 -1.2721 -1.0091 -1.3019 0.0000 51.9408 0.0000
# 6 0.0000 0.0000 0.0000 -4.7339 0.0000 19.3849
#
#
#
# Elastic Compliance Matrix: (Units=1/GPa)
#
#
# Indices 1 2 3 4 5 6 
#
# 1 0.007143 0.000766 -0.003104 0.000000 0.000112 0.000000
# 2 0.000766 0.054048 -0.004134 0.000000 0.000965 0.000000
# 3 -0.003104 -0.004134 0.006479 0.000000 0.000006 0.000000
# 4 0.000000 0.000000 0.000000 0.031259 0.000000 0.007634
# 5 0.000112 0.000965 0.000006 0.000000 0.019274 0.000000
# 6 0.000000 0.000000 0.000000 0.007634 0.000000 0.053451
#
#
# Mechanical properties :
#
#
# Convention : Reuss Voigt Hill
#
# Bulk Modulus (GPa) = 18.27341 68.47397 43.37369
# Shear Modulus (GPa) = 24.64996 40.65674 32.65335
#
# Velocity S-wave (km/s) = 3.44065 4.41875 3.96001
# Velocity P-wave (km/s) = 4.95579 7.67582 6.46058
#
# Compressibility (1/GPa) = 0.05472431
#
# Stress axis : x y z
#
# Youngs Moduli (GPa) = 139.99559 18.50215 154.35380
#
# Poissons Ratio (x) = -0.01416 0.47918
# Poissons Ratio (y) = -0.10717 0.63805
# Poissons Ratio (z) = 0.43460 0.07648
#
# Static dielectric constant tensor:
#      x y z
#    x 3.884240 0.000000 -0.013090 
#    y 0.000000 3.070320 0.000000 
#    z -0.013090 0.000000 4.036410 
# 
# 
# High freq. dielectric constant tensor:
#      x y z
#    x 1.833850 0.000000 -0.000230 
#    y 0.000000 1.757610 0.000000 
#    z -0.000230 0.000000 1.836690 
# 
# From -- ./inp_files/11961.got.cif
#   From: 2010.06.25/outbox.cif.g09.slc.cpg/sg10_6_cif.got.tgz:11961.got - 2010.06.27 22:07:45.
