data_PCOD8067008
_publ_section_title
;
Structure prediction by ZEFSAII (Michael W. Deem and Ramdas Pophale) SiO2 
 PCOD8067008
Probable space group: P 2/M
;
_chemical_formula_sum "Si O2"
_cell_formula_units_Z 24
_cell_length_a 8.559787
_cell_length_b 14.217821
_cell_length_c 12.920749
_cell_angle_alpha 90.000000
_cell_angle_beta 131.650250
_cell_angle_gamma 90.000000
_cell_volume 1174.977566
_symmetry_space_group_name_H-M "P 2/M"
_symmetry_group_IT_number 10
_symmetry_cell_setting 'monoclinic'
loop_
_space_group_symop_operation_xyz
x,y,z
-x,y,-z
-x,-y,-z
x,-y,z
loop_
_atom_site_type_symbol
_atom_site_label
_atom_site_fract_x
_atom_site_fract_y
_atom_site_fract_z
Si Si1 0.575741 0.500000 0.416471
Si Si2 0.835861 0.696550 0.020759
Si Si3 0.464396 0.000000 0.147972
Si Si4 0.538640 0.801269 0.221486
Si Si5 0.243186 0.500000 0.083231
Si Si6 0.652824 0.297681 0.470483
Si Si7 0.155319 0.000000 0.840443
Si Si8 0.047744 0.797090 0.729284
O O1 0.500000 0.500000 0.500000
O O2 0.382977 0.500000 0.249271
O O3 0.714456 0.405203 0.465786
O O4 0.952381 0.719504 0.179236
O O5 0.653276 0.773539 0.936550
O O6 0.721341 0.594244 0.969193
O O7 0.000000 0.706165 0.000000
O O8 0.501815 0.090261 0.236198
O O9 0.637750 0.000000 0.135811
O O10 0.233178 0.000000 0.994044
O O11 0.520952 0.741734 0.317130
O O12 0.751712 0.784639 0.254139
O O13 0.000000 0.500000 0.000000
O O14 0.500000 0.296545 0.500000
O O15 0.850677 0.230489 0.572405
O O16 0.022496 0.904798 0.758847
#
# Coordination Sequence:
#
# PCOD8067008 Si02
#       8
#     2   4   2   4   2   4   2   4
#     4  10  22  40  63  85 122 170 204 241 304 378
#     4  11  22  38  62  90 124 157 203 251 302 356
#     4   9  18  35  64  87 119 165 196 242 301 376
#     4  11  21  41  63  91 122 159 207 248 303 362
#     4  10  22  38  63  91 122 160 208 247 296 378
#     4  11  24  42  63  87 124 161 206 251 302 366
#     4   9  18  37  60  89 121 159 206 236 299 376
#     4  11  23  39  64  92 121 164 203 251 301 361
#
# _framework density 20.425920999999999
#
# number of rings (size 3 to 8) (size 9 to 14) (size 15 to 20)
#    0.000    1.500    3.333    2.000    7.000    0.667 
#    0.000   12.500    0.000    0.000    0.000    0.000 
#    0.000    0.000    0.000    0.000    0.000    0.000 
#
# Total GULP energy -297490.839798 kJ/mol
# GULP energy per Si atom -12395.451658 kJ/mol
# Density = 2.037943 g / cm^3
# Si number density = 20.425921 Si / 1000 Ang^3
#
#
#
# Elastic Constant Matrix: (Units=GPa)
#
#
# Indices 1 2 3 4 5 6 
#
# 1 50.5322 30.6787 8.2770 0.0000 0.1369 0.0000
# 2 30.6787 170.6739 35.4768 0.0000 -3.7191 0.0000
# 3 8.2770 35.4768 73.6263 0.0000 2.1513 0.0000
# 4 0.0000 0.0000 0.0000 266.6595 0.0000 -26.0062
# 5 0.1369 -3.7191 2.1513 0.0000 37.2568 0.0000
# 6 0.0000 0.0000 0.0000 -26.0062 0.0000 27.1633
#
#
#
# Elastic Compliance Matrix: (Units=1/GPa)
#
#
# Indices 1 2 3 4 5 6 
#
# 1 0.022247 -0.003880 -0.000619 0.000000 -0.000433 0.000000
# 2 -0.003880 0.007214 -0.003066 0.000000 0.000911 0.000000
# 3 -0.000619 -0.003066 0.015164 0.000000 -0.001179 0.000000
# 4 0.000000 0.000000 0.000000 0.004136 0.000000 0.003960
# 5 -0.000433 0.000911 -0.001179 0.000000 0.027001 0.000000
# 6 0.000000 0.000000 0.000000 0.003960 0.000000 0.040606
#
#
# Mechanical properties :
#
#
# Convention : Reuss Voigt Hill
#
# Bulk Modulus (GPa) = 33.90449 49.29972 41.60210
# Shear Modulus (GPa) = 35.37818 80.90926 58.14372
#
# Velocity S-wave (km/s) = 4.16627 6.30056 5.34111
# Velocity P-wave (km/s) = 6.30703 8.78167 7.64514
#
# Compressibility (1/GPa) = 0.02949462
#
# Stress axis : x y z
#
# Youngs Moduli (GPa) = 44.94915 138.62378 65.94704
#
# Poissons Ratio (x) = 0.53783 0.04082
# Poissons Ratio (y) = 0.17439 0.20222
# Poissons Ratio (z) = 0.02782 0.42508
#
# Static dielectric constant tensor:
#      x y z
#    x 3.278020 0.000000 -0.078500 
#    y 0.000000 4.461070 0.000000 
#    z -0.078500 0.000000 3.824410 
# 
# 
# High freq. dielectric constant tensor:
#      x y z
#    x 1.765360 0.000000 -0.005840 
#    y 0.000000 1.821880 0.000000 
#    z -0.005840 0.000000 1.802400 
# 
# From -- ./inp_files/62016.got.cif
#   From: 2010.06.25/outbox.cif.g09.slc.cpg/sg10_32_cif.got.tgz:62016.got - 2010.06.27 22:07:45.
