data_PCOD8067446
_publ_section_title
;
Structure prediction by ZEFSAII (Michael W. Deem and Ramdas Pophale) SiO2 
 PCOD8067446
Probable space group: P 2/M
;
_chemical_formula_sum "Si O2"
_cell_formula_units_Z 28
_cell_length_a 14.503718
_cell_length_b 8.920163
_cell_length_c 19.283068
_cell_angle_alpha 90.000000
_cell_angle_beta 41.223219
_cell_angle_gamma 90.000000
_cell_volume 1644.030771
_symmetry_space_group_name_H-M "P 2/M"
_symmetry_group_IT_number 10
_symmetry_cell_setting 'monoclinic'
loop_
_space_group_symop_operation_xyz
x,y,z
-x,y,-z
-x,-y,-z
x,-y,z
loop_
_atom_site_type_symbol
_atom_site_label
_atom_site_fract_x
_atom_site_fract_y
_atom_site_fract_z
Si Si1 0.518417 0.177774 0.881603
Si Si2 0.485077 0.327288 0.620827
Si Si3 0.718377 0.177774 0.881603
Si Si4 0.987853 0.822915 0.804524
Si Si5 0.891539 0.673949 1.000000
Si Si6 0.273270 0.672712 0.620827
Si Si7 0.403100 0.177085 0.804524
O O1 0.661583 0.235897 0.838417
O O2 0.503369 0.232899 0.810912
O O3 0.517343 0.000000 0.884064
O O4 0.384857 0.238528 0.000000
O O5 0.469290 0.500000 0.651870
O O6 0.633002 0.299513 0.500000
O O7 0.359667 0.282397 0.640333
O O8 0.479882 0.223266 0.690780
O O9 0.874806 0.232899 0.810912
O O10 0.714529 0.000000 0.884064
O O11 0.138557 0.776734 0.690780
O O12 0.981030 0.000000 0.818880
O O13 0.956143 0.747924 0.895553
O O14 0.865649 0.500000 1.000000
O O15 0.747249 0.747924 0.104447
O O16 0.000000 0.700281 0.000000
O O17 0.226969 0.500000 0.651870
O O18 0.381210 0.000000 0.818880
#
# Coordination Sequence:
#
# PCOD8067446 Si02
#       7
#     4   4   4   4   4   4   4
#     4   8  14  27  47  70  98 130 160 192 238 295
#     4   9  19  36  54  70  94 133 173 201 236 295
#     4   8  14  27  47  70  98 130 160 192 238 295
#     4  11  20  31  51  78 101 123 160 210 253 283
#     4  11  23  35  46  65 100 142 169 187 232 303
#     4   9  19  36  54  70  94 133 173 201 236 295
#     4  11  20  31  51  78 101 123 160 210 253 283
#
# _framework density 17.031310999999999
#
# number of rings (size 3 to 8) (size 9 to 14) (size 15 to 20)
#    0.000    2.429    1.429    3.857    0.000    5.714 
#    0.000    1.429    0.000    5.143    0.000    6.000 
#    0.000    0.000    0.000    0.000    0.000    0.000 
#
# Total GULP energy -347073.293284 kJ/mol
# GULP energy per Si atom -12395.474760 kJ/mol
# Density = 1.699255 g / cm^3
# Si number density = 17.031311 Si / 1000 Ang^3
#
#
#
# Elastic Constant Matrix: (Units=GPa)
#
#
# Indices 1 2 3 4 5 6 
#
# 1 136.3224 51.8338 65.7049 0.0000 1.4236 0.0000
# 2 51.8338 60.3688 34.8779 0.0000 0.8330 0.0000
# 3 65.7049 34.8779 88.1708 0.0000 0.9421 0.0000
# 4 0.0000 0.0000 0.0000 29.8473 0.0000 -1.7057
# 5 1.4236 0.8330 0.9421 0.0000 20.8447 0.0000
# 6 0.0000 0.0000 0.0000 -1.7057 0.0000 -4.8710
#
#
#
# Elastic Compliance Matrix: (Units=1/GPa)
#
#
# Indices 1 2 3 4 5 6 
#
# 1 0.013697 -0.007597 -0.007198 0.000000 -0.000306 0.000000
# 2 -0.007597 0.025691 -0.004498 0.000000 -0.000305 0.000000
# 3 -0.007198 -0.004498 0.018487 0.000000 -0.000164 0.000000
# 4 0.000000 0.000000 0.000000 0.032847 0.000000 -0.011502
# 5 -0.000306 -0.000305 -0.000164 0.000000 0.048014 0.000000
# 6 0.000000 0.000000 0.000000 -0.011502 0.000000 -0.201267
#
#
# Mechanical properties :
#
#
# Convention : Reuss Voigt Hill
#
# Bulk Modulus (GPa) = 51.84691 65.52169 58.68430
# Shear Modulus (GPa) = -285.46099 17.99390 -133.73354
#
# Velocity S-wave (km/s) = -12.96045 3.25394 -8.87089
# Velocity P-wave (km/s) = 13.90886 7.25757 8.38999
#
# Compressibility (1/GPa) = 0.01928755
#
# Stress axis : x y z
#
# Youngs Moduli (GPa) = 73.00862 38.92431 54.09262
#
# Poissons Ratio (x) = 0.29572 0.38938
# Poissons Ratio (y) = 0.55468 0.24330
# Poissons Ratio (z) = 0.52555 0.17507
#
# Static dielectric constant tensor:
#      x y z
#    x 3.647300 0.000000 0.028150 
#    y 0.000000 2.993940 0.000000 
#    z 0.028150 0.000000 3.074270 
# 
# 
# High freq. dielectric constant tensor:
#      x y z
#    x 1.667290 0.000000 0.001360 
#    y 0.000000 1.638350 0.000000 
#    z 0.001360 0.000000 1.639530 
# 
# From -- ./inp_files/28369.got.cif
#   From: 2010.06.25/outbox.cif.g09.slc.cpg/sg10_15_cif.got.tgz:28369.got - 2010.06.27 22:07:45.
