data_PCOD8067792
_publ_section_title
;
Structure prediction by ZEFSAII (Michael W. Deem and Ramdas Pophale) SiO2 
 PCOD8067792
Probable space group: P 2/M
;
_chemical_formula_sum "Si O2"
_cell_formula_units_Z 20
_cell_length_a 9.853511
_cell_length_b 11.171941
_cell_length_c 12.844363
_cell_angle_alpha 90.000000
_cell_angle_beta 41.905660
_cell_angle_gamma 90.000000
_cell_volume 944.381795
_symmetry_space_group_name_H-M "P 2/M"
_symmetry_group_IT_number 10
_symmetry_cell_setting 'monoclinic'
loop_
_space_group_symop_operation_xyz
x,y,z
-x,y,-z
-x,-y,-z
x,-y,z
loop_
_atom_site_type_symbol
_atom_site_label
_atom_site_fract_x
_atom_site_fract_y
_atom_site_fract_z
Si Si1 0.729369 0.743495 0.903980
Si Si2 0.047286 0.861668 0.587417
Si Si3 0.313803 0.500000 0.384130
Si Si4 0.230413 0.863475 0.903125
Si Si5 0.869730 0.500000 0.733909
Si Si6 0.548573 0.730930 0.589574
O O1 0.831944 0.615146 0.826658
O O2 0.848630 0.844601 0.771138
O O3 0.500000 0.742170 0.000000
O O4 0.735724 0.774866 0.020865
O O5 0.234261 0.794792 0.532759
O O6 0.000000 0.807038 0.500000
O O7 0.103163 0.000000 0.546211
O O8 0.281282 0.500000 0.278666
O O9 0.445917 0.615131 0.339692
O O10 0.101822 0.500000 0.566065
O O11 0.375501 0.821811 0.726812
O O12 0.286283 0.000000 0.901078
O O13 0.000000 0.853903 0.000000
O O14 0.500000 0.691251 0.500000
#
# Coordination Sequence:
#
# PCOD8067792 Si02
#       6
#     4   4   2   4   2   4
#     4  12  24  41  67  99 134 171 219 272 333 393
#     4  11  23  40  65  97 131 175 227 273 324 390
#     4  11  23  44  70 100 133 167 223 283 328 388
#     4  11  26  46  66  96 138 178 217 270 334 395
#     4  11  23  42  72  97 131 176 219 273 336 394
#     4  12  25  44  70  98 132 177 227 277 327 393
#
# _framework density 21.177876000000001
#
# number of rings (size 3 to 8) (size 9 to 14) (size 15 to 20)
#    0.000    0.600    2.000    6.600    0.000    7.200 
#    0.000    1.000    0.000    0.000    0.000    0.000 
#    0.000    0.000    0.000    0.000    0.000    0.000 
#
# Total GULP energy -248163.425327 kJ/mol
# GULP energy per Si atom -12408.171266 kJ/mol
# Density = 2.112967 g / cm^3
# Si number density = 21.177876 Si / 1000 Ang^3
#
#
#
# Elastic Constant Matrix: (Units=GPa)
#
#
# Indices 1 2 3 4 5 6 
#
# 1 77.1937 39.0958 12.2887 0.0000 8.9158 0.0000
# 2 39.0958 116.6845 21.0048 0.0000 4.4999 0.0000
# 3 12.2887 21.0048 86.2881 0.0000 -1.9364 0.0000
# 4 0.0000 0.0000 0.0000 33.9270 0.0000 -2.2121
# 5 8.9158 4.4999 -1.9364 0.0000 44.4092 0.0000
# 6 0.0000 0.0000 0.0000 -2.2121 0.0000 33.6423
#
#
#
# Elastic Compliance Matrix: (Units=1/GPa)
#
#
# Indices 1 2 3 4 5 6 
#
# 1 0.016011 -0.005059 -0.001111 0.000000 -0.002750 0.000000
# 2 -0.005059 0.010606 -0.001865 0.000000 -0.000140 0.000000
# 3 -0.001111 -0.001865 0.012222 0.000000 0.000945 0.000000
# 4 0.000000 0.000000 0.000000 0.029602 0.000000 0.001946
# 5 -0.002750 -0.000140 0.000945 0.000000 0.023125 0.000000
# 6 0.000000 0.000000 0.000000 0.001946 0.000000 0.029853
#
#
# Mechanical properties :
#
#
# Convention : Reuss Voigt Hill
#
# Bulk Modulus (GPa) = 43.91352 47.21609 45.56480
# Shear Modulus (GPa) = 34.46444 36.24748 35.35596
#
# Velocity S-wave (km/s) = 4.03846 4.14160 4.09036
# Velocity P-wave (km/s) = 6.52120 6.72413 6.62344
#
# Compressibility (1/GPa) = 0.02277203
#
# Stress axis : x y z
#
# Youngs Moduli (GPa) = 62.45764 94.28553 81.81755
#
# Poissons Ratio (x) = 0.47695 0.09086
# Poissons Ratio (y) = 0.31595 0.15255
# Poissons Ratio (z) = 0.06936 0.17580
#
# Static dielectric constant tensor:
#      x y z
#    x 3.803820 0.000000 -0.044010 
#    y 0.000000 4.058950 0.000000 
#    z -0.044010 0.000000 3.860190 
# 
# 
# High freq. dielectric constant tensor:
#      x y z
#    x 1.834970 0.000000 -0.003790 
#    y 0.000000 1.841890 0.000000 
#    z -0.003790 0.000000 1.840020 
# 
# From -- ./inp_files/41877.got.cif
#   From: 2010.06.25/outbox.cif.g09.slc.cpg/sg10_21_cif.got.tgz:41877.got - 2010.06.27 22:07:45.
