data_PCOD8067854
_publ_section_title
;
Structure prediction by ZEFSAII (Michael W. Deem and Ramdas Pophale) SiO2 
 PCOD8067854
Probable space group: P 2/M
;
_chemical_formula_sum "Si O2"
_cell_formula_units_Z 30
_cell_length_a 12.069200
_cell_length_b 18.883190
_cell_length_c 11.379247
_cell_angle_alpha 90.000000
_cell_angle_beta 141.898732
_cell_angle_gamma 90.000000
_cell_volume 1600.258136
_symmetry_space_group_name_H-M "P 2/M"
_symmetry_group_IT_number 10
_symmetry_cell_setting 'monoclinic'
loop_
_space_group_symop_operation_xyz
x,y,z
-x,y,-z
-x,-y,-z
x,-y,z
loop_
_atom_site_type_symbol
_atom_site_label
_atom_site_fract_x
_atom_site_fract_y
_atom_site_fract_z
Si Si1 0.783976 0.079646 0.193651
Si Si2 0.018429 0.421665 0.211901
Si Si3 0.622433 0.220504 0.993476
Si Si4 0.500000 0.303534 0.500000
Si Si5 0.195258 0.079447 0.514772
Si Si6 0.716318 0.579135 0.781486
Si Si7 0.996484 0.293867 0.360193
Si Si8 0.659235 0.217071 0.437066
O O1 0.777712 0.098318 0.326013
O O2 0.984429 0.086573 0.310170
O O3 0.711006 0.000000 0.110243
O O4 0.657056 0.135869 0.022774
O O5 0.043838 0.500000 0.286335
O O6 0.042673 0.367483 0.336954
O O7 0.161305 0.407625 0.229646
O O8 0.822349 0.414459 0.991276
O O9 0.516562 0.238244 0.785261
O O10 0.500000 0.244637 0.000000
O O11 0.809676 0.262624 0.156182
O O12 0.423882 0.356498 0.336380
O O13 0.640518 0.252070 0.550559
O O14 0.316104 0.131877 0.535466
O O15 0.260580 0.000000 0.541555
O O16 0.628812 0.500000 0.701788
O O17 0.000000 0.309605 0.500000
O O18 0.155910 0.239685 0.469177
#
# Coordination Sequence:
#
# PCOD8067854 Si02
#       8
#     4   4   4   2   4   4   4   4
#     4   9  17  31  56  86 113 145 189 239 288 330
#     4   9  19  37  60  85 111 149 193 232 284 341
#     4  12  22  34  56  87 118 148 192 232 291 342
#     4  12  23  38  57  88 116 148 196 238 283 344
#     4   9  17  33  56  81 114 152 188 233 285 335
#     4   9  18  36  62  86 111 142 189 250 288 320
#     4  12  22  38  59  81 124 159 181 232 291 346
#     4  12  24  38  56  87 116 154 195 237 286 342
#
# _framework density 18.746974999999999
#
# number of rings (size 3 to 8) (size 9 to 14) (size 15 to 20)
#    0.000    1.600    5.333    2.600    0.000    1.067 
#    0.000    0.333    0.000    0.400    0.000    1.867 
#    0.000    0.000    0.000    0.000    0.000    0.000 
#
# Total GULP energy -371895.199472 kJ/mol
# GULP energy per Si atom -12396.506649 kJ/mol
# Density = 1.870431 g / cm^3
# Si number density = 18.746975 Si / 1000 Ang^3
#
#
#
# Elastic Constant Matrix: (Units=GPa)
#
#
# Indices 1 2 3 4 5 6 
#
# 1 49.5563 33.7266 10.7994 0.0000 -2.8705 0.0000
# 2 33.7266 117.2718 23.5045 0.0000 -2.9761 0.0000
# 3 10.7994 23.5045 67.9520 0.0000 9.2994 0.0000
# 4 0.0000 0.0000 0.0000 22.1857 0.0000 2.3692
# 5 -2.8705 -2.9761 9.2994 0.0000 20.5877 0.0000
# 6 0.0000 0.0000 0.0000 2.3692 0.0000 26.2122
#
#
#
# Elastic Compliance Matrix: (Units=1/GPa)
#
#
# Indices 1 2 3 4 5 6 
#
# 1 0.025491 -0.006803 -0.002185 0.000000 0.003558 0.000000
# 2 -0.006803 0.011148 -0.003054 0.000000 0.002043 0.000000
# 3 -0.002185 -0.003054 0.017291 0.000000 -0.008557 0.000000
# 4 0.000000 0.000000 0.000000 0.045513 0.000000 -0.004114
# 5 0.003558 0.002043 -0.008557 0.000000 0.053229 0.000000
# 6 0.000000 0.000000 0.000000 -0.004114 0.000000 0.038522
#
#
# Mechanical properties :
#
#
# Convention : Reuss Voigt Hill
#
# Bulk Modulus (GPa) = 33.50603 41.20458 37.35531
# Shear Modulus (GPa) = 22.19980 24.91375 23.55678
#
# Velocity S-wave (km/s) = 3.44493 3.64943 3.54865
# Velocity P-wave (km/s) = 5.80818 6.30752 6.06299
#
# Compressibility (1/GPa) = 0.02984537
#
# Stress axis : x y z
#
# Youngs Moduli (GPa) = 39.22932 89.70483 57.83351
#
# Poissons Ratio (x) = 0.61025 0.12637
# Poissons Ratio (y) = 0.26687 0.17664
# Poissons Ratio (z) = 0.08572 0.27399
#
# Static dielectric constant tensor:
#      x y z
#    x 3.085540 0.000000 0.192450 
#    y 0.000000 3.611430 0.000000 
#    z 0.192450 0.000000 3.443840 
# 
# 
# High freq. dielectric constant tensor:
#      x y z
#    x 1.691460 0.000000 0.019640 
#    y 0.000000 1.742680 0.000000 
#    z 0.019640 0.000000 1.723010 
# 
# From -- ./inp_files/47925.got.cif
#   From: 2010.06.25/outbox.cif.g09.slc.cpg/sg10_24_cif.got.tgz:47925.got - 2010.06.27 22:07:45.
