data_PCOD8067686
_publ_section_title
;
Structure prediction by ZEFSAII (Michael W. Deem and Ramdas Pophale) SiO2 
 PCOD8067686
Probable space group: P 2/M
;
_chemical_formula_sum "Si O2"
_cell_formula_units_Z 28
_cell_length_a 32.579227
_cell_length_b 8.507748
_cell_length_c 31.730773
_cell_angle_alpha 90.000000
_cell_angle_beta 9.194094
_cell_angle_gamma 90.000000
_cell_volume 1405.260772
_symmetry_space_group_name_H-M "P 2/M"
_symmetry_group_IT_number 10
_symmetry_cell_setting 'monoclinic'
loop_
_space_group_symop_operation_xyz
x,y,z
-x,y,-z
-x,-y,-z
x,-y,z
loop_
_atom_site_type_symbol
_atom_site_label
_atom_site_fract_x
_atom_site_fract_y
_atom_site_fract_z
Si Si1 0.309882 0.186306 0.570364
Si Si2 0.880461 0.313015 0.858633
Si Si3 0.167543 0.313740 0.997363
Si Si4 0.261851 0.187068 0.714447
Si Si5 0.595694 0.687475 0.712905
Si Si6 0.452091 0.687464 0.143721
Si Si7 0.023899 0.312468 0.428311
O O1 0.571230 0.249944 0.286450
O O2 0.285834 0.248288 0.642480
O O3 0.310729 0.000000 0.567839
O O4 0.071112 0.249940 0.786564
O O5 0.880986 0.500000 0.857074
O O6 0.142609 0.246838 0.572759
O O7 0.856472 0.251339 0.930572
O O8 0.642046 0.246841 0.073319
O O9 0.168340 0.500000 0.994957
O O10 0.500000 0.254097 0.500000
O O11 0.261267 0.000000 0.716226
O O12 0.000000 0.254096 0.000000
O O13 0.595715 0.500000 0.712831
O O14 0.571797 0.752050 0.784605
O O15 0.452067 0.500000 0.143788
O O16 0.214074 0.752006 0.357736
O O17 0.714107 0.752005 0.857702
O O18 0.023831 0.500000 0.428511
O O19 0.000000 0.247870 0.500000
#
# Coordination Sequence:
#
# PCOD8067686 Si02
#       7
#     4   4   4   4   4   4   4
#     4  11  22  37  59  85 110 139 179 223 262 305
#     4   9  17  28  43  62  85 116 151 189 238 297
#     4  11  22  37  56  79 110 145 177 213 268 327
#     4   9  17  31  53  79 104 133 173 217 256 299
#     4   9  15  24  37  54  75 100 139 188 236 285
#     4   9  15  21  30  43  60  86 122 171 228 277
#     4   9  15  21  27  37  56  84 120 164 222 287
#
# _framework density 19.925127
#
# number of rings (size 3 to 8) (size 9 to 14) (size 15 to 20)
#    0.000    2.429    0.000    3.857    0.000    9.714 
#    0.000    0.000    0.000    8.571    0.000    0.000 
#    0.000    0.000    0.000    0.000    0.000    0.000 
#
# Total GULP energy -347221.008185 kJ/mol
# GULP energy per Si atom -12400.750292 kJ/mol
# Density = 1.987978 g / cm^3
# Si number density = 19.925127 Si / 1000 Ang^3
#
#
#
# Elastic Constant Matrix: (Units=GPa)
#
#
# Indices 1 2 3 4 5 6 
#
# 1 236.0506 20.0505 133.6724 0.0000 -0.2795 0.0000
# 2 20.0505 22.8754 15.7240 0.0000 0.7764 0.0000
# 3 133.6724 15.7240 237.9101 0.0000 -0.0529 0.0000
# 4 0.0000 0.0000 0.0000 14.4540 0.0000 -5.7672
# 5 -0.2795 0.7764 -0.0529 0.0000 51.9274 0.0000
# 6 0.0000 0.0000 0.0000 -5.7672 0.0000 -17.7223
#
#
#
# Elastic Compliance Matrix: (Units=1/GPa)
#
#
# Indices 1 2 3 4 5 6 
#
# 1 0.006444 -0.003313 -0.003402 0.000000 0.000081 0.000000
# 2 -0.003313 0.047523 -0.001280 0.000000 -0.000730 0.000000
# 3 -0.003402 -0.001280 0.006199 0.000000 0.000007 0.000000
# 4 0.000000 0.000000 0.000000 0.061234 0.000000 -0.019927
# 5 0.000081 -0.000730 0.000007 0.000000 0.019269 0.000000
# 6 0.000000 0.000000 0.000000 -0.019927 0.000000 -0.049941
#
#
# Mechanical properties :
#
#
# Convention : Reuss Voigt Hill
#
# Bulk Modulus (GPa) = 22.63576 92.85890 57.74733
# Shear Modulus (GPa) = 41.17158 31.55776 36.36467
#
# Velocity S-wave (km/s) = 4.55060 3.98404 4.27671
# Velocity P-wave (km/s) = 6.24466 8.23823 7.30973
#
# Compressibility (1/GPa) = 0.04417788
#
# Stress axis : x y z
#
# Youngs Moduli (GPa) = 155.17637 21.04235 161.31132
#
# Poissons Ratio (x) = 0.06971 0.54875
# Poissons Ratio (y) = 0.51408 0.20643
# Poissons Ratio (z) = 0.52788 0.02693
#
# Static dielectric constant tensor:
#      x y z
#    x 3.960580 0.000000 0.021890 
#    y 0.000000 2.896070 0.000000 
#    z 0.021890 0.000000 3.838190 
# 
# 
# High freq. dielectric constant tensor:
#      x y z
#    x 1.799770 0.000000 -0.000090 
#    y 0.000000 1.702370 0.000000 
#    z -0.000090 0.000000 1.800290 
# 
# From -- ./inp_files/94357.got.cif
#   From: 2010.06.25/outbox.cif.g09.slc.cpg/sg10_48_cif.got.tgz:94357.got - 2010.06.27 22:07:45.
