data_PCOD8067998
_publ_section_title
;
Structure prediction by ZEFSAII (Michael W. Deem and Ramdas Pophale) SiO2 
 PCOD8067998
Probable space group: P 2/M
;
_chemical_formula_sum "Si O2"
_cell_formula_units_Z 32
_cell_length_a 11.993545
_cell_length_b 9.149796
_cell_length_c 18.145081
_cell_angle_alpha 90.000000
_cell_angle_beta 68.362562
_cell_angle_gamma 90.000000
_cell_volume 1850.904402
_symmetry_space_group_name_H-M "P 2/M"
_symmetry_group_IT_number 10
_symmetry_cell_setting 'monoclinic'
loop_
_space_group_symop_operation_xyz
x,y,z
-x,y,-z
-x,-y,-z
x,-y,z
loop_
_atom_site_type_symbol
_atom_site_label
_atom_site_fract_x
_atom_site_fract_y
_atom_site_fract_z
Si Si1 0.540454 0.326523 0.322963
Si Si2 0.766377 0.325963 0.353927
Si Si3 0.895472 0.326076 0.576969
Si Si4 0.619663 0.164231 0.018178
Si Si5 0.509834 0.327930 0.828449
Si Si6 0.034868 0.673735 0.281881
Si Si7 0.320146 0.673710 0.467457
Si Si8 0.742400 0.328502 0.864646
O O1 0.532781 0.500000 0.322424
O O2 0.674478 0.274670 0.312364
O O3 0.502138 0.267079 0.251998
O O4 0.450434 0.269794 0.409120
O O5 0.770355 0.500000 0.358225
O O6 0.719530 0.261800 0.443662
O O7 0.899579 0.266168 0.301721
O O8 0.900679 0.500000 0.578212
O O9 0.913949 0.262080 0.654066
O O10 0.770159 0.272236 0.574152
O O11 0.000000 0.263823 0.500000
O O12 0.595253 0.250495 0.099512
O O13 0.661815 0.000000 0.026168
O O14 0.500000 0.164390 0.000000
O O15 0.722395 0.244574 0.946108
O O16 0.486338 0.500000 0.838370
O O17 0.641609 0.288954 0.827881
O O18 0.032306 0.500000 0.286739
O O19 0.126838 0.723059 0.195726
O O20 0.318764 0.500000 0.474096
O O21 0.738178 0.500000 0.882434
#
# Coordination Sequence:
#
# PCOD8067998 Si02
#       8
#     4   4   4   4   4   4   4   4
#     4   9  16  23  33  51  77 111 145 173 205 247
#     4   9  15  22  31  47  76 113 147 176 205 239
#     4   9  13  18  28  44  70 106 141 169 202 243
#     4   9  17  29  46  67  88 107 131 167 212 258
#     4   9  16  27  42  62  88 113 136 166 208 253
#     4   9  15  22  33  52  79 111 143 173 205 243
#     4   9  14  20  30  46  73 110 146 175 206 244
#     4   9  16  26  42  64  88 111 136 167 207 253
#
# _framework density 17.288845999999999
#
# number of rings (size 3 to 8) (size 9 to 14) (size 15 to 20)
#    0.000    3.000    1.250    1.500    0.000    6.000 
#    0.000    0.000    0.000    0.750    0.000    6.125 
#    0.000    3.500    0.000    0.375    0.000    0.000 
#
# Total GULP energy -396565.937071 kJ/mol
# GULP energy per Si atom -12392.685533 kJ/mol
# Density = 1.724950 g / cm^3
# Si number density = 17.288846 Si / 1000 Ang^3
#
#
#
# Elastic Constant Matrix: (Units=GPa)
#
#
# Indices 1 2 3 4 5 6 
#
# 1 102.6444 12.8260 58.3896 0.0000 -15.3398 0.0000
# 2 12.8260 22.0112 25.4346 0.0000 -3.9669 0.0000
# 3 58.3896 25.4346 137.9664 0.0000 -22.1924 0.0000
# 4 0.0000 0.0000 0.0000 0.7859 0.0000 0.6288
# 5 -15.3398 -3.9669 -22.1924 0.0000 23.6989 0.0000
# 6 0.0000 0.0000 0.0000 0.6288 0.0000 3.9753
#
#
#
# Elastic Compliance Matrix: (Units=1/GPa)
#
#
# Indices 1 2 3 4 5 6 
#
# 1 0.013172 -0.001596 -0.004653 0.000000 0.003902 0.000000
# 2 -0.001596 0.057925 -0.010137 0.000000 -0.000829 0.000000
# 3 -0.004653 -0.010137 0.012160 0.000000 0.006679 0.000000
# 4 0.000000 0.000000 0.000000 1.456802 0.000000 -0.230440
# 5 0.003902 -0.000829 0.006679 0.000000 0.050837 0.000000
# 6 0.000000 0.000000 0.000000 -0.230440 0.000000 0.288004
#
#
# Mechanical properties :
#
#
# Convention : Reuss Voigt Hill
#
# Bulk Modulus (GPa) = 19.80718 50.65803 35.23260
# Shear Modulus (GPa) = 2.59269 16.75681 9.67475
#
# Velocity S-wave (km/s) = 1.22592 3.11662 2.36814
# Velocity P-wave (km/s) = 3.67224 6.50505 5.28209
#
# Compressibility (1/GPa) = 0.05048675
#
# Stress axis : x y z
#
# Youngs Moduli (GPa) = 75.92144 17.26371 82.23486
#
# Poissons Ratio (x) = 0.02755 0.38261
# Poissons Ratio (y) = 0.12114 0.83359
# Poissons Ratio (z) = 0.35323 0.17500
#
# Static dielectric constant tensor:
#      x y z
#    x 3.301420 0.000000 -0.096380 
#    y 0.000000 2.600370 0.000000 
#    z -0.096380 0.000000 3.408310 
# 
# 
# High freq. dielectric constant tensor:
#      x y z
#    x 1.654480 0.000000 -0.008620 
#    y 0.000000 1.590600 0.000000 
#    z -0.008620 0.000000 1.674970 
# 
# From -- ./inp_files/55561.got.cif
#   From: 2010.06.25/outbox.cif.g09.slc.cpg/sg10_28_cif.got.tgz:55561.got - 2010.06.27 22:07:45.
