data_PCOD8067418
_publ_section_title
;
Structure prediction by ZEFSAII (Michael W. Deem and Ramdas Pophale) SiO2 
 PCOD8067418
Probable space group: P 2/M
;
_chemical_formula_sum "Si O2"
_cell_formula_units_Z 32
_cell_length_a 12.619220
_cell_length_b 13.018475
_cell_length_c 28.217404
_cell_angle_alpha 90.000000
_cell_angle_beta 26.564955
_cell_angle_gamma 90.000000
_cell_volume 2073.114175
_symmetry_space_group_name_H-M "P 2/M"
_symmetry_group_IT_number 10
_symmetry_cell_setting 'monoclinic'
loop_
_space_group_symop_operation_xyz
x,y,z
-x,y,-z
-x,-y,-z
x,-y,z
loop_
_atom_site_type_symbol
_atom_site_label
_atom_site_fract_x
_atom_site_fract_y
_atom_site_fract_z
Si Si1 0.376266 0.620567 1.000000
Si Si2 0.252535 0.879434 0.123732
Si Si3 0.920056 0.750000 0.193315
Si Si4 0.620327 0.383267 0.378449
Si Si5 0.367100 0.883267 0.877225
Si Si6 0.865878 0.383267 0.378448
Si Si7 0.306685 0.249999 0.193315
Si Si8 0.876000 0.883266 0.122775
O O1 0.360384 0.500000 0.999997
O O2 0.526106 0.664109 0.896527
O O3 0.500000 0.651025 0.000000
O O4 0.112213 0.664106 0.103474
O O5 0.034849 0.835892 0.180839
O O6 0.241796 0.835895 0.180839
O O7 0.220755 0.000000 0.139622
O O8 0.500000 0.848968 0.000000
O O9 0.697348 0.694732 0.306767
O O10 0.815001 0.805271 0.189117
O O11 0.618094 0.500000 0.360127
O O12 0.807862 0.375030 0.346069
O O13 0.360291 0.350993 0.500000
O O14 0.571472 0.805271 0.810881
O O15 0.279422 0.850989 0.860289
O O16 0.463173 0.000000 0.838350
O O17 0.153930 0.875028 0.999999
O O18 0.941399 0.500000 0.360126
O O19 0.075583 0.305267 0.306767
O O20 0.816575 0.000000 0.161649
#
# Coordination Sequence:
#
# PCOD8067418 Si02
#       8
#     4   4   4   4   4   4   4   4
#     4  11  20  28  41  70 103 127 150 188 242 298
#     4  11  20  28  41  70 103 127 150 188 242 298
#     4  12  17  30  48  71  98 126 156 198 240 289
#     4   9  18  32  50  71  96 129 167 199 231 283
#     4   9  18  32  50  71  96 129 167 199 231 283
#     4   9  18  32  50  71  96 129 167 199 231 283
#     4  12  17  30  48  71  98 126 156 198 240 289
#     4   9  18  32  50  71  96 129 167 199 231 283
#
# _framework density 15.435715
#
# number of rings (size 3 to 8) (size 9 to 14) (size 15 to 20)
#    0.000    1.750    5.000    3.000    0.000    4.000 
#    0.000    0.000    0.000    8.250    0.000    3.500 
#    0.000    0.000    0.000    0.000    0.000    0.000 
#
# Total GULP energy -396867.595653 kJ/mol
# GULP energy per Si atom -12402.112364 kJ/mol
# Density = 1.540058 g / cm^3
# Si number density = 15.435715 Si / 1000 Ang^3
#
#
#
# Elastic Constant Matrix: (Units=GPa)
#
#
# Indices 1 2 3 4 5 6 
#
# 1 82.2646 50.2408 35.3928 0.0000 0.2610 0.0000
# 2 50.2408 102.6832 50.2418 0.0000 0.0000 0.0000
# 3 35.3928 50.2418 82.2570 0.0000 -0.2609 0.0000
# 4 0.0000 0.0000 0.0000 28.8983 0.0000 0.0000
# 5 0.2610 0.0000 -0.2609 0.0000 18.0573 0.0000
# 6 0.0000 0.0000 0.0000 0.0000 0.0000 28.8974
#
#
#
# Elastic Compliance Matrix: (Units=1/GPa)
#
#
# Indices 1 2 3 4 5 6 
#
# 1 0.017969 -0.007143 -0.003370 0.000000 -0.000308 0.000000
# 2 -0.007143 0.016730 -0.007145 0.000000 0.000000 0.000000
# 3 -0.003370 -0.007145 0.017972 0.000000 0.000308 0.000000
# 4 0.000000 0.000000 0.000000 0.034604 0.000000 0.000000
# 5 -0.000308 0.000000 0.000308 0.000000 0.055388 0.000000
# 6 0.000000 0.000000 0.000000 0.000000 0.000000 0.034605
#
#
# Mechanical properties :
#
#
# Convention : Reuss Voigt Hill
#
# Bulk Modulus (GPa) = 57.61898 59.88396 58.75147
# Shear Modulus (GPa) = 22.89711 23.92588 23.41150
#
# Velocity S-wave (km/s) = 3.85565 3.94132 3.89872
# Velocity P-wave (km/s) = 7.56510 7.71958 7.64273
#
# Compressibility (1/GPa) = 0.01735539
#
# Stress axis : x y z
#
# Youngs Moduli (GPa) = 55.65116 59.77435 55.64286
#
# Poissons Ratio (x) = 0.42698 0.18749
# Poissons Ratio (y) = 0.39753 0.39755
# Poissons Ratio (z) = 0.18752 0.42707
#
# Static dielectric constant tensor:
#      x y z
#    x 2.773580 0.000000 0.000000 
#    y 0.000000 2.989260 0.000000 
#    z 0.000000 0.000000 2.773510 
# 
# 
# High freq. dielectric constant tensor:
#      x y z
#    x 1.569570 0.000000 0.000000 
#    y 0.000000 1.603120 0.000000 
#    z 0.000000 0.000000 1.569560 
# 
# From -- ./inp_files/92782.got.cif
#   From: 2010.06.25/outbox.cif.g09.slc.cpg/sg10_47_cif.got.tgz:92782.got - 2010.06.27 22:07:45.
