data_PCOD8067036
_publ_section_title
;
Structure prediction by ZEFSAII (Michael W. Deem and Ramdas Pophale) SiO2 
 PCOD8067036
Probable space group: P 2/M
;
_chemical_formula_sum "Si O2"
_cell_formula_units_Z 28
_cell_length_a 11.266060
_cell_length_b 8.632989
_cell_length_c 16.384033
_cell_angle_alpha 90.000000
_cell_angle_beta 60.230579
_cell_angle_gamma 90.000000
_cell_volume 1383.213058
_symmetry_space_group_name_H-M "P 2/M"
_symmetry_group_IT_number 10
_symmetry_cell_setting 'monoclinic'
loop_
_space_group_symop_operation_xyz
x,y,z
-x,y,-z
-x,-y,-z
x,-y,z
loop_
_atom_site_type_symbol
_atom_site_label
_atom_site_fract_x
_atom_site_fract_y
_atom_site_fract_z
Si Si1 0.899734 0.317510 0.787091
Si Si2 0.397905 0.820189 0.664587
Si Si3 0.107531 0.681525 0.027288
Si Si4 0.312761 0.319393 0.422623
Si Si5 0.163827 0.818619 0.619640
Si Si6 0.637734 0.822622 0.138148
Si Si7 0.673044 0.180938 0.755906
O O1 0.873037 0.500000 0.793776
O O2 0.921987 0.255335 0.871705
O O3 0.766536 0.230990 0.798853
O O4 0.029532 0.276057 0.688322
O O5 0.533776 0.722015 0.602246
O O6 0.285181 0.767092 0.638549
O O7 0.338367 0.787238 0.774557
O O8 0.438182 0.000000 0.640938
O O9 0.085630 0.500000 0.035079
O O10 0.262280 0.717369 0.948870
O O11 0.000000 0.758281 0.000000
O O12 0.287430 0.500000 0.443898
O O13 0.204924 0.225176 0.514003
O O14 0.283872 0.274664 0.339209
O O15 0.132500 0.000000 0.637455
O O16 0.482849 0.780393 0.166543
O O17 0.671284 0.000000 0.106605
O O18 0.688310 0.000000 0.730781
#
# Coordination Sequence:
#
# PCOD8067036 Si02
#       7
#     4   4   4   4   4   4   4
#     4  11  24  40  58  84 116 149 192 241 285 336
#     4   9  19  36  57  85 119 153 192 236 283 338
#     4  10  22  39  59  86 120 153 183 224 283 344
#     4  11  22  36  58  87 117 150 190 237 288 341
#     4  11  22  37  58  83 115 156 196 236 286 339
#     4   9  19  36  60  86 112 147 191 237 279 329
#     4  10  22  42  62  83 113 149 193 238 285 340
#
# _framework density 20.242723000000002
#
# number of rings (size 3 to 8) (size 9 to 14) (size 15 to 20)
#    0.000    1.857    0.000    4.714    0.000    8.286 
#    0.000    5.714    0.000    0.000    0.000    0.000 
#    0.000    0.000    0.000    0.000    0.000    0.000 
#
# Total GULP energy -347343.221500 kJ/mol
# GULP energy per Si atom -12405.115054 kJ/mol
# Density = 2.019665 g / cm^3
# Si number density = 20.242723 Si / 1000 Ang^3
#
#
#
# Elastic Constant Matrix: (Units=GPa)
#
#
# Indices 1 2 3 4 5 6 
#
# 1 114.2105 22.9889 47.3451 0.0000 7.7376 0.0000
# 2 22.9889 37.8669 11.7743 0.0000 4.5246 0.0000
# 3 47.3451 11.7743 98.5192 0.0000 -13.6814 0.0000
# 4 0.0000 0.0000 0.0000 32.4550 0.0000 -5.0019
# 5 7.7376 4.5246 -13.6814 0.0000 21.3739 0.0000
# 6 0.0000 0.0000 0.0000 -5.0019 0.0000 32.7031
#
#
#
# Elastic Compliance Matrix: (Units=1/GPa)
#
#
# Indices 1 2 3 4 5 6 
#
# 1 0.013125 -0.004869 -0.006851 0.000000 -0.008106 0.000000
# 2 -0.004869 0.030782 -0.002194 0.000000 -0.006158 0.000000
# 3 -0.006851 -0.002194 0.015491 0.000000 0.012860 0.000000
# 4 0.000000 0.000000 0.000000 0.031556 0.000000 0.004826
# 5 -0.008106 -0.006158 0.012860 0.000000 0.059256 0.000000
# 6 0.000000 0.000000 0.000000 0.004826 0.000000 0.031316
#
#
# Mechanical properties :
#
#
# Convention : Reuss Voigt Hill
#
# Bulk Modulus (GPa) = 31.67632 46.09034 38.88333
# Shear Modulus (GPa) = 22.73975 28.53896 25.63936
#
# Velocity S-wave (km/s) = 3.35528 3.75885 3.56279
# Velocity P-wave (km/s) = 5.54011 6.45422 6.01455
#
# Compressibility (1/GPa) = 0.03156932
#
# Stress axis : x y z
#
# Youngs Moduli (GPa) = 76.18904 32.48603 64.55372
#
# Poissons Ratio (x) = 0.15819 0.44228
# Poissons Ratio (y) = 0.37099 0.14163
# Poissons Ratio (z) = 0.52200 0.07127
#
# Static dielectric constant tensor:
#      x y z
#    x 3.754390 0.000000 0.137250 
#    y 0.000000 3.517060 0.000000 
#    z 0.137250 0.000000 3.684680 
# 
# 
# High freq. dielectric constant tensor:
#      x y z
#    x 1.792550 0.000000 0.001150 
#    y 0.000000 1.785370 0.000000 
#    z 0.001150 0.000000 1.795390 
# 
# From -- ./inp_files/49330.got.cif
#   From: 2010.06.25/outbox.cif.g09.slc.cpg/sg10_25_cif.got.tgz:49330.got - 2010.06.27 22:07:45.
