data_PCOD8067319
_publ_section_title
;
Structure prediction by ZEFSAII (Michael W. Deem and Ramdas Pophale) SiO2 
 PCOD8067319
Probable space group: P 2/M
;
_chemical_formula_sum "Si O2"
_cell_formula_units_Z 28
_cell_length_a 15.106897
_cell_length_b 8.435321
_cell_length_c 11.798871
_cell_angle_alpha 90.000000
_cell_angle_beta 118.556798
_cell_angle_gamma 90.000000
_cell_volume 1320.631980
_symmetry_space_group_name_H-M "P 2/M"
_symmetry_group_IT_number 10
_symmetry_cell_setting 'monoclinic'
loop_
_space_group_symop_operation_xyz
x,y,z
-x,y,-z
-x,-y,-z
x,-y,z
loop_
_atom_site_type_symbol
_atom_site_label
_atom_site_fract_x
_atom_site_fract_y
_atom_site_fract_z
Si Si1 0.301528 0.185361 0.234334
Si Si2 0.790581 0.315117 0.032376
Si Si3 0.385976 0.686055 0.914956
Si Si4 0.190678 0.685733 0.370956
Si Si5 0.001151 0.814897 0.869241
Si Si6 0.307997 0.183113 0.633862
Si Si7 0.510088 0.677404 0.373437
O O1 0.276560 0.230406 0.347742
O O2 0.411457 0.240499 0.262368
O O3 0.287474 0.000000 0.205714
O O4 0.223218 0.280817 0.108899
O O5 0.806319 0.500000 0.065728
O O6 0.693629 0.246398 0.041238
O O7 0.893094 0.223609 0.127909
O O8 0.394714 0.500000 0.937300
O O9 0.336688 0.723203 0.764296
O O10 0.500000 0.758985 0.000000
O O11 0.211434 0.500000 0.382854
O O12 0.080832 0.723675 0.256117
O O13 0.207009 0.749920 0.510026
O O14 0.976162 0.000000 0.848200
O O15 0.000000 0.757144 0.000000
O O16 0.398193 0.209567 0.601008
O O17 0.293069 0.000000 0.654124
O O18 0.500000 0.665705 0.500000
O O19 0.522482 0.500000 0.328756
#
# Coordination Sequence:
#
# PCOD8067319 Si02
#       7
#     4   4   4   4   4   4   4
#     4  12  23  36  58  91 129 164 206 262 321 381
#     4  11  23  40  66  96 127 170 218 264 318 383
#     4  10  23  45  70  95 129 172 219 265 313 381
#     4  12  24  40  63  91 127 168 212 261 318 388
#     4  11  23  40  64  95 132 171 212 270 329 381
#     4  12  25  41  64  93 129 169 212 267 327 383
#     4  11  22  36  57  85 121 165 208 254 312 381
#
# _framework density 21.201969999999999
#
# number of rings (size 3 to 8) (size 9 to 14) (size 15 to 20)
#    0.000    0.714    2.857    6.000    0.000    3.714 
#    0.000    0.714    0.000    4.286    0.000    0.000 
#    0.000    0.000    0.000    0.000    0.000    0.000 
#
# Total GULP energy -347200.133552 kJ/mol
# GULP energy per Si atom -12400.004770 kJ/mol
# Density = 2.115371 g / cm^3
# Si number density = 21.201970 Si / 1000 Ang^3
#
#
#
# Elastic Constant Matrix: (Units=GPa)
#
#
# Indices 1 2 3 4 5 6 
#
# 1 93.1439 23.2134 35.5555 0.0000 17.3092 0.0000
# 2 23.2134 50.4980 4.1540 0.0000 1.8873 0.0000
# 3 35.5555 4.1540 124.3969 0.0000 12.7371 0.0000
# 4 0.0000 0.0000 0.0000 26.5789 0.0000 3.3179
# 5 17.3092 1.8873 12.7371 0.0000 31.9181 0.0000
# 6 0.0000 0.0000 0.0000 3.3179 0.0000 25.8610
#
#
#
# Elastic Compliance Matrix: (Units=1/GPa)
#
#
# Indices 1 2 3 4 5 6 
#
# 1 0.014750 -0.006269 -0.003363 0.000000 -0.006286 0.000000
# 2 -0.006269 0.022549 0.000863 0.000000 0.001722 0.000000
# 3 -0.003363 0.000863 0.009164 0.000000 -0.001884 0.000000
# 4 0.000000 0.000000 0.000000 0.038236 0.000000 -0.004906
# 5 -0.006286 0.001722 -0.001884 0.000000 0.035389 0.000000
# 6 0.000000 0.000000 0.000000 -0.004906 0.000000 0.039298
#
#
# Mechanical properties :
#
#
# Convention : Reuss Voigt Hill
#
# Bulk Modulus (GPa) = 34.57241 43.76496 39.16869
# Shear Modulus (GPa) = 26.79994 30.54601 28.67297
#
# Velocity S-wave (km/s) = 3.55918 3.79979 3.68145
# Velocity P-wave (km/s) = 5.76472 6.31965 6.04855
#
# Compressibility (1/GPa) = 0.02892480
#
# Stress axis : x y z
#
# Youngs Moduli (GPa) = 67.79462 44.34730 109.12100
#
# Poissons Ratio (x) = 0.27802 0.36697
# Poissons Ratio (y) = 0.42501 -0.09412
# Poissons Ratio (z) = 0.22799 -0.03825
#
# Static dielectric constant tensor:
#      x y z
#    x 3.951770 0.000000 0.202130 
#    y 0.000000 3.801380 0.000000 
#    z 0.202130 0.000000 4.023240 
# 
# 
# High freq. dielectric constant tensor:
#      x y z
#    x 1.818350 0.000000 0.017490 
#    y 0.000000 1.829410 0.000000 
#    z 0.017490 0.000000 1.838950 
# 
# From -- ./inp_files/50093.got.cif
#   From: 2010.06.25/outbox.cif.g09.slc.cpg/sg10_26_cif.got.tgz:50093.got - 2010.06.27 22:07:45.
