data_PCOD8067724
_publ_section_title
;
Structure prediction by ZEFSAII (Michael W. Deem and Ramdas Pophale) SiO2 
 PCOD8067724
Probable space group: P 2/M
;
_chemical_formula_sum "Si O2"
_cell_formula_units_Z 28
_cell_length_a 31.613964
_cell_length_b 8.478933
_cell_length_c 32.459801
_cell_angle_alpha 90.000000
_cell_angle_beta 9.196895
_cell_angle_gamma 90.000000
_cell_volume 1390.650638
_symmetry_space_group_name_H-M "P 2/M"
_symmetry_group_IT_number 10
_symmetry_cell_setting 'monoclinic'
loop_
_space_group_symop_operation_xyz
x,y,z
-x,y,-z
-x,-y,-z
x,-y,z
loop_
_atom_site_type_symbol
_atom_site_label
_atom_site_fract_x
_atom_site_fract_y
_atom_site_fract_z
Si Si1 0.000009 0.686407 0.333340
Si Si2 0.285844 0.187738 0.238054
Si Si3 0.289043 0.312662 0.903635
Si Si4 0.855809 0.687652 0.048085
Si Si5 0.572010 0.311801 0.475976
Si Si6 0.858328 0.813530 0.380543
Si Si7 0.569238 0.812738 0.810266
O O1 0.998909 0.500000 0.333704
O O2 0.929096 0.749439 0.356961
O O3 0.785943 0.747843 0.571065
O O4 0.285033 0.747850 0.071981
O O5 0.358210 0.247827 0.213923
O O6 0.000000 0.255206 0.500000
O O7 0.283859 0.000000 0.238724
O O8 0.500000 0.255198 0.000000
O O9 0.293006 0.500000 0.902308
O O10 0.216499 0.252001 0.927816
O O11 0.573150 0.247459 0.641972
O O12 0.072263 0.247468 0.142860
O O13 0.857483 0.500000 0.047529
O O14 0.641398 0.754163 0.286421
O O15 0.141991 0.754162 0.785832
O O16 0.500000 0.247215 0.500000
O O17 0.572084 0.500000 0.475947
O O18 0.859961 0.000000 0.379999
O O19 0.565328 0.000000 0.811563
#
# Coordination Sequence:
#
# PCOD8067724 Si02
#       7
#     4   4   4   4   4   4   4
#     4  12  25  42  62  87 121 158 195 238 297 358
#     4   9  17  31  55  87 118 150 193 242 286 332
#     4  11  22  39  61  86 118 155 194 237 294 355
#     4   9  17  28  45  71 105 145 184 225 277 338
#     4   9  15  24  40  67 106 147 182 221 275 333
#     4  12  25  42  62  87 117 150 195 245 293 346
#     4  11  22  39  64  92 121 156 201 248 290 338
#
# _framework density 20.134461000000002
#
# number of rings (size 3 to 8) (size 9 to 14) (size 15 to 20)
#    0.000    1.571    0.000    6.429    0.000    6.286 
#    0.000    0.000    0.000    8.571    0.000    0.000 
#    0.000   40.000    0.000    0.000    0.000    0.000 
#
# Total GULP energy -347284.742648 kJ/mol
# GULP energy per Si atom -12403.026523 kJ/mol
# Density = 2.008863 g / cm^3
# Si number density = 20.134461 Si / 1000 Ang^3
#
#
#
# Elastic Constant Matrix: (Units=GPa)
#
#
# Indices 1 2 3 4 5 6 
#
# 1 237.1032 52.6504 134.7626 0.0000 -0.0083 0.0000
# 2 52.6504 90.0509 45.7602 0.0000 0.0156 0.0000
# 3 134.7626 45.7602 239.4720 0.0000 -0.0020 0.0000
# 4 0.0000 0.0000 0.0000 30.0808 0.0000 -0.0131
# 5 -0.0083 0.0156 -0.0020 0.0000 52.5753 0.0000
# 6 0.0000 0.0000 0.0000 -0.0131 0.0000 24.9429
#
#
#
# Elastic Compliance Matrix: (Units=1/GPa)
#
#
# Indices 1 2 3 4 5 6 
#
# 1 0.006563 -0.002171 -0.003278 0.000000 0.000002 0.000000
# 2 -0.002171 0.013017 -0.001266 0.000000 -0.000004 0.000000
# 3 -0.003278 -0.001266 0.006263 0.000000 0.000000 0.000000
# 4 0.000000 0.000000 0.000000 0.033244 0.000000 0.000017
# 5 0.000002 -0.000004 0.000000 0.000000 0.019020 0.000000
# 6 0.000000 0.000000 0.000000 0.000017 0.000000 0.040092
#
#
# Mechanical properties :
#
#
# Convention : Reuss Voigt Hill
#
# Bulk Modulus (GPa) = 80.56393 114.77472 97.66933
# Shear Modulus (GPa) = 36.82775 43.74999 40.28887
#
# Velocity S-wave (km/s) = 4.28143 4.66648 4.47810
# Velocity P-wave (km/s) = 8.03372 9.28238 8.68053
#
# Compressibility (1/GPa) = 0.01241250
#
# Stress axis : x y z
#
# Youngs Moduli (GPa) = 152.36662 76.82000 159.67680
#
# Poissons Ratio (x) = 0.16680 0.52350
# Poissons Ratio (y) = 0.33083 0.20208
# Poissons Ratio (z) = 0.49953 0.09722
#
# Static dielectric constant tensor:
#      x y z
#    x 4.024780 0.000000 0.000170 
#    y 0.000000 3.395150 0.000000 
#    z 0.000170 0.000000 3.948910 
# 
# 
# High freq. dielectric constant tensor:
#      x y z
#    x 1.810590 0.000000 0.000000 
#    y 0.000000 1.752240 0.000000 
#    z 0.000000 0.000000 1.811310 
# 
# From -- ./inp_files/95984.got.cif
#   From: 2010.06.25/outbox.cif.g09.slc.cpg/sg10_48_cif.got.tgz:95984.got - 2010.06.27 22:07:45.
