data_PCOD8067556
_publ_section_title
;
Structure prediction by ZEFSAII (Michael W. Deem and Ramdas Pophale) SiO2 
 PCOD8067556
Probable space group: P 2/M
;
_chemical_formula_sum "Si O2"
_cell_formula_units_Z 32
_cell_length_a 20.833793
_cell_length_b 8.727910
_cell_length_c 15.321527
_cell_angle_alpha 90.000000
_cell_angle_beta 138.098685
_cell_angle_gamma 90.000000
_cell_volume 1860.627133
_symmetry_space_group_name_H-M "P 2/M"
_symmetry_group_IT_number 10
_symmetry_cell_setting 'monoclinic'
loop_
_space_group_symop_operation_xyz
x,y,z
-x,y,-z
-x,-y,-z
x,-y,z
loop_
_atom_site_type_symbol
_atom_site_label
_atom_site_fract_x
_atom_site_fract_y
_atom_site_fract_z
Si Si1 0.278274 0.819068 0.125146
Si Si2 0.971083 0.169303 0.833560
Si Si3 0.117851 0.679317 0.862583
Si Si4 0.520432 0.318720 0.619516
Si Si5 0.807499 0.180413 0.781859
Si Si6 0.987637 0.183317 0.586333
Si Si7 0.663905 0.815866 0.492419
Si Si8 0.180126 0.832926 0.472870
O O1 0.382413 0.748575 0.243257
O O2 0.212073 0.768464 0.139705
O O3 0.288546 0.000000 0.125558
O O4 0.224242 0.749118 0.986115
O O5 0.916373 0.232793 0.865292
O O6 0.885680 0.149736 0.678477
O O7 0.051021 0.284501 0.878801
O O8 0.018689 0.000000 0.897504
O O9 0.125955 0.500000 0.857212
O O10 0.075684 0.753171 0.731996
O O11 0.500000 0.258151 0.500000
O O12 0.526083 0.500000 0.625925
O O13 0.439753 0.261106 0.605474
O O14 0.724094 0.248829 0.635866
O O15 0.802127 0.000000 0.764989
O O16 0.884797 0.251257 0.518453
O O17 0.000000 0.238905 0.500000
O O18 0.988301 0.000000 0.596078
O O19 0.719432 0.757718 0.459416
O O20 0.654609 0.000000 0.482666
O O21 0.206453 0.000000 0.536923
#
# Coordination Sequence:
#
# PCOD8067556 Si02
#       8
#     4   4   4   4   4   4   4   4
#     4  11  21  34  51  67  88 126 175 214 245 287
#     4   8  14  29  48  65  89 124 166 203 236 279
#     4  11  22  34  46  68 103 133 157 195 246 296
#     4  11  22  33  45  67  98 129 164 213 260 292
#     4   8  15  27  47  69  87 118 168 216 244 272
#     4   9  17  33  58  82 102 127 160 196 235 287
#     4   9  15  28  48  68  92 126 168 207 241 282
#     4   7  12  24  46  74  99 120 153 200 238 275
#
# _framework density 17.198501
#
# number of rings (size 3 to 8) (size 9 to 14) (size 15 to 20)
#    0.000    2.750    1.250    4.125    0.000    1.250 
#    0.000    9.375    0.000    0.000    0.000    0.875 
#    0.000    7.000    0.000    0.000    0.000    0.000 
#
# Total GULP energy -396419.467833 kJ/mol
# GULP energy per Si atom -12388.108370 kJ/mol
# Density = 1.715936 g / cm^3
# Si number density = 17.198501 Si / 1000 Ang^3
#
#
#
# Elastic Constant Matrix: (Units=GPa)
#
#
# Indices 1 2 3 4 5 6 
#
# 1 119.6209 31.7415 65.0036 0.0000 5.7956 0.0000
# 2 31.7415 52.3089 31.0060 0.0000 4.2604 0.0000
# 3 65.0036 31.0060 97.3980 0.0000 13.3396 0.0000
# 4 0.0000 0.0000 0.0000 17.3577 0.0000 -0.9616
# 5 5.7956 4.2604 13.3396 0.0000 16.7760 0.0000
# 6 0.0000 0.0000 0.0000 -0.9616 0.0000 -4.3436
#
#
#
# Elastic Compliance Matrix: (Units=1/GPa)
#
#
# Indices 1 2 3 4 5 6 
#
# 1 0.013753 -0.003581 -0.008430 0.000000 0.002862 0.000000
# 2 -0.003581 0.024496 -0.005303 0.000000 -0.000767 0.000000
# 3 -0.008430 -0.005303 0.019076 0.000000 -0.010909 0.000000
# 4 0.000000 0.000000 0.000000 0.056913 0.000000 -0.012599
# 5 0.002862 -0.000767 -0.010909 0.000000 0.067489 0.000000
# 6 0.000000 0.000000 0.000000 -0.012599 0.000000 -0.227433
#
#
# Mechanical properties :
#
#
# Convention : Reuss Voigt Hill
#
# Bulk Modulus (GPa) = 44.06183 58.31443 51.18813
# Shear Modulus (GPa) = -1423.84892 15.39648 -704.22622
#
# Velocity S-wave (km/s) = -28.80432 2.99527 -20.25731
# Velocity P-wave (km/s) = 32.87212 6.77809 22.74460
#
# Compressibility (1/GPa) = 0.02269538
#
# Stress axis : x y z
#
# Youngs Moduli (GPa) = 72.71395 40.82278 52.42211
#
# Poissons Ratio (x) = 0.14619 0.44194
# Poissons Ratio (y) = 0.26040 0.27800
# Poissons Ratio (z) = 0.61301 0.21649
#
# Static dielectric constant tensor:
#      x y z
#    x 3.576660 0.000000 0.136160 
#    y 0.000000 2.880950 0.000000 
#    z 0.136160 0.000000 3.021780 
# 
# 
# High freq. dielectric constant tensor:
#      x y z
#    x 1.658360 0.000000 0.019380 
#    y 0.000000 1.633970 0.000000 
#    z 0.019380 0.000000 1.636610 
# 
# From -- ./inp_files/70013.got.cif
#   From: 2010.06.25/outbox.cif.g09.slc.cpg/sg10_36_cif.got.tgz:70013.got - 2010.06.27 22:07:45.
