data_PCOD8068042
_publ_section_title
;
Structure prediction by ZEFSAII (Michael W. Deem and Ramdas Pophale) SiO2 
 PCOD8068042
Probable space group: P 2/M
;
_chemical_formula_sum "Si O2"
_cell_formula_units_Z 20
_cell_length_a 9.177454
_cell_length_b 9.250137
_cell_length_c 26.371422
_cell_angle_alpha 90.000000
_cell_angle_beta 150.460848
_cell_angle_gamma 90.000000
_cell_volume 1103.740223
_symmetry_space_group_name_H-M "P 2/M"
_symmetry_group_IT_number 10
_symmetry_cell_setting 'monoclinic'
loop_
_space_group_symop_operation_xyz
x,y,z
-x,y,-z
-x,-y,-z
x,-y,z
loop_
_atom_site_type_symbol
_atom_site_label
_atom_site_fract_x
_atom_site_fract_y
_atom_site_fract_z
Si Si1 0.326723 0.663158 0.000000
Si Si2 0.168040 0.831783 0.199246
Si Si3 0.832221 0.172155 0.598672
Si Si4 0.838864 0.172155 0.401329
Si Si5 0.828189 0.168217 0.199246
O O1 0.266551 0.500000 0.000000
O O2 0.522391 0.744773 0.101247
O O3 0.500000 0.666777 0.000000
O O4 0.016155 0.744773 0.898753
O O5 0.501935 0.773659 0.298338
O O6 0.047285 0.802614 0.218914
O O7 0.146170 0.000000 0.178533
O O8 0.500000 0.234627 0.500000
O O9 0.992473 0.232138 0.596989
O O10 0.010244 0.226342 0.701662
O O11 0.822371 0.000000 0.595158
O O12 0.000000 0.234627 0.500000
O O13 0.846583 0.000000 0.404843
O O14 0.746498 0.000000 0.178534
#
# Coordination Sequence:
#
# PCOD8068042 Si02
#       5
#     4   4   4   4   4
#     4   9  17  29  46  67  90 118 152 187 222 262
#     4   9  16  27  45  68  92 118 149 184 220 260
#     4   9  16  26  42  66  94 120 146 180 223 267
#     4   9  16  26  42  66  94 120 146 180 223 267
#     4   9  16  27  45  68  92 118 149 184 220 260
#
# _framework density 18.120206
#
# number of rings (size 3 to 8) (size 9 to 14) (size 15 to 20)
#    0.000    3.000    0.000    1.800    0.000    7.200 
#    0.000    1.000    0.000    8.400    0.000    0.000 
#    0.000    0.000    0.000    0.000    0.000    0.000 
#
# Total GULP energy -247986.661195 kJ/mol
# GULP energy per Si atom -12399.333060 kJ/mol
# Density = 1.807896 g / cm^3
# Si number density = 18.120206 Si / 1000 Ang^3
#
#
#
# Elastic Constant Matrix: (Units=GPa)
#
#
# Indices 1 2 3 4 5 6 
#
# 1 94.6175 28.4133 82.0514 0.0000 -1.7969 0.0000
# 2 28.4133 51.4751 57.8797 0.0000 -0.9920 0.0000
# 3 82.0514 57.8797 215.1363 0.0000 -2.2602 0.0000
# 4 0.0000 0.0000 0.0000 3.3966 0.0000 0.1320
# 5 -1.7969 -0.9920 -2.2602 0.0000 32.9892 0.0000
# 6 0.0000 0.0000 0.0000 0.1320 0.0000 7.3189
#
#
#
# Elastic Compliance Matrix: (Units=1/GPa)
#
#
# Indices 1 2 3 4 5 6 
#
# 1 0.016082 -0.002835 -0.005366 0.000000 0.000423 0.000000
# 2 -0.002835 0.028356 -0.006545 0.000000 0.000250 0.000000
# 3 -0.005366 -0.006545 0.008457 0.000000 0.000090 0.000000
# 4 0.000000 0.000000 0.000000 0.294615 0.000000 -0.005315
# 5 0.000423 0.000250 0.000090 0.000000 0.030350 0.000000
# 6 0.000000 0.000000 0.000000 -0.005315 0.000000 0.136729
#
#
# Mechanical properties :
#
#
# Convention : Reuss Voigt Hill
#
# Bulk Modulus (GPa) = 42.73106 77.54642 60.13874
# Shear Modulus (GPa) = 9.05994 21.59991 15.32993
#
# Velocity S-wave (km/s) = 2.23847 3.45633 2.91179
# Velocity P-wave (km/s) = 5.50583 7.66921 6.67574
#
# Compressibility (1/GPa) = 0.02340218
#
# Stress axis : x y z
#
# Youngs Moduli (GPa) = 62.18189 35.26626 118.24878
#
# Poissons Ratio (x) = 0.09997 0.63458
# Poissons Ratio (y) = 0.17626 0.77394
# Poissons Ratio (z) = 0.33370 0.23082
#
# Static dielectric constant tensor:
#      x y z
#    x 3.226670 0.000000 -0.012650 
#    y 0.000000 2.930350 0.000000 
#    z -0.012650 0.000000 3.602300 
# 
# 
# High freq. dielectric constant tensor:
#      x y z
#    x 1.682050 0.000000 -0.001330 
#    y 0.000000 1.649330 0.000000 
#    z -0.001330 0.000000 1.721470 
# 
# From -- ./inp_files/22129.got.cif
#   From: 2010.06.25/outbox.cif.g09.slc.cpg/sg10_12_cif.got.tgz:22129.got - 2010.06.27 22:07:45.
