data_PCOD8068777
_publ_section_title
;
Structure prediction by ZEFSAII (Michael W. Deem and Ramdas Pophale) SiO2 
 PCOD8068777
Probable space group: P 21/M
;
_chemical_formula_sum "Si O2"
_cell_formula_units_Z 32
_cell_length_a 17.303306
_cell_length_b 10.152082
_cell_length_c 27.361847
_cell_angle_alpha 90.000000
_cell_angle_beta 23.399805
_cell_angle_gamma 90.000000
_cell_volume 1908.879262
_symmetry_space_group_name_H-M "P 21/M"
_symmetry_group_IT_number 11
_symmetry_cell_setting 'monoclinic'
loop_
_space_group_symop_operation_xyz
x,y,z
-x,1/2+y,-z
-x,-y,-z
x,1/2-y,z
loop_
_atom_site_type_symbol
_atom_site_label
_atom_site_fract_x
_atom_site_fract_y
_atom_site_fract_z
Si Si1 0.586418 0.096457 0.518942
Si Si2 0.693184 0.391174 0.922535
Si Si3 0.847136 0.094284 0.562219
Si Si4 0.833993 0.901310 0.916083
Si Si5 0.439293 0.600389 0.189853
Si Si6 0.144985 0.602647 0.551129
Si Si7 0.281855 0.026959 0.187824
Si Si8 0.730272 0.099914 0.327611
O O1 0.527475 0.250000 0.559983
O O2 0.721317 0.038320 0.484259
O O3 0.705461 0.077955 0.399864
O O4 0.395218 0.005136 0.629810
O O5 0.782251 0.250000 0.886771
O O6 0.798915 0.509340 0.889090
O O7 0.727575 0.405600 0.844600
O O8 0.462439 0.382993 0.066917
O O9 0.911837 0.250000 0.525852
O O10 0.639002 0.075109 0.710006
O O11 0.823031 0.039043 0.521008
O O12 0.000000 0.000000 0.500000
O O13 0.820454 0.750000 0.906110
O O14 0.045154 0.928730 0.816447
O O15 0.669426 0.934601 0.052387
O O16 0.406721 0.750000 0.193308
O O17 0.310955 0.517889 0.226523
O O18 0.220618 0.750000 0.503171
O O19 0.920202 0.604211 0.697259
O O20 0.671692 0.250000 0.347406
#
# Coordination Sequence:
#
# PCOD8068777 Si02
#       8
#     4   4   4   4   4   4   4   4
#     4   9  18  31  48  71  96 121 155 198 239 283
#     4  10  20  29  42  69  98 127 161 197 233 277
#     4  10  19  33  51  71  96 127 164 202 239 280
#     4   9  18  32  50  68  93 128 160 193 238 291
#     4   9  17  30  47  68  93 124 162 198 234 278
#     4  10  19  31  49  70  94 129 164 195 238 289
#     4  10  18  29  44  62  98 132 159 192 233 280
#     4   9  17  32  51  70  93 123 157 193 238 291
#
# _framework density 16.763763999999998
#
# number of rings (size 3 to 8) (size 9 to 14) (size 15 to 20)
#    0.000    2.500    1.250    1.500    0.000    5.000 
#    0.000    4.375    0.000    0.750    0.000    0.000 
#    0.000    0.000    0.000    0.000    0.000    0.000 
#
# Total GULP energy -396558.322229 kJ/mol
# GULP energy per Si atom -12392.447570 kJ/mol
# Density = 1.672561 g / cm^3
# Si number density = 16.763764 Si / 1000 Ang^3
#
#
#
# Elastic Constant Matrix: (Units=GPa)
#
#
# Indices 1 2 3 4 5 6 
#
# 1 98.6046 33.1262 49.4452 0.0000 -6.3920 0.0000
# 2 33.1262 66.2060 30.4932 0.0000 -9.7243 0.0000
# 3 49.4452 30.4932 91.7179 0.0000 -7.6149 0.0000
# 4 0.0000 0.0000 0.0000 4.3868 0.0000 -2.5194
# 5 -6.3920 -9.7243 -7.6149 0.0000 28.6402 0.0000
# 6 0.0000 0.0000 0.0000 -2.5194 0.0000 19.1655
#
#
#
# Elastic Compliance Matrix: (Units=1/GPa)
#
#
# Indices 1 2 3 4 5 6 
#
# 1 0.014930 -0.004433 -0.006568 0.000000 0.000081 0.000000
# 2 -0.004433 0.019759 -0.003788 0.000000 0.004712 0.000000
# 3 -0.006568 -0.003788 0.015824 0.000000 0.001455 0.000000
# 4 0.000000 0.000000 0.000000 0.246575 0.000000 0.032414
# 5 0.000081 0.004712 0.001455 0.000000 0.036921 0.000000
# 6 0.000000 0.000000 0.000000 0.032414 0.000000 0.056438
#
#
# Mechanical properties :
#
#
# Convention : Reuss Voigt Hill
#
# Bulk Modulus (GPa) = 47.76819 53.62862 50.69840
# Shear Modulus (GPa) = 11.70951 20.00277 15.85614
#
# Velocity S-wave (km/s) = 2.64578 3.45804 3.07882
# Velocity P-wave (km/s) = 6.15551 6.92851 6.55342
#
# Compressibility (1/GPa) = 0.02093443
#
# Stress axis : x y z
#
# Youngs Moduli (GPa) = 66.98133 50.60884 63.19482
#
# Poissons Ratio (x) = 0.22435 0.41506
# Poissons Ratio (y) = 0.29693 0.23940
# Poissons Ratio (z) = 0.43993 0.19172
#
# Static dielectric constant tensor:
#      x y z
#    x 3.074300 0.000000 0.077820 
#    y 0.000000 3.069910 0.000000 
#    z 0.077820 0.000000 3.266510 
# 
# 
# High freq. dielectric constant tensor:
#      x y z
#    x 1.620530 0.000000 0.002260 
#    y 0.000000 1.637430 0.000000 
#    z 0.002260 0.000000 1.645140 
# 
# From -- ./inp_files/43117.got.cif
#   From: 2010.06.25/outbox.cif.g09.slc.cpg/sg11_22_cif.got.tgz:43117.got - 2010.06.27 23:14:04.
