data_PCOD8068861
_publ_section_title
;
Structure prediction by ZEFSAII (Michael W. Deem and Ramdas Pophale) SiO2 
 PCOD8068861
Probable space group: P 21/M
;
_chemical_formula_sum "Si O2"
_cell_formula_units_Z 28
_cell_length_a 21.549092
_cell_length_b 8.963102
_cell_length_c 9.937920
_cell_angle_alpha 90.000000
_cell_angle_beta 61.957792
_cell_angle_gamma 90.000000
_cell_volume 1694.132897
_symmetry_space_group_name_H-M "P 21/M"
_symmetry_group_IT_number 11
_symmetry_cell_setting 'monoclinic'
loop_
_space_group_symop_operation_xyz
x,y,z
-x,1/2+y,-z
-x,-y,-z
x,1/2-y,z
loop_
_atom_site_type_symbol
_atom_site_label
_atom_site_fract_x
_atom_site_fract_y
_atom_site_fract_z
Si Si1 0.582870 0.918004 0.782642
Si Si2 0.931445 0.418927 0.121635
Si Si3 0.213723 0.581306 0.827707
Si Si4 0.551856 0.917472 0.128750
Si Si5 0.308598 0.925148 0.974507
Si Si6 0.820057 0.573588 0.391016
Si Si7 0.277456 0.925846 0.308957
O O1 0.595326 0.750000 0.717263
O O2 0.519040 0.991810 0.764072
O O3 0.652775 0.014525 0.687824
O O4 0.563401 0.916931 0.958297
O O5 0.950576 0.250000 0.143880
O O6 0.898288 0.505508 0.284838
O O7 0.871466 0.420650 0.065171
O O8 0.000000 0.500000 0.000000
O O9 0.238918 0.750000 0.769848
O O10 0.251724 0.521014 0.922478
O O11 0.231386 0.477218 0.680305
O O12 0.543905 0.750000 0.192404
O O13 0.618097 0.994314 0.133396
O O14 0.322869 0.750000 0.954508
O O15 0.278778 0.970336 0.150631
O O16 0.824312 0.750000 0.396923
O O17 0.790508 0.506196 0.559516
O O18 0.272135 0.750000 0.336542
#
# Coordination Sequence:
#
# PCOD8068861 Si02
#       7
#     4   4   4   4   4   4   4
#     4   9  16  26  40  60  88 122 159 196 233 275
#     4   9  17  31  52  75  97 120 154 193 227 269
#     4   8  17  32  49  70  95 123 155 192 231 275
#     4   9  16  25  39  62  90 120 156 197 235 273
#     4   9  17  30  48  69  94 125 157 193 238 281
#     4  10  19  31  48  71  97 126 157 190 228 275
#     4  10  18  29  47  70  96 124 156 196 238 278
#
# _framework density 16.527629000000001
#
# number of rings (size 3 to 8) (size 9 to 14) (size 15 to 20)
#    0.857    2.000    0.000    2.571    0.000    4.571 
#    0.000    0.000    0.000    1.714    0.000    0.000 
#    0.000    0.000    0.000    0.000    0.000    0.000 
#
# Total GULP energy -346980.392533 kJ/mol
# GULP energy per Si atom -12392.156876 kJ/mol
# Density = 1.649001 g / cm^3
# Si number density = 16.527629 Si / 1000 Ang^3
#
#
#
# Elastic Constant Matrix: (Units=GPa)
#
#
# Indices 1 2 3 4 5 6 
#
# 1 40.1042 6.0801 -7.2298 0.0000 2.8540 0.0000
# 2 6.0801 93.1101 13.1133 0.0000 -0.6085 0.0000
# 3 -7.2298 13.1133 30.8015 0.0000 -3.1636 0.0000
# 4 0.0000 0.0000 0.0000 27.4805 0.0000 -8.5578
# 5 2.8540 -0.6085 -3.1636 0.0000 16.7529 0.0000
# 6 0.0000 0.0000 0.0000 -8.5578 0.0000 23.1643
#
#
#
# Elastic Compliance Matrix: (Units=1/GPa)
#
#
# Indices 1 2 3 4 5 6 
#
# 1 0.026884 -0.002785 0.007154 0.000000 -0.003330 0.000000
# 2 -0.002785 0.011718 -0.005660 0.000000 -0.000169 0.000000
# 3 0.007154 -0.005660 0.037128 0.000000 0.005587 0.000000
# 4 0.000000 0.000000 0.000000 0.041120 0.000000 0.015191
# 5 -0.003330 -0.000169 0.005587 0.000000 0.061307 0.000000
# 6 0.000000 0.000000 0.000000 0.015191 0.000000 0.048782
#
#
# Mechanical properties :
#
#
# Convention : Reuss Voigt Hill
#
# Bulk Modulus (GPa) = 13.67076 20.88255 17.27666
# Shear Modulus (GPa) = 19.69246 23.61634 21.65440
#
# Velocity S-wave (km/s) = 3.45554 3.78418 3.62359
# Velocity P-wave (km/s) = 4.92041 5.63522 5.28990
#
# Compressibility (1/GPa) = 0.07314880
#
# Stress axis : x y z
#
# Youngs Moduli (GPa) = 37.19701 85.34017 26.93350
#
# Poissons Ratio (x) = 0.23766 -0.19268
# Poissons Ratio (y) = 0.10359 0.15243
# Poissons Ratio (z) = -0.26610 0.48300
#
# Static dielectric constant tensor:
#      x y z
#    x 2.967930 0.000000 -0.117220 
#    y 0.000000 3.205060 0.000000 
#    z -0.117220 0.000000 2.834650 
# 
# 
# High freq. dielectric constant tensor:
#      x y z
#    x 1.610360 0.000000 -0.018740 
#    y 0.000000 1.650310 0.000000 
#    z -0.018740 0.000000 1.604770 
# 
# From -- ./inp_files/43640.got.cif
#   From: 2010.06.25/outbox.cif.g09.slc.cpg/sg11_22_cif.got.tgz:43640.got - 2010.06.27 23:14:04.
