data_PCOD8068359
_publ_section_title
;
Structure prediction by ZEFSAII (Michael W. Deem and Ramdas Pophale) SiO2 
 PCOD8068359
Probable space group: P 21/M
;
_chemical_formula_sum "Si O2"
_cell_formula_units_Z 32
_cell_length_a 18.067906
_cell_length_b 16.450110
_cell_length_c 12.487228
_cell_angle_alpha 90.000000
_cell_angle_beta 28.775048
_cell_angle_gamma 90.000000
_cell_volume 1786.584232
_symmetry_space_group_name_H-M "P 21/M"
_symmetry_group_IT_number 11
_symmetry_cell_setting 'monoclinic'
loop_
_space_group_symop_operation_xyz
x,y,z
-x,1/2+y,-z
-x,-y,-z
x,1/2-y,z
loop_
_atom_site_type_symbol
_atom_site_label
_atom_site_fract_x
_atom_site_fract_y
_atom_site_fract_z
Si Si1 0.162658 0.542826 0.423361
Si Si2 0.021372 0.419627 0.038007
Si Si3 0.374172 0.415639 0.262768
Si Si4 0.330930 0.509212 0.010446
Si Si5 0.885286 0.020675 0.895383
Si Si6 0.779203 0.160203 0.481214
Si Si7 0.083901 0.343276 0.748574
Si Si8 0.569808 0.841573 0.031469
O O1 0.305783 0.496942 0.298334
O O2 0.162094 0.631977 0.476352
O O3 0.004008 0.497438 0.648468
O O4 0.196733 0.547831 0.254685
O O5 0.125968 0.444173 0.007967
O O6 0.853024 0.393814 0.293486
O O7 0.095126 0.353437 0.864037
O O8 0.000000 0.500000 0.000000
O O9 0.509419 0.444692 0.170378
O O10 0.246946 0.368102 0.492241
O O11 0.437815 0.358696 0.086601
O O12 0.333278 0.411609 0.030677
O O13 0.280985 0.528079 0.951064
O O14 0.941959 0.103131 0.882262
O O15 0.843928 0.250000 0.383279
O O16 0.596832 0.156484 0.703594
O O17 0.048781 0.250000 0.765159
O O18 0.639738 0.750000 0.959124
#
# Coordination Sequence:
#
# PCOD8068359 Si02
#       8
#     4   4   4   4   4   4   4   4
#     4   9  16  32  49  75 105 145 179 205 246 325
#     4   9  19  35  56  74  96 133 185 224 260 319
#     4  10  18  32  54  77 105 141 183 210 257 320
#     4  11  18  32  52  80 111 147 169 213 269 327
#     4   9  20  33  54  80 106 137 177 220 267 320
#     4  10  17  29  51  80 102 130 179 231 261 295
#     4  10  20  37  57  75 100 139 184 229 264 311
#     4  10  19  31  51  80 111 141 177 219 263 318
#
# _framework density 17.911273000000001
#
# number of rings (size 3 to 8) (size 9 to 14) (size 15 to 20)
#    0.000    2.250    2.500    2.625    0.000    0.000 
#    0.000    5.625    0.000    0.000    0.000    0.000 
#    0.000    0.000    0.000    0.000    0.000    0.000 
#
# Total GULP energy -396544.580602 kJ/mol
# GULP energy per Si atom -12392.018144 kJ/mol
# Density = 1.787051 g / cm^3
# Si number density = 17.911273 Si / 1000 Ang^3
#
#
#
# Elastic Constant Matrix: (Units=GPa)
#
#
# Indices 1 2 3 4 5 6 
#
# 1 111.1854 37.7179 37.0525 0.0000 -1.7544 0.0000
# 2 37.7179 99.3908 32.6521 0.0000 3.3661 0.0000
# 3 37.0525 32.6521 75.8773 0.0000 16.4202 0.0000
# 4 0.0000 0.0000 0.0000 22.9886 0.0000 2.4872
# 5 -1.7544 3.3661 16.4202 0.0000 22.7988 0.0000
# 6 0.0000 0.0000 0.0000 2.4872 0.0000 16.4065
#
#
#
# Elastic Compliance Matrix: (Units=1/GPa)
#
#
# Indices 1 2 3 4 5 6 
#
# 1 0.011983 -0.002817 -0.005839 0.000000 0.005543 0.000000
# 2 -0.002817 0.012479 -0.004204 0.000000 0.000969 0.000000
# 3 -0.005839 -0.004204 0.021089 0.000000 -0.015018 0.000000
# 4 0.000000 0.000000 0.000000 0.044225 0.000000 -0.006705
# 5 0.005543 0.000969 -0.015018 0.000000 0.054961 0.000000
# 6 0.000000 0.000000 0.000000 -0.006705 0.000000 0.061968
#
#
# Mechanical properties :
#
#
# Convention : Reuss Voigt Hill
#
# Bulk Modulus (GPa) = 50.42519 55.69984 53.06251
# Shear Modulus (GPa) = 20.91741 24.37419 22.64580
#
# Velocity S-wave (km/s) = 3.42107 3.69294 3.55960
# Velocity P-wave (km/s) = 6.61958 7.02488 6.82524
#
# Compressibility (1/GPa) = 0.01983136
#
# Stress axis : x y z
#
# Youngs Moduli (GPa) = 83.45245 80.13748 47.41724
#
# Poissons Ratio (x) = 0.22574 0.27686
# Poissons Ratio (y) = 0.23508 0.19934
# Poissons Ratio (z) = 0.48727 0.33689
#
# Static dielectric constant tensor:
#      x y z
#    x 3.243100 0.000000 0.354650 
#    y 0.000000 3.474370 0.000000 
#    z 0.354650 0.000000 3.536250 
# 
# 
# High freq. dielectric constant tensor:
#      x y z
#    x 1.663600 0.000000 0.015110 
#    y 0.000000 1.691010 0.000000 
#    z 0.015110 0.000000 1.692220 
# 
# From -- ./inp_files/41841.got.cif
#   From: 2010.06.25/outbox.cif.g09.slc.cpg/sg11_21_cif.got.tgz:41841.got - 2010.06.27 23:14:04.
