data_PCOD8068839
_publ_section_title
;
Structure prediction by ZEFSAII (Michael W. Deem and Ramdas Pophale) SiO2 
 PCOD8068839
Probable space group: P 21/M
;
_chemical_formula_sum "Si O2"
_cell_formula_units_Z 32
_cell_length_a 30.558423
_cell_length_b 8.795771
_cell_length_c 21.322601
_cell_angle_alpha 90.000000
_cell_angle_beta 160.574884
_cell_angle_gamma 90.000000
_cell_volume 1906.049031
_symmetry_space_group_name_H-M "P 21/M"
_symmetry_group_IT_number 11
_symmetry_cell_setting 'monoclinic'
loop_
_space_group_symop_operation_xyz
x,y,z
-x,1/2+y,-z
-x,-y,-z
x,1/2-y,z
loop_
_atom_site_type_symbol
_atom_site_label
_atom_site_fract_x
_atom_site_fract_y
_atom_site_fract_z
Si Si1 0.548476 0.574163 0.974526
Si Si2 0.377555 0.427617 0.064103
Si Si3 0.790730 0.929188 0.960594
Si Si4 0.021268 0.071480 0.342371
Si Si5 0.443092 0.572027 0.276440
Si Si6 0.614048 0.574695 0.616056
Si Si7 0.292500 0.574225 0.704574
Si Si8 0.925295 0.929447 0.340806
O O1 0.587438 0.750000 0.037609
O O2 0.651344 0.472629 0.151825
O O3 0.558284 0.527987 0.915367
O O4 0.400456 0.541728 0.796986
O O5 0.390914 0.250000 0.096073
O O6 0.459301 0.518929 0.226959
O O7 0.226260 0.479997 0.860951
O O8 0.815666 0.750000 0.003411
O O9 0.752615 0.973000 0.836172
O O10 0.675304 0.978452 0.852038
O O11 0.922904 0.019579 0.154616
O O12 0.010559 0.250000 0.338473
O O13 0.166966 0.026545 0.517277
O O14 0.989062 0.987836 0.363338
O O15 0.408187 0.750000 0.232640
O O16 0.584644 0.538455 0.502846
O O17 0.500000 0.500000 0.500000
O O18 0.597962 0.750000 0.607601
O O19 0.251888 0.750000 0.652152
O O20 0.939897 0.750000 0.363906
O O21 0.000000 0.000000 0.500000
#
# Coordination Sequence:
#
# PCOD8068839 Si02
#       8
#     4   4   4   4   4   4   4   4
#     4   9  19  36  55  75  98 125 163 209 252 295
#     4  10  20  33  49  70  99 132 162 197 242 291
#     4  10  18  31  48  68  97 131 165 201 244 290
#     4  12  23  34  49  71 101 132 167 206 245 291
#     4  10  18  29  46  71 100 130 163 197 238 290
#     4   8  16  28  44  66  94 127 161 197 237 286
#     4  10  20  35  55  75  96 125 165 210 255 296
#     4  11  22  34  49  70 100 133 165 197 241 296
#
# _framework density 16.788656
#
# number of rings (size 3 to 8) (size 9 to 14) (size 15 to 20)
#    0.000    2.000    1.250    3.375    0.000    3.500 
#    0.000    0.000    0.000    0.000    0.000    0.875 
#    0.000    0.000    0.000    0.000    0.000    0.000 
#
# Total GULP energy -396667.134348 kJ/mol
# GULP energy per Si atom -12395.847948 kJ/mol
# Density = 1.675044 g / cm^3
# Si number density = 16.788656 Si / 1000 Ang^3
#
#
#
# Elastic Constant Matrix: (Units=GPa)
#
#
# Indices 1 2 3 4 5 6 
#
# 1 81.1259 25.6930 58.7128 0.0000 -15.3383 0.0000
# 2 25.6930 49.0896 35.7146 0.0000 -8.8435 0.0000
# 3 58.7128 35.7146 114.4312 0.0000 -22.7989 0.0000
# 4 0.0000 0.0000 0.0000 26.7164 0.0000 -3.8200
# 5 -15.3383 -8.8435 -22.7989 0.0000 27.9428 0.0000
# 6 0.0000 0.0000 0.0000 -3.8200 0.0000 22.2676
#
#
#
# Elastic Compliance Matrix: (Units=1/GPa)
#
#
# Indices 1 2 3 4 5 6 
#
# 1 0.020366 -0.003824 -0.008681 0.000000 0.002886 0.000000
# 2 -0.003824 0.027162 -0.006235 0.000000 0.001411 0.000000
# 3 -0.008681 -0.006235 0.016474 0.000000 0.006703 0.000000
# 4 0.000000 0.000000 0.000000 0.038371 0.000000 0.006583
# 5 0.002886 0.001411 0.006703 0.000000 0.043287 0.000000
# 6 0.000000 0.000000 0.000000 0.006583 0.000000 0.046038
#
#
# Mechanical properties :
#
#
# Convention : Reuss Voigt Hill
#
# Bulk Modulus (GPa) = 37.70164 53.87640 45.78902
# Shear Modulus (GPa) = 21.00681 23.68714 22.34698
#
# Velocity S-wave (km/s) = 3.54114 3.76027 3.65235
# Velocity P-wave (km/s) = 6.26298 7.14237 6.71708
#
# Compressibility (1/GPa) = 0.02652404
#
# Stress axis : x y z
#
# Youngs Moduli (GPa) = 49.10208 36.81594 60.70051
#
# Poissons Ratio (x) = 0.14077 0.52694
# Poissons Ratio (y) = 0.18774 0.37844
# Poissons Ratio (z) = 0.42625 0.22953
#
# Static dielectric constant tensor:
#      x y z
#    x 3.121460 0.000000 -0.337000 
#    y 0.000000 3.190440 0.000000 
#    z -0.337000 0.000000 3.447330 
# 
# 
# High freq. dielectric constant tensor:
#      x y z
#    x 1.621500 0.000000 -0.024990 
#    y 0.000000 1.659140 0.000000 
#    z -0.024990 0.000000 1.644600 
# 
# From -- ./inp_files/42921.got.cif
#   From: 2010.06.25/outbox.cif.g09.slc.cpg/sg11_22_cif.got.tgz:42921.got - 2010.06.27 23:14:04.
