data_PCOD8068758
_publ_section_title
;
Structure prediction by ZEFSAII (Michael W. Deem and Ramdas Pophale) SiO2 
 PCOD8068758
Probable space group: P 21/M
;
_chemical_formula_sum "Si O2"
_cell_formula_units_Z 32
_cell_length_a 17.917095
_cell_length_b 12.971330
_cell_length_c 14.123032
_cell_angle_alpha 90.000000
_cell_angle_beta 148.579193
_cell_angle_gamma 90.000000
_cell_volume 1711.134202
_symmetry_space_group_name_H-M "P 21/M"
_symmetry_group_IT_number 11
_symmetry_cell_setting 'monoclinic'
loop_
_space_group_symop_operation_xyz
x,y,z
-x,1/2+y,-z
-x,-y,-z
x,1/2-y,z
loop_
_atom_site_type_symbol
_atom_site_label
_atom_site_fract_x
_atom_site_fract_y
_atom_site_fract_z
Si Si1 0.770837 0.372063 0.119978
Si Si2 0.513437 0.131482 0.717473
Si Si3 0.929947 0.633746 0.612986
Si Si4 0.755627 0.497229 0.762478
Si Si5 0.363100 0.452659 0.725098
Si Si6 0.976382 0.631990 0.883558
Si Si7 0.508007 0.631362 0.530668
Si Si8 0.590780 0.365844 0.098657
O O1 0.783856 0.250000 0.132360
O O2 0.710918 0.409354 0.156184
O O3 0.927307 0.419366 0.274077
O O4 0.669446 0.405315 0.922590
O O5 0.485803 0.250000 0.715072
O O6 0.398162 0.065243 0.652236
O O7 0.499292 0.115988 0.590842
O O8 0.906266 0.750000 0.549745
O O9 0.804790 0.560619 0.441176
O O10 0.937917 0.636429 0.733681
O O11 0.845497 0.570521 0.790014
O O12 0.655653 0.572482 0.721262
O O13 0.636904 0.421152 0.583573
O O14 0.870190 0.425273 0.940310
O O15 0.409219 0.567517 0.805837
O O16 0.442419 0.371743 0.880149
O O17 0.986963 0.750000 0.935336
O O18 0.514735 0.750000 0.569547
O O19 0.620390 0.250000 0.162923
#
# Coordination Sequence:
#
# PCOD8068758 Si02
#       8
#     4   4   4   4   4   4   4   4
#     4   8  15  27  44  68  96 122 148 184 231 279
#     4   9  16  29  49  72  96 119 150 196 246 285
#     4  10  18  29  49  75  95 113 150 201 244 279
#     4  10  20  31  49  75  99 128 165 196 247 313
#     4  10  18  28  49  73  93 121 157 195 234 278
#     4  10  20  34  50  71 102 133 160 203 256 297
#     4  10  19  32  51  74 100 128 162 210 255 289
#     4   9  18  32  46  65  97 130 155 185 232 284
#
# _framework density 18.701046000000002
#
# number of rings (size 3 to 8) (size 9 to 14) (size 15 to 20)
#    0.000    2.500    0.000    4.125    0.000    4.500 
#    0.000    0.000    0.000   15.000    0.000    0.000 
#    0.000    0.000    0.000    0.000    0.000    0.000 
#
# Total GULP energy -396445.077327 kJ/mol
# GULP energy per Si atom -12388.908666 kJ/mol
# Density = 1.865848 g / cm^3
# Si number density = 18.701046 Si / 1000 Ang^3
#
#
#
# Elastic Constant Matrix: (Units=GPa)
#
#
# Indices 1 2 3 4 5 6 
#
# 1 54.7638 24.9493 36.4821 0.0000 14.5869 0.0000
# 2 24.9493 102.5758 32.5994 0.0000 9.4251 0.0000
# 3 36.4821 32.5994 93.6492 0.0000 35.4005 0.0000
# 4 0.0000 0.0000 0.0000 17.2907 0.0000 6.5549
# 5 14.5869 9.4251 35.4005 0.0000 32.4646 0.0000
# 6 0.0000 0.0000 0.0000 6.5549 0.0000 22.4371
#
#
#
# Elastic Compliance Matrix: (Units=1/GPa)
#
#
# Indices 1 2 3 4 5 6 
#
# 1 0.025751 -0.003509 -0.008203 0.000000 -0.001607 0.000000
# 2 -0.003509 0.011493 -0.003349 0.000000 0.001892 0.000000
# 3 -0.008203 -0.003349 0.022590 0.000000 -0.019975 0.000000
# 4 0.000000 0.000000 0.000000 0.065037 0.000000 -0.019000
# 5 -0.001607 0.001892 -0.019975 0.000000 0.052758 0.000000
# 6 0.000000 0.000000 0.000000 -0.019000 0.000000 0.050120
#
#
# Mechanical properties :
#
#
# Convention : Reuss Voigt Hill
#
# Bulk Modulus (GPa) = 33.65456 48.78338 41.21897
# Shear Modulus (GPa) = 18.67240 24.90235 21.78738
#
# Velocity S-wave (km/s) = 3.16328 3.65307 3.41696
# Velocity P-wave (km/s) = 5.60151 6.62841 6.13648
#
# Compressibility (1/GPa) = 0.02971366
#
# Stress axis : x y z
#
# Youngs Moduli (GPa) = 38.83295 87.01092 44.26682
#
# Poissons Ratio (x) = 0.30531 0.36311
# Poissons Ratio (y) = 0.13626 0.14824
# Poissons Ratio (z) = 0.31853 0.29139
#
# Static dielectric constant tensor:
#      x y z
#    x 3.411960 0.000000 0.431080 
#    y 0.000000 3.449570 0.000000 
#    z 0.431080 0.000000 3.598540 
# 
# 
# High freq. dielectric constant tensor:
#      x y z
#    x 1.706240 0.000000 0.027660 
#    y 0.000000 1.712910 0.000000 
#    z 0.027660 0.000000 1.725930 
# 
# From -- ./inp_files/53727.got.cif
#   From: 2010.06.25/outbox.cif.g09.slc.cpg/sg11_27_cif.got.tgz:53727.got - 2010.06.27 23:14:04.
