data_PCOD8068869
_publ_section_title
;
Structure prediction by ZEFSAII (Michael W. Deem and Ramdas Pophale) SiO2 
 PCOD8068869
Probable space group: P 21/M
;
_chemical_formula_sum "Si O2"
_cell_formula_units_Z 32
_cell_length_a 20.349630
_cell_length_b 8.912952
_cell_length_c 25.239148
_cell_angle_alpha 90.000000
_cell_angle_beta 23.011941
_cell_angle_gamma 90.000000
_cell_volume 1789.550491
_symmetry_space_group_name_H-M "P 21/M"
_symmetry_group_IT_number 11
_symmetry_cell_setting 'monoclinic'
loop_
_space_group_symop_operation_xyz
x,y,z
-x,1/2+y,-z
-x,-y,-z
x,1/2-y,z
loop_
_atom_site_type_symbol
_atom_site_label
_atom_site_fract_x
_atom_site_fract_y
_atom_site_fract_z
Si Si1 0.146555 0.423166 0.360146
Si Si2 0.628374 0.926422 0.717604
Si Si3 0.647369 0.425235 0.357832
Si Si4 0.074488 0.923373 0.566090
Si Si5 0.833933 0.075695 0.386758
Si Si6 0.340878 0.071847 0.869468
Si Si7 0.479990 0.924878 0.661485
Si Si8 0.022938 0.927117 0.830131
O O1 0.127340 0.250000 0.386446
O O2 0.323317 0.471269 0.256666
O O3 0.000000 0.500000 0.500000
O O4 0.108837 0.457955 0.325786
O O5 0.597474 0.750000 0.733472
O O6 0.777760 0.974167 0.567035
O O7 0.459055 0.012893 0.828883
O O8 0.500000 0.500000 0.500000
O O9 0.634539 0.250000 0.379406
O O10 0.632124 0.459554 0.306920
O O11 0.826506 0.489989 0.244763
O O12 0.125287 0.750000 0.518273
O O13 0.055981 0.955058 0.642236
O O14 0.780864 0.250000 0.421684
O O15 0.946205 0.025292 0.253663
O O16 0.668337 0.976022 0.510328
O O17 0.345738 0.250000 0.866416
O O18 0.402085 0.016274 0.767349
O O19 0.154448 0.006486 0.018581
O O20 0.480379 0.750000 0.675607
O O21 0.015054 0.750000 0.841219
#
# Coordination Sequence:
#
# PCOD8068869 Si02
#       8
#     4   4   4   4   4   4   4   4
#     4   8  15  26  41  68 103 133 163 205 256 306
#     4  10  18  29  47  71 104 138 167 212 265 304
#     4  10  20  36  57  80 106 134 167 212 260 310
#     4   9  16  27  48  77 102 130 171 209 253 314
#     4  10  18  32  56  79 102 134 172 213 255 305
#     4  11  22  36  53  73 102 142 181 216 252 304
#     4  11  22  34  53  81 108 133 167 214 264 310
#     4   9  20  37  55  76 103 136 176 215 255 304
#
# _framework density 17.881585999999999
#
# number of rings (size 3 to 8) (size 9 to 14) (size 15 to 20)
#    0.000    2.250    2.500    1.125    0.000    1.500 
#    0.000    2.500    0.000    0.750    0.000    0.000 
#    0.000    0.000    0.000    0.000    0.000    0.750 
#
# Total GULP energy -396539.970354 kJ/mol
# GULP energy per Si atom -12391.874074 kJ/mol
# Density = 1.784089 g / cm^3
# Si number density = 17.881586 Si / 1000 Ang^3
#
#
#
# Elastic Constant Matrix: (Units=GPa)
#
#
# Indices 1 2 3 4 5 6 
#
# 1 133.7136 34.7231 43.8479 0.0000 -28.8581 0.0000
# 2 34.7231 48.8047 27.9848 0.0000 -8.5946 0.0000
# 3 43.8479 27.9848 95.5179 0.0000 -16.2311 0.0000
# 4 0.0000 0.0000 0.0000 13.5941 0.0000 -4.6866
# 5 -28.8581 -8.5946 -16.2311 0.0000 24.2477 0.0000
# 6 0.0000 0.0000 0.0000 -4.6866 0.0000 21.5812
#
#
#
# Elastic Compliance Matrix: (Units=1/GPa)
#
#
# Indices 1 2 3 4 5 6 
#
# 1 0.011891 -0.005377 -0.002034 0.000000 0.010885 0.000000
# 2 -0.005377 0.027482 -0.005659 0.000000 -0.000447 0.000000
# 3 -0.002034 -0.005659 0.013888 0.000000 0.004871 0.000000
# 4 0.000000 0.000000 0.000000 0.079514 0.000000 0.017267
# 5 0.010885 -0.000447 0.004871 0.000000 0.057297 0.000000
# 6 0.000000 0.000000 0.000000 0.017267 0.000000 0.050086
#
#
# Mechanical properties :
#
#
# Convention : Reuss Voigt Hill
#
# Bulk Modulus (GPa) = 36.87117 54.57199 45.72158
# Shear Modulus (GPa) = 18.15937 23.31663 20.73800
#
# Velocity S-wave (km/s) = 3.19020 3.61494 3.40919
# Velocity P-wave (km/s) = 5.85100 6.92882 6.41259
#
# Compressibility (1/GPa) = 0.02712146
#
# Stress axis : x y z
#
# Youngs Moduli (GPa) = 84.09666 36.38771 72.00248
#
# Poissons Ratio (x) = 0.19567 0.14643
# Poissons Ratio (y) = 0.45221 0.40747
# Poissons Ratio (z) = 0.17102 0.20592
#
# Static dielectric constant tensor:
#      x y z
#    x 4.047690 0.000000 -0.322340 
#    y 0.000000 3.183360 0.000000 
#    z -0.322340 0.000000 3.217360 
# 
# 
# High freq. dielectric constant tensor:
#      x y z
#    x 1.717950 0.000000 -0.018000 
#    y 0.000000 1.684410 0.000000 
#    z -0.018000 0.000000 1.653710 
# 
# From -- ./inp_files/72043.got.cif
#   From: 2010.06.25/outbox.cif.g09.slc.cpg/sg11_37_cif.got.tgz:72043.got - 2010.06.27 23:14:04.
