data_PCOD8068236
_publ_section_title
;
Structure prediction by ZEFSAII (Michael W. Deem and Ramdas Pophale) SiO2 
 PCOD8068236
Probable space group: P 21/M
;
_chemical_formula_sum "Si O2"
_cell_formula_units_Z 28
_cell_length_a 14.358870
_cell_length_b 8.559374
_cell_length_c 14.302288
_cell_angle_alpha 90.000000
_cell_angle_beta 77.442497
_cell_angle_gamma 90.000000
_cell_volume 1715.743809
_symmetry_space_group_name_H-M "P 21/M"
_symmetry_group_IT_number 11
_symmetry_cell_setting 'monoclinic'
loop_
_space_group_symop_operation_xyz
x,y,z
-x,1/2+y,-z
-x,-y,-z
x,1/2-y,z
loop_
_atom_site_type_symbol
_atom_site_label
_atom_site_fract_x
_atom_site_fract_y
_atom_site_fract_z
Si Si1 0.305709 0.931539 0.632200
Si Si2 0.415994 0.066417 0.454542
Si Si3 0.850729 0.067494 0.194601
Si Si4 0.235694 0.432917 0.972045
Si Si5 0.043256 0.068469 0.082801
Si Si6 0.439348 0.933222 0.929095
Si Si7 0.471162 0.066506 0.722230
O O1 0.319238 0.750000 0.609182
O O2 0.200637 0.970667 0.695816
O O3 0.318287 0.020376 0.529852
O O4 0.382188 0.981317 0.693395
O O5 0.422969 0.250000 0.441495
O O6 0.500000 0.000000 0.500000
O O7 0.429632 0.987293 0.349679
O O8 0.836272 0.250000 0.171883
O O9 0.965276 0.028687 0.181138
O O10 0.802637 0.965226 0.123941
O O11 0.261641 0.250000 0.974255
O O12 0.328504 0.533982 0.973434
O O13 0.154062 0.486910 0.066664
O O14 0.050664 0.250000 0.065028
O O15 0.000000 0.000000 0.000000
O O16 0.456300 0.750000 0.914170
O O17 0.476016 0.019979 0.828731
O O18 0.500000 0.000000 0.000000
O O19 0.457105 0.250000 0.714329
#
# Coordination Sequence:
#
# PCOD8068236 Si02
#       7
#     4   4   4   4   4   4   4
#     4  10  17  26  42  65  92 122 153 184 220 263
#     4  10  18  28  42  61  86 117 151 184 221 266
#     4   9  16  26  42  63  91 123 153 183 218 262
#     4  10  18  29  45  63  87 117 151 188 227 265
#     4   8  15  26  40  61  86 116 150 182 217 262
#     4  12  24  37  50  66  87 115 154 193 231 270
#     4  11  20  32  47  63  86 115 149 187 229 269
#
# _framework density 16.319452999999999
#
# number of rings (size 3 to 8) (size 9 to 14) (size 15 to 20)
#    0.000    2.000    1.429    6.429    0.000    1.143 
#    0.000    0.000    0.000    0.000    0.000    0.000 
#    0.000    1.143    0.000    3.143    0.000    4.571 
#
# Total GULP energy -346871.216682 kJ/mol
# GULP energy per Si atom -12388.257739 kJ/mol
# Density = 1.628231 g / cm^3
# Si number density = 16.319453 Si / 1000 Ang^3
#
#
#
# Elastic Constant Matrix: (Units=GPa)
#
#
# Indices 1 2 3 4 5 6 
#
# 1 72.0848 15.0547 53.3931 0.0000 -26.5704 0.0000
# 2 15.0547 51.9940 13.4411 0.0000 -9.4557 0.0000
# 3 53.3931 13.4411 95.0998 0.0000 -32.4622 0.0000
# 4 0.0000 0.0000 0.0000 24.2120 0.0000 -3.1875
# 5 -26.5704 -9.4557 -32.4622 0.0000 31.1134 0.0000
# 6 0.0000 0.0000 0.0000 -3.1875 0.0000 17.4749
#
#
#
# Elastic Compliance Matrix: (Units=1/GPa)
#
#
# Indices 1 2 3 4 5 6 
#
# 1 0.026304 -0.002947 -0.010856 0.000000 0.010241 0.000000
# 2 -0.002947 0.020775 0.000023 0.000000 0.003820 0.000000
# 3 -0.010856 0.000023 0.020882 0.000000 0.012523 0.000000
# 4 0.000000 0.000000 0.000000 0.042318 0.000000 0.007719
# 5 0.010241 0.003820 0.012523 0.000000 0.055113 0.000000
# 6 0.000000 0.000000 0.000000 0.007719 0.000000 0.058633
#
#
# Mechanical properties :
#
#
# Convention : Reuss Voigt Hill
#
# Bulk Modulus (GPa) = 24.75271 42.55071 33.65171
# Shear Modulus (GPa) = 18.86417 23.71270 21.28843
#
# Velocity S-wave (km/s) = 3.40359 3.81600 3.61568
# Velocity P-wave (km/s) = 5.53592 6.74878 6.17221
#
# Compressibility (1/GPa) = 0.04039961
#
# Stress axis : x y z
#
# Youngs Moduli (GPa) = 38.01744 48.13396 47.88875
#
# Poissons Ratio (x) = 0.14187 0.51987
# Poissons Ratio (y) = 0.11205 -0.00108
# Poissons Ratio (z) = 0.41271 -0.00108
#
# Static dielectric constant tensor:
#      x y z
#    x 3.285950 0.000000 -0.830880 
#    y 0.000000 3.193190 0.000000 
#    z -0.830880 0.000000 3.525230 
# 
# 
# High freq. dielectric constant tensor:
#      x y z
#    x 1.591280 0.000000 -0.056740 
#    y 0.000000 1.644370 0.000000 
#    z -0.056740 0.000000 1.609430 
# 
# From -- ./inp_files/50972.got.cif
#   From: 2010.06.25/outbox.cif.g09.slc.cpg/sg11_26_cif.got.tgz:50972.got - 2010.06.27 23:14:04.
