data_PCOD8068120
_publ_section_title
;
Structure prediction by ZEFSAII (Michael W. Deem and Ramdas Pophale) SiO2 
 PCOD8068120
Probable space group: P 21/M
;
_chemical_formula_sum "Si O2"
_cell_formula_units_Z 16
_cell_length_a 10.612800
_cell_length_b 5.268009
_cell_length_c 20.872405
_cell_angle_alpha 90.000000
_cell_angle_beta 53.334982
_cell_angle_gamma 90.000000
_cell_volume 936.050669
_symmetry_space_group_name_H-M "P 21/M"
_symmetry_group_IT_number 11
_symmetry_cell_setting 'monoclinic'
loop_
_space_group_symop_operation_xyz
x,y,z
-x,1/2+y,-z
-x,-y,-z
x,1/2-y,z
loop_
_atom_site_type_symbol
_atom_site_label
_atom_site_fract_x
_atom_site_fract_y
_atom_site_fract_z
Si Si1 0.403297 0.750000 0.604234
Si Si2 0.254232 0.750000 0.223928
Si Si3 0.064907 0.750000 0.162179
Si Si4 0.587371 0.250000 0.950500
Si Si5 0.864828 0.750000 0.702936
Si Si6 0.942441 0.250000 0.482059
Si Si7 0.932250 0.250000 0.231108
Si Si8 0.403107 0.750000 0.454859
O O1 0.245906 0.750000 0.692691
O O2 0.360059 0.750000 0.542723
O O3 0.500278 0.500024 0.593303
O O4 0.404253 0.750000 0.130075
O O5 0.248585 0.497014 0.269405
O O6 0.094057 0.750000 0.230281
O O7 0.965071 0.497026 0.176578
O O8 0.234722 0.750000 0.074728
O O9 0.500000 0.500000 0.000000
O O10 0.995723 0.750000 0.608946
O O11 0.945692 0.750000 0.747524
O O12 0.754765 0.250000 0.538335
O O13 0.000000 0.500000 0.500000
#
# Coordination Sequence:
#
# PCOD8068120 Si02
#       8
#     2   2   2   2   2   2   2   2
#     4  10  19  31  51  66  88 117 145 211 244 273
#     4   8  17  26  42  58  82 119 154 197 212 259
#     4   8  17  23  38  59  84 114 153 185 203 271
#     4  10  16  24  37  60  91 122 157 184 217 264
#     4  10  17  32  44  62  86 115 164 204 215 278
#     4  12  24  36  51  68  93 128 163 210 255 284
#     4  10  15  29  44  63  82 114 154 196 224 258
#     4  10  21  33  45  70  90 111 156 193 256 299
#
# _framework density 17.093091000000001
#
# number of rings (size 3 to 8) (size 9 to 14) (size 15 to 20)
#    0.750    1.500    1.250    3.750    0.000    0.000 
#    0.000    0.000    0.000    0.000    0.000    0.000 
#    0.000    0.000    0.000    0.000    0.000  315.000 
#
# Total GULP energy -198276.836898 kJ/mol
# GULP energy per Si atom -12392.302306 kJ/mol
# Density = 1.705419 g / cm^3
# Si number density = 17.093091 Si / 1000 Ang^3
#
#
#
# Elastic Constant Matrix: (Units=GPa)
#
#
# Indices 1 2 3 4 5 6 
#
# 1 60.6472 45.5118 21.9241 0.0000 -24.1267 0.0000
# 2 45.5118 207.5102 61.3967 0.0000 -31.9915 0.0000
# 3 21.9241 61.3967 86.4082 0.0000 -39.0753 0.0000
# 4 0.0000 0.0000 0.0000 28.7069 0.0000 -9.7617
# 5 -24.1267 -31.9915 -39.0753 0.0000 29.4696 0.0000
# 6 0.0000 0.0000 0.0000 -9.7617 0.0000 14.8934
#
#
#
# Elastic Compliance Matrix: (Units=1/GPa)
#
#
# Indices 1 2 3 4 5 6 
#
# 1 0.029270 -0.004478 0.010973 0.000000 0.033652 0.000000
# 2 -0.004478 0.006844 -0.005057 0.000000 -0.002942 0.000000
# 3 0.010973 -0.005057 0.034872 0.000000 0.049733 0.000000
# 4 0.000000 0.000000 0.000000 0.044825 0.000000 0.029380
# 5 0.033652 -0.002942 0.049733 0.000000 0.124233 0.000000
# 6 0.000000 0.000000 0.000000 0.029380 0.000000 0.086401
#
#
# Mechanical properties :
#
#
# Convention : Reuss Voigt Hill
#
# Bulk Modulus (GPa) = 13.53879 68.02566 40.78222
# Shear Modulus (GPa) = 14.35999 29.66287 22.01143
#
# Velocity S-wave (km/s) = 2.90160 4.17030 3.59240
# Velocity P-wave (km/s) = 4.37762 7.94179 6.41232
#
# Compressibility (1/GPa) = 0.07386184
#
# Stress axis : x y z
#
# Youngs Moduli (GPa) = 34.16469 146.11546 28.67623
#
# Poissons Ratio (x) = 0.65434 -0.31468
# Poissons Ratio (y) = 0.15300 0.14502
# Poissons Ratio (z) = -0.37491 0.73895
#
# Static dielectric constant tensor:
#      x y z
#    x 2.669890 0.000000 -0.240530 
#    y 0.000000 3.636900 0.000000 
#    z -0.240530 0.000000 3.019510 
# 
# 
# High freq. dielectric constant tensor:
#      x y z
#    x 1.593180 0.000000 -0.034270 
#    y 0.000000 1.694410 0.000000 
#    z -0.034270 0.000000 1.643390 
# 
# From -- ./inp_files/62968.got.cif
#   From: 2010.06.25/outbox.cif.g09.slc.cpg/sg11_32_cif.got.tgz:62968.got - 2010.06.27 23:14:04.
