data_PCOD8068214
_publ_section_title
;
Structure prediction by ZEFSAII (Michael W. Deem and Ramdas Pophale) SiO2 
 PCOD8068214
Probable space group: P 21/M
;
_chemical_formula_sum "Si O2"
_cell_formula_units_Z 32
_cell_length_a 20.283947
_cell_length_b 9.130475
_cell_length_c 30.846569
_cell_angle_alpha 90.000000
_cell_angle_beta 158.270593
_cell_angle_gamma 90.000000
_cell_volume 2115.031237
_symmetry_space_group_name_H-M "P 21/M"
_symmetry_group_IT_number 11
_symmetry_cell_setting 'monoclinic'
loop_
_space_group_symop_operation_xyz
x,y,z
-x,1/2+y,-z
-x,-y,-z
x,1/2-y,z
loop_
_atom_site_type_symbol
_atom_site_label
_atom_site_fract_x
_atom_site_fract_y
_atom_site_fract_z
Si Si1 0.267739 0.411081 0.660945
Si Si2 0.923971 0.088729 0.391009
Si Si3 0.311175 0.422009 0.385271
Si Si4 0.256660 0.924246 0.434141
Si Si5 0.658336 0.919475 0.690392
Si Si6 0.817287 0.924952 0.876098
Si Si7 0.157815 0.422628 0.456759
Si Si8 0.494298 0.422850 0.720512
O O1 0.324340 0.250000 0.710438
O O2 0.085465 0.404649 0.523155
O O3 0.420847 0.474234 0.722794
O O4 0.240973 0.500631 0.689063
O O5 0.849384 0.250000 0.336617
O O6 0.998521 0.023215 0.391292
O O7 0.500000 0.500000 0.500000
O O8 0.331439 0.250000 0.408136
O O9 0.191230 0.501917 0.348698
O O10 0.234221 0.444999 0.289284
O O11 0.239478 0.750000 0.420067
O O12 0.457813 0.982957 0.565289
O O13 0.135498 0.985383 0.399039
O O14 0.632363 0.750000 0.684059
O O15 0.767487 0.984829 0.797476
O O16 0.835007 0.750000 0.889481
O O17 0.667714 0.980265 0.818014
O O18 0.000000 0.000000 0.000000
O O19 0.141288 0.250000 0.437516
O O20 0.347709 0.458310 0.594468
O O21 0.538983 0.250000 0.747954
#
# Coordination Sequence:
#
# PCOD8068214 Si02
#       8
#     4   4   4   4   4   4   4   4
#     4   8  14  24  37  52  73  98 129 164 197 235
#     4   8  14  23  34  52  76 101 131 162 193 230
#     4   9  16  27  41  58  77 100 128 163 201 240
#     4  10  17  26  39  59  81 105 135 166 197 239
#     4   8  16  29  42  55  75  99 129 166 204 241
#     4  11  21  33  45  60  79 103 135 174 212 247
#     4   9  16  25  38  56  80 108 136 167 199 234
#     4   9  17  29  42  57  75 101 135 171 208 242
#
# _framework density 15.129799999999999
#
# number of rings (size 3 to 8) (size 9 to 14) (size 15 to 20)
#    0.000    3.000    1.250    3.375    0.000    1.000 
#    0.000    4.375    0.000    0.000    0.000    0.000 
#    0.000    0.000    0.000    1.125    0.000   13.250 
#
# Total GULP energy -396451.850648 kJ/mol
# GULP energy per Si atom -12389.120333 kJ/mol
# Density = 1.509536 g / cm^3
# Si number density = 15.129800 Si / 1000 Ang^3
#
#
#
# Elastic Constant Matrix: (Units=GPa)
#
#
# Indices 1 2 3 4 5 6 
#
# 1 150.3458 58.1881 31.1850 0.0000 0.8517 0.0000
# 2 58.1881 68.9023 18.3528 0.0000 3.0466 0.0000
# 3 31.1850 18.3528 33.0651 0.0000 0.6664 0.0000
# 4 0.0000 0.0000 0.0000 13.1181 0.0000 1.5321
# 5 0.8517 3.0466 0.6664 0.0000 12.6668 0.0000
# 6 0.0000 0.0000 0.0000 1.5321 0.0000 30.7190
#
#
#
# Elastic Compliance Matrix: (Units=1/GPa)
#
#
# Indices 1 2 3 4 5 6 
#
# 1 0.010839 -0.007611 -0.006027 0.000000 0.001419 0.000000
# 2 -0.007611 0.022541 -0.005240 0.000000 -0.004634 0.000000
# 3 -0.006027 -0.005240 0.038844 0.000000 -0.000378 0.000000
# 4 0.000000 0.000000 0.000000 0.076677 0.000000 -0.003824
# 5 0.001419 -0.004634 -0.000378 0.000000 0.079986 0.000000
# 6 0.000000 0.000000 0.000000 -0.003824 0.000000 0.032744
#
#
# Mechanical properties :
#
#
# Convention : Reuss Voigt Hill
#
# Bulk Modulus (GPa) = 29.01206 51.97390 40.49298
# Shear Modulus (GPa) = 16.08358 20.93993 18.51175
#
# Velocity S-wave (km/s) = 3.26397 3.72428 3.50169
# Velocity P-wave (km/s) = 5.78115 7.27463 6.57046
#
# Compressibility (1/GPa) = 0.03446843
#
# Stress axis : x y z
#
# Youngs Moduli (GPa) = 92.25864 44.36271 25.74429
#
# Poissons Ratio (x) = 0.33765 0.15516
# Poissons Ratio (y) = 0.70219 0.13490
# Poissons Ratio (z) = 0.55603 0.23246
#
# Static dielectric constant tensor:
#      x y z
#    x 3.350930 0.000000 -0.136510 
#    y 0.000000 2.970110 0.000000 
#    z -0.136510 0.000000 2.423270 
# 
# 
# High freq. dielectric constant tensor:
#      x y z
#    x 1.598880 0.000000 -0.005620 
#    y 0.000000 1.579030 0.000000 
#    z -0.005620 0.000000 1.497950 
# 
# From -- ./inp_files/73649.got.cif
#   From: 2010.06.25/outbox.cif.g09.slc.cpg/sg11_37_cif.got.tgz:73649.got - 2010.06.27 23:14:04.
