data_PCOD8068012
_publ_section_title
;
Structure prediction by ZEFSAII (Michael W. Deem and Ramdas Pophale) SiO2 
 PCOD8068012
Probable space group: P 2/M
;
_chemical_formula_sum "Si O2"
_cell_formula_units_Z 20
_cell_length_a 12.658686
_cell_length_b 9.353489
_cell_length_c 18.312610
_cell_angle_alpha 90.000000
_cell_angle_beta 146.598834
_cell_angle_gamma 90.000000
_cell_volume 1193.625383
_symmetry_space_group_name_H-M "P 2/M"
_symmetry_group_IT_number 10
_symmetry_cell_setting 'monoclinic'
loop_
_space_group_symop_operation_xyz
x,y,z
-x,y,-z
-x,-y,-z
x,-y,z
loop_
_atom_site_type_symbol
_atom_site_label
_atom_site_fract_x
_atom_site_fract_y
_atom_site_fract_z
Si Si1 0.589580 0.835277 0.392218
Si Si2 0.789147 0.830001 0.362151
Si Si3 0.665215 0.661528 0.655339
Si Si4 0.915961 0.835042 0.698717
Si Si5 0.693235 0.170167 0.147589
O O1 0.642102 0.784039 0.340966
O O2 0.410738 0.740887 0.316150
O O3 0.776910 0.812309 0.549794
O O4 0.524689 0.000000 0.356864
O O5 0.712148 0.769007 0.240765
O O6 0.000000 0.765842 0.500000
O O7 0.805169 0.000000 0.368677
O O8 0.500000 0.666287 0.500000
O O9 0.722386 0.500000 0.708615
O O10 0.850820 0.742454 0.730760
O O11 0.125995 0.780650 0.796568
O O12 0.917486 0.000000 0.723870
O O13 0.687132 0.000000 0.147088
O O14 0.500000 0.232746 0.000000
#
# Coordination Sequence:
#
# PCOD8068012 Si02
#       5
#     4   4   4   4   4
#     4   9  15  24  42  65  87 112 144 178 212 257
#     4   9  14  23  40  63  89 115 142 174 215 260
#     4   9  17  27  40  61  89 115 141 180 225 258
#     4   9  15  25  42  63  87 114 145 177 211 257
#     4   9  16  25  40  65  93 116 140 176 219 258
#
# _framework density 16.755673999999999
#
# number of rings (size 3 to 8) (size 9 to 14) (size 15 to 20)
#    0.000    3.000    2.000    0.600    0.000    2.400 
#    0.000    0.000    0.000    3.600    0.000    8.400 
#    0.000    0.000    0.000    0.000    0.000    0.000 
#
# Total GULP energy -247940.990594 kJ/mol
# GULP energy per Si atom -12397.049530 kJ/mol
# Density = 1.671754 g / cm^3
# Si number density = 16.755674 Si / 1000 Ang^3
#
#
#
# Elastic Constant Matrix: (Units=GPa)
#
#
# Indices 1 2 3 4 5 6 
#
# 1 183.0052 61.5331 67.9819 0.0000 9.5299 0.0000
# 2 61.5331 61.0779 22.9453 0.0000 6.2307 0.0000
# 3 67.9819 22.9453 75.4786 0.0000 -0.2172 0.0000
# 4 0.0000 0.0000 0.0000 5.3117 0.0000 0.0672
# 5 9.5299 6.2307 -0.2172 0.0000 20.1369 0.0000
# 6 0.0000 0.0000 0.0000 0.0672 0.0000 4.0314
#
#
#
# Elastic Compliance Matrix: (Units=1/GPa)
#
#
# Indices 1 2 3 4 5 6 
#
# 1 0.011157 -0.008095 -0.007596 0.000000 -0.002857 0.000000
# 2 -0.008095 0.025055 -0.000337 0.000000 -0.003925 0.000000
# 3 -0.007596 -0.000337 0.020204 0.000000 0.003917 0.000000
# 4 0.000000 0.000000 0.000000 0.188304 0.000000 -0.003141
# 5 -0.002857 -0.003925 0.003917 0.000000 0.052269 0.000000
# 6 0.000000 0.000000 0.000000 -0.003141 0.000000 0.248105
#
#
# Mechanical properties :
#
#
# Convention : Reuss Voigt Hill
#
# Bulk Modulus (GPa) = 41.05140 69.38694 55.21917
# Shear Modulus (GPa) = 8.54308 17.03609 12.78959
#
# Velocity S-wave (km/s) = 2.26046 3.19209 2.76578
# Velocity P-wave (km/s) = 5.60055 7.42205 6.57468
#
# Compressibility (1/GPa) = 0.02435970
#
# Stress axis : x y z
#
# Youngs Moduli (GPa) = 89.63377 39.91290 49.49511
#
# Poissons Ratio (x) = 0.32308 0.37596
# Poissons Ratio (y) = 0.72555 0.01669
# Poissons Ratio (z) = 0.68085 0.01346
#
# Static dielectric constant tensor:
#      x y z
#    x 3.373290 0.000000 0.011280 
#    y 0.000000 2.803850 0.000000 
#    z 0.011280 0.000000 2.941580 
# 
# 
# High freq. dielectric constant tensor:
#      x y z
#    x 1.664680 0.000000 0.006040 
#    y 0.000000 1.599970 0.000000 
#    z 0.006040 0.000000 1.601060 
# 
# From -- ./inp_files/23459.got.cif
#   From: 2010.06.25/outbox.cif.g09.slc.cpg/sg10_12_cif.got.tgz:23459.got - 2010.06.27 22:07:45.
