data_PCOD8068297
_publ_section_title
;
Structure prediction by ZEFSAII (Michael W. Deem and Ramdas Pophale) SiO2 
 PCOD8068297
Probable space group: P 21/M
;
_chemical_formula_sum "Si O2"
_cell_formula_units_Z 28
_cell_length_a 14.437286
_cell_length_b 8.723262
_cell_length_c 17.349918
_cell_angle_alpha 90.000000
_cell_angle_beta 128.781998
_cell_angle_gamma 90.000000
_cell_volume 1703.324572
_symmetry_space_group_name_H-M "P 21/M"
_symmetry_group_IT_number 11
_symmetry_cell_setting 'monoclinic'
loop_
_space_group_symop_operation_xyz
x,y,z
-x,1/2+y,-z
-x,-y,-z
x,1/2-y,z
loop_
_atom_site_type_symbol
_atom_site_label
_atom_site_fract_x
_atom_site_fract_y
_atom_site_fract_z
Si Si1 0.288721 0.424710 0.910847
Si Si2 0.664571 0.923549 0.237682
Si Si3 0.590258 0.429937 0.884504
Si Si4 0.044592 0.571716 0.752647
Si Si5 0.075265 0.067498 0.608024
Si Si6 0.171382 0.572447 0.067747
Si Si7 0.974435 0.071705 0.863790
O O1 0.245870 0.250000 0.902025
O O2 0.355020 0.438851 0.864012
O O3 0.175164 0.535115 0.852820
O O4 0.378776 0.476195 0.023213
O O5 0.679556 0.750000 0.272017
O O6 0.541734 0.987771 0.211772
O O7 0.789562 0.002097 0.327917
O O8 0.584192 0.250000 0.902225
O O9 0.687970 0.460919 0.868911
O O10 0.028621 0.750000 0.728439
O O11 0.018043 0.483042 0.659371
O O12 0.954026 0.518019 0.772809
O O13 0.074473 0.250000 0.604731
O O14 0.000000 0.000000 0.500000
O O15 0.140785 0.750000 0.035370
O O16 0.133664 0.527932 0.134981
O O17 0.099395 0.472238 0.968685
O O18 0.976485 0.250000 0.845806
#
# Coordination Sequence:
#
# PCOD8068297 Si02
#       7
#     4   4   4   4   4   4   4
#     4  10  18  28  41  63  93 126 158 192 228 268
#     4   8  17  30  45  65  92 121 152 187 227 276
#     4  10  17  28  44  64  91 126 160 189 222 270
#     4  11  20  31  48  69  92 124 161 196 234 279
#     4  10  20  36  54  74  96 119 149 190 238 284
#     4   9  18  28  42  64  92 127 164 195 228 270
#     4  10  18  29  43  63  93 126 160 199 235 269
#
# _framework density 16.438441000000001
#
# number of rings (size 3 to 8) (size 9 to 14) (size 15 to 20)
#    0.000    2.286    1.429    3.857    0.000    0.571 
#    0.000    3.571    0.000    0.000    0.000    1.000 
#    0.000    0.000    0.000    0.000    0.000    0.000 
#
# Total GULP energy -347007.686833 kJ/mol
# GULP energy per Si atom -12393.131673 kJ/mol
# Density = 1.640103 g / cm^3
# Si number density = 16.438441 Si / 1000 Ang^3
#
#
#
# Elastic Constant Matrix: (Units=GPa)
#
#
# Indices 1 2 3 4 5 6 
#
# 1 119.1767 29.9182 60.8802 0.0000 -0.3283 0.0000
# 2 29.9182 62.3071 28.2020 0.0000 -3.2775 0.0000
# 3 60.8802 28.2020 94.3299 0.0000 -1.8846 0.0000
# 4 0.0000 0.0000 0.0000 22.4596 0.0000 -4.5475
# 5 -0.3283 -3.2775 -1.8846 0.0000 16.3564 0.0000
# 6 0.0000 0.0000 0.0000 -4.5475 0.0000 18.6137
#
#
#
# Elastic Compliance Matrix: (Units=1/GPa)
#
#
# Indices 1 2 3 4 5 6 
#
# 1 0.012953 -0.002877 -0.007523 0.000000 -0.001183 0.000000
# 2 -0.002877 0.019357 -0.003863 0.000000 0.003376 0.000000
# 3 -0.007523 -0.003863 0.016632 0.000000 0.000991 0.000000
# 4 0.000000 0.000000 0.000000 0.046842 0.000000 0.011444
# 5 -0.001183 0.003376 0.000991 0.000000 0.061905 0.000000
# 6 0.000000 0.000000 0.000000 0.011444 0.000000 0.056520
#
#
# Mechanical properties :
#
#
# Convention : Reuss Voigt Hill
#
# Bulk Modulus (GPa) = 48.98362 57.09048 53.03705
# Shear Modulus (GPa) = 20.03691 21.94015 20.98853
#
# Velocity S-wave (km/s) = 3.49507 3.65730 3.57710
# Velocity P-wave (km/s) = 6.79340 7.25532 7.02816
#
# Compressibility (1/GPa) = 0.02041499
#
# Stress axis : x y z
#
# Youngs Moduli (GPa) = 77.20164 51.66095 60.12680
#
# Poissons Ratio (x) = 0.14861 0.45236
# Poissons Ratio (y) = 0.22208 0.23228
# Poissons Ratio (z) = 0.58083 0.19958
#
# Static dielectric constant tensor:
#      x y z
#    x 3.481800 0.000000 0.006300 
#    y 0.000000 3.054270 0.000000 
#    z 0.006300 0.000000 2.851500 
# 
# 
# High freq. dielectric constant tensor:
#      x y z
#    x 1.638630 0.000000 -0.007060 
#    y 0.000000 1.630180 0.000000 
#    z -0.007060 0.000000 1.585160 
# 
# From -- ./inp_files/50964.got.cif
#   From: 2010.06.25/outbox.cif.g09.slc.cpg/sg11_26_cif.got.tgz:50964.got - 2010.06.27 23:14:04.
