data_PCOD8068372
_publ_section_title
;
Structure prediction by ZEFSAII (Michael W. Deem and Ramdas Pophale) SiO2 
 PCOD8068372
Probable space group: P 21/M
;
_chemical_formula_sum "Si O2"
_cell_formula_units_Z 32
_cell_length_a 14.270737
_cell_length_b 13.866407
_cell_length_c 11.294736
_cell_angle_alpha 90.000000
_cell_angle_beta 136.744980
_cell_angle_gamma 90.000000
_cell_volume 1531.558002
_symmetry_space_group_name_H-M "P 21/M"
_symmetry_group_IT_number 11
_symmetry_cell_setting 'monoclinic'
loop_
_space_group_symop_operation_xyz
x,y,z
-x,1/2+y,-z
-x,-y,-z
x,1/2-y,z
loop_
_atom_site_type_symbol
_atom_site_label
_atom_site_fract_x
_atom_site_fract_y
_atom_site_fract_z
Si Si1 0.599989 0.134254 0.859009
Si Si2 0.823213 0.363831 0.626148
Si Si3 0.889346 0.643136 0.229088
Si Si4 0.154052 0.864145 0.085574
Si Si5 0.059738 0.647761 0.599631
Si Si6 0.716106 0.009783 0.164203
Si Si7 0.920004 0.856952 0.711108
Si Si8 0.332290 0.473127 0.622463
O O1 0.577188 0.250000 0.844396
O O2 0.718680 0.103215 0.877709
O O3 0.464432 0.078712 0.687589
O O4 0.633200 0.093580 0.020931
O O5 0.797300 0.250000 0.591946
O O6 0.823288 0.401567 0.760952
O O7 0.695508 0.415674 0.441476
O O8 0.972382 0.391487 0.709436
O O9 0.845501 0.750000 0.143899
O O10 0.761353 0.569302 0.105033
O O11 0.918530 0.642219 0.397039
O O12 0.144113 0.750000 0.074425
O O13 0.006603 0.902228 0.900599
O O14 0.131624 0.750000 0.630046
O O15 0.152840 0.557917 0.651556
O O16 0.034172 0.649463 0.714901
O O17 0.641256 0.964796 0.210427
O O18 0.863247 0.750000 0.688843
O O19 0.797993 0.921776 0.554419
#
# Coordination Sequence:
#
# PCOD8068372 Si02
#       8
#     4   4   4   4   4   4   4   4
#     4  11  25  43  61  84 117 156 198 246 295 346
#     4  10  22  39  60  88 121 156 196 241 293 348
#     4  10  20  34  57  89 123 154 190 241 296 346
#     4   9  20  40  63  84 115 156 198 245 291 341
#     4  10  17  29  55  86 114 148 189 237 295 346
#     4  12  21  36  57  87 119 157 193 238 290 358
#     4  10  19  35  60  90 118 149 196 249 292 338
#     4  12  24  37  59  91 120 157 194 242 292 353
#
# _framework density 20.893757999999998
#
# number of rings (size 3 to 8) (size 9 to 14) (size 15 to 20)
#    0.000    1.500    3.750    2.250    0.000    2.000 
#    0.000    0.625    0.000    0.000    0.000    0.000 
#    0.000    0.000    0.000    0.000    0.000    0.000 
#
# Total GULP energy -396470.466462 kJ/mol
# GULP energy per Si atom -12389.702077 kJ/mol
# Density = 2.084620 g / cm^3
# Si number density = 20.893758 Si / 1000 Ang^3
#
#
#
# Elastic Constant Matrix: (Units=GPa)
#
#
# Indices 1 2 3 4 5 6 
#
# 1 70.9232 30.1273 44.6347 0.0000 -9.3635 0.0000
# 2 30.1273 90.9422 33.1669 0.0000 5.8066 0.0000
# 3 44.6347 33.1669 82.5499 0.0000 -12.8276 0.0000
# 4 0.0000 0.0000 0.0000 32.3882 0.0000 1.7233
# 5 -9.3635 5.8066 -12.8276 0.0000 18.6629 0.0000
# 6 0.0000 0.0000 0.0000 1.7233 0.0000 22.2352
#
#
#
# Elastic Compliance Matrix: (Units=1/GPa)
#
#
# Indices 1 2 3 4 5 6 
#
# 1 0.022865 -0.004478 -0.009589 0.000000 0.006274 0.000000
# 2 -0.004478 0.015080 -0.005279 0.000000 -0.010567 0.000000
# 3 -0.009589 -0.005279 0.021191 0.000000 0.011397 0.000000
# 4 0.000000 0.000000 0.000000 0.031003 0.000000 -0.002403
# 5 0.006274 -0.010567 0.011397 0.000000 0.067851 0.000000
# 6 0.000000 0.000000 0.000000 -0.002403 0.000000 0.045160
#
#
# Mechanical properties :
#
#
# Convention : Reuss Voigt Hill
#
# Bulk Modulus (GPa) = 48.91789 51.14145 50.02967
# Shear Modulus (GPa) = 20.10800 23.75634 21.93217
#
# Velocity S-wave (km/s) = 3.10561 3.37561 3.24342
# Velocity P-wave (km/s) = 6.02688 6.30262 6.16629
#
# Compressibility (1/GPa) = 0.02044242
#
# Stress axis : x y z
#
# Youngs Moduli (GPa) = 43.73473 66.31449 47.19046
#
# Poissons Ratio (x) = 0.29697 0.45251
# Poissons Ratio (y) = 0.19585 0.24914
# Poissons Ratio (z) = 0.41937 0.35010
#
# Static dielectric constant tensor:
#      x y z
#    x 3.687670 0.000000 -0.153270 
#    y 0.000000 4.057400 0.000000 
#    z -0.153270 0.000000 3.686560 
# 
# 
# High freq. dielectric constant tensor:
#      x y z
#    x 1.794480 0.000000 -0.010740 
#    y 0.000000 1.828090 0.000000 
#    z -0.010740 0.000000 1.798740 
# 
# From -- ./inp_files/39696.got.cif
#   From: 2010.06.25/outbox.cif.g09.slc.cpg/sg11_20_cif.got.tgz:39696.got - 2010.06.27 23:14:04.
