data_PCOD8068666
_publ_section_title
;
Structure prediction by ZEFSAII (Michael W. Deem and Ramdas Pophale) SiO2 
 PCOD8068666
Probable space group: P 21/M
;
_chemical_formula_sum "Si O2"
_cell_formula_units_Z 32
_cell_length_a 15.060033
_cell_length_b 8.806442
_cell_length_c 14.004588
_cell_angle_alpha 90.000000
_cell_angle_beta 91.086814
_cell_angle_gamma 90.000000
_cell_volume 1857.028652
_symmetry_space_group_name_H-M "P 21/M"
_symmetry_group_IT_number 11
_symmetry_cell_setting 'monoclinic'
loop_
_space_group_symop_operation_xyz
x,y,z
-x,1/2+y,-z
-x,-y,-z
x,1/2-y,z
loop_
_atom_site_type_symbol
_atom_site_label
_atom_site_fract_x
_atom_site_fract_y
_atom_site_fract_z
Si Si1 0.094611 0.571585 0.523883
Si Si2 0.871502 0.419158 0.964345
Si Si3 0.250751 0.071529 0.891376
Si Si4 0.292728 0.584090 0.180060
Si Si5 0.832926 0.429542 0.672327
Si Si6 0.158760 0.577832 0.727540
Si Si7 0.403995 0.932351 0.013571
Si Si8 0.031039 0.420950 0.189665
O O1 0.078105 0.750000 0.534405
O O2 0.164037 0.532819 0.440117
O O3 0.137414 0.508099 0.622515
O O4 0.000000 0.500000 0.500000
O O5 0.898202 0.250000 0.002202
O O6 0.795609 0.403304 0.884178
O O7 0.954843 0.498591 0.913022
O O8 0.835148 0.520279 0.050064
O O9 0.264989 0.250000 0.900140
O O10 0.233883 0.023766 0.780801
O O11 0.339801 0.988040 0.928170
O O12 0.330744 0.750000 0.205921
O O13 0.258513 0.505333 0.278735
O O14 0.367742 0.502883 0.116007
O O15 0.835944 0.250000 0.690654
O O16 0.920215 0.498919 0.721470
O O17 0.194227 0.750000 0.718537
O O18 0.072420 0.573451 0.791854
O O19 0.404851 0.750000 0.013204
O O20 0.500000 0.000000 0.000000
O O21 0.067531 0.250000 0.183687
#
# Coordination Sequence:
#
# PCOD8068666 Si02
#       8
#     4   4   4   4   4   4   4   4
#     4  10  19  31  48  69  95 130 175 220 258 295
#     4   9  17  31  48  65  92 128 164 203 247 292
#     4  11  22  35  51  72  96 127 166 204 247 299
#     4   7  13  26  45  70  96 123 154 191 237 287
#     4   9  16  28  47  68  94 130 170 210 253 294
#     4  10  21  34  45  64  97 134 169 210 257 297
#     4  10  19  34  56  80 107 132 156 192 240 300
#     4  10  18  28  44  66  93 127 169 211 249 291
#
# _framework density 17.231829000000001
#
# number of rings (size 3 to 8) (size 9 to 14) (size 15 to 20)
#    0.000    2.500    1.250    3.750    0.000    2.000 
#    0.000    0.625    0.000    0.000    0.000    0.875 
#    0.000    0.000    0.000    0.000    0.000    0.000 
#
# Total GULP energy -396499.891101 kJ/mol
# GULP energy per Si atom -12390.621597 kJ/mol
# Density = 1.719261 g / cm^3
# Si number density = 17.231829 Si / 1000 Ang^3
#
#
#
# Elastic Constant Matrix: (Units=GPa)
#
#
# Indices 1 2 3 4 5 6 
#
# 1 67.1220 24.6810 58.0223 0.0000 -11.2628 0.0000
# 2 24.6810 71.1368 34.7223 0.0000 -1.0161 0.0000
# 3 58.0223 34.7223 125.2678 0.0000 -3.8468 0.0000
# 4 0.0000 0.0000 0.0000 20.5639 0.0000 -0.3529
# 5 -11.2628 -1.0161 -3.8468 0.0000 20.7727 0.0000
# 6 0.0000 0.0000 0.0000 -0.3529 0.0000 22.3484
#
#
#
# Elastic Compliance Matrix: (Units=1/GPa)
#
#
# Indices 1 2 3 4 5 6 
#
# 1 0.028830 -0.004041 -0.011827 0.000000 0.013243 0.000000
# 2 -0.004041 0.016823 -0.002850 0.000000 -0.001896 0.000000
# 3 -0.011827 -0.002850 0.014130 0.000000 -0.003935 0.000000
# 4 0.000000 0.000000 0.000000 0.048642 0.000000 0.000768
# 5 0.013243 -0.001896 -0.003935 0.000000 0.054499 0.000000
# 6 0.000000 0.000000 0.000000 0.000768 0.000000 0.044758
#
#
# Mechanical properties :
#
#
# Convention : Reuss Voigt Hill
#
# Bulk Modulus (GPa) = 44.74580 55.37529 50.06055
# Shear Modulus (GPa) = 19.79681 22.47707 21.13694
#
# Velocity S-wave (km/s) = 3.39315 3.61556 3.50612
# Velocity P-wave (km/s) = 6.43231 7.04520 6.74572
#
# Compressibility (1/GPa) = 0.02234846
#
# Stress axis : x y z
#
# Youngs Moduli (GPa) = 34.68662 59.44160 70.77147
#
# Poissons Ratio (x) = 0.24018 0.83700
# Poissons Ratio (y) = 0.14015 0.20169
# Poissons Ratio (z) = 0.41023 0.16940
#
# Static dielectric constant tensor:
#      x y z
#    x 3.005250 0.000000 -0.300090 
#    y 0.000000 3.263460 0.000000 
#    z -0.300090 0.000000 3.596840 
# 
# 
# High freq. dielectric constant tensor:
#      x y z
#    x 1.623350 0.000000 -0.014480 
#    y 0.000000 1.657710 0.000000 
#    z -0.014480 0.000000 1.668970 
# 
# From -- ./inp_files/51355.got.cif
#   From: 2010.06.25/outbox.cif.g09.slc.cpg/sg11_26_cif.got.tgz:51355.got - 2010.06.27 23:14:04.
