data_PCOD8068152
_publ_section_title
;
Structure prediction by ZEFSAII (Michael W. Deem and Ramdas Pophale) SiO2 
 PCOD8068152
Probable space group: P 21/M
;
_chemical_formula_sum "Si O2"
_cell_formula_units_Z 32
_cell_length_a 8.983310
_cell_length_b 21.910166
_cell_length_c 13.759960
_cell_angle_alpha 90.000000
_cell_angle_beta 139.983834
_cell_angle_gamma 90.000000
_cell_volume 1741.456834
_symmetry_space_group_name_H-M "P 21/M"
_symmetry_group_IT_number 11
_symmetry_cell_setting 'monoclinic'
loop_
_space_group_symop_operation_xyz
x,y,z
-x,1/2+y,-z
-x,-y,-z
x,1/2-y,z
loop_
_atom_site_type_symbol
_atom_site_label
_atom_site_fract_x
_atom_site_fract_y
_atom_site_fract_z
Si Si1 0.792822 0.180799 0.033344
Si Si2 0.530228 0.591472 0.218710
Si Si3 0.796780 0.588673 0.537835
Si Si4 0.178587 0.498945 0.951401
Si Si5 0.469771 0.091472 0.188482
Si Si6 0.207178 0.819201 0.740523
Si Si7 0.203221 0.088673 0.241056
Si Si8 0.821412 0.998945 0.272814
O O1 0.841263 0.250000 0.024947
O O2 0.735955 0.175540 0.117977
O O3 0.018816 0.141145 0.121418
O O4 0.562582 0.157066 0.862828
O O5 0.576401 0.594423 0.357375
O O6 0.771798 0.570284 0.285523
O O7 0.335317 0.542460 0.096002
O O8 0.708890 0.596489 0.604445
O O9 0.981184 0.641145 0.602602
O O10 0.913959 0.521379 0.582098
O O11 0.252998 0.506349 0.876499
O O12 0.913958 0.521379 0.831861
O O13 0.228201 0.429716 0.013725
O O14 0.562581 0.157066 0.199753
O O15 0.423599 0.094423 0.280974
O O16 0.664682 0.042460 0.260685
O O17 0.158738 0.750000 0.683685
#
# Coordination Sequence:
#
# PCOD8068152 Si02
#       8
#     4   4   4   4   4   4   4   4
#     4   9  18  32  48  67  89 114 150 191 224 260
#     4  10  16  27  49  70  88 117 151 182 219 262
#     4   9  18  30  45  66  92 121 150 180 218 267
#     4   9  17  30  47  70  95 116 145 184 224 266
#     4  10  16  27  49  70  88 117 151 182 219 262
#     4   9  18  32  48  67  89 114 150 191 224 260
#     4   9  18  30  45  66  92 121 150 180 218 267
#     4   9  17  30  47  70  95 116 145 184 224 266
#
# _framework density 18.375419999999998
#
# number of rings (size 3 to 8) (size 9 to 14) (size 15 to 20)
#    0.000    2.750    0.000    5.250    0.000    1.000 
#    0.000    2.500    0.000   18.000    0.000    0.000 
#    0.000    0.000    0.000    0.000    0.000    0.000 
#
# Total GULP energy -396505.060884 kJ/mol
# GULP energy per Si atom -12390.783153 kJ/mol
# Density = 1.833360 g / cm^3
# Si number density = 18.375420 Si / 1000 Ang^3
#
#
#
# Elastic Constant Matrix: (Units=GPa)
#
#
# Indices 1 2 3 4 5 6 
#
# 1 101.6460 20.2292 24.7480 0.0000 -24.8500 0.0000
# 2 20.2292 57.4140 23.3056 0.0000 -11.0323 0.0000
# 3 24.7480 23.3056 113.3273 0.0000 -17.0408 0.0000
# 4 0.0000 0.0000 0.0000 15.9852 0.0000 -1.9524
# 5 -24.8500 -11.0323 -17.0408 0.0000 13.9049 0.0000
# 6 0.0000 0.0000 0.0000 -1.9524 0.0000 15.4407
#
#
#
# Elastic Compliance Matrix: (Units=1/GPa)
#
#
# Indices 1 2 3 4 5 6 
#
# 1 0.017588 -0.000413 0.001129 0.000000 0.032489 0.000000
# 2 -0.000413 0.021007 -0.002249 0.000000 0.013174 0.000000
# 3 0.001129 -0.002249 0.011125 0.000000 0.013868 0.000000
# 4 0.000000 0.000000 0.000000 0.063539 0.000000 0.008034
# 5 0.032489 0.013174 0.013868 0.000000 0.157426 0.000000
# 6 0.000000 0.000000 0.000000 0.008034 0.000000 0.065780
#
#
# Mechanical properties :
#
#
# Convention : Reuss Voigt Hill
#
# Bulk Modulus (GPa) = 21.43368 45.43920 33.43644
# Shear Modulus (GPa) = 14.08126 22.67313 18.37719
#
# Velocity S-wave (km/s) = 2.77123 3.51648 3.16586
# Velocity P-wave (km/s) = 4.68287 6.42413 5.62133
#
# Compressibility (1/GPa) = 0.04665555
#
# Stress axis : x y z
#
# Youngs Moduli (GPa) = 56.85720 47.60324 89.88585
#
# Poissons Ratio (x) = 0.01964 -0.10151
# Poissons Ratio (y) = 0.02346 0.20216
# Poissons Ratio (z) = -0.06421 0.10706
#
# Static dielectric constant tensor:
#      x y z
#    x 3.274490 0.000000 -0.095110 
#    y 0.000000 3.663830 0.000000 
#    z -0.095110 0.000000 3.301000 
# 
# 
# High freq. dielectric constant tensor:
#      x y z
#    x 1.697220 0.000000 -0.015440 
#    y 0.000000 1.690500 0.000000 
#    z -0.015440 0.000000 1.701530 
# 
# From -- ./inp_files/33006.got.cif
#   From: 2010.06.25/outbox.cif.g09.slc.cpg/sg11_17_cif.got.tgz:33006.got - 2010.06.27 23:14:04.
