data_PCOD8068060
_publ_section_title
;
Structure prediction by ZEFSAII (Michael W. Deem and Ramdas Pophale) SiO2 
 PCOD8068060
Probable space group: P 2/M
;
_chemical_formula_sum "Si O2"
_cell_formula_units_Z 20
_cell_length_a 28.415744
_cell_length_b 9.173835
_cell_length_c 13.724830
_cell_angle_alpha 90.000000
_cell_angle_beta 160.164368
_cell_angle_gamma 90.000000
_cell_volume 1214.032207
_symmetry_space_group_name_H-M "P 2/M"
_symmetry_group_IT_number 10
_symmetry_cell_setting 'monoclinic'
loop_
_space_group_symop_operation_xyz
x,y,z
-x,y,-z
-x,-y,-z
x,-y,z
loop_
_atom_site_type_symbol
_atom_site_label
_atom_site_fract_x
_atom_site_fract_y
_atom_site_fract_z
Si Si1 0.586613 0.664324 0.890868
Si Si2 0.100312 0.832075 0.836506
Si Si3 0.472525 0.828172 0.835349
Si Si4 0.285764 0.335719 0.341105
Si Si5 0.200862 0.832064 0.820710
O O1 0.639005 0.500000 0.012757
O O2 0.596499 0.758476 0.010682
O O3 0.424037 0.663989 0.541765
O O4 0.675175 0.734319 0.977470
O O5 0.170536 0.783817 0.872022
O O6 0.935670 0.807351 0.510562
O O7 0.135028 0.000000 0.925457
O O8 0.157390 0.735008 0.035201
O O9 0.324843 0.757208 0.514553
O O10 0.468100 0.000000 0.809447
O O11 0.500000 0.786725 0.000000
O O12 0.244757 0.500000 0.291496
O O13 0.246362 0.000000 0.905538
#
# Coordination Sequence:
#
# PCOD8068060 Si02
#       5
#     4   4   4   4   4
#     4   9  19  31  46  72  99 125 155 192 236 282
#     4   9  18  32  49  69  95 129 165 197 231 273
#     4   9  17  31  52  73  92 119 155 194 238 283
#     4   9  19  31  46  72  99 125 155 192 236 282
#     4   9  18  32  49  69  95 129 165 197 231 273
#
# _framework density 16.474027
#
# number of rings (size 3 to 8) (size 9 to 14) (size 15 to 20)
#    1.200    1.800    0.000    2.400    0.000    4.000 
#    0.000    6.000    0.000    1.200    0.000    8.400 
#    0.000    0.000    0.000    0.000    0.000    0.000 
#
# Total GULP energy -247813.408898 kJ/mol
# GULP energy per Si atom -12390.670445 kJ/mol
# Density = 1.643653 g / cm^3
# Si number density = 16.474027 Si / 1000 Ang^3
#
#
#
# Elastic Constant Matrix: (Units=GPa)
#
#
# Indices 1 2 3 4 5 6 
#
# 1 23.5553 14.1140 4.3293 0.0000 -14.7202 0.0000
# 2 14.1140 83.9813 21.9210 0.0000 -18.0567 0.0000
# 3 4.3293 21.9210 44.6639 0.0000 -21.2931 0.0000
# 4 0.0000 0.0000 0.0000 18.7070 0.0000 6.1392
# 5 -14.7202 -18.0567 -21.2931 0.0000 27.7374 0.0000
# 6 0.0000 0.0000 0.0000 6.1392 0.0000 18.2019
#
#
#
# Elastic Compliance Matrix: (Units=1/GPa)
#
#
# Indices 1 2 3 4 5 6 
#
# 1 0.074515 -0.006942 0.020319 0.000000 0.050624 0.000000
# 2 -0.006942 0.014946 -0.005963 0.000000 0.001468 0.000000
# 3 0.020319 -0.005963 0.042012 0.000000 0.039153 0.000000
# 4 0.000000 0.000000 0.000000 0.060109 0.000000 -0.020274
# 5 0.050624 0.001468 0.039153 0.000000 0.093931 0.000000
# 6 0.000000 0.000000 0.000000 -0.020274 0.000000 0.061777
#
#
# Mechanical properties :
#
#
# Convention : Reuss Voigt Hill
#
# Bulk Modulus (GPa) = 6.83520 25.88101 16.35810
# Shear Modulus (GPa) = 13.11545 20.38501 16.75023
#
# Velocity S-wave (km/s) = 2.82464 3.52149 3.19214
# Velocity P-wave (km/s) = 3.84658 5.68145 4.85155
#
# Compressibility (1/GPa) = 0.14630158
#
# Stress axis : x y z
#
# Youngs Moduli (GPa) = 13.42018 66.90657 23.80248
#
# Poissons Ratio (x) = 0.46448 -0.48364
# Poissons Ratio (y) = 0.09317 0.14193
# Poissons Ratio (z) = -0.27269 0.39895
#
# Static dielectric constant tensor:
#      x y z
#    x 2.793130 0.000000 -0.047420 
#    y 0.000000 3.111330 0.000000 
#    z -0.047420 0.000000 2.868440 
# 
# 
# High freq. dielectric constant tensor:
#      x y z
#    x 1.604820 0.000000 -0.007780 
#    y 0.000000 1.646620 0.000000 
#    z -0.007780 0.000000 1.614870 
# 
# From -- ./inp_files/24745.got.cif
#   From: 2010.06.25/outbox.cif.g09.slc.cpg/sg10_13_cif.got.tgz:24745.got - 2010.06.27 22:07:45.
