data_PCOD8068676
_publ_section_title
;
Structure prediction by ZEFSAII (Michael W. Deem and Ramdas Pophale) SiO2 
 PCOD8068676
Probable space group: P 21/M
;
_chemical_formula_sum "Si O2"
_cell_formula_units_Z 32
_cell_length_a 23.924991
_cell_length_b 9.012738
_cell_length_c 17.784854
_cell_angle_alpha 90.000000
_cell_angle_beta 149.613004
_cell_angle_gamma 90.000000
_cell_volume 1939.859514
_symmetry_space_group_name_H-M "P 21/M"
_symmetry_group_IT_number 11
_symmetry_cell_setting 'monoclinic'
loop_
_space_group_symop_operation_xyz
x,y,z
-x,1/2+y,-z
-x,-y,-z
x,1/2-y,z
loop_
_atom_site_type_symbol
_atom_site_label
_atom_site_fract_x
_atom_site_fract_y
_atom_site_fract_z
Si Si1 0.889813 0.079875 0.392892
Si Si2 0.484610 0.576807 0.561798
Si Si3 0.162663 0.578011 0.826335
Si Si4 0.316596 0.576333 0.137191
Si Si5 0.099990 0.426128 0.283733
Si Si6 0.863730 0.074208 0.953355
Si Si7 0.064149 0.924597 0.394442
Si Si8 0.235846 0.576797 0.317590
O O1 0.921685 0.250000 0.431470
O O2 0.805586 0.047426 0.225473
O O3 0.857492 0.036502 0.441306
O O4 0.000000 0.000000 0.500000
O O5 0.500000 0.500000 0.500000
O O6 0.504398 0.750000 0.573287
O O7 0.570319 0.512828 0.721869
O O8 0.363854 0.543258 0.453308
O O9 0.128537 0.750000 0.799464
O O10 0.060790 0.478857 0.736054
O O11 0.270939 0.541576 0.000791
O O12 0.340087 0.750000 0.176838
O O13 0.227711 0.515704 0.094351
O O14 0.102697 0.250000 0.290305
O O15 0.118768 0.490049 0.388577
O O16 0.198687 0.483988 0.346466
O O17 0.983721 0.487083 0.115880
O O18 0.863651 0.250000 0.956407
O O19 0.833340 0.018787 0.834742
O O20 0.061852 0.750000 0.374407
O O21 0.213966 0.750000 0.306383
#
# Coordination Sequence:
#
# PCOD8068676 Si02
#       8
#     4   4   4   4   4   4   4   4
#     4   8  15  26  42  66  95 129 163 192 232 287
#     4  11  22  36  54  73  96 127 165 206 247 290
#     4   9  16  29  48  69  98 132 163 198 240 286
#     4  10  18  32  52  73  99 130 163 202 245 286
#     4  11  21  33  50  72  97 128 167 201 238 292
#     4   9  17  32  50  69  96 128 159 195 240 285
#     4  10  18  28  44  69 101 132 162 197 238 287
#     4  10  21  37  51  66  94 128 162 204 247 282
#
# _framework density 16.496039
#
# number of rings (size 3 to 8) (size 9 to 14) (size 15 to 20)
#    0.000    2.250    2.500    1.500    0.000    2.000 
#    0.000    0.625    0.000    0.000    0.000    0.875 
#    0.000    0.000    0.000    0.000    0.000    0.000 
#
# Total GULP energy -396596.291097 kJ/mol
# GULP energy per Si atom -12393.634097 kJ/mol
# Density = 1.645849 g / cm^3
# Si number density = 16.496039 Si / 1000 Ang^3
#
#
#
# Elastic Constant Matrix: (Units=GPa)
#
#
# Indices 1 2 3 4 5 6 
#
# 1 119.7880 51.5208 70.9866 0.0000 -25.1824 0.0000
# 2 51.5208 59.7167 41.1940 0.0000 -4.7682 0.0000
# 3 70.9866 41.1940 95.8487 0.0000 -20.9161 0.0000
# 4 0.0000 0.0000 0.0000 23.1226 0.0000 0.4415
# 5 -25.1824 -4.7682 -20.9161 0.0000 29.4903 0.0000
# 6 0.0000 0.0000 0.0000 0.4415 0.0000 24.1380
#
#
#
# Elastic Compliance Matrix: (Units=1/GPa)
#
#
# Indices 1 2 3 4 5 6 
#
# 1 0.019600 -0.010752 -0.007835 0.000000 0.009442 0.000000
# 2 -0.010752 0.030112 -0.007004 0.000000 -0.009280 0.000000
# 3 -0.007835 -0.007004 0.020750 0.000000 0.006894 0.000000
# 4 0.000000 0.000000 0.000000 0.043263 0.000000 -0.000791
# 5 0.009442 -0.009280 0.006894 0.000000 0.045361 0.000000
# 6 0.000000 0.000000 0.000000 -0.000791 0.000000 0.041443
#
#
# Mechanical properties :
#
#
# Convention : Reuss Voigt Hill
#
# Bulk Modulus (GPa) = 51.86213 66.97291 59.41752
# Shear Modulus (GPa) = 19.36948 22.79366 21.08157
#
# Velocity S-wave (km/s) = 3.43036 3.72124 3.57876
# Velocity P-wave (km/s) = 6.87003 7.69097 7.29206
#
# Compressibility (1/GPa) = 0.01928189
#
# Stress axis : x y z
#
# Youngs Moduli (GPa) = 51.01997 33.20916 48.19175
#
# Poissons Ratio (x) = 0.35705 0.37758
# Poissons Ratio (y) = 0.54854 0.33753
# Poissons Ratio (z) = 0.39974 0.23260
#
# Static dielectric constant tensor:
#      x y z
#    x 3.217360 0.000000 -0.448490 
#    y 0.000000 3.041170 0.000000 
#    z -0.448490 0.000000 3.343750 
# 
# 
# High freq. dielectric constant tensor:
#      x y z
#    x 1.622660 0.000000 -0.030340 
#    y 0.000000 1.631940 0.000000 
#    z -0.030340 0.000000 1.621300 
# 
# From -- ./inp_files/42460.got.cif
#   From: 2010.06.25/outbox.cif.g09.slc.cpg/sg11_22_cif.got.tgz:42460.got - 2010.06.27 23:14:04.
