data_PCOD8068398
_publ_section_title
;
Structure prediction by ZEFSAII (Michael W. Deem and Ramdas Pophale) SiO2 
 PCOD8068398
Probable space group: P 21/M
;
_chemical_formula_sum "Si O2"
_cell_formula_units_Z 28
_cell_length_a 11.186980
_cell_length_b 20.238845
_cell_length_c 12.026849
_cell_angle_alpha 90.000000
_cell_angle_beta 36.523779
_cell_angle_gamma 90.000000
_cell_volume 1620.621211
_symmetry_space_group_name_H-M "P 21/M"
_symmetry_group_IT_number 11
_symmetry_cell_setting 'monoclinic'
loop_
_space_group_symop_operation_xyz
x,y,z
-x,1/2+y,-z
-x,-y,-z
x,1/2-y,z
loop_
_atom_site_type_symbol
_atom_site_label
_atom_site_fract_x
_atom_site_fract_y
_atom_site_fract_z
Si Si1 0.888243 0.519664 0.934397
Si Si2 0.398739 0.564523 0.976910
Si Si3 0.765004 0.481814 0.682754
Si Si4 0.323708 0.825316 0.855657
Si Si5 0.305781 0.964565 0.510060
Si Si6 0.946016 0.606256 0.081622
Si Si7 0.446242 0.400847 0.495159
O O1 0.075974 0.525410 0.713213
O O2 0.916824 0.457392 0.994672
O O3 0.692162 0.502586 0.010043
O O4 0.853920 0.588098 0.028975
O O5 0.637804 0.549559 0.802661
O O6 0.351968 0.631522 0.945894
O O7 0.290484 0.570729 0.178600
O O8 0.692055 0.448388 0.621936
O O9 0.000000 0.500000 0.500000
O O10 0.360488 0.750000 0.862301
O O11 0.481929 0.844553 0.642181
O O12 0.099371 0.832484 0.971152
O O13 0.402873 0.906629 0.512363
O O14 0.437513 0.030429 0.434041
O O15 0.772375 0.620484 0.299495
#
# Coordination Sequence:
#
# PCOD8068398 Si02
#       7
#     4   4   4   4   4   4   4
#     4   9  15  29  49  77 110 132 166 218 273 322
#     4  10  21  33  50  78 109 145 177 218 276 314
#     4  11  20  32  51  80 111 135 174 228 273 325
#     4  11  22  36  52  76 113 147 183 216 255 332
#     4  10  17  30  53  80 109 137 167 225 279 322
#     4   9  18  29  49  77 105 138 172 212 266 318
#     4  10  19  32  53  77 109 140 174 214 275 323
#
# _framework density 17.277327
#
# number of rings (size 3 to 8) (size 9 to 14) (size 15 to 20)
#    0.000    2.000    4.286    0.857    4.000    0.571 
#    0.000    0.000    0.000    0.857    0.000   12.000 
#    0.000    0.000    0.000    0.000    0.000    0.000 
#
# Total GULP energy -347034.898261 kJ/mol
# GULP energy per Si atom -12394.103509 kJ/mol
# Density = 1.723800 g / cm^3
# Si number density = 17.277327 Si / 1000 Ang^3
#
#
#
# Elastic Constant Matrix: (Units=GPa)
#
#
# Indices 1 2 3 4 5 6 
#
# 1 89.0874 34.1937 49.1948 0.0000 13.9054 0.0000
# 2 34.1937 76.6349 39.5918 0.0000 7.4379 0.0000
# 3 49.1948 39.5918 105.2401 0.0000 5.3254 0.0000
# 4 0.0000 0.0000 0.0000 16.7572 0.0000 1.5494
# 5 13.9054 7.4379 5.3254 0.0000 39.8144 0.0000
# 6 0.0000 0.0000 0.0000 1.5494 0.0000 16.1309
#
#
#
# Elastic Compliance Matrix: (Units=1/GPa)
#
#
# Indices 1 2 3 4 5 6 
#
# 1 0.016799 -0.003888 -0.006172 0.000000 -0.004315 0.000000
# 2 -0.003888 0.017295 -0.004625 0.000000 -0.001254 0.000000
# 3 -0.006172 -0.004625 0.014070 0.000000 0.001138 0.000000
# 4 0.000000 0.000000 0.000000 0.060210 0.000000 -0.005783
# 5 -0.004315 -0.001254 0.001138 0.000000 0.026706 0.000000
# 6 0.000000 0.000000 0.000000 -0.005783 0.000000 0.062548
#
#
# Mechanical properties :
#
#
# Convention : Reuss Voigt Hill
#
# Bulk Modulus (GPa) = 53.21122 57.43590 55.32356
# Shear Modulus (GPa) = 21.43505 24.40599 22.92052
#
# Velocity S-wave (km/s) = 3.52610 3.76254 3.64624
# Velocity P-wave (km/s) = 6.88789 7.22435 7.05813
#
# Compressibility (1/GPa) = 0.01879303
#
# Stress axis : x y z
#
# Youngs Moduli (GPa) = 59.52783 57.81960 71.07551
#
# Poissons Ratio (x) = 0.22482 0.43864
# Poissons Ratio (y) = 0.23146 0.32876
# Poissons Ratio (z) = 0.36738 0.26744
#
# Static dielectric constant tensor:
#      x y z
#    x 3.451050 0.000000 0.033420 
#    y 0.000000 2.694540 0.000000 
#    z 0.033420 0.000000 3.387800 
# 
# 
# High freq. dielectric constant tensor:
#      x y z
#    x 1.671000 0.000000 -0.002640 
#    y 0.000000 1.589550 0.000000 
#    z -0.002640 0.000000 1.694900 
# 
# From -- ./inp_files/36252.got.cif
#   From: 2010.06.25/outbox.cif.g09.slc.cpg/sg11_19_cif.got.tgz:36252.got - 2010.06.27 23:14:04.
