data_PCOD8068129
_publ_section_title
;
Structure prediction by ZEFSAII (Michael W. Deem and Ramdas Pophale) SiO2 
 PCOD8068129
Probable space group: P 21/M
;
_chemical_formula_sum "Si O2"
_cell_formula_units_Z 12
_cell_length_a 16.907999
_cell_length_b 5.331219
_cell_length_c 18.740855
_cell_angle_alpha 90.000000
_cell_angle_beta 144.698299
_cell_angle_gamma 90.000000
_cell_volume 976.218861
_symmetry_space_group_name_H-M "P 21/M"
_symmetry_group_IT_number 11
_symmetry_cell_setting 'monoclinic'
loop_
_space_group_symop_operation_xyz
x,y,z
-x,1/2+y,-z
-x,-y,-z
x,1/2-y,z
loop_
_atom_site_type_symbol
_atom_site_label
_atom_site_fract_x
_atom_site_fract_y
_atom_site_fract_z
Si Si1 0.615254 0.750000 0.514232
Si Si2 0.916319 0.250000 0.887548
Si Si3 0.240151 0.250000 0.102302
Si Si4 0.177127 0.750000 0.017252
Si Si5 0.117732 0.250000 0.219353
Si Si6 0.474776 0.250000 0.388769
O O1 0.781067 0.750000 0.637900
O O2 0.561494 0.500797 0.434470
O O3 0.566519 0.750000 0.559757
O O4 0.870783 0.250000 0.935365
O O5 0.853372 0.496149 0.804105
O O6 0.080843 0.250000 0.008628
O O7 0.265956 0.497025 0.071701
O O8 0.337824 0.250000 0.241772
O O9 0.039549 0.750000 0.867766
#
# Coordination Sequence:
#
# PCOD8068129 Si02
#       6
#     2   2   2   2   2   2
#     4  10  18  24  29  35  44  54  58  61  67  78
#     4  10  16  22  33  39  42  48  54  69  75  74
#     4  10  17  24  30  38  44  48  58  64  72  78
#     4  10  16  22  33  39  42  48  54  69  75  74
#     4  10  17  24  30  38  44  48  58  64  72  78
#     4  10  18  24  29  35  44  54  58  61  67  78
#
# _framework density 12.292325
#
# number of rings (size 3 to 8) (size 9 to 14) (size 15 to 20)
#    0.000    2.000    0.000   10.000    0.000    2.667 
#    0.000    0.000    0.000    0.000    0.000    0.000 
#    0.000    0.000    0.000    0.000    0.000    0.000 
#
# Total GULP energy -148666.168370 kJ/mol
# GULP energy per Si atom -12388.847364 kJ/mol
# Density = 1.226435 g / cm^3
# Si number density = 12.292325 Si / 1000 Ang^3
#
#
#
# Elastic Constant Matrix: (Units=GPa)
#
#
# Indices 1 2 3 4 5 6 
#
# 1 0.9698 4.4018 8.1943 0.0000 2.8254 0.0000
# 2 4.4018 140.5660 37.0681 0.0000 12.7754 0.0000
# 3 8.1943 37.0681 68.9925 0.0000 23.7778 0.0000
# 4 0.0000 0.0000 0.0000 11.0752 0.0000 3.8166
# 5 2.8254 12.7754 23.7778 0.0000 8.1954 0.0000
# 6 0.0000 0.0000 0.0000 3.8166 0.0000 1.3156
#
#
#
# Elastic Compliance Matrix: (Units=1/GPa)
#
#
# Indices 1 2 3 4 5 6 
#
# 1 ********** -0.001486********** 0.000000380.674745 0.000000
# 2 -0.001486 0.008288 -0.004797 0.000000 0.001509 0.000000
# 3 ********** -0.004797147.878363 0.000000********** 0.000000
# 4 0.000000 0.000000 0.000000319.380156 0.000000**********
# 5 380.674745 0.001509********** 0.000000999.974475 0.000000
# 6 0.000000 0.000000 0.000000********** 0.000000**********
#
#
# Mechanical properties :
#
#
# Convention : Reuss Voigt Hill
#
# Bulk Modulus (GPa) = -0.00441 34.42853 17.21206
# Shear Modulus (GPa) = 0.00120 14.84151 7.42136
#
# Velocity S-wave (km/s) = 0.03130 3.47851 2.45978
# Velocity P-wave (km/s) = 0.04782 6.64848 4.70106
#
# Compressibility (1/GPa) = -226.91612617
#
# Stress axis : x y z
#
# Youngs Moduli (GPa) = -0.00678 120.65035 0.00676
#
# Poissons Ratio (x) = 0.17935 0.76879
# Poissons Ratio (y) = -0.00001 0.00003
# Poissons Ratio (z) = -0.77121 0.57871
#
# Static dielectric constant tensor:
#      x y z
#    x 1.681480 0.000000 0.410640 
#    y 0.000000 4.044930 0.000000 
#    z 0.410640 0.000000 2.683200 
# 
# 
# High freq. dielectric constant tensor:
#      x y z
#    x 1.327580 0.000000 0.056160 
#    y 0.000000 1.512980 0.000000 
#    z 0.056160 0.000000 1.472620 
# 
# From -- ./inp_files/20028.got.cif
#   From: 2010.06.25/outbox.cif.g09.slc.cpg/sg11_11_cif.got.tgz:20028.got - 2010.06.27 23:14:04.
