data_PCOD8068662
_publ_section_title
;
Structure prediction by ZEFSAII (Michael W. Deem and Ramdas Pophale) SiO2 
 PCOD8068662
Probable space group: P 21/M
;
_chemical_formula_sum "Si O2"
_cell_formula_units_Z 32
_cell_length_a 30.641175
_cell_length_b 9.163892
_cell_length_c 19.527131
_cell_angle_alpha 90.000000
_cell_angle_beta 160.248644
_cell_angle_gamma 90.000000
_cell_volume 1852.943266
_symmetry_space_group_name_H-M "P 21/M"
_symmetry_group_IT_number 11
_symmetry_cell_setting 'monoclinic'
loop_
_space_group_symop_operation_xyz
x,y,z
-x,1/2+y,-z
-x,-y,-z
x,1/2-y,z
loop_
_atom_site_type_symbol
_atom_site_label
_atom_site_fract_x
_atom_site_fract_y
_atom_site_fract_z
Si Si1 0.092942 0.579824 0.190309
Si Si2 0.392130 0.589420 0.096843
Si Si3 0.663505 0.411306 0.638862
Si Si4 0.424498 0.585284 0.306248
Si Si5 0.109412 0.925221 0.705856
Si Si6 0.373100 0.910688 0.574807
Si Si7 0.909462 0.585725 0.037236
Si Si8 0.166127 0.079995 0.927366
O O1 0.096544 0.750000 0.174664
O O2 0.238823 0.515314 0.401740
O O3 0.000000 0.500000 0.000000
O O4 0.043097 0.555893 0.194400
O O5 0.400616 0.750000 0.077675
O O6 0.422777 0.592712 0.222087
O O7 0.498526 0.497039 0.212017
O O8 0.245868 0.529881 0.872413
O O9 0.667885 0.250000 0.677440
O O10 0.556845 0.503094 0.524513
O O11 0.623190 0.403229 0.501046
O O12 0.803962 0.479422 0.850331
O O13 0.421753 0.750000 0.331984
O O14 0.301249 0.493277 0.150155
O O15 0.093859 0.750000 0.687008
O O16 0.100879 0.991742 0.769346
O O17 0.000000 0.000000 0.500000
O O18 0.384154 0.750000 0.623551
O O19 0.861326 0.750000 0.951117
O O20 0.928985 0.564629 0.147606
O O21 0.187897 0.250000 0.939330
#
# Coordination Sequence:
#
# PCOD8068662 Si02
#       8
#     4   4   4   4   4   4   4   4
#     4  10  19  32  47  67  93 127 171 216 254 289
#     4   8  16  29  46  70  97 123 153 187 234 288
#     4  10  18  28  44  66  90 123 167 210 247 287
#     4   9  17  30  46  64  90 126 163 201 243 288
#     4  10  20  35  56  81 104 128 154 188 236 294
#     4   9  17  28  44  67  94 124 163 207 247 282
#     4  10  21  33  46  64  93 130 167 206 250 291
#     4  10  20  34  49  69  96 128 162 198 239 290
#
# _framework density 17.269822999999999
#
# number of rings (size 3 to 8) (size 9 to 14) (size 15 to 20)
#    0.000    2.500    1.250    2.250    0.000    6.000 
#    0.000    0.000    0.000    0.000    0.000    0.875 
#    0.000    0.000    0.000    0.000    0.000    0.000 
#
# Total GULP energy -396646.242535 kJ/mol
# GULP energy per Si atom -12395.195079 kJ/mol
# Density = 1.723052 g / cm^3
# Si number density = 17.269823 Si / 1000 Ang^3
#
#
#
# Elastic Constant Matrix: (Units=GPa)
#
#
# Indices 1 2 3 4 5 6 
#
# 1 66.8918 34.9644 45.3384 0.0000 21.8024 0.0000
# 2 34.9644 104.5004 54.8868 0.0000 9.8803 0.0000
# 3 45.3384 54.8868 116.2977 0.0000 20.7026 0.0000
# 4 0.0000 0.0000 0.0000 30.2009 0.0000 2.7234
# 5 21.8024 9.8803 20.7026 0.0000 25.4759 0.0000
# 6 0.0000 0.0000 0.0000 2.7234 0.0000 12.2463
#
#
#
# Elastic Compliance Matrix: (Units=1/GPa)
#
#
# Indices 1 2 3 4 5 6 
#
# 1 0.026147 -0.004490 -0.005145 0.000000 -0.016454 0.000000
# 2 -0.004490 0.013494 -0.005110 0.000000 0.002762 0.000000
# 3 -0.005145 -0.005110 0.013888 0.000000 -0.004901 0.000000
# 4 0.000000 0.000000 0.000000 0.033789 0.000000 -0.007514
# 5 -0.016454 0.002762 -0.004901 0.000000 0.056246 0.000000
# 6 0.000000 0.000000 0.000000 -0.007514 0.000000 0.083328
#
#
# Mechanical properties :
#
#
# Convention : Reuss Voigt Hill
#
# Bulk Modulus (GPa) = 41.59827 62.00767 51.80297
# Shear Modulus (GPa) = 18.91098 23.75132 21.33115
#
# Velocity S-wave (km/s) = 3.31271 3.71254 3.51831
# Velocity P-wave (km/s) = 6.22669 7.37295 6.82393
#
# Compressibility (1/GPa) = 0.02403946
#
# Stress axis : x y z
#
# Youngs Moduli (GPa) = 38.24562 74.10446 72.00214
#
# Poissons Ratio (x) = 0.33276 0.37045
# Poissons Ratio (y) = 0.17174 0.36792
# Poissons Ratio (z) = 0.19677 0.37866
#
# Static dielectric constant tensor:
#      x y z
#    x 3.090560 0.000000 0.309400 
#    y 0.000000 3.554660 0.000000 
#    z 0.309400 0.000000 3.192730 
# 
# 
# High freq. dielectric constant tensor:
#      x y z
#    x 1.640250 0.000000 0.026600 
#    y 0.000000 1.677730 0.000000 
#    z 0.026600 0.000000 1.646210 
# 
# From -- ./inp_files/67430.got.cif
#   From: 2010.06.25/outbox.cif.g09.slc.cpg/sg11_34_cif.got.tgz:67430.got - 2010.06.27 23:14:04.
