data_PCOD8068813
_publ_section_title
;
Structure prediction by ZEFSAII (Michael W. Deem and Ramdas Pophale) SiO2 
 PCOD8068813
Probable space group: P 21/M
;
_chemical_formula_sum "Si O2"
_cell_formula_units_Z 32
_cell_length_a 21.721110
_cell_length_b 8.857852
_cell_length_c 11.349599
_cell_angle_alpha 90.000000
_cell_angle_beta 55.507917
_cell_angle_gamma 90.000000
_cell_volume 1799.806868
_symmetry_space_group_name_H-M "P 21/M"
_symmetry_group_IT_number 11
_symmetry_cell_setting 'monoclinic'
loop_
_space_group_symop_operation_xyz
x,y,z
-x,1/2+y,-z
-x,-y,-z
x,1/2-y,z
loop_
_atom_site_type_symbol
_atom_site_label
_atom_site_fract_x
_atom_site_fract_y
_atom_site_fract_z
Si Si1 0.563626 0.418609 0.581844
Si Si2 0.138241 0.423938 0.615947
Si Si3 0.418142 0.919268 0.716355
Si Si4 0.127121 0.917115 0.098656
Si Si5 0.924881 0.416439 0.102992
Si Si6 0.713509 0.925306 0.430106
Si Si7 0.008417 0.929015 0.617998
Si Si8 0.733322 0.572049 0.141237
O O1 0.556603 0.250000 0.639620
O O2 0.567824 0.418186 0.437283
O O3 0.490788 0.511521 0.702294
O O4 0.638790 0.491171 0.552891
O O5 0.118315 0.250000 0.611510
O O6 0.118927 0.467196 0.769366
O O7 0.227680 0.452047 0.525223
O O8 0.090672 0.525359 0.577174
O O9 0.404945 0.750000 0.777845
O O10 0.346331 0.020562 0.823843
O O11 0.131879 0.750000 0.153556
O O12 0.058377 0.010385 0.227780
O O13 0.116587 0.893235 0.972830
O O14 0.205704 0.004662 0.017009
O O15 0.936104 0.250000 0.150718
O O16 0.000000 0.500000 0.000000
O O17 0.694820 0.750000 0.436150
O O18 0.741232 0.983264 0.269968
O O19 0.002955 0.750000 0.616194
O O20 0.000000 0.000000 0.500000
O O21 0.741053 0.750000 0.125205
#
# Coordination Sequence:
#
# PCOD8068813 Si02
#       8
#     4   4   4   4   4   4   4   4
#     4   9  16  25  39  59  88 128 170 206 240 288
#     4  11  21  35  53  75 103 132 168 210 254 302
#     4   9  16  26  39  58  89 130 170 205 243 290
#     4  11  22  35  52  75 103 132 167 209 253 301
#     4  11  21  31  49  74 102 131 164 204 251 302
#     4   9  18  29  44  67  98 132 165 204 247 294
#     4  12  26  43  60  75  96 129 169 211 258 307
#     4  10  18  29  45  69  99 132 169 207 249 294
#
# _framework density 17.779685000000001
#
# number of rings (size 3 to 8) (size 9 to 14) (size 15 to 20)
#    0.000    1.750    2.500    3.375    0.000    5.500 
#    0.000    0.000    0.000    0.000    0.000    0.000 
#    0.000    1.000    0.000    3.750    0.000    5.750 
#
# Total GULP energy -396521.867577 kJ/mol
# GULP energy per Si atom -12391.308362 kJ/mol
# Density = 1.773922 g / cm^3
# Si number density = 17.779685 Si / 1000 Ang^3
#
#
#
# Elastic Constant Matrix: (Units=GPa)
#
#
# Indices 1 2 3 4 5 6 
#
# 1 108.2055 58.7616 42.3075 0.0000 -23.3308 0.0000
# 2 58.7616 108.8767 23.4936 0.0000 -13.0401 0.0000
# 3 42.3075 23.4936 29.4692 0.0000 -3.4369 0.0000
# 4 0.0000 0.0000 0.0000 22.4738 0.0000 -6.7927
# 5 -23.3308 -13.0401 -3.4369 0.0000 24.5597 0.0000
# 6 0.0000 0.0000 0.0000 -6.7927 0.0000 30.0764
#
#
#
# Elastic Compliance Matrix: (Units=1/GPa)
#
#
# Indices 1 2 3 4 5 6 
#
# 1 0.033320 -0.006679 -0.039884 0.000000 0.022525 0.000000
# 2 -0.006679 0.013000 -0.000722 0.000000 0.000457 0.000000
# 3 -0.039884 -0.000722 0.088754 0.000000 -0.025851 0.000000
# 4 0.000000 0.000000 0.000000 0.047756 0.000000 0.010786
# 5 0.022525 0.000457 -0.025851 0.000000 0.058740 0.000000
# 6 0.000000 0.000000 0.000000 0.010786 0.000000 0.035685
#
#
# Mechanical properties :
#
#
# Convention : Reuss Voigt Hill
#
# Bulk Modulus (GPa) = 24.68908 55.07523 39.88215
# Shear Modulus (GPa) = 12.97605 23.55456 18.26530
#
# Velocity S-wave (km/s) = 2.70446 3.64373 3.20865
# Velocity P-wave (km/s) = 4.86502 6.98184 6.01725
#
# Compressibility (1/GPa) = 0.04050374
#
# Stress axis : x y z
#
# Youngs Moduli (GPa) = 30.01219 76.92405 11.26710
#
# Poissons Ratio (x) = 0.51377 0.44938
# Poissons Ratio (y) = 0.20045 0.00813
# Poissons Ratio (z) = 1.19701 0.05554
#
# Static dielectric constant tensor:
#      x y z
#    x 3.349590 0.000000 -0.306610 
#    y 0.000000 3.599560 0.000000 
#    z -0.306610 0.000000 2.922560 
# 
# 
# High freq. dielectric constant tensor:
#      x y z
#    x 1.682530 0.000000 -0.038390 
#    y 0.000000 1.707780 0.000000 
#    z -0.038390 0.000000 1.629260 
# 
# From -- ./inp_files/42416.got.cif
#   From: 2010.06.25/outbox.cif.g09.slc.cpg/sg11_22_cif.got.tgz:42416.got - 2010.06.27 23:14:04.
