data_PCOD8068737
_publ_section_title
;
Structure prediction by ZEFSAII (Michael W. Deem and Ramdas Pophale) SiO2 
 PCOD8068737
Probable space group: P 21/M
;
_chemical_formula_sum "Si O2"
_cell_formula_units_Z 24
_cell_length_a 17.305302
_cell_length_b 8.878526
_cell_length_c 11.670643
_cell_angle_alpha 90.000000
_cell_angle_beta 121.440452
_cell_angle_gamma 90.000000
_cell_volume 1529.878352
_symmetry_space_group_name_H-M "P 21/M"
_symmetry_group_IT_number 11
_symmetry_cell_setting 'monoclinic'
loop_
_space_group_symop_operation_xyz
x,y,z
-x,1/2+y,-z
-x,-y,-z
x,1/2-y,z
loop_
_atom_site_type_symbol
_atom_site_label
_atom_site_fract_x
_atom_site_fract_y
_atom_site_fract_z
Si Si1 0.863164 0.573641 0.435201
Si Si2 0.069195 0.072745 0.965517
Si Si3 0.775513 0.919050 0.751718
Si Si4 0.589405 0.920478 0.526526
Si Si5 0.048431 0.926634 0.703871
Si Si6 0.266189 0.927001 0.496317
O O1 0.847408 0.750000 0.409566
O O2 0.877766 0.503201 0.321397
O O3 0.773727 0.498733 0.419328
O O4 0.948281 0.535209 0.581764
O O5 0.050872 0.250000 0.939245
O O6 0.060053 0.994063 0.837691
O O7 0.170231 0.037181 0.092029
O O8 0.000000 0.000000 0.000000
O O9 0.804144 0.750000 0.735350
O O10 0.666143 0.925307 0.687254
O O11 0.799041 0.028636 0.662340
O O12 0.565471 0.750000 0.473335
O O13 0.500000 0.000000 0.500000
O O14 0.632928 0.005193 0.449418
O O15 0.066844 0.750000 0.721078
O O16 0.272176 0.750000 0.515388
#
# Coordination Sequence:
#
# PCOD8068737 Si02
#       6
#     4   4   4   4   4   4
#     4  10  19  33  48  65  92 126 162 202 242 282
#     4  11  21  33  47  67  95 131 164 196 238 282
#     4   8  18  32  45  64  96 128 156 191 235 284
#     4   9  17  31  48  71  99 125 156 196 242 291
#     4  10  21  33  47  67  92 124 164 205 241 279
#     4  10  18  28  47  71  95 123 155 194 239 283
#
# _framework density 15.687522
#
# number of rings (size 3 to 8) (size 9 to 14) (size 15 to 20)
#    1.000    1.333    0.000    4.000    0.000    7.333 
#    0.000    0.000    0.000    0.000    0.000    1.167 
#    0.000    0.000    0.000    0.000    0.000    0.000 
#
# Total GULP energy -297408.498812 kJ/mol
# GULP energy per Si atom -12392.020784 kJ/mol
# Density = 1.565182 g / cm^3
# Si number density = 15.687522 Si / 1000 Ang^3
#
#
#
# Elastic Constant Matrix: (Units=GPa)
#
#
# Indices 1 2 3 4 5 6 
#
# 1 133.3326 66.0805 44.7947 0.0000 -15.9624 0.0000
# 2 66.0805 114.9424 35.3204 0.0000 -10.9052 0.0000
# 3 44.7947 35.3204 67.5014 0.0000 -14.6019 0.0000
# 4 0.0000 0.0000 0.0000 24.3165 0.0000 -4.8375
# 5 -15.9624 -10.9052 -14.6019 0.0000 24.5762 0.0000
# 6 0.0000 0.0000 0.0000 -4.8375 0.0000 32.4057
#
#
#
# Elastic Compliance Matrix: (Units=1/GPa)
#
#
# Indices 1 2 3 4 5 6 
#
# 1 0.011953 -0.005192 -0.004629 0.000000 0.002709 0.000000
# 2 -0.005192 0.012676 -0.003098 0.000000 0.000412 0.000000
# 3 -0.004629 -0.003098 0.021297 0.000000 0.008272 0.000000
# 4 0.000000 0.000000 0.000000 0.042383 0.000000 0.006327
# 5 0.002709 0.000412 0.008272 0.000000 0.047547 0.000000
# 6 0.000000 0.000000 0.000000 0.006327 0.000000 0.031803
#
#
# Mechanical properties :
#
#
# Convention : Reuss Voigt Hill
#
# Bulk Modulus (GPa) = 49.78365 67.57416 58.67891
# Shear Modulus (GPa) = 24.97576 27.56506 26.27041
#
# Velocity S-wave (km/s) = 3.99441 4.19636 4.09663
# Velocity P-wave (km/s) = 7.28541 8.16382 7.73709
#
# Compressibility (1/GPa) = 0.02008692
#
# Stress axis : x y z
#
# Youngs Moduli (GPa) = 83.66178 78.88866 46.95483
#
# Poissons Ratio (x) = 0.40961 0.21736
# Poissons Ratio (y) = 0.43439 0.14547
# Poissons Ratio (z) = 0.38729 0.24441
#
# Static dielectric constant tensor:
#      x y z
#    x 2.928600 0.000000 -0.026000 
#    y 0.000000 3.676130 0.000000 
#    z -0.026000 0.000000 2.834630 
# 
# 
# High freq. dielectric constant tensor:
#      x y z
#    x 1.592830 0.000000 -0.006800 
#    y 0.000000 1.621840 0.000000 
#    z -0.006800 0.000000 1.566360 
# 
# From -- ./inp_files/40424.got.cif
#   From: 2010.06.25/outbox.cif.g09.slc.cpg/sg11_21_cif.got.tgz:40424.got - 2010.06.27 23:14:04.
