data_PCOD8068440
_publ_section_title
;
Structure prediction by ZEFSAII (Michael W. Deem and Ramdas Pophale) SiO2 
 PCOD8068440
Probable space group: P 21/M
;
_chemical_formula_sum "Si O2"
_cell_formula_units_Z 32
_cell_length_a 17.176657
_cell_length_b 18.712595
_cell_length_c 12.793918
_cell_angle_alpha 90.000000
_cell_angle_beta 154.604606
_cell_angle_gamma 90.000000
_cell_volume 1763.576530
_symmetry_space_group_name_H-M "P 21/M"
_symmetry_group_IT_number 11
_symmetry_cell_setting 'monoclinic'
loop_
_space_group_symop_operation_xyz
x,y,z
-x,1/2+y,-z
-x,-y,-z
x,1/2-y,z
loop_
_atom_site_type_symbol
_atom_site_label
_atom_site_fract_x
_atom_site_fract_y
_atom_site_fract_z
Si Si1 0.110179 0.436338 0.088192
Si Si2 0.535835 0.580542 0.082362
Si Si3 0.537375 0.828117 0.742373
Si Si4 0.361657 0.035019 0.573382
Si Si5 0.208771 0.332538 0.758399
Si Si6 0.832994 0.165739 0.400716
Si Si7 0.180731 0.616743 0.390728
Si Si8 0.391448 0.034261 0.276251
O O1 0.260329 0.417578 0.359410
O O2 0.185660 0.464420 0.066690
O O3 0.000000 0.500000 0.000000
O O4 0.973741 0.372574 0.887577
O O5 0.603536 0.583396 0.283975
O O6 0.698545 0.615854 0.213731
O O7 0.500000 0.500000 0.000000
O O8 0.351517 0.625673 0.854007
O O9 0.566197 0.750000 0.728560
O O10 0.345718 0.829802 0.569771
O O11 0.540894 0.884034 0.652531
O O12 0.696441 0.846686 0.016024
O O13 0.247259 0.965524 0.468242
O O14 0.560265 0.009200 0.770851
O O15 0.234747 0.250000 0.755383
O O16 0.994666 0.350734 0.513759
O O17 0.794130 0.250000 0.358050
O O18 0.899675 0.136960 0.594097
O O19 0.500000 0.000000 0.500000
#
# Coordination Sequence:
#
# PCOD8068440 Si02
#       8
#     4   4   4   4   4   4   4   4
#     4   9  18  32  54  81 113 145 181 224 281 336
#     4  12  21  37  57  86 122 147 192 242 288 348
#     4  10  18  32  55  81 111 144 182 235 287 330
#     4   9  19  34  52  83 113 150 183 226 290 342
#     4  10  22  38  57  83 115 153 194 238 290 344
#     4  11  22  37  59  84 112 155 196 237 297 346
#     4  10  17  32  54  83 114 143 185 232 281 335
#     4   9  17  33  54  76 107 142 180 225 278 333
#
# _framework density 18.144945
#
# number of rings (size 3 to 8) (size 9 to 14) (size 15 to 20)
#    0.000    2.000    2.500    3.000    0.000    0.500 
#    4.500    0.625    0.000    9.000    0.000    0.000 
#    0.000    0.000    0.000    0.000    0.000    0.000 
#
# Total GULP energy -396429.600784 kJ/mol
# GULP energy per Si atom -12388.425024 kJ/mol
# Density = 1.810365 g / cm^3
# Si number density = 18.144945 Si / 1000 Ang^3
#
#
#
# Elastic Constant Matrix: (Units=GPa)
#
#
# Indices 1 2 3 4 5 6 
#
# 1 121.4507 58.1845 49.3044 0.0000 10.5292 0.0000
# 2 58.1845 86.5780 40.9132 0.0000 -3.5467 0.0000
# 3 49.3044 40.9132 101.6531 0.0000 -0.6494 0.0000
# 4 0.0000 0.0000 0.0000 19.3994 0.0000 -0.9045
# 5 10.5292 -3.5467 -0.6494 0.0000 36.7045 0.0000
# 6 0.0000 0.0000 0.0000 -0.9045 0.0000 28.8963
#
#
#
# Elastic Compliance Matrix: (Units=1/GPa)
#
#
# Indices 1 2 3 4 5 6 
#
# 1 0.013851 -0.007799 -0.003610 0.000000 -0.004791 0.000000
# 2 -0.007799 0.018714 -0.003724 0.000000 0.003980 0.000000
# 3 -0.003610 -0.003724 0.013093 0.000000 0.000907 0.000000
# 4 0.000000 0.000000 0.000000 0.051623 0.000000 0.001616
# 5 -0.004791 0.003980 0.000907 0.000000 0.029019 0.000000
# 6 0.000000 0.000000 0.000000 0.001616 0.000000 0.034657
#
#
# Mechanical properties :
#
#
# Convention : Reuss Voigt Hill
#
# Bulk Modulus (GPa) = 64.96577 67.38731 66.17654
# Shear Modulus (GPa) = 25.46418 27.75202 26.60810
#
# Velocity S-wave (km/s) = 3.75023 3.91508 3.83354
# Velocity P-wave (km/s) = 7.39147 7.59316 7.49299
#
# Compressibility (1/GPa) = 0.01539272
#
# Stress axis : x y z
#
# Youngs Moduli (GPa) = 72.19785 53.43496 76.37762
#
# Poissons Ratio (x) = 0.41673 0.27570
# Poissons Ratio (y) = 0.56306 0.28443
# Poissons Ratio (z) = 0.26062 0.19899
#
# Static dielectric constant tensor:
#      x y z
#    x 3.700390 0.000000 0.153940 
#    y 0.000000 3.292410 0.000000 
#    z 0.153940 0.000000 3.794300 
# 
# 
# High freq. dielectric constant tensor:
#      x y z
#    x 1.708780 0.000000 0.017820 
#    y 0.000000 1.680910 0.000000 
#    z 0.017820 0.000000 1.700320 
# 
# From -- ./inp_files/40034.got.cif
#   From: 2010.06.25/outbox.cif.g09.slc.cpg/sg11_21_cif.got.tgz:40034.got - 2010.06.27 23:14:04.
