data_PCOD8068320
_publ_section_title
;
Structure prediction by ZEFSAII (Michael W. Deem and Ramdas Pophale) SiO2 
 PCOD8068320
Probable space group: P 21/M
;
_chemical_formula_sum "Si O2"
_cell_formula_units_Z 28
_cell_length_a 18.671596
_cell_length_b 8.958129
_cell_length_c 19.022257
_cell_angle_alpha 90.000000
_cell_angle_beta 31.819565
_cell_angle_gamma 90.000000
_cell_volume 1677.544605
_symmetry_space_group_name_H-M "P 21/M"
_symmetry_group_IT_number 11
_symmetry_cell_setting 'monoclinic'
loop_
_space_group_symop_operation_xyz
x,y,z
-x,1/2+y,-z
-x,-y,-z
x,1/2-y,z
loop_
_atom_site_type_symbol
_atom_site_label
_atom_site_fract_x
_atom_site_fract_y
_atom_site_fract_z
Si Si1 0.732274 0.582365 0.972233
Si Si2 0.311346 0.926302 0.761763
Si Si3 0.440479 0.582716 0.251749
Si Si4 0.398454 0.075674 0.424781
Si Si5 0.793832 0.575930 0.288029
Si Si6 0.100726 0.926166 0.055016
Si Si7 0.465092 0.927518 0.955495
O O1 0.774144 0.750000 0.914126
O O2 0.602561 0.587864 0.133342
O O3 0.857203 0.504085 0.907202
O O4 0.684999 0.486263 0.943247
O O5 0.308106 0.750000 0.758070
O O6 0.459209 0.982187 0.662466
O O7 0.197096 0.981771 0.911663
O O8 0.283010 0.991441 0.709227
O O9 0.383302 0.750000 0.287242
O O10 0.363668 0.508185 0.381255
O O11 0.422288 0.484608 0.195500
O O12 0.407628 0.250000 0.400052
O O13 0.278311 0.036937 0.578505
O O14 0.784467 0.750000 0.279144
O O15 0.949087 0.522247 0.162978
O O16 0.111758 0.750000 0.057547
O O17 0.466562 0.750000 0.959390
O O18 0.500000 0.000000 0.000000
#
# Coordination Sequence:
#
# PCOD8068320 Si02
#       7
#     4   4   4   4   4   4   4
#     4   9  18  30  47  72  96 124 160 194 235 282
#     4  10  19  31  48  65  87 124 165 204 252 297
#     4   9  18  30  47  72  96 124 160 194 235 282
#     4  10  19  33  49  67  93 126 162 203 246 294
#     4  10  22  33  45  68  95 123 161 206 253 293
#     4  10  19  33  49  67  93 126 162 203 246 294
#     4  10  17  28  47  75 108 133 156 194 237 278
#
# _framework density 16.691061999999999
#
# number of rings (size 3 to 8) (size 9 to 14) (size 15 to 20)
#    0.857    1.429    1.429    2.571    0.000    2.286 
#    0.000    0.000    0.000    0.000    0.000    1.000 
#    0.000    0.000    0.000    0.000    0.000    0.000 
#
# Total GULP energy -347059.221580 kJ/mol
# GULP energy per Si atom -12394.972199 kJ/mol
# Density = 1.665307 g / cm^3
# Si number density = 16.691062 Si / 1000 Ang^3
#
#
#
# Elastic Constant Matrix: (Units=GPa)
#
#
# Indices 1 2 3 4 5 6 
#
# 1 76.8616 41.1089 14.6421 0.0000 26.2276 0.0000
# 2 41.1089 85.0865 18.9271 0.0000 14.2930 0.0000
# 3 14.6421 18.9271 63.8625 0.0000 6.1371 0.0000
# 4 0.0000 0.0000 0.0000 15.8649 0.0000 6.2857
# 5 26.2276 14.2930 6.1371 0.0000 19.4173 0.0000
# 6 0.0000 0.0000 0.0000 6.2857 0.0000 33.3212
#
#
#
# Elastic Compliance Matrix: (Units=1/GPa)
#
#
# Indices 1 2 3 4 5 6 
#
# 1 0.028586 -0.008159 -0.001034 0.000000 -0.032280 0.000000
# 2 -0.008159 0.016371 -0.002973 0.000000 -0.000091 0.000000
# 3 -0.001034 -0.002973 0.016947 0.000000 -0.001771 0.000000
# 4 0.000000 0.000000 0.000000 0.068124 0.000000 -0.012851
# 5 -0.032280 -0.000091 -0.001771 0.000000 0.095729 0.000000
# 6 0.000000 0.000000 0.000000 -0.012851 0.000000 0.032435
#
#
# Mechanical properties :
#
#
# Convention : Reuss Voigt Hill
#
# Bulk Modulus (GPa) = 26.61467 41.68521 34.14994
# Shear Modulus (GPa) = 16.94648 23.79617 20.37133
#
# Velocity S-wave (km/s) = 3.18984 3.77992 3.49735
# Velocity P-wave (km/s) = 5.43570 6.63921 6.06737
#
# Compressibility (1/GPa) = 0.03757326
#
# Stress axis : x y z
#
# Youngs Moduli (GPa) = 34.98239 61.08347 59.00767
#
# Poissons Ratio (x) = 0.49836 0.06102
# Poissons Ratio (y) = 0.28541 0.17541
# Poissons Ratio (z) = 0.03617 0.18158
#
# Static dielectric constant tensor:
#      x y z
#    x 2.945770 0.000000 0.024970 
#    y 0.000000 3.119850 0.000000 
#    z 0.024970 0.000000 2.980400 
# 
# 
# High freq. dielectric constant tensor:
#      x y z
#    x 1.631260 0.000000 0.010760 
#    y 0.000000 1.648510 0.000000 
#    z 0.010760 0.000000 1.613860 
# 
# From -- ./inp_files/66350.got.cif
#   From: 2010.06.25/outbox.cif.g09.slc.cpg/sg11_34_cif.got.tgz:66350.got - 2010.06.27 23:14:04.
