data_PCOD8068660
_publ_section_title
;
Structure prediction by ZEFSAII (Michael W. Deem and Ramdas Pophale) SiO2 
 PCOD8068660
Probable space group: P 21/M
;
_chemical_formula_sum "Si O2"
_cell_formula_units_Z 32
_cell_length_a 11.793038
_cell_length_b 21.952194
_cell_length_c 12.462601
_cell_angle_alpha 90.000000
_cell_angle_beta 145.602400
_cell_angle_gamma 90.000000
_cell_volume 1822.673315
_symmetry_space_group_name_H-M "P 21/M"
_symmetry_group_IT_number 11
_symmetry_cell_setting 'monoclinic'
loop_
_space_group_symop_operation_xyz
x,y,z
-x,1/2+y,-z
-x,-y,-z
x,1/2-y,z
loop_
_atom_site_type_symbol
_atom_site_label
_atom_site_fract_x
_atom_site_fract_y
_atom_site_fract_z
Si Si1 0.420955 0.010587 0.161668
Si Si2 0.728952 0.181490 0.478325
Si Si3 0.751388 0.064320 0.803752
Si Si4 0.170992 0.930516 0.580678
Si Si5 0.911914 0.022384 0.263825
Si Si6 0.681811 0.624590 0.781006
Si Si7 0.094923 0.818204 0.161709
Si Si8 0.849478 0.543318 0.749613
O O1 0.643434 0.024542 0.296882
O O2 0.314162 0.069295 0.130837
O O3 0.431087 0.956643 0.260370
O O4 0.292214 0.989409 0.959515
O O5 0.718356 0.250000 0.424043
O O6 0.787312 0.137852 0.425714
O O7 0.516795 0.164332 0.365553
O O8 0.893921 0.176247 0.700714
O O9 0.745715 0.135528 0.768841
O O10 0.752768 0.023710 0.695556
O O11 0.952942 0.050108 0.025206
O O12 0.129891 0.927974 0.675946
O O13 0.979512 0.958503 0.369883
O O14 0.090145 0.048853 0.327668
O O15 0.695786 0.596084 0.670581
O O16 0.868540 0.668022 0.950906
O O17 0.152696 0.750000 0.169505
#
# Coordination Sequence:
#
# PCOD8068660 Si02
#       8
#     4   4   4   4   4   4   4   4
#     4   9  17  30  48  68  91 117 143 186 235 265
#     4  10  20  32  46  66  92 119 150 186 218 258
#     4   8  14  26  44  67  91 113 141 177 223 273
#     4  10  20  30  46  69  89 120 157 184 220 262
#     4  10  18  30  46  68  95 116 147 190 222 264
#     4   9  17  30  48  70  92 114 145 182 227 277
#     4  10  18  28  44  65  91 121 147 178 222 268
#     4   8  14  26  46  67  91 116 136 177 230 266
#
# _framework density 17.556628
#
# number of rings (size 3 to 8) (size 9 to 14) (size 15 to 20)
#    0.000    2.750    0.000    4.500    0.000    1.000 
#    0.000    3.750    0.000    7.500    0.000    3.500 
#    0.000    4.000    0.000    0.000    0.000    0.000 
#
# Total GULP energy -396671.116572 kJ/mol
# GULP energy per Si atom -12395.972393 kJ/mol
# Density = 1.751667 g / cm^3
# Si number density = 17.556628 Si / 1000 Ang^3
#
#
#
# Elastic Constant Matrix: (Units=GPa)
#
#
# Indices 1 2 3 4 5 6 
#
# 1 113.6318 59.2932 24.0607 0.0000 -19.4371 0.0000
# 2 59.2932 129.4717 31.4866 0.0000 -11.2778 0.0000
# 3 24.0607 31.4866 32.3854 0.0000 -10.0526 0.0000
# 4 0.0000 0.0000 0.0000 18.5719 0.0000 0.3576
# 5 -19.4371 -11.2778 -10.0526 0.0000 24.1611 0.0000
# 6 0.0000 0.0000 0.0000 0.3576 0.0000 22.7982
#
#
#
# Elastic Compliance Matrix: (Units=1/GPa)
#
#
# Indices 1 2 3 4 5 6 
#
# 1 0.013070 -0.004638 -0.002996 0.000000 0.007103 0.000000
# 2 -0.004638 0.011772 -0.008557 0.000000 -0.001797 0.000000
# 3 -0.002996 -0.008557 0.045284 0.000000 0.012436 0.000000
# 4 0.000000 0.000000 0.000000 0.053861 0.000000 -0.000845
# 5 0.007103 -0.001797 0.012436 0.000000 0.051439 0.000000
# 6 0.000000 0.000000 0.000000 -0.000845 0.000000 0.043876
#
#
# Mechanical properties :
#
#
# Convention : Reuss Voigt Hill
#
# Bulk Modulus (GPa) = 26.49478 56.13000 41.31239
# Shear Modulus (GPa) = 18.92023 23.81613 21.36818
#
# Velocity S-wave (km/s) = 3.28635 3.68711 3.49248
# Velocity P-wave (km/s) = 5.43359 7.08284 6.31231
#
# Compressibility (1/GPa) = 0.03774329
#
# Stress axis : x y z
#
# Youngs Moduli (GPa) = 76.51128 84.94416 22.08270
#
# Poissons Ratio (x) = 0.39399 0.06616
# Poissons Ratio (y) = 0.35488 0.18897
# Poissons Ratio (z) = 0.22923 0.72691
#
# Static dielectric constant tensor:
#      x y z
#    x 3.398570 0.000000 0.001110 
#    y 0.000000 3.230800 0.000000 
#    z 0.001110 0.000000 3.178260 
# 
# 
# High freq. dielectric constant tensor:
#      x y z
#    x 1.665130 0.000000 0.003750 
#    y 0.000000 1.655060 0.000000 
#    z 0.003750 0.000000 1.682760 
# 
# From -- ./inp_files/36365.got.cif
#   From: 2010.06.25/outbox.cif.g09.slc.cpg/sg11_19_cif.got.tgz:36365.got - 2010.06.27 23:14:04.
