data_PCOD8068657
_publ_section_title
;
Structure prediction by ZEFSAII (Michael W. Deem and Ramdas Pophale) SiO2 
 PCOD8068657
Probable space group: P 21/M
;
_chemical_formula_sum "Si O2"
_cell_formula_units_Z 32
_cell_length_a 20.453790
_cell_length_b 9.476665
_cell_length_c 14.357229
_cell_angle_alpha 90.000000
_cell_angle_beta 137.671818
_cell_angle_gamma 90.000000
_cell_volume 1873.948852
_symmetry_space_group_name_H-M "P 21/M"
_symmetry_group_IT_number 11
_symmetry_cell_setting 'monoclinic'
loop_
_space_group_symop_operation_xyz
x,y,z
-x,1/2+y,-z
-x,-y,-z
x,1/2-y,z
loop_
_atom_site_type_symbol
_atom_site_label
_atom_site_fract_x
_atom_site_fract_y
_atom_site_fract_z
Si Si1 0.960713 0.407667 0.357681
Si Si2 0.185025 0.407903 0.700608
Si Si3 0.816438 0.407356 0.031312
Si Si4 0.875099 0.913251 0.611347
Si Si5 0.495187 0.586960 0.900804
Si Si6 0.276561 0.913367 0.638020
Si Si7 0.017204 0.583891 0.924662
Si Si8 0.323320 0.094538 0.020242
O O1 0.956591 0.250000 0.397141
O O2 0.923289 0.525456 0.393797
O O3 0.068077 0.438801 0.427786
O O4 0.887737 0.412473 0.194117
O O5 0.172243 0.250000 0.644551
O O6 0.249645 0.508493 0.704948
O O7 0.241396 0.397639 0.855908
O O8 0.777953 0.250000 0.975500
O O9 0.719815 0.501091 0.941497
O O10 0.876999 0.456946 0.004401
O O11 0.846333 0.750000 0.591327
O O12 0.936790 0.963006 0.764686
O O13 0.779175 0.010404 0.506003
O O14 0.517778 0.750000 0.949550
O O15 0.391285 0.570601 0.741894
O O16 0.576876 0.529286 0.915503
O O17 0.500000 0.500000 0.000000
O O18 0.245959 0.750000 0.612273
O O19 0.010191 0.750000 0.936412
O O20 0.000000 0.500000 0.000000
O O21 0.344391 0.250000 0.082749
#
# Coordination Sequence:
#
# PCOD8068657 Si02
#       8
#     4   4   4   4   4   4   4   4
#     4   8  15  29  46  62  86 121 158 194 230 272
#     4  10  18  28  44  64  88 122 161 201 240 277
#     4   8  15  28  46  70  97 122 151 187 231 281
#     4   9  19  35  50  66  94 127 156 191 234 282
#     4  10  20  33  47  66  92 124 166 211 249 283
#     4  11  22  32  45  65  91 125 164 203 241 280
#     4   9  18  33  54  79 103 126 151 184 230 287
#     4   9  17  29  45  66  92 122 160 203 242 279
#
# _framework density 17.076241
#
# number of rings (size 3 to 8) (size 9 to 14) (size 15 to 20)
#    0.000    2.750    1.250    2.250    0.000    3.500 
#    0.000    2.500    0.000    0.000    0.000    0.875 
#    0.000    0.000    0.000    0.000    0.000    0.000 
#
# Total GULP energy -396715.675999 kJ/mol
# GULP energy per Si atom -12397.364875 kJ/mol
# Density = 1.703737 g / cm^3
# Si number density = 17.076241 Si / 1000 Ang^3
#
#
#
# Elastic Constant Matrix: (Units=GPa)
#
#
# Indices 1 2 3 4 5 6 
#
# 1 117.8814 63.5628 42.3896 0.0000 14.7925 0.0000
# 2 63.5628 96.9304 37.5479 0.0000 8.4405 0.0000
# 3 42.3896 37.5479 53.0439 0.0000 11.2135 0.0000
# 4 0.0000 0.0000 0.0000 23.5550 0.0000 0.0314
# 5 14.7925 8.4405 11.2135 0.0000 29.5302 0.0000
# 6 0.0000 0.0000 0.0000 0.0314 0.0000 31.3523
#
#
#
# Elastic Compliance Matrix: (Units=1/GPa)
#
#
# Indices 1 2 3 4 5 6 
#
# 1 0.014959 -0.007113 -0.006268 0.000000 -0.003080 0.000000
# 2 -0.007113 0.017599 -0.007027 0.000000 0.001201 0.000000
# 3 -0.006268 -0.007027 0.030169 0.000000 -0.006308 0.000000
# 4 0.000000 0.000000 0.000000 0.042454 0.000000 -0.000042
# 5 -0.003080 0.001201 -0.006308 0.000000 0.037458 0.000000
# 6 0.000000 0.000000 0.000000 -0.000042 0.000000 0.031896
#
#
# Mechanical properties :
#
#
# Convention : Reuss Voigt Hill
#
# Bulk Modulus (GPa) = 45.64093 61.65069 53.64581
# Shear Modulus (GPa) = 22.45629 25.17786 23.81708
#
# Velocity S-wave (km/s) = 3.63031 3.84401 3.73869
# Velocity P-wave (km/s) = 6.66018 7.47552 7.07960
#
# Compressibility (1/GPa) = 0.02191016
#
# Stress axis : x y z
#
# Youngs Moduli (GPa) = 66.84878 56.82245 33.14665
#
# Poissons Ratio (x) = 0.40419 0.20777
# Poissons Ratio (y) = 0.47551 0.23292
# Poissons Ratio (z) = 0.41901 0.39929
#
# Static dielectric constant tensor:
#      x y z
#    x 3.193320 0.000000 0.256210 
#    y 0.000000 3.421270 0.000000 
#    z 0.256210 0.000000 3.032030 
# 
# 
# High freq. dielectric constant tensor:
#      x y z
#    x 1.641280 0.000000 0.022690 
#    y 0.000000 1.664640 0.000000 
#    z 0.022690 0.000000 1.635860 
# 
# From -- ./inp_files/54336.got.cif
#   From: 2010.06.25/outbox.cif.g09.slc.cpg/sg11_28_cif.got.tgz:54336.got - 2010.06.27 23:14:04.
