data_PCOD8068596
_publ_section_title
;
Structure prediction by ZEFSAII (Michael W. Deem and Ramdas Pophale) SiO2 
 PCOD8068596
Probable space group: P 21/M
;
_chemical_formula_sum "Si O2"
_cell_formula_units_Z 32
_cell_length_a 11.697820
_cell_length_b 9.127697
_cell_length_c 22.717899
_cell_angle_alpha 90.000000
_cell_angle_beta 47.561934
_cell_angle_gamma 90.000000
_cell_volume 1790.172596
_symmetry_space_group_name_H-M "P 21/M"
_symmetry_group_IT_number 11
_symmetry_cell_setting 'monoclinic'
loop_
_space_group_symop_operation_xyz
x,y,z
-x,1/2+y,-z
-x,-y,-z
x,1/2-y,z
loop_
_atom_site_type_symbol
_atom_site_label
_atom_site_fract_x
_atom_site_fract_y
_atom_site_fract_z
Si Si1 0.144683 0.076271 0.281636
Si Si2 0.774292 0.079334 0.103545
Si Si3 0.400520 0.075678 0.397368
Si Si4 0.294062 0.576789 0.645168
Si Si5 0.434096 0.423993 0.252327
Si Si6 0.959182 0.420560 0.923968
Si Si7 0.183415 0.576747 0.558427
Si Si8 0.965770 0.923315 0.804977
O O1 0.148092 0.250000 0.282055
O O2 0.298583 0.009319 0.258143
O O3 0.134265 0.026740 0.217114
O O4 0.993657 0.025181 0.370552
O O5 0.787697 0.250000 0.115641
O O6 0.599206 0.021099 0.170654
O O7 0.827991 0.049395 0.018320
O O8 0.879121 0.992154 0.113123
O O9 0.390833 0.250000 0.404986
O O10 0.551862 0.012382 0.378392
O O11 0.408680 0.020953 0.327525
O O12 0.247894 0.006774 0.479259
O O13 0.297061 0.750000 0.646726
O O14 0.282797 0.527124 0.581099
O O15 0.143036 0.524733 0.733612
O O16 0.428008 0.250000 0.252390
O O17 0.987289 0.250000 0.904273
O O18 0.898392 0.493686 0.885069
O O19 0.194493 0.750000 0.544430
O O20 0.954221 0.750000 0.819100
#
# Coordination Sequence:
#
# PCOD8068596 Si02
#       8
#     4   4   4   4   4   4   4   4
#     4   8  16  31  50  69  89 121 164 200 225 264
#     4   9  18  33  52  71  95 128 157 184 225 279
#     4  10  18  27  44  68  90 115 152 195 234 274
#     4   8  15  28  45  65  89 120 156 189 224 274
#     4   9  17  31  50  69  90 121 163 200 226 265
#     4  10  19  30  48  76 103 121 146 189 237 280
#     4   9  17  30  46  64  90 120 151 191 235 275
#     4   9  16  30  52  71  90 123 163 193 224 273
#
# _framework density 17.875371999999999
#
# number of rings (size 3 to 8) (size 9 to 14) (size 15 to 20)
#    0.000    3.000    0.000    3.000    0.000    3.000 
#    0.000    5.625    0.000    2.250    0.000    0.000 
#    0.000    0.000    0.000    0.000    0.000    0.000 
#
# Total GULP energy -396721.056466 kJ/mol
# GULP energy per Si atom -12397.533015 kJ/mol
# Density = 1.783469 g / cm^3
# Si number density = 17.875372 Si / 1000 Ang^3
#
#
#
# Elastic Constant Matrix: (Units=GPa)
#
#
# Indices 1 2 3 4 5 6 
#
# 1 145.8117 30.7239 86.1548 0.0000 -1.7495 0.0000
# 2 30.7239 34.7419 37.0436 0.0000 3.8985 0.0000
# 3 86.1548 37.0436 135.9904 0.0000 9.3864 0.0000
# 4 0.0000 0.0000 0.0000 28.8628 0.0000 3.7981
# 5 -1.7495 3.8985 9.3864 0.0000 21.3837 0.0000
# 6 0.0000 0.0000 0.0000 3.7981 0.0000 13.5273
#
#
#
# Elastic Compliance Matrix: (Units=1/GPa)
#
#
# Indices 1 2 3 4 5 6 
#
# 1 0.011638 -0.003673 -0.006687 0.000000 0.004557 0.000000
# 2 -0.003673 0.041869 -0.008797 0.000000 -0.004072 0.000000
# 3 -0.006687 -0.008797 0.014348 0.000000 -0.005241 0.000000
# 4 0.000000 0.000000 0.000000 0.035976 0.000000 -0.010101
# 5 0.004557 -0.004072 -0.005241 0.000000 0.050181 0.000000
# 6 0.000000 0.000000 0.000000 -0.010101 0.000000 0.076761
#
#
# Mechanical properties :
#
#
# Convention : Reuss Voigt Hill
#
# Bulk Modulus (GPa) = 33.85188 69.37649 51.61418
# Shear Modulus (GPa) = 17.92550 23.59622 20.76086
#
# Velocity S-wave (km/s) = 3.17014 3.63718 3.41166
# Velocity P-wave (km/s) = 5.69022 7.51892 6.66756
#
# Compressibility (1/GPa) = 0.02954046
#
# Stress axis : x y z
#
# Youngs Moduli (GPa) = 85.92594 23.88421 69.69678
#
# Poissons Ratio (x) = 0.08773 0.46606
# Poissons Ratio (y) = 0.31564 0.61310
# Poissons Ratio (z) = 0.57458 0.21010
#
# Static dielectric constant tensor:
#      x y z
#    x 3.641190 0.000000 -0.008280 
#    y 0.000000 2.863440 0.000000 
#    z -0.008280 0.000000 3.350230 
# 
# 
# High freq. dielectric constant tensor:
#      x y z
#    x 1.688660 0.000000 0.006590 
#    y 0.000000 1.648170 0.000000 
#    z 0.006590 0.000000 1.697120 
# 
# From -- ./inp_files/64199.got.cif
#   From: 2010.06.25/outbox.cif.g09.slc.cpg/sg11_33_cif.got.tgz:64199.got - 2010.06.27 23:14:04.
