data_PCOD8068087
_publ_section_title
;
Structure prediction by ZEFSAII (Michael W. Deem and Ramdas Pophale) SiO2 
 PCOD8068087
Probable space group: P 2/M
;
_chemical_formula_sum "Si O2"
_cell_formula_units_Z 28
_cell_length_a 27.000000
_cell_length_b 9.000000
_cell_length_c 9.000000
_cell_angle_alpha 90.000000
_cell_angle_beta 40.000000
_cell_angle_gamma 90.000000
_cell_volume 1405.776502
_symmetry_space_group_name_H-M "P 2/M"
_symmetry_group_IT_number 10
_symmetry_cell_setting 'monoclinic'
loop_
_space_group_symop_operation_xyz
x,y,z
-x,y,-z
-x,-y,-z
x,-y,z
loop_
_atom_site_type_symbol
_atom_site_label
_atom_site_fract_x
_atom_site_fract_y
_atom_site_fract_z
Si Si1 0.591362 0.159564 0.297124
Si Si2 0.558758 0.828592 0.690649
Si Si3 0.841775 0.174002 0.202743
Si Si4 0.993969 0.173836 0.682103
Si Si5 0.690276 0.334873 0.536455
Si Si6 0.078791 0.666778 0.728760
Si Si7 0.595941 0.664533 0.017390
O O1 0.500000 0.148392 0.500000
O O2 0.609701 0.194709 0.425138
O O3 0.623200 0.288526 0.119368
O O4 0.627019 0.000000 0.167241
O O5 0.605824 0.726462 0.693163
O O6 0.470157 0.777180 0.888016
O O7 0.558156 0.000000 0.741903
O O8 0.761298 0.233306 0.322155
O O9 0.855611 0.246598 0.331771
O O10 0.836432 0.000000 0.235989
O O11 0.909728 0.220516 0.934533
O O12 0.000000 0.225914 0.500000
O O13 0.063418 0.255159 0.607116
O O14 0.007306 0.000000 0.672428
O O15 0.704110 0.500000 0.440839
O O16 0.677440 0.335407 0.743380
O O17 0.107741 0.500000 0.635984
O O18 0.000000 0.672282 0.000000
O O19 0.559288 0.500000 0.105048
#
# Coordination Sequence:
#
# PCOD8068087 Si02
#       7
#     4   4   4   4   4   4   4
#     4   8  16  31  50  72  96 123 161 209 255 303
#     4  10  20  34  53  76 101 133 175 218 261 310
#     4  10  20  35  55  77 103 138 176 210 253 307
#     4   9  18  34  57  84 110 135 168 210 252 300
#     4  11  23  36  50  73 106 138 172 217 263 306
#     4   9  17  31  53  79 106 135 166 201 243 295
#     4  10  20  33  51  75 101 133 174 217 262 311
#
# _framework density 19.917818
#
# number of rings (size 3 to 8) (size 9 to 14) (size 15 to 20)
#    0.000    2.429    0.000    3.429    0.000    9.714 
#    0.000    1.429    0.000    1.714    0.000    0.000 
#    0.000    0.000    0.000    0.000    0.000    0.000 
#
# Total GULP energy -346940.386787 kJ/mol
# GULP energy per Si atom -12390.728100 kJ/mol
# Density = 1.987248 g / cm^3
# Si number density = 19.917818 Si / 1000 Ang^3
#
#
#
# Elastic Constant Matrix: (Units=GPa)
#
#
# Indices 1 2 3 4 5 6 
#
# 1 50.1882 32.8980 34.0334 0.0000 9.5123 0.0000
# 2 32.8980 93.1259 42.1142 0.0000 4.8966 0.0000
# 3 34.0334 42.1142 60.8907 0.0000 5.7852 0.0000
# 4 0.0000 0.0000 0.0000 21.7779 0.0000 -1.8780
# 5 9.5123 4.8966 5.7852 0.0000 19.1532 0.0000
# 6 0.0000 0.0000 0.0000 -1.8780 0.0000 22.6801
#
#
#
# Elastic Compliance Matrix: (Units=1/GPa)
#
#
# Indices 1 2 3 4 5 6 
#
# 1 0.036017 -0.005101 -0.015472 0.000000 -0.011911 0.000000
# 2 -0.005101 0.016358 -0.008552 0.000000 0.000934 0.000000
# 3 -0.015472 -0.008552 0.030935 0.000000 0.000526 0.000000
# 4 0.000000 0.000000 0.000000 0.046248 0.000000 0.003829
# 5 -0.011911 0.000934 0.000526 0.000000 0.057728 0.000000
# 6 0.000000 0.000000 0.000000 0.003829 0.000000 0.044409
#
#
# Mechanical properties :
#
#
# Convention : Reuss Voigt Hill
#
# Bulk Modulus (GPa) = 39.90018 46.92177 43.41097
# Shear Modulus (GPa) = 16.76174 19.06620 17.91397
#
# Velocity S-wave (km/s) = 2.90409 3.09729 3.00224
# Velocity P-wave (km/s) = 5.59650 6.03322 5.81896
#
# Compressibility (1/GPa) = 0.02506254
#
# Stress axis : x y z
#
# Youngs Moduli (GPa) = 27.76428 61.13109 32.32572
#
# Poissons Ratio (x) = 0.31181 0.50013
# Poissons Ratio (y) = 0.14162 0.27644
# Poissons Ratio (z) = 0.42956 0.52278
#
# Static dielectric constant tensor:
#      x y z
#    x 3.709130 0.000000 0.427530 
#    y 0.000000 3.604590 0.000000 
#    z 0.427530 0.000000 3.541660 
# 
# 
# High freq. dielectric constant tensor:
#      x y z
#    x 1.751260 0.000000 0.014040 
#    y 0.000000 1.779110 0.000000 
#    z 0.014040 0.000000 1.747370 
# 
# From -- ./inp_files/37049.got.cif
#   From: 2010.06.25/outbox.ucp.g09.slc.cvg/sg10_19_cif.got.tgz:37049.got - 2010.06.28 13:37:52.
