data_PCOD8068138
_publ_section_title
;
Structure prediction by ZEFSAII (Michael W. Deem and Ramdas Pophale) SiO2 
 PCOD8068138
Probable space group: P 21/M
;
_chemical_formula_sum "Si O2"
_cell_formula_units_Z 28
_cell_length_a 22.413049
_cell_length_b 8.651331
_cell_length_c 10.355453
_cell_angle_alpha 90.000000
_cell_angle_beta 52.699377
_cell_angle_gamma 90.000000
_cell_volume 1597.258027
_symmetry_space_group_name_H-M "P 21/M"
_symmetry_group_IT_number 11
_symmetry_cell_setting 'monoclinic'
loop_
_space_group_symop_operation_xyz
x,y,z
-x,1/2+y,-z
-x,-y,-z
x,1/2-y,z
loop_
_atom_site_type_symbol
_atom_site_label
_atom_site_fract_x
_atom_site_fract_y
_atom_site_fract_z
Si Si1 0.503336 0.066750 0.351246
Si Si2 0.187046 0.069634 0.022456
Si Si3 0.200313 0.433505 0.713535
Si Si4 0.350070 0.068686 0.816162
Si Si5 0.050641 0.567511 0.820385
Si Si6 0.033910 0.431917 0.327160
Si Si7 0.646715 0.068009 0.470943
O O1 0.504818 0.250000 0.349154
O O2 0.500000 0.000000 0.500000
O O3 0.581507 0.000055 0.187062
O O4 0.430330 0.005340 0.368954
O O5 0.171789 0.250000 0.027439
O O6 0.118372 0.999360 0.195145
O O7 0.187088 0.003190 0.876585
O O8 0.267614 0.038999 0.987228
O O9 0.203150 0.250000 0.703513
O O10 0.133798 0.497032 0.712166
O O11 0.279525 0.499356 0.555578
O O12 0.362581 0.250000 0.772873
O O13 0.349596 0.977993 0.682898
O O14 0.053916 0.750000 0.833018
O O15 0.015916 0.518368 0.729276
O O16 0.000000 0.500000 0.000000
O O17 0.036121 0.250000 0.340466
O O18 0.000000 0.500000 0.500000
O O19 0.644054 0.250000 0.493107
#
# Coordination Sequence:
#
# PCOD8068138 Si02
#       7
#     4   4   4   4   4   4   4
#     4  10  16  23  34  52  82 119 155 192 235 284
#     4   8  15  29  46  64  91 123 156 199 246 289
#     4  10  18  31  48  68  94 124 160 202 248 292
#     4   9  15  24  39  57  81 118 157 195 240 287
#     4  11  21  34  53  75 100 128 166 209 251 298
#     4  10  21  37  52  72 100 132 166 207 252 298
#     4  10  17  25  37  58  87 119 156 194 236 288
#
# _framework density 17.530042000000002
#
# number of rings (size 3 to 8) (size 9 to 14) (size 15 to 20)
#    0.000    2.286    1.429    6.429    0.000    1.143 
#    0.000    1.429    0.000    0.000    0.000    0.000 
#    0.000    1.143    0.000    3.429    0.000    7.429 
#
# Total GULP energy -346942.941330 kJ/mol
# GULP energy per Si atom -12390.819333 kJ/mol
# Density = 1.749014 g / cm^3
# Si number density = 17.530042 Si / 1000 Ang^3
#
#
#
# Elastic Constant Matrix: (Units=GPa)
#
#
# Indices 1 2 3 4 5 6 
#
# 1 127.6507 52.7642 76.5492 0.0000 -48.5044 0.0000
# 2 52.7642 92.3961 38.2384 0.0000 -16.4077 0.0000
# 3 76.5492 38.2384 85.1943 0.0000 -28.9599 0.0000
# 4 0.0000 0.0000 0.0000 21.0157 0.0000 -8.8295
# 5 -48.5044 -16.4077 -28.9599 0.0000 41.1253 0.0000
# 6 0.0000 0.0000 0.0000 -8.8295 0.0000 28.4011
#
#
#
# Elastic Compliance Matrix: (Units=1/GPa)
#
#
# Indices 1 2 3 4 5 6 
#
# 1 0.025440 -0.005422 -0.014410 0.000000 0.017694 0.000000
# 2 -0.005422 0.014514 -0.002429 0.000000 -0.002315 0.000000
# 3 -0.014410 -0.002429 0.025859 0.000000 0.000245 0.000000
# 4 0.000000 0.000000 0.000000 0.054732 0.000000 0.017016
# 5 0.017694 -0.002315 0.000245 0.000000 0.044433 0.000000
# 6 0.000000 0.000000 0.000000 0.017016 0.000000 0.040500
#
#
# Mechanical properties :
#
#
# Convention : Reuss Voigt Hill
#
# Bulk Modulus (GPa) = 46.97101 71.14939 59.06020
# Shear Modulus (GPa) = 19.44791 27.28770 23.36781
#
# Velocity S-wave (km/s) = 3.33439 3.94969 3.65501
# Velocity P-wave (km/s) = 6.45577 7.84062 7.18165
#
# Compressibility (1/GPa) = 0.02128973
#
# Stress axis : x y z
#
# Youngs Moduli (GPa) = 39.30889 68.90102 38.67098
#
# Poissons Ratio (x) = 0.37358 0.55724
# Poissons Ratio (y) = 0.21313 0.09395
# Poissons Ratio (z) = 0.56644 0.16739
#
# Static dielectric constant tensor:
#      x y z
#    x 3.987200 0.000000 -0.786540 
#    y 0.000000 3.211220 0.000000 
#    z -0.786540 0.000000 3.566250 
# 
# 
# High freq. dielectric constant tensor:
#      x y z
#    x 1.670360 0.000000 -0.063880 
#    y 0.000000 1.680020 0.000000 
#    z -0.063880 0.000000 1.632070 
# 
# From -- ./inp_files/43648.got.cif
#   From: 2010.06.25/outbox.cif.g09.slc.cpg/sg11_22_cif.got.tgz:43648.got - 2010.06.27 23:14:04.
