data_PCOD8068451
_publ_section_title
;
Structure prediction by ZEFSAII (Michael W. Deem and Ramdas Pophale) SiO2 
 PCOD8068451
Probable space group: P 21/M
;
_chemical_formula_sum "Si O2"
_cell_formula_units_Z 32
_cell_length_a 27.792690
_cell_length_b 8.920494
_cell_length_c 11.871351
_cell_angle_alpha 90.000000
_cell_angle_beta 33.656658
_cell_angle_gamma 90.000000
_cell_volume 1631.164851
_symmetry_space_group_name_H-M "P 21/M"
_symmetry_group_IT_number 11
_symmetry_cell_setting 'monoclinic'
loop_
_space_group_symop_operation_xyz
x,y,z
-x,1/2+y,-z
-x,-y,-z
x,1/2-y,z
loop_
_atom_site_type_symbol
_atom_site_label
_atom_site_fract_x
_atom_site_fract_y
_atom_site_fract_z
Si Si1 0.734407 0.572650 0.158200
Si Si2 0.580157 0.427242 0.592029
Si Si3 0.151705 0.571720 0.695260
Si Si4 0.652882 0.427459 0.687035
Si Si5 0.593589 0.423887 0.042430
Si Si6 0.911483 0.425470 0.420261
Si Si7 0.102461 0.074440 0.014898
Si Si8 0.240014 0.924390 0.127894
O O1 0.725365 0.750000 0.183853
O O2 0.647907 0.497922 0.373990
O O3 0.817993 0.514088 0.065028
O O4 0.745735 0.525206 0.008135
O O5 0.585729 0.250000 0.568430
O O6 0.600184 0.481528 0.680341
O O7 0.484189 0.484201 0.747748
O O8 0.147252 0.750000 0.710873
O O9 0.249791 0.510093 0.512764
O O10 0.111459 0.507995 0.657875
O O11 0.098008 0.505706 0.903518
O O12 0.657397 0.250000 0.686552
O O13 0.607792 0.488488 0.888387
O O14 0.567419 0.250000 0.091489
O O15 0.680731 0.450121 0.941969
O O16 0.892972 0.250000 0.449057
O O17 0.847314 0.487376 0.641834
O O18 0.011560 0.462214 0.255697
O O19 0.111371 0.250000 0.975612
O O20 0.232138 0.750000 0.108734
#
# Coordination Sequence:
#
# PCOD8068451 Si02
#       8
#     4   4   4   4   4   4   4   4
#     4  11  24  40  56  78 113 151 187 235 283 321
#     4  11  22  37  59  86 114 146 185 226 271 335
#     4  10  17  32  59  86 114 148 183 222 270 332
#     4   9  17  32  57  86 114 143 179 221 270 330
#     4  10  20  37  60  86 114 144 180 227 282 332
#     4   9  18  35  60  86 113 147 185 225 276 333
#     4  10  21  36  55  84 118 149 183 227 278 328
#     4  10  21  39  62  82 105 146 194 233 272 329
#
# _framework density 19.617882000000002
#
# number of rings (size 3 to 8) (size 9 to 14) (size 15 to 20)
#    0.000    2.000    2.500    1.500    0.000    2.000 
#    0.000    2.500    0.000    0.000    0.000    0.000 
#    0.000    0.000    0.000    0.000    0.000    0.000 
#
# Total GULP energy -396836.351046 kJ/mol
# GULP energy per Si atom -12401.135970 kJ/mol
# Density = 1.957323 g / cm^3
# Si number density = 19.617882 Si / 1000 Ang^3
#
#
#
# Elastic Constant Matrix: (Units=GPa)
#
#
# Indices 1 2 3 4 5 6 
#
# 1 46.0726 20.2262 51.5526 0.0000 12.6456 0.0000
# 2 20.2262 42.6369 40.2200 0.0000 2.6988 0.0000
# 3 51.5526 40.2200 168.1235 0.0000 -0.4082 0.0000
# 4 0.0000 0.0000 0.0000 23.6830 0.0000 4.7370
# 5 12.6456 2.6988 -0.4082 0.0000 37.4047 0.0000
# 6 0.0000 0.0000 0.0000 4.7370 0.0000 22.0608
#
#
#
# Elastic Compliance Matrix: (Units=1/GPa)
#
#
# Indices 1 2 3 4 5 6 
#
# 1 0.040922 -0.008655 -0.010510 0.000000 -0.013325 0.000000
# 2 -0.008655 0.032313 -0.005075 0.000000 0.000539 0.000000
# 3 -0.010510 -0.005075 0.010395 0.000000 0.004033 0.000000
# 4 0.000000 0.000000 0.000000 0.044119 0.000000 -0.009473
# 5 -0.013325 0.000539 0.004033 0.000000 0.031245 0.000000
# 6 0.000000 0.000000 0.000000 -0.009473 0.000000 0.047363
#
#
# Mechanical properties :
#
#
# Convention : Reuss Voigt Hill
#
# Bulk Modulus (GPa) = 28.44993 53.42563 40.93778
# Shear Modulus (GPa) = 18.75804 26.28531 22.52168
#
# Velocity S-wave (km/s) = 3.09556 3.66439 3.39192
# Velocity P-wave (km/s) = 5.22591 6.72279 6.02105
#
# Compressibility (1/GPa) = 0.03514948
#
# Stress axis : x y z
#
# Youngs Moduli (GPa) = 24.43689 30.94755 96.20409
#
# Poissons Ratio (x) = 0.26785 1.01109
# Poissons Ratio (y) = 0.21150 0.48823
# Poissons Ratio (z) = 0.25683 0.15706
#
# Static dielectric constant tensor:
#      x y z
#    x 3.607040 0.000000 -0.059870 
#    y 0.000000 3.220570 0.000000 
#    z -0.059870 0.000000 3.726480 
# 
# 
# High freq. dielectric constant tensor:
#      x y z
#    x 1.763660 0.000000 -0.006620 
#    y 0.000000 1.732080 0.000000 
#    z -0.006620 0.000000 1.780680 
# 
# From -- ./inp_files/42892.got.cif
#   From: 2010.06.25/outbox.cif.g09.slc.cpg/sg11_22_cif.got.tgz:42892.got - 2010.06.27 23:14:04.
