data_PCOD8068307
_publ_section_title
;
Structure prediction by ZEFSAII (Michael W. Deem and Ramdas Pophale) SiO2 
 PCOD8068307
Probable space group: P 21/M
;
_chemical_formula_sum "Si O2"
_cell_formula_units_Z 32
_cell_length_a 21.918495
_cell_length_b 8.830624
_cell_length_c 26.786159
_cell_angle_alpha 90.000000
_cell_angle_beta 20.175503
_cell_angle_gamma 90.000000
_cell_volume 1788.141456
_symmetry_space_group_name_H-M "P 21/M"
_symmetry_group_IT_number 11
_symmetry_cell_setting 'monoclinic'
loop_
_space_group_symop_operation_xyz
x,y,z
-x,1/2+y,-z
-x,-y,-z
x,1/2-y,z
loop_
_atom_site_type_symbol
_atom_site_label
_atom_site_fract_x
_atom_site_fract_y
_atom_site_fract_z
Si Si1 0.459950 0.070479 0.149350
Si Si2 0.082614 0.927331 0.090468
Si Si3 0.172043 0.572846 0.179902
Si Si4 0.493250 0.069999 0.327048
Si Si5 0.115544 0.574046 0.953567
Si Si6 0.140193 0.428698 0.646677
Si Si7 0.666992 0.427911 0.845088
Si Si8 0.544906 0.570742 0.183507
O O1 0.444808 0.250000 0.164662
O O2 0.308096 0.008559 0.227824
O O3 0.429469 0.996818 0.226829
O O4 0.649166 0.011133 0.983280
O O5 0.130191 0.750000 0.059095
O O6 0.034778 0.967191 0.069993
O O7 0.917333 0.972763 0.252731
O O8 0.252448 0.019030 0.978251
O O9 0.171202 0.750000 0.169917
O O10 0.170148 0.540861 0.241311
O O11 0.999506 0.500364 0.285871
O O12 0.493933 0.250000 0.318665
O O13 0.337935 0.011810 0.483312
O O14 0.460624 0.993557 0.298817
O O15 0.681337 0.016515 0.205292
O O16 0.107994 0.750000 0.949225
O O17 0.000000 0.500000 0.000000
O O18 0.142759 0.250000 0.638328
O O19 0.637730 0.250000 0.859851
O O20 0.500000 0.500000 0.000000
O O21 0.533711 0.750000 0.192048
#
# Coordination Sequence:
#
# PCOD8068307 Si02
#       8
#     4   4   4   4   4   4   4   4
#     4  10  17  28  46  67  94 127 169 213 251 292
#     4   9  17  32  54  77  99 126 167 205 240 291
#     4   8  14  24  44  70  94 123 156 199 250 294
#     4   9  19  34  53  75  98 128 167 202 242 296
#     4   9  18  32  51  75 101 133 166 200 236 282
#     4   9  15  29  54  77  97 125 163 208 248 291
#     4   9  16  25  38  64  98 128 162 202 252 305
#     4  11  20  30  47  72 101 131 163 206 256 296
#
# _framework density 17.895676000000002
#
# number of rings (size 3 to 8) (size 9 to 14) (size 15 to 20)
#    0.000    2.750    1.250    3.375    0.000    2.000 
#    0.000    1.250    0.000    0.750    0.000    0.000 
#    0.000    0.000    0.000    0.000    0.000    0.000 
#
# Total GULP energy -396546.259204 kJ/mol
# GULP energy per Si atom -12392.070600 kJ/mol
# Density = 1.785495 g / cm^3
# Si number density = 17.895676 Si / 1000 Ang^3
#
#
#
# Elastic Constant Matrix: (Units=GPa)
#
#
# Indices 1 2 3 4 5 6 
#
# 1 149.5696 34.3986 58.1193 0.0000 -1.1818 0.0000
# 2 34.3986 56.7266 17.4346 0.0000 2.8475 0.0000
# 3 58.1193 17.4346 100.2768 0.0000 12.9149 0.0000
# 4 0.0000 0.0000 0.0000 11.1817 0.0000 -2.6188
# 5 -1.1818 2.8475 12.9149 0.0000 22.2997 0.0000
# 6 0.0000 0.0000 0.0000 -2.6188 0.0000 30.6268
#
#
#
# Elastic Compliance Matrix: (Units=1/GPa)
#
#
# Indices 1 2 3 4 5 6 
#
# 1 0.009899 -0.004527 -0.005503 0.000000 0.004290 0.000000
# 2 -0.004527 0.020700 -0.000653 0.000000 -0.002505 0.000000
# 3 -0.005503 -0.000653 0.014374 0.000000 -0.008533 0.000000
# 4 0.000000 0.000000 0.000000 0.091260 0.000000 0.007803
# 5 0.004290 -0.002505 -0.008533 0.000000 0.050333 0.000000
# 6 0.000000 0.000000 0.000000 0.007803 0.000000 0.033318
#
#
# Mechanical properties :
#
#
# Convention : Reuss Voigt Hill
#
# Bulk Modulus (GPa) = 42.35745 58.49756 50.42750
# Shear Modulus (GPa) = 20.07079 25.92966 23.00022
#
# Velocity S-wave (km/s) = 3.35258 3.81062 3.58891
# Velocity P-wave (km/s) = 6.22148 7.21943 6.73895
#
# Compressibility (1/GPa) = 0.02360860
#
# Stress axis : x y z
#
# Youngs Moduli (GPa) = 101.01920 48.30970 69.56887
#
# Poissons Ratio (x) = 0.21869 0.38283
# Poissons Ratio (y) = 0.45729 0.04540
# Poissons Ratio (z) = 0.55589 0.03153
#
# Static dielectric constant tensor:
#      x y z
#    x 3.651470 0.000000 -0.026140 
#    y 0.000000 3.103080 0.000000 
#    z -0.026140 0.000000 3.326830 
# 
# 
# High freq. dielectric constant tensor:
#      x y z
#    x 1.703560 0.000000 0.004150 
#    y 0.000000 1.669120 0.000000 
#    z 0.004150 0.000000 1.653430 
# 
# From -- ./inp_files/72081.got.cif
#   From: 2010.06.25/outbox.cif.g09.slc.cpg/sg11_37_cif.got.tgz:72081.got - 2010.06.27 23:14:04.
