data_PCOD8068590
_publ_section_title
;
Structure prediction by ZEFSAII (Michael W. Deem and Ramdas Pophale) SiO2 
 PCOD8068590
Probable space group: P 21/M
;
_chemical_formula_sum "Si O2"
_cell_formula_units_Z 24
_cell_length_a 26.349813
_cell_length_b 9.038333
_cell_length_c 11.554866
_cell_angle_alpha 90.000000
_cell_angle_beta 29.601027
_cell_angle_gamma 90.000000
_cell_volume 1359.315692
_symmetry_space_group_name_H-M "P 21/M"
_symmetry_group_IT_number 11
_symmetry_cell_setting 'monoclinic'
loop_
_space_group_symop_operation_xyz
x,y,z
-x,1/2+y,-z
-x,-y,-z
x,1/2-y,z
loop_
_atom_site_type_symbol
_atom_site_label
_atom_site_fract_x
_atom_site_fract_y
_atom_site_fract_z
Si Si1 0.743208 0.087586 0.174666
Si Si2 0.109390 0.075047 0.277039
Si Si3 0.407996 0.587781 0.733738
Si Si4 0.738207 0.923750 0.821870
Si Si5 0.374506 0.922169 0.134729
Si Si6 0.586785 0.422937 0.678944
O O1 0.787145 0.250000 0.124994
O O2 0.675767 0.112011 0.196682
O O3 0.673520 0.019343 0.416216
O O4 0.834746 0.978992 0.952020
O O5 0.098379 0.250000 0.290072
O O6 0.167447 0.030084 0.281814
O O7 0.000000 0.000000 0.500000
O O8 0.500000 0.500000 0.500000
O O9 0.440845 0.750000 0.716628
O O10 0.367340 0.483077 0.914957
O O11 0.735277 0.750000 0.810198
O O12 0.729826 0.002953 0.712695
O O13 0.373489 0.750000 0.106821
O O14 0.367244 0.952149 0.285500
O O15 0.480440 0.989846 0.873589
O O16 0.564123 0.250000 0.701889
#
# Coordination Sequence:
#
# PCOD8068590 Si02
#       6
#     4   4   4   4   4   4
#     4   9  18  32  49  69  96 128 160 197 242 291
#     4  10  21  36  55  76  96 121 156 202 255 304
#     4  10  18  27  43  68  97 128 159 194 238 289
#     4  10  20  33  48  68  96 129 163 200 243 291
#     4  10  19  30  48  74 103 137 173 205 237 280
#     4   9  18  32  49  72 104 139 170 201 240 285
#
# _framework density 17.655942
#
# number of rings (size 3 to 8) (size 9 to 14) (size 15 to 20)
#    0.000    2.333    0.000    3.000    0.000    5.333 
#    0.000    0.000    0.000    1.000    0.000    0.000 
#    0.000    0.000    0.000    0.000    0.000    0.000 
#
# Total GULP energy -297364.985206 kJ/mol
# GULP energy per Si atom -12390.207717 kJ/mol
# Density = 1.761576 g / cm^3
# Si number density = 17.655942 Si / 1000 Ang^3
#
#
#
# Elastic Constant Matrix: (Units=GPa)
#
#
# Indices 1 2 3 4 5 6 
#
# 1 89.6257 49.4371 33.8518 0.0000 2.6384 0.0000
# 2 49.4371 87.0778 47.5934 0.0000 -9.9891 0.0000
# 3 33.8518 47.5934 84.7670 0.0000 2.3037 0.0000
# 4 0.0000 0.0000 0.0000 26.3454 0.0000 -0.4563
# 5 2.6384 -9.9891 2.3037 0.0000 22.4802 0.0000
# 6 0.0000 0.0000 0.0000 -0.4563 0.0000 29.1670
#
#
#
# Elastic Compliance Matrix: (Units=1/GPa)
#
#
# Indices 1 2 3 4 5 6 
#
# 1 0.017223 -0.009858 -0.001172 0.000000 -0.006281 0.000000
# 2 -0.009858 0.023931 -0.009848 0.000000 0.012800 0.000000
# 3 -0.001172 -0.009848 0.017960 0.000000 -0.006079 0.000000
# 4 0.000000 0.000000 0.000000 0.037968 0.000000 0.000594
# 5 -0.006281 0.012800 -0.006079 0.000000 0.051531 0.000000
# 6 0.000000 0.000000 0.000000 0.000594 0.000000 0.034295
#
#
# Mechanical properties :
#
#
# Convention : Reuss Voigt Hill
#
# Bulk Modulus (GPa) = 57.61079 58.13724 57.87402
# Shear Modulus (GPa) = 21.69681 24.30441 23.00061
#
# Velocity S-wave (km/s) = 3.50932 3.71422 3.61323
# Velocity P-wave (km/s) = 7.00864 7.16891 7.08923
#
# Compressibility (1/GPa) = 0.01735786
#
# Stress axis : x y z
#
# Youngs Moduli (GPa) = 58.06286 41.78639 55.68064
#
# Poissons Ratio (x) = 0.41192 0.06528
# Poissons Ratio (y) = 0.57236 0.54832
# Poissons Ratio (z) = 0.06808 0.41150
#
# Static dielectric constant tensor:
#      x y z
#    x 3.299920 0.000000 0.213110 
#    y 0.000000 3.385340 0.000000 
#    z 0.213110 0.000000 3.059720 
# 
# 
# High freq. dielectric constant tensor:
#      x y z
#    x 1.681830 0.000000 0.012920 
#    y 0.000000 1.694380 0.000000 
#    z 0.012920 0.000000 1.651510 
# 
# From -- ./inp_files/33784.got.cif
#   From: 2010.06.25/outbox.cif.g09.slc.cpg/sg11_17_cif.got.tgz:33784.got - 2010.06.27 23:14:04.
