data_PCOD8068689
_publ_section_title
;
Structure prediction by ZEFSAII (Michael W. Deem and Ramdas Pophale) SiO2 
 PCOD8068689
Probable space group: P 21/M
;
_chemical_formula_sum "Si O2"
_cell_formula_units_Z 32
_cell_length_a 14.876203
_cell_length_b 9.049917
_cell_length_c 20.714604
_cell_angle_alpha 90.000000
_cell_angle_beta 137.801629
_cell_angle_gamma 90.000000
_cell_volume 1873.218206
_symmetry_space_group_name_H-M "P 21/M"
_symmetry_group_IT_number 11
_symmetry_cell_setting 'monoclinic'
loop_
_space_group_symop_operation_xyz
x,y,z
-x,1/2+y,-z
-x,-y,-z
x,1/2-y,z
loop_
_atom_site_type_symbol
_atom_site_label
_atom_site_fract_x
_atom_site_fract_y
_atom_site_fract_z
Si Si1 0.324109 0.576140 0.457055
Si Si2 0.375676 0.076563 0.219704
Si Si3 0.051699 0.080209 0.330554
Si Si4 0.376127 0.424938 0.612339
Si Si5 0.923830 0.581582 0.515472
Si Si6 0.023518 0.585977 0.842704
Si Si7 0.706208 0.916526 0.683382
Si Si8 0.106395 0.076616 0.009524
O O1 0.346456 0.750000 0.471026
O O2 0.407683 0.501967 0.559887
O O3 0.369213 0.513452 0.411092
O O4 0.169328 0.536625 0.384239
O O5 0.406119 0.250000 0.232220
O O6 0.325541 0.023172 0.262854
O O7 0.258242 0.032076 0.107751
O O8 0.512412 0.986001 0.277861
O O9 0.107790 0.250000 0.354510
O O10 0.940892 0.054102 0.214598
O O11 0.996119 0.058311 0.373832
O O12 0.386070 0.250000 0.609992
O O13 0.229494 0.473847 0.559192
O O14 0.922604 0.750000 0.493809
O O15 0.000000 0.500000 0.500000
O O16 0.071970 0.750000 0.888944
O O17 0.864660 0.575483 0.760355
O O18 0.088656 0.468485 0.925443
O O19 0.653210 0.750000 0.646937
O O20 0.083862 0.250000 0.005843
O O21 0.000000 0.000000 0.000000
#
# Coordination Sequence:
#
# PCOD8068689 Si02
#       8
#     4   4   4   4   4   4   4   4
#     4  10  18  28  45  68  92 123 164 202 237 281
#     4  10  21  35  48  65  92 128 168 208 246 284
#     4   8  16  31  48  69 101 132 158 193 240 289
#     4  10  21  36  50  68  96 128 159 195 241 292
#     4   9  18  33  54  79 103 127 153 187 235 294
#     4   9  16  30  49  68  94 130 166 206 248 283
#     4   9  17  31  46  62  91 129 165 203 245 284
#     4  11  21  33  48  69  96 128 170 215 253 287
#
# _framework density 17.082899999999999
#
# number of rings (size 3 to 8) (size 9 to 14) (size 15 to 20)
#    0.000    2.500    1.250    3.375    0.000    6.500 
#    0.000    0.000    0.000    0.000    0.000    0.875 
#    0.000    0.000    0.000    0.000    0.000    0.000 
#
# Total GULP energy -396551.081324 kJ/mol
# GULP energy per Si atom -12392.221291 kJ/mol
# Density = 1.704402 g / cm^3
# Si number density = 17.082900 Si / 1000 Ang^3
#
#
#
# Elastic Constant Matrix: (Units=GPa)
#
#
# Indices 1 2 3 4 5 6 
#
# 1 62.9919 23.7459 44.9963 0.0000 -16.6036 0.0000
# 2 23.7459 73.4118 52.6321 0.0000 -3.4110 0.0000
# 3 44.9963 52.6321 122.7239 0.0000 -13.4748 0.0000
# 4 0.0000 0.0000 0.0000 28.7755 0.0000 -4.7807
# 5 -16.6036 -3.4110 -13.4748 0.0000 18.5165 0.0000
# 6 0.0000 0.0000 0.0000 -4.7807 0.0000 24.2356
#
#
#
# Elastic Compliance Matrix: (Units=1/GPa)
#
#
# Indices 1 2 3 4 5 6 
#
# 1 0.026469 -0.003181 -0.006303 0.000000 0.018562 0.000000
# 2 -0.003181 0.020180 -0.008035 0.000000 -0.004982 0.000000
# 3 -0.006303 -0.008035 0.014262 0.000000 0.003247 0.000000
# 4 0.000000 0.000000 0.000000 0.035929 0.000000 0.007087
# 5 0.018562 -0.004982 0.003247 0.000000 0.072095 0.000000
# 6 0.000000 0.000000 0.000000 0.007087 0.000000 0.042660
#
#
# Mechanical properties :
#
#
# Convention : Reuss Voigt Hill
#
# Bulk Modulus (GPa) = 38.64970 55.76401 47.20685
# Shear Modulus (GPa) = 19.58821 23.48908 21.53864
#
# Velocity S-wave (km/s) = 3.38990 3.71213 3.55467
# Velocity P-wave (km/s) = 6.16408 7.14753 6.67395
#
# Compressibility (1/GPa) = 0.02587342
#
# Stress axis : x y z
#
# Youngs Moduli (GPa) = 37.78058 49.55403 70.11744
#
# Poissons Ratio (x) = 0.15761 0.44192
# Poissons Ratio (y) = 0.12016 0.56342
# Poissons Ratio (z) = 0.23812 0.39819
#
# Static dielectric constant tensor:
#      x y z
#    x 3.003560 0.000000 -0.269140 
#    y 0.000000 3.147770 0.000000 
#    z -0.269140 0.000000 3.414370 
# 
# 
# High freq. dielectric constant tensor:
#      x y z
#    x 1.616880 0.000000 -0.018150 
#    y 0.000000 1.658930 0.000000 
#    z -0.018150 0.000000 1.658110 
# 
# From -- ./inp_files/51189.got.cif
#   From: 2010.06.25/outbox.cif.g09.slc.cpg/sg11_26_cif.got.tgz:51189.got - 2010.06.27 23:14:04.
