data_PCOD8068546
_publ_section_title
;
Structure prediction by ZEFSAII (Michael W. Deem and Ramdas Pophale) SiO2 
 PCOD8068546
Probable space group: P 21/M
;
_chemical_formula_sum "Si O2"
_cell_formula_units_Z 32
_cell_length_a 15.985891
_cell_length_b 9.186160
_cell_length_c 30.278490
_cell_angle_alpha 90.000000
_cell_angle_beta 150.319723
_cell_angle_gamma 90.000000
_cell_volume 2201.660215
_symmetry_space_group_name_H-M "P 21/M"
_symmetry_group_IT_number 11
_symmetry_cell_setting 'monoclinic'
loop_
_space_group_symop_operation_xyz
x,y,z
-x,1/2+y,-z
-x,-y,-z
x,1/2-y,z
loop_
_atom_site_type_symbol
_atom_site_label
_atom_site_fract_x
_atom_site_fract_y
_atom_site_fract_z
Si Si1 0.779540 0.578633 0.489281
Si Si2 0.698867 0.415796 0.183910
Si Si3 0.885273 0.081955 0.179018
Si Si4 0.741489 0.582391 0.627734
Si Si5 0.169127 0.084705 0.582028
Si Si6 0.606153 0.917452 0.012318
Si Si7 0.137401 0.420496 0.663017
Si Si8 0.601611 0.080618 0.482641
O O1 0.790716 0.750000 0.505087
O O2 0.718852 0.549311 0.410268
O O3 0.636840 0.504272 0.453605
O O4 0.961043 0.507044 0.582741
O O5 0.739416 0.250000 0.216409
O O6 0.811865 0.459131 0.193427
O O7 0.741105 0.523371 0.242949
O O8 0.498090 0.433062 0.081261
O O9 0.850605 0.250000 0.152917
O O10 0.083056 0.043593 0.268027
O O11 0.792666 0.989740 0.097685
O O12 0.739255 0.750000 0.610652
O O13 0.593534 0.552212 0.594919
O O14 0.722204 0.480987 0.576264
O O15 0.112876 0.250000 0.553369
O O16 0.241664 0.052481 0.664504
O O17 0.000000 0.000000 0.500000
O O18 0.623588 0.750000 0.033882
O O19 0.500000 0.000000 0.000000
O O20 0.099081 0.250000 0.652566
O O21 0.642024 0.250000 0.495088
#
# Coordination Sequence:
#
# PCOD8068546 Si02
#       8
#     4   4   4   4   4   4   4   4
#     4  10  18  29  43  56  78 111 138 163 202 242
#     4   9  17  27  39  58  83 108 131 157 195 240
#     4   9  17  29  43  57  77 106 136 163 195 235
#     4   9  18  31  44  59  82 109 134 166 206 238
#     4   8  16  28  40  56  77 102 132 165 199 235
#     4   9  17  28  41  57  78 103 132 164 194 230
#     4  10  18  27  41  61  81 102 135 172 198 231
#     4  10  19  29  42  61  82 105 138 173 198 229
#
# _framework density 14.534485999999999
#
# number of rings (size 3 to 8) (size 9 to 14) (size 15 to 20)
#    0.000    2.750    0.000    3.000    0.000    5.500 
#    0.000    0.000    0.000    0.000    0.000    0.000 
#    0.000    1.000    0.000    2.250    0.000    4.000 
#
# Total GULP energy -396496.744231 kJ/mol
# GULP energy per Si atom -12390.523257 kJ/mol
# Density = 1.450140 g / cm^3
# Si number density = 14.534486 Si / 1000 Ang^3
#
#
#
# Elastic Constant Matrix: (Units=GPa)
#
#
# Indices 1 2 3 4 5 6 
#
# 1 83.0908 44.7583 37.4725 0.0000 -5.8857 0.0000
# 2 44.7583 80.5336 41.3761 0.0000 -4.2926 0.0000
# 3 37.4725 41.3761 86.1197 0.0000 0.4534 0.0000
# 4 0.0000 0.0000 0.0000 25.0607 0.0000 -1.2529
# 5 -5.8857 -4.2926 0.4534 0.0000 15.0895 0.0000
# 6 0.0000 0.0000 0.0000 -1.2529 0.0000 20.2361
#
#
#
# Elastic Compliance Matrix: (Units=1/GPa)
#
#
# Indices 1 2 3 4 5 6 
#
# 1 0.018571 -0.007808 -0.004356 0.000000 0.005153 0.000000
# 2 -0.007808 0.020145 -0.006296 0.000000 0.002874 0.000000
# 3 -0.004356 -0.006296 0.016553 0.000000 -0.003988 0.000000
# 4 0.000000 0.000000 0.000000 0.040027 0.000000 0.002478
# 5 0.005153 0.002874 -0.003988 0.000000 0.069219 0.000000
# 6 0.000000 0.000000 0.000000 0.002478 0.000000 0.049570
#
#
# Mechanical properties :
#
#
# Convention : Reuss Voigt Hill
#
# Bulk Modulus (GPa) = 54.50336 55.21756 54.86046
# Shear Modulus (GPa) = 19.44608 20.48641 19.96624
#
# Velocity S-wave (km/s) = 3.66174 3.75841 3.71039
# Velocity P-wave (km/s) = 7.44705 7.54370 7.49553
#
# Compressibility (1/GPa) = 0.01834749
#
# Stress axis : x y z
#
# Youngs Moduli (GPa) = 53.84835 49.64059 60.41148
#
# Poissons Ratio (x) = 0.38761 0.26316
# Poissons Ratio (y) = 0.42047 0.38036
# Poissons Ratio (z) = 0.23457 0.31254
#
# Static dielectric constant tensor:
#      x y z
#    x 3.032610 0.000000 -0.169260 
#    y 0.000000 3.002150 0.000000 
#    z -0.169260 0.000000 3.018870 
# 
# 
# High freq. dielectric constant tensor:
#      x y z
#    x 1.530710 0.000000 -0.010210 
#    y 0.000000 1.571880 0.000000 
#    z -0.010210 0.000000 1.533810 
# 
# From -- ./inp_files/60680.got.cif
#   From: 2010.06.25/outbox.cif.g09.slc.cpg/sg11_31_cif.got.tgz:60680.got - 2010.06.27 23:14:04.
