data_PCOD8068049
_publ_section_title
;
Structure prediction by ZEFSAII (Michael W. Deem and Ramdas Pophale) SiO2 
 PCOD8068049
Probable space group: P 2/M
;
_chemical_formula_sum "Si O2"
_cell_formula_units_Z 24
_cell_length_a 19.600613
_cell_length_b 8.017187
_cell_length_c 25.968701
_cell_angle_alpha 90.000000
_cell_angle_beta 18.388251
_cell_angle_gamma 90.000000
_cell_volume 1287.296412
_symmetry_space_group_name_H-M "P 2/M"
_symmetry_group_IT_number 10
_symmetry_cell_setting 'monoclinic'
loop_
_space_group_symop_operation_xyz
x,y,z
-x,y,-z
-x,-y,-z
x,-y,z
loop_
_atom_site_type_symbol
_atom_site_label
_atom_site_fract_x
_atom_site_fract_y
_atom_site_fract_z
Si Si1 0.217132 0.500000 0.416407
Si Si2 0.337352 0.194415 0.507140
Si Si3 0.254409 0.692897 0.672484
Si Si4 0.684001 0.180892 0.827015
Si Si5 0.178325 0.192835 0.833253
Si Si6 0.159547 0.191350 0.523763
Si Si7 0.280450 0.500000 0.259023
O O1 0.277368 0.330139 0.403898
O O2 0.352039 0.500000 0.267182
O O3 0.971474 0.500000 0.573320
O O4 0.188706 0.266344 0.660508
O O5 0.581517 0.272648 0.329852
O O6 0.213084 0.237478 0.543947
O O7 0.358475 0.000000 0.501361
O O8 0.500000 0.758826 0.500000
O O9 0.232389 0.500000 0.699771
O O10 0.115214 0.781359 0.817806
O O11 0.620355 0.329512 0.834350
O O12 0.905163 0.215524 0.698884
O O13 0.700313 0.000000 0.786323
O O14 0.500000 0.170087 0.000000
O O15 0.188644 0.000000 0.839778
O O16 0.000000 0.274866 0.000000
O O17 0.233092 0.000000 0.457661
#
# Coordination Sequence:
#
# PCOD8068049 Si02
#       7
#     2   4   4   4   4   4   2
#     4   9  18  30  48  72  96 124 158 195 235 281
#     4   9  17  30  49  69  91 121 158 197 234 278
#     4   9  17  28  45  70  93 118 155 195 232 276
#     4   9  17  30  50  73  96 124 160 197 235 279
#     4   9  17  30  49  69  91 122 157 193 236 282
#     4   9  18  31  49  72  95 124 159 195 236 282
#     4   9  17  30  48  72  97 123 157 197 236 278
#
# _framework density 18.643723999999999
#
# number of rings (size 3 to 8) (size 9 to 14) (size 15 to 20)
#    0.000    3.000    0.000    0.750    1.167    3.000 
#    0.000    3.333    3.667    0.000    0.000    0.000 
#    0.000    0.000    0.000    0.000    0.000    0.000 
#
# Total GULP energy -297319.710284 kJ/mol
# GULP energy per Si atom -12388.321262 kJ/mol
# Density = 1.860129 g / cm^3
# Si number density = 18.643724 Si / 1000 Ang^3
#
#
#
# Elastic Constant Matrix: (Units=GPa)
#
#
# Indices 1 2 3 4 5 6 
#
# 1 126.9060 59.7941 38.9068 0.0000 32.0702 0.0000
# 2 59.7941 98.6491 26.3676 0.0000 14.0930 0.0000
# 3 38.9068 26.3676 64.7859 0.0000 24.8204 0.0000
# 4 0.0000 0.0000 0.0000 16.0633 0.0000 6.7238
# 5 32.0702 14.0930 24.8204 0.0000 26.4709 0.0000
# 6 0.0000 0.0000 0.0000 6.7238 0.0000 28.8311
#
#
#
# Elastic Compliance Matrix: (Units=1/GPa)
#
#
# Indices 1 2 3 4 5 6 
#
# 1 0.014739 -0.006765 -0.000994 0.000000 -0.013323 0.000000
# 2 -0.006765 0.014602 -0.003187 0.000000 0.003409 0.000000
# 3 -0.000994 -0.003187 0.025310 0.000000 -0.020831 0.000000
# 4 0.000000 0.000000 0.000000 0.068988 0.000000 -0.016089
# 5 -0.013323 0.003409 -0.020831 0.000000 0.071635 0.000000
# 6 0.000000 0.000000 0.000000 -0.016089 0.000000 0.038437
#
#
# Mechanical properties :
#
#
# Convention : Reuss Voigt Hill
#
# Bulk Modulus (GPa) = 30.52482 60.05312 45.28897
# Shear Modulus (GPa) = 18.76025 25.29122 22.02574
#
# Velocity S-wave (km/s) = 3.17559 3.68714 3.44088
# Velocity P-wave (km/s) = 5.46389 7.09982 6.33488
#
# Compressibility (1/GPa) = 0.03276023
#
# Stress axis : x y z
#
# Youngs Moduli (GPa) = 67.84920 68.48466 39.51006
#
# Poissons Ratio (x) = 0.46327 0.03927
# Poissons Ratio (y) = 0.45897 0.12591
# Poissons Ratio (z) = 0.06743 0.21824
#
# Static dielectric constant tensor:
#      x y z
#    x 3.522850 0.000000 0.226860 
#    y 0.000000 3.713280 0.000000 
#    z 0.226860 0.000000 3.261580 
# 
# 
# High freq. dielectric constant tensor:
#      x y z
#    x 1.715810 0.000000 0.022430 
#    y 0.000000 1.731100 0.000000 
#    z 0.022430 0.000000 1.682450 
# 
# From -- ./inp_files/27368.got.cif
#   From: 2010.06.25/outbox.cif.g09.slc.cpg/sg10_14_cif.got.tgz:27368.got - 2010.06.27 22:07:45.
