data_PCOD8068212
_publ_section_title
;
Structure prediction by ZEFSAII (Michael W. Deem and Ramdas Pophale) SiO2 
 PCOD8068212
Probable space group: P 21/M
;
_chemical_formula_sum "Si O2"
_cell_formula_units_Z 24
_cell_length_a 12.203045
_cell_length_b 8.928434
_cell_length_c 21.734272
_cell_angle_alpha 90.000000
_cell_angle_beta 37.996462
_cell_angle_gamma 90.000000
_cell_volume 1457.794324
_symmetry_space_group_name_H-M "P 21/M"
_symmetry_group_IT_number 11
_symmetry_cell_setting 'monoclinic'
loop_
_space_group_symop_operation_xyz
x,y,z
-x,1/2+y,-z
-x,-y,-z
x,1/2-y,z
loop_
_atom_site_type_symbol
_atom_site_label
_atom_site_fract_x
_atom_site_fract_y
_atom_site_fract_z
Si Si1 0.725693 0.923765 0.849104
Si Si2 0.329548 0.924378 0.997661
Si Si3 0.571072 0.922361 0.528107
Si Si4 0.066825 0.425826 0.674219
Si Si5 0.790507 0.075679 0.266634
Si Si6 0.044572 0.073889 0.044423
O O1 0.752628 0.750000 0.852189
O O2 0.540547 0.952459 0.895883
O O3 0.886611 0.985820 0.735656
O O4 0.735205 0.011842 0.908845
O O5 0.281981 0.750000 0.016320
O O6 0.231353 0.009216 0.986027
O O7 0.575271 0.750000 0.509421
O O8 0.779349 0.969532 0.444855
O O9 0.424902 0.954225 0.646510
O O10 0.500000 0.000000 0.500000
O O11 0.025332 0.250000 0.692834
O O12 0.129922 0.475498 0.714163
O O13 0.825719 0.250000 0.267085
O O14 0.885257 0.031066 0.161421
O O15 0.064209 0.250000 0.027125
O O16 0.000000 0.000000 0.000000
#
# Coordination Sequence:
#
# PCOD8068212 Si02
#       6
#     4   4   4   4   4   4
#     4  10  19  30  46  68  96 127 153 186 235 284
#     4  10  20  33  48  67  92 122 159 197 232 275
#     4   8  15  26  40  62  90 119 151 185 226 274
#     4  10  17  25  43  69  95 123 152 186 227 276
#     4   9  17  30  45  62  90 124 156 191 231 275
#     4  11  22  34  50  69  93 126 161 196 234 275
#
# _framework density 16.463227
#
# number of rings (size 3 to 8) (size 9 to 14) (size 15 to 20)
#    0.000    2.333    1.667    2.000    0.000    3.333 
#    0.000    0.000    0.000    0.000    0.000    1.167 
#    0.000    0.000    0.000    0.000    0.000    0.000 
#
# Total GULP energy -297354.986286 kJ/mol
# GULP energy per Si atom -12389.791095 kJ/mol
# Density = 1.642576 g / cm^3
# Si number density = 16.463227 Si / 1000 Ang^3
#
#
#
# Elastic Constant Matrix: (Units=GPa)
#
#
# Indices 1 2 3 4 5 6 
#
# 1 83.2305 39.1703 51.1718 0.0000 -13.4480 0.0000
# 2 39.1703 71.2281 42.5438 0.0000 -11.9750 0.0000
# 3 51.1718 42.5438 119.2174 0.0000 -33.2547 0.0000
# 4 0.0000 0.0000 0.0000 22.7524 0.0000 -5.5565
# 5 -13.4480 -11.9750 -33.2547 0.0000 27.3157 0.0000
# 6 0.0000 0.0000 0.0000 -5.5565 0.0000 24.7078
#
#
#
# Elastic Compliance Matrix: (Units=1/GPa)
#
#
# Indices 1 2 3 4 5 6 
#
# 1 0.018718 -0.006985 -0.005793 0.000000 -0.000899 0.000000
# 2 -0.006985 0.020449 -0.004176 0.000000 0.000442 0.000000
# 3 -0.005793 -0.004176 0.016745 0.000000 0.015703 0.000000
# 4 0.000000 0.000000 0.000000 0.046506 0.000000 0.010459
# 5 -0.000899 0.000442 0.015703 0.000000 0.055477 0.000000
# 6 0.000000 0.000000 0.000000 0.010459 0.000000 0.042825
#
#
# Mechanical properties :
#
#
# Convention : Reuss Voigt Hill
#
# Bulk Modulus (GPa) = 45.44359 59.93865 52.69112
# Shear Modulus (GPa) = 20.66434 24.34118 22.50276
#
# Velocity S-wave (km/s) = 3.54670 3.84932 3.70110
# Velocity P-wave (km/s) = 6.66597 7.49953 7.09500
#
# Compressibility (1/GPa) = 0.02200530
#
# Stress axis : x y z
#
# Youngs Moduli (GPa) = 53.42375 48.90156 59.71987
#
# Poissons Ratio (x) = 0.34158 0.34593
# Poissons Ratio (y) = 0.37316 0.24939
# Poissons Ratio (z) = 0.30946 0.20421
#
# Static dielectric constant tensor:
#      x y z
#    x 2.817090 0.000000 -0.538610 
#    y 0.000000 3.235560 0.000000 
#    z -0.538610 0.000000 3.754410 
# 
# 
# High freq. dielectric constant tensor:
#      x y z
#    x 1.581300 0.000000 -0.043090 
#    y 0.000000 1.648930 0.000000 
#    z -0.043090 0.000000 1.641330 
# 
# From -- ./inp_files/36981.got.cif
#   From: 2010.06.25/outbox.cif.g09.slc.cpg/sg11_19_cif.got.tgz:36981.got - 2010.06.27 23:14:04.
