data_PCOD8068885
_publ_section_title
;
Structure prediction by ZEFSAII (Michael W. Deem and Ramdas Pophale) SiO2 
 PCOD8068885
Probable space group: P 21/M
;
_chemical_formula_sum "Si O2"
_cell_formula_units_Z 32
_cell_length_a 17.660953
_cell_length_b 8.838363
_cell_length_c 23.758299
_cell_angle_alpha 90.000000
_cell_angle_beta 149.236496
_cell_angle_gamma 90.000000
_cell_volume 1896.894757
_symmetry_space_group_name_H-M "P 21/M"
_symmetry_group_IT_number 11
_symmetry_cell_setting 'monoclinic'
loop_
_space_group_symop_operation_xyz
x,y,z
-x,1/2+y,-z
-x,-y,-z
x,1/2-y,z
loop_
_atom_site_type_symbol
_atom_site_label
_atom_site_fract_x
_atom_site_fract_y
_atom_site_fract_z
Si Si1 0.775134 0.075093 0.589505
Si Si2 0.937156 0.926071 0.015929
Si Si3 0.347199 0.928348 0.680996
Si Si4 0.370028 0.928701 0.183944
Si Si5 0.559474 0.926106 0.652916
Si Si6 0.882518 0.573135 0.551457
Si Si7 0.111870 0.924341 0.612768
Si Si8 0.799044 0.424544 0.732422
O O1 0.803793 0.250000 0.594721
O O2 0.603869 0.032856 0.472108
O O3 0.824595 0.032121 0.683882
O O4 0.876500 0.977648 0.612187
O O5 0.913209 0.750000 0.988611
O O6 0.783026 0.000854 0.935202
O O7 0.048443 0.955521 0.138140
O O8 0.000000 0.000000 0.000000
O O9 0.374757 0.750000 0.691227
O O10 0.277998 0.971200 0.698900
O O11 0.502282 0.014135 0.776296
O O12 0.238855 0.980760 0.561620
O O13 0.358315 0.750000 0.173715
O O14 0.402336 0.976608 0.268220
O O15 0.576080 0.750000 0.678414
O O16 0.670626 0.969218 0.674192
O O17 0.844564 0.750000 0.521602
O O18 0.052351 0.539468 0.637890
O O19 0.097373 0.750000 0.590554
O O20 0.000000 0.000000 0.500000
O O21 0.748882 0.250000 0.706385
#
# Coordination Sequence:
#
# PCOD8068885 Si02
#       8
#     4   4   4   4   4   4   4   4
#     4  10  21  35  50  73 104 138 171 205 246 299
#     4  11  22  37  56  75  98 130 169 215 260 301
#     4  10  18  31  49  71 101 134 168 207 250 297
#     4  12  23  34  51  75 103 134 170 210 252 301
#     4  11  21  33  52  74 101 134 169 205 250 301
#     4  10  18  29  47  73 103 136 168 200 244 298
#     4   8  16  28  44  68  99 132 165 200 242 295
#     4  10  22  38  54  72  98 132 173 214 253 296
#
# _framework density 16.869675999999998
#
# number of rings (size 3 to 8) (size 9 to 14) (size 15 to 20)
#    0.000    1.750    2.500    3.000    0.000    2.500 
#    0.000    0.000    0.000    0.000    0.000    0.875 
#    0.000    0.000    0.000    0.000    0.000    0.000 
#
# Total GULP energy -396680.727425 kJ/mol
# GULP energy per Si atom -12396.272732 kJ/mol
# Density = 1.683128 g / cm^3
# Si number density = 16.869676 Si / 1000 Ang^3
#
#
#
# Elastic Constant Matrix: (Units=GPa)
#
#
# Indices 1 2 3 4 5 6 
#
# 1 145.2947 55.7514 64.0922 0.0000 19.9710 0.0000
# 2 55.7514 82.5357 36.5310 0.0000 5.7563 0.0000
# 3 64.0922 36.5310 73.3394 0.0000 0.3495 0.0000
# 4 0.0000 0.0000 0.0000 18.8461 0.0000 1.8808
# 5 19.9710 5.7563 0.3495 0.0000 21.6090 0.0000
# 6 0.0000 0.0000 0.0000 1.8808 0.0000 27.5940
#
#
#
# Elastic Compliance Matrix: (Units=1/GPa)
#
#
# Indices 1 2 3 4 5 6 
#
# 1 0.015198 -0.004530 -0.010965 0.000000 -0.012662 0.000000
# 2 -0.004530 0.017249 -0.004632 0.000000 -0.000334 0.000000
# 3 -0.010965 -0.004632 0.025473 0.000000 0.010956 0.000000
# 4 0.000000 0.000000 0.000000 0.053425 0.000000 -0.003641
# 5 -0.012662 -0.000334 0.010956 0.000000 0.057891 0.000000
# 6 0.000000 0.000000 0.000000 -0.003641 0.000000 0.036488
#
#
# Mechanical properties :
#
#
# Convention : Reuss Voigt Hill
#
# Bulk Modulus (GPa) = 56.60391 68.21321 62.40856
# Shear Modulus (GPa) = 19.85189 23.26284 21.55736
#
# Velocity S-wave (km/s) = 3.43414 3.71748 3.57862
# Velocity P-wave (km/s) = 7.02502 7.67785 7.35868
#
# Compressibility (1/GPa) = 0.01766663
#
# Stress axis : x y z
#
# Youngs Moduli (GPa) = 65.79832 57.97446 39.25767
#
# Poissons Ratio (x) = 0.26260 0.43047
# Poissons Ratio (y) = 0.29804 0.18183
# Poissons Ratio (z) = 0.72149 0.26853
#
# Static dielectric constant tensor:
#      x y z
#    x 3.709640 0.000000 0.279850 
#    y 0.000000 3.263600 0.000000 
#    z 0.279850 0.000000 3.110900 
# 
# 
# High freq. dielectric constant tensor:
#      x y z
#    x 1.659620 0.000000 0.017400 
#    y 0.000000 1.663490 0.000000 
#    z 0.017400 0.000000 1.612870 
# 
# From -- ./inp_files/43791.got.cif
#   From: 2010.06.25/outbox.cif.g09.slc.cpg/sg11_22_cif.got.tgz:43791.got - 2010.06.27 23:14:04.
