data_PCOD8068433
_publ_section_title
;
Structure prediction by ZEFSAII (Michael W. Deem and Ramdas Pophale) SiO2 
 PCOD8068433
Probable space group: P 21/M
;
_chemical_formula_sum "Si O2"
_cell_formula_units_Z 24
_cell_length_a 18.581003
_cell_length_b 13.779122
_cell_length_c 10.034111
_cell_angle_alpha 90.000000
_cell_angle_beta 29.531224
_cell_angle_gamma 90.000000
_cell_volume 1266.270465
_symmetry_space_group_name_H-M "P 21/M"
_symmetry_group_IT_number 11
_symmetry_cell_setting 'monoclinic'
loop_
_space_group_symop_operation_xyz
x,y,z
-x,1/2+y,-z
-x,-y,-z
x,1/2-y,z
loop_
_atom_site_type_symbol
_atom_site_label
_atom_site_fract_x
_atom_site_fract_y
_atom_site_fract_z
Si Si1 0.285993 0.250000 0.240828
Si Si2 0.917956 0.949159 0.821125
Si Si3 0.446078 0.933365 0.792160
Si Si4 0.410491 0.250000 0.332125
Si Si5 0.192759 0.452651 0.299750
Si Si6 0.228742 0.250000 0.884988
Si Si7 0.329942 0.570444 0.702104
Si Si8 0.498696 0.750000 0.340993
O O1 0.330819 0.250000 0.320831
O O2 0.189064 0.345177 0.367831
O O3 0.430188 0.250000 0.918028
O O4 0.865434 0.949541 0.754836
O O5 0.878374 0.841854 0.933582
O O6 0.090226 0.974616 0.551717
O O7 0.837446 0.033606 0.038793
O O8 0.489465 0.844940 0.816599
O O9 0.345528 0.898774 0.831916
O O10 0.582519 0.977643 0.492942
O O11 0.359353 0.008331 0.027398
O O12 0.289422 0.250000 0.639923
O O13 0.368239 0.250000 0.763889
O O14 0.386480 0.660591 0.526180
#
# Coordination Sequence:
#
# PCOD8068433 Si02
#       8
#     2   4   4   2   4   2   4   2
#     4  12  24  39  55  85 123 159 187 238 299 346
#     4  10  20  34  62  90 114 147 190 245 295 342
#     4  10  18  34  57  87 111 146 194 240 278 335
#     4  12  24  35  59  87 119 157 199 232 285 350
#     4  10  21  37  57  87 121 148 187 242 298 344
#     4  12  18  37  61  83 111 155 196 237 291 338
#     4  10  17  31  61  90 108 138 196 244 281 330
#     4  12  18  35  61  87 117 153 190 249 285 334
#
# _framework density 18.953296999999999
#
# number of rings (size 3 to 8) (size 9 to 14) (size 15 to 20)
#    0.000    1.333    6.667    1.000    0.000    2.000 
#    0.000    5.833    0.000    2.000    0.000    0.000 
#    0.000    0.000    0.000    0.000    0.000    0.000 
#
# Total GULP energy -297326.571810 kJ/mol
# GULP energy per Si atom -12388.607159 kJ/mol
# Density = 1.891016 g / cm^3
# Si number density = 18.953297 Si / 1000 Ang^3
#
#
#
# Elastic Constant Matrix: (Units=GPa)
#
#
# Indices 1 2 3 4 5 6 
#
# 1 33.9716 26.4324 36.6170 0.0000 6.4810 0.0000
# 2 26.4324 124.8451 47.0895 0.0000 -2.5115 0.0000
# 3 36.6170 47.0895 113.6662 0.0000 1.4333 0.0000
# 4 0.0000 0.0000 0.0000 38.3915 0.0000 -0.4432
# 5 6.4810 -2.5115 1.4333 0.0000 16.9459 0.0000
# 6 0.0000 0.0000 0.0000 -0.4432 0.0000 10.1236
#
#
#
# Elastic Compliance Matrix: (Units=1/GPa)
#
#
# Indices 1 2 3 4 5 6 
#
# 1 0.053834 -0.006355 -0.014454 0.000000 -0.020308 0.000000
# 2 -0.006355 0.010295 -0.002270 0.000000 0.004148 0.000000
# 3 -0.014454 -0.002270 0.014344 0.000000 0.003978 0.000000
# 4 0.000000 0.000000 0.000000 0.026061 0.000000 0.001141
# 5 -0.020308 0.004148 0.003978 0.000000 0.067057 0.000000
# 6 0.000000 0.000000 0.000000 0.001141 0.000000 0.098829
#
#
# Mechanical properties :
#
#
# Convention : Reuss Voigt Hill
#
# Bulk Modulus (GPa) = 30.94406 54.75118 42.84762
# Shear Modulus (GPa) = 15.27419 23.91514 19.59467
#
# Velocity S-wave (km/s) = 2.84189 3.55603 3.21883
# Velocity P-wave (km/s) = 5.20868 6.76835 6.03908
#
# Compressibility (1/GPa) = 0.03231638
#
# Stress axis : x y z
#
# Youngs Moduli (GPa) = 18.57546 97.13371 69.71451
#
# Poissons Ratio (x) = 0.61726 1.00764
# Poissons Ratio (y) = 0.11804 0.15827
# Poissons Ratio (z) = 0.26849 0.22051
#
# Static dielectric constant tensor:
#      x y z
#    x 2.942420 0.000000 -0.039240 
#    y 0.000000 3.930330 0.000000 
#    z -0.039240 0.000000 3.958370 
# 
# 
# High freq. dielectric constant tensor:
#      x y z
#    x 1.669240 0.000000 0.007910 
#    y 0.000000 1.750200 0.000000 
#    z 0.007910 0.000000 1.749820 
# 
# From -- ./inp_files/22372.got.cif
#   From: 2010.06.25/outbox.cif.g09.slc.cpg/sg11_12_cif.got.tgz:22372.got - 2010.06.27 23:14:04.
