data_PCOD8068458
_publ_section_title
;
Structure prediction by ZEFSAII (Michael W. Deem and Ramdas Pophale) SiO2 
 PCOD8068458
Probable space group: P 21/M
;
_chemical_formula_sum "Si O2"
_cell_formula_units_Z 28
_cell_length_a 7.035574
_cell_length_b 20.887582
_cell_length_c 11.490864
_cell_angle_alpha 90.000000
_cell_angle_beta 58.044587
_cell_angle_gamma 90.000000
_cell_volume 1432.754798
_symmetry_space_group_name_H-M "P 21/M"
_symmetry_group_IT_number 11
_symmetry_cell_setting 'monoclinic'
loop_
_space_group_symop_operation_xyz
x,y,z
-x,1/2+y,-z
-x,-y,-z
x,1/2-y,z
loop_
_atom_site_type_symbol
_atom_site_label
_atom_site_fract_x
_atom_site_fract_y
_atom_site_fract_z
Si Si1 0.862514 0.003331 0.423096
Si Si2 0.047814 0.679218 0.238541
Si Si3 0.270845 0.595791 0.346021
Si Si4 0.445090 0.922266 0.632643
Si Si5 0.076944 0.549849 0.138935
Si Si6 0.524988 0.820788 0.448397
Si Si7 0.356670 0.492316 0.859717
O O1 0.908104 0.044677 0.531408
O O2 0.786826 0.055777 0.352455
O O3 0.658099 0.955776 0.504872
O O4 0.063694 0.966384 0.284495
O O5 0.143341 0.750000 0.176355
O O6 0.149357 0.656114 0.328380
O O7 0.119175 0.626700 0.117964
O O8 0.783667 0.683230 0.334867
O O9 0.417307 0.625372 0.401678
O O10 0.443174 0.559224 0.202461
O O11 0.481178 0.846512 0.595272
O O12 0.435620 0.941353 0.771686
O O13 0.846993 0.536839 0.147658
O O14 0.279652 0.510071 0.015409
O O15 0.417587 0.750000 0.471092
#
# Coordination Sequence:
#
# PCOD8068458 Si02
#       7
#     4   4   4   4   4   4   4
#     4   8  14  27  50  72 101 124 159 208 251 289
#     4  11  22  33  51  77 103 132 172 208 242 306
#     4  10  19  34  52  78  99 131 168 210 257 298
#     4   8  13  28  47  74  98 127 162 205 246 292
#     4  10  17  33  52  80 104 132 169 209 255 304
#     4  10  18  32  52  73 101 135 168 209 251 297
#     4   9  18  31  55  76 105 132 165 215 258 299
#
# _framework density 19.542770999999998
#
# number of rings (size 3 to 8) (size 9 to 14) (size 15 to 20)
#    0.000    2.571    2.857    2.143    0.000    1.143 
#    0.000    0.714    0.000    0.000    0.000    2.000 
#    0.000    0.000    0.000    0.000    0.000    0.000 
#
# Total GULP energy -346949.265177 kJ/mol
# GULP energy per Si atom -12391.045185 kJ/mol
# Density = 1.949829 g / cm^3
# Si number density = 19.542771 Si / 1000 Ang^3
#
#
#
# Elastic Constant Matrix: (Units=GPa)
#
#
# Indices 1 2 3 4 5 6 
#
# 1 55.4196 31.3296 22.8512 0.0000 -4.6890 0.0000
# 2 31.3296 137.8706 50.1110 0.0000 -2.6338 0.0000
# 3 22.8512 50.1110 107.2708 0.0000 6.8875 0.0000
# 4 0.0000 0.0000 0.0000 25.1210 0.0000 -0.5056
# 5 -4.6890 -2.6338 6.8875 0.0000 24.0607 0.0000
# 6 0.0000 0.0000 0.0000 -0.5056 0.0000 16.5639
#
#
#
# Elastic Compliance Matrix: (Units=1/GPa)
#
#
# Indices 1 2 3 4 5 6 
#
# 1 0.021877 -0.003703 -0.003238 0.000000 0.004785 0.000000
# 2 -0.003703 0.009475 -0.003726 0.000000 0.001382 0.000000
# 3 -0.003238 -0.003726 0.012041 0.000000 -0.004486 0.000000
# 4 0.000000 0.000000 0.000000 0.039832 0.000000 0.001216
# 5 0.004785 0.001382 -0.004486 0.000000 0.043929 0.000000
# 6 0.000000 0.000000 0.000000 0.001216 0.000000 0.060409
#
#
# Mechanical properties :
#
#
# Convention : Reuss Voigt Hill
#
# Bulk Modulus (GPa) = 45.33266 56.57163 50.95215
# Shear Modulus (GPa) = 23.12122 26.23374 24.67748
#
# Velocity S-wave (km/s) = 3.44337 3.66782 3.55736
# Velocity P-wave (km/s) = 6.24948 6.85183 6.55758
#
# Compressibility (1/GPa) = 0.02205915
#
# Stress axis : x y z
#
# Youngs Moduli (GPa) = 45.70907 105.53566 83.05208
#
# Poissons Ratio (x) = 0.39082 0.26890
# Poissons Ratio (y) = 0.16927 0.30948
# Poissons Ratio (z) = 0.14799 0.39326
#
# Static dielectric constant tensor:
#      x y z
#    x 3.691230 0.000000 0.089780 
#    y 0.000000 4.024400 0.000000 
#    z 0.089780 0.000000 3.574350 
# 
# 
# High freq. dielectric constant tensor:
#      x y z
#    x 1.786540 0.000000 0.006430 
#    y 0.000000 1.750670 0.000000 
#    z 0.006430 0.000000 1.734990 
# 
# From -- ./inp_files/25274.got.cif
#   From: 2010.06.25/outbox.cif.g09.slc.cpg/sg11_13_cif.got.tgz:25274.got - 2010.06.27 23:14:04.
