data_PCOD8068549
_publ_section_title
;
Structure prediction by ZEFSAII (Michael W. Deem and Ramdas Pophale) SiO2 
 PCOD8068549
Probable space group: P 21/M
;
_chemical_formula_sum "Si O2"
_cell_formula_units_Z 32
_cell_length_a 20.206389
_cell_length_b 9.026137
_cell_length_c 12.084660
_cell_angle_alpha 90.000000
_cell_angle_beta 115.442213
_cell_angle_gamma 90.000000
_cell_volume 1990.315696
_symmetry_space_group_name_H-M "P 21/M"
_symmetry_group_IT_number 11
_symmetry_cell_setting 'monoclinic'
loop_
_space_group_symop_operation_xyz
x,y,z
-x,1/2+y,-z
-x,-y,-z
x,1/2-y,z
loop_
_atom_site_type_symbol
_atom_site_label
_atom_site_fract_x
_atom_site_fract_y
_atom_site_fract_z
Si Si1 0.484351 0.423599 0.373418
Si Si2 0.115210 0.077013 0.587301
Si Si3 0.986854 0.421365 0.327881
Si Si4 0.956810 0.575838 0.870945
Si Si5 0.615676 0.582421 0.390612
Si Si6 0.329594 0.085464 0.319731
Si Si7 0.193531 0.921653 0.281474
Si Si8 0.243268 0.923454 0.564803
O O1 0.500000 0.500000 0.500000
O O2 0.503007 0.250000 0.395283
O O3 0.537118 0.499279 0.319540
O O4 0.397482 0.448220 0.284472
O O5 0.131757 0.250000 0.608485
O O6 0.060164 0.039085 0.447862
O O7 0.080680 0.019689 0.677382
O O8 0.190749 0.991910 0.620062
O O9 0.966444 0.250000 0.329650
O O10 0.000390 0.462983 0.210763
O O11 0.952974 0.750000 0.887965
O O12 0.874898 0.515091 0.808719
O O13 0.000000 0.500000 0.000000
O O14 0.608238 0.750000 0.341613
O O15 0.638290 0.577620 0.534265
O O16 0.677284 0.498062 0.363674
O O17 0.298229 0.250000 0.274820
O O18 0.263946 0.968358 0.258096
O O19 0.177376 0.750000 0.250241
O O20 0.209229 0.958986 0.420375
O O21 0.251684 0.750000 0.590570
#
# Coordination Sequence:
#
# PCOD8068549 Si02
#       8
#     4   4   4   4   4   4   4   4
#     4   9  15  23  34  50  73 104 140 175 212 253
#     4  10  18  29  47  67  88 113 144 182 222 264
#     4   9  19  33  47  65  87 113 142 179 224 266
#     4  11  22  36  51  66  88 115 146 184 226 270
#     4   9  16  24  35  52  77 108 142 177 213 254
#     4   8  15  25  37  52  74 105 138 176 216 253
#     4  10  19  29  43  62  82 108 145 183 219 262
#     4  10  18  27  41  61  86 114 145 181 218 261
#
# _framework density 16.077850999999999
#
# number of rings (size 3 to 8) (size 9 to 14) (size 15 to 20)
#    0.000    2.500    1.250    3.000    0.000    6.000 
#    0.000    0.000    0.000    0.000    0.000    0.000 
#    0.000    0.000    0.000    1.125    0.000   15.125 
#
# Total GULP energy -396707.165146 kJ/mol
# GULP energy per Si atom -12397.098911 kJ/mol
# Density = 1.604126 g / cm^3
# Si number density = 16.077851 Si / 1000 Ang^3
#
#
#
# Elastic Constant Matrix: (Units=GPa)
#
#
# Indices 1 2 3 4 5 6 
#
# 1 150.2956 75.2883 28.7542 0.0000 6.6067 0.0000
# 2 75.2883 104.5381 27.3049 0.0000 4.8656 0.0000
# 3 28.7542 27.3049 35.8314 0.0000 -3.4501 0.0000
# 4 0.0000 0.0000 0.0000 15.6121 0.0000 3.1098
# 5 6.6067 4.8656 -3.4501 0.0000 10.1716 0.0000
# 6 0.0000 0.0000 0.0000 3.1098 0.0000 36.3269
#
#
#
# Elastic Compliance Matrix: (Units=1/GPa)
#
#
# Indices 1 2 3 4 5 6 
#
# 1 0.011002 -0.006520 -0.004392 0.000000 -0.005517 0.000000
# 2 -0.006520 0.016681 -0.008104 0.000000 -0.006493 0.000000
# 3 -0.004392 -0.008104 0.039548 0.000000 0.020144 0.000000
# 4 0.000000 0.000000 0.000000 0.065164 0.000000 -0.005578
# 5 -0.005517 -0.006493 0.020144 0.000000 0.111835 0.000000
# 6 0.000000 0.000000 0.000000 -0.005578 0.000000 0.028005
#
#
# Mechanical properties :
#
#
# Convention : Reuss Voigt Hill
#
# Bulk Modulus (GPa) = 34.24799 61.48442 47.86620
# Shear Modulus (GPa) = 15.62493 23.04330 19.33412
#
# Velocity S-wave (km/s) = 3.12080 3.78991 3.47152
# Velocity P-wave (km/s) = 5.85948 7.58129 6.77530
#
# Compressibility (1/GPa) = 0.02919879
#
# Stress axis : x y z
#
# Youngs Moduli (GPa) = 90.88891 59.94989 25.28552
#
# Poissons Ratio (x) = 0.39087 0.11106
# Poissons Ratio (y) = 0.59259 0.20492
# Poissons Ratio (z) = 0.39919 0.48585
#
# Static dielectric constant tensor:
#      x y z
#    x 6.128210 0.000000 -2.664820 
#    y 0.000000 3.195330 0.000000 
#    z -2.664820 0.000000 5.520700 
# 
# 
# High freq. dielectric constant tensor:
#      x y z
#    x 1.638030 0.000000 0.010220 
#    y 0.000000 1.635700 0.000000 
#    z 0.010220 0.000000 1.531120 
# 
# From -- ./inp_files/42469.got.cif
#   From: 2010.06.25/outbox.cif.g09.slc.cpg/sg11_22_cif.got.tgz:42469.got - 2010.06.27 23:14:04.
