data_PCOD8068567
_publ_section_title
;
Structure prediction by ZEFSAII (Michael W. Deem and Ramdas Pophale) SiO2 
 PCOD8068567
Probable space group: P 21/M
;
_chemical_formula_sum "Si O2"
_cell_formula_units_Z 28
_cell_length_a 14.438668
_cell_length_b 9.241222
_cell_length_c 13.575952
_cell_angle_alpha 90.000000
_cell_angle_beta 75.849117
_cell_angle_gamma 90.000000
_cell_volume 1756.483992
_symmetry_space_group_name_H-M "P 21/M"
_symmetry_group_IT_number 11
_symmetry_cell_setting 'monoclinic'
loop_
_space_group_symop_operation_xyz
x,y,z
-x,1/2+y,-z
-x,-y,-z
x,1/2-y,z
loop_
_atom_site_type_symbol
_atom_site_label
_atom_site_fract_x
_atom_site_fract_y
_atom_site_fract_z
Si Si1 0.193411 0.582142 0.744521
Si Si2 0.963579 0.577883 0.106115
Si Si3 0.885236 0.914138 0.413455
Si Si4 0.920540 0.086811 0.732094
Si Si5 0.608137 0.084096 0.379749
Si Si6 0.396767 0.419398 0.419198
Si Si7 0.214721 0.416237 0.357588
O O1 0.164753 0.750000 0.765728
O O2 0.141136 0.485287 0.840483
O O3 0.165547 0.530818 0.642632
O O4 0.308465 0.560711 0.722938
O O5 0.955939 0.750000 0.093416
O O6 0.036103 0.535281 0.174856
O O7 0.000000 0.500000 0.000000
O O8 0.856156 0.750000 0.388890
O O9 0.855408 0.945056 0.532503
O O10 0.999244 0.931192 0.373250
O O11 0.885327 0.250000 0.750915
O O12 0.826880 0.996640 0.727122
O O13 0.606127 0.250000 0.415963
O O14 0.505321 0.042989 0.358362
O O15 0.628620 0.988823 0.469874
O O16 0.379866 0.250000 0.438518
O O17 0.321318 0.474505 0.356507
O O18 0.218511 0.250000 0.326970
#
# Coordination Sequence:
#
# PCOD8068567 Si02
#       7
#     4   4   4   4   4   4   4
#     4  10  18  28  46  70  94 122 155 190 228 273
#     4  10  21  37  54  72  92 115 145 186 235 281
#     4   9  17  29  41  60  90 125 159 190 223 262
#     4   9  19  31  44  63  90 118 148 185 225 273
#     4   9  17  28  42  64  91 123 161 194 227 264
#     4   9  17  28  42  61  91 127 161 196 226 258
#     4  10  18  27  42  63  90 126 161 189 223 263
#
# _framework density 15.940937
#
# number of rings (size 3 to 8) (size 9 to 14) (size 15 to 20)
#    0.000    2.571    1.429    2.143    0.000    4.571 
#    0.000    0.000    0.000    0.000    0.000    1.000 
#    0.000    0.000    0.000    0.000    0.000    0.000 
#
# Total GULP energy -347048.638466 kJ/mol
# GULP energy per Si atom -12394.594231 kJ/mol
# Density = 1.590465 g / cm^3
# Si number density = 15.940937 Si / 1000 Ang^3
#
#
#
# Elastic Constant Matrix: (Units=GPa)
#
#
# Indices 1 2 3 4 5 6 
#
# 1 122.2171 47.8424 50.7585 0.0000 0.4609 0.0000
# 2 47.8424 64.6221 36.5962 0.0000 -0.9077 0.0000
# 3 50.7585 36.5962 63.6605 0.0000 -2.9708 0.0000
# 4 0.0000 0.0000 0.0000 23.8742 0.0000 2.7309
# 5 0.4609 -0.9077 -2.9708 0.0000 15.5284 0.0000
# 6 0.0000 0.0000 0.0000 2.7309 0.0000 23.7049
#
#
#
# Elastic Compliance Matrix: (Units=1/GPa)
#
#
# Indices 1 2 3 4 5 6 
#
# 1 0.013633 -0.005797 -0.007640 0.000000 -0.002205 0.000000
# 2 -0.005797 0.025431 -0.010009 0.000000 -0.000256 0.000000
# 3 -0.007640 -0.010009 0.027785 0.000000 0.004957 0.000000
# 4 0.000000 0.000000 0.000000 0.042446 0.000000 -0.004890
# 5 -0.002205 -0.000256 0.004957 0.000000 0.065397 0.000000
# 6 0.000000 0.000000 0.000000 -0.004890 0.000000 0.042749
#
#
# Mechanical properties :
#
#
# Convention : Reuss Voigt Hill
#
# Bulk Modulus (GPa) = 50.10961 57.87710 53.99336
# Shear Modulus (GPa) = 18.45115 20.30836 19.37975
#
# Velocity S-wave (km/s) = 3.40585 3.57315 3.49050
# Velocity P-wave (km/s) = 6.85341 7.30816 7.08444
#
# Compressibility (1/GPa) = 0.01995625
#
# Stress axis : x y z
#
# Youngs Moduli (GPa) = 73.35185 39.32179 35.99019
#
# Poissons Ratio (x) = 0.22796 0.27497
# Poissons Ratio (y) = 0.42524 0.36023
# Poissons Ratio (z) = 0.56042 0.39358
#
# Static dielectric constant tensor:
#      x y z
#    x 3.241080 0.000000 -0.106830 
#    y 0.000000 3.077800 0.000000 
#    z -0.106830 0.000000 2.670580 
# 
# 
# High freq. dielectric constant tensor:
#      x y z
#    x 1.615440 0.000000 -0.006490 
#    y 0.000000 1.619580 0.000000 
#    z -0.006490 0.000000 1.563720 
# 
# From -- ./inp_files/50994.got.cif
#   From: 2010.06.25/outbox.cif.g09.slc.cpg/sg11_26_cif.got.tgz:50994.got - 2010.06.27 23:14:04.
