data_PCOD8068800
_publ_section_title
;
Structure prediction by ZEFSAII (Michael W. Deem and Ramdas Pophale) SiO2 
 PCOD8068800
Probable space group: P 21/M
;
_chemical_formula_sum "Si O2"
_cell_formula_units_Z 32
_cell_length_a 21.466344
_cell_length_b 9.180228
_cell_length_c 20.482729
_cell_angle_alpha 90.000000
_cell_angle_beta 152.056344
_cell_angle_gamma 90.000000
_cell_volume 1891.491906
_symmetry_space_group_name_H-M "P 21/M"
_symmetry_group_IT_number 11
_symmetry_cell_setting 'monoclinic'
loop_
_space_group_symop_operation_xyz
x,y,z
-x,1/2+y,-z
-x,-y,-z
x,1/2-y,z
loop_
_atom_site_type_symbol
_atom_site_label
_atom_site_fract_x
_atom_site_fract_y
_atom_site_fract_z
Si Si1 0.107515 0.911353 0.811143
Si Si2 0.205880 0.086507 0.503425
Si Si3 0.121201 0.921952 0.076800
Si Si4 0.891374 0.417403 0.327553
Si Si5 0.839250 0.083126 0.417660
Si Si6 0.229240 0.581347 0.399274
Si Si7 0.366896 0.580092 0.395535
Si Si8 0.920622 0.918808 0.091721
O O1 0.142476 0.750000 0.869958
O O2 0.182261 0.942650 0.810930
O O3 0.951892 0.921369 0.650327
O O4 0.146181 0.028246 0.902137
O O5 0.260644 0.250000 0.555778
O O6 0.246425 0.009860 0.609576
O O7 0.273147 0.006630 0.504133
O O8 0.092344 0.750000 0.047354
O O9 0.254457 0.958312 0.239136
O O10 0.141815 0.986540 0.023910
O O11 0.000000 0.000000 0.000000
O O12 0.947812 0.250000 0.380775
O O13 0.791779 0.437742 0.297717
O O14 0.007597 0.535240 0.440437
O O15 0.829554 0.250000 0.431107
O O16 0.250234 0.750000 0.434283
O O17 0.320123 0.527556 0.423719
O O18 0.077496 0.551579 0.238436
O O19 0.500000 0.500000 0.500000
O O20 0.396268 0.750000 0.423689
O O21 0.886776 0.750000 0.049682
#
# Coordination Sequence:
#
# PCOD8068800 Si02
#       8
#     4   4   4   4   4   4   4   4
#     4   8  14  24  35  52  78 109 144 184 226 269
#     4   9  16  24  35  54  77 105 145 185 223 271
#     4  11  21  35  53  74  97 122 156 197 237 281
#     4   8  14  22  31  45  69 102 143 181 218 268
#     4   9  14  20  31  47  69 102 140 181 224 264
#     4   9  17  31  46  63  89 116 148 191 231 274
#     4  10  22  38  53  73  98 124 156 194 238 289
#     4  10  18  29  45  67  91 116 151 193 234 277
#
# _framework density 16.917860999999998
#
# number of rings (size 3 to 8) (size 9 to 14) (size 15 to 20)
#    0.000    2.750    1.250    2.250    0.000    5.500 
#    0.000    0.000    0.000    0.000    0.000    0.000 
#    0.000    0.000    0.000    1.125    0.000   13.750 
#
# Total GULP energy -396549.021717 kJ/mol
# GULP energy per Si atom -12392.156929 kJ/mol
# Density = 1.687936 g / cm^3
# Si number density = 16.917861 Si / 1000 Ang^3
#
#
#
# Elastic Constant Matrix: (Units=GPa)
#
#
# Indices 1 2 3 4 5 6 
#
# 1 160.7662 72.8147 48.5607 0.0000 -36.3007 0.0000
# 2 72.8147 99.3716 36.7574 0.0000 -15.1588 0.0000
# 3 48.5607 36.7574 40.4071 0.0000 -8.9898 0.0000
# 4 0.0000 0.0000 0.0000 16.8159 0.0000 -5.6682
# 5 -36.3007 -15.1588 -8.9898 0.0000 19.5687 0.0000
# 6 0.0000 0.0000 0.0000 -5.6682 0.0000 32.4201
#
#
#
# Elastic Compliance Matrix: (Units=1/GPa)
#
#
# Indices 1 2 3 4 5 6 
#
# 1 0.016672 -0.004886 -0.010641 0.000000 0.022255 0.000000
# 2 -0.004886 0.017264 -0.009885 0.000000 -0.000230 0.000000
# 3 -0.010641 -0.009885 0.045036 0.000000 -0.006707 0.000000
# 4 0.000000 0.000000 0.000000 0.063192 0.000000 0.011048
# 5 0.022255 -0.000230 -0.006707 0.000000 0.089125 0.000000
# 6 0.000000 0.000000 0.000000 0.011048 0.000000 0.032777
#
#
# Mechanical properties :
#
#
# Convention : Reuss Voigt Hill
#
# Bulk Modulus (GPa) = 35.52392 68.53450 52.02921
# Shear Modulus (GPa) = 15.41914 23.25507 19.33710
#
# Velocity S-wave (km/s) = 3.02223 3.71156 3.38449
# Velocity P-wave (km/s) = 5.76385 7.67891 6.78925
#
# Compressibility (1/GPa) = 0.02815005
#
# Stress axis : x y z
#
# Youngs Moduli (GPa) = 59.97985 57.92243 22.20449
#
# Poissons Ratio (x) = 0.28300 0.23627
# Poissons Ratio (y) = 0.29305 0.21949
# Poissons Ratio (z) = 0.63824 0.57255
#
# Static dielectric constant tensor:
#      x y z
#    x 3.096390 0.000000 0.427910 
#    y 0.000000 3.306080 0.000000 
#    z 0.427910 0.000000 1.198150 
# 
# 
# High freq. dielectric constant tensor:
#      x y z
#    x 1.669610 0.000000 -0.041890 
#    y 0.000000 1.663580 0.000000 
#    z -0.041890 0.000000 1.570960 
# 
# From -- ./inp_files/66468.got.cif
#   From: 2010.06.25/outbox.cif.g09.slc.cpg/sg11_34_cif.got.tgz:66468.got - 2010.06.27 23:14:04.
