data_PCOD8068801
_publ_section_title
;
Structure prediction by ZEFSAII (Michael W. Deem and Ramdas Pophale) SiO2 
 PCOD8068801
Probable space group: P 21/M
;
_chemical_formula_sum "Si O2"
_cell_formula_units_Z 32
_cell_length_a 21.923850
_cell_length_b 8.720579
_cell_length_c 16.166266
_cell_angle_alpha 90.000000
_cell_angle_beta 140.348591
_cell_angle_gamma 90.000000
_cell_volume 1972.290450
_symmetry_space_group_name_H-M "P 21/M"
_symmetry_group_IT_number 11
_symmetry_cell_setting 'monoclinic'
loop_
_space_group_symop_operation_xyz
x,y,z
-x,1/2+y,-z
-x,-y,-z
x,1/2-y,z
loop_
_atom_site_type_symbol
_atom_site_label
_atom_site_fract_x
_atom_site_fract_y
_atom_site_fract_z
Si Si1 0.196269 0.432679 0.920843
Si Si2 0.072353 0.931040 0.141277
Si Si3 0.338019 0.930403 0.192182
Si Si4 0.465212 0.426433 0.546169
Si Si5 0.073264 0.918800 0.466922
Si Si6 0.001589 0.430341 0.234846
Si Si7 0.138448 0.080957 0.685145
Si Si8 0.732770 0.930819 0.711066
O O1 0.199843 0.250000 0.931285
O O2 0.196158 0.485905 0.824367
O O3 0.100957 0.488161 0.867603
O O4 0.288691 0.509357 0.057719
O O5 0.056742 0.750000 0.131855
O O6 0.056187 0.010271 0.211971
O O7 0.179126 0.966938 0.224412
O O8 0.000000 0.000000 0.000000
O O9 0.318045 0.750000 0.183942
O O10 0.453037 0.962889 0.299760
O O11 0.295987 0.023454 0.225824
O O12 0.500000 0.500000 0.500000
O O13 0.463565 0.250000 0.524316
O O14 0.354111 0.473822 0.444534
O O15 0.105468 0.750000 0.470692
O O16 0.971444 0.908827 0.403952
O O17 0.068258 0.031230 0.383236
O O18 0.150039 0.977968 0.615091
O O19 0.985093 0.250000 0.212323
O O20 0.176747 0.250000 0.703039
O O21 0.758462 0.750000 0.735797
#
# Coordination Sequence:
#
# PCOD8068801 Si02
#       8
#     4   4   4   4   4   4   4   4
#     4  10  19  30  43  63  91 121 150 182 219 259
#     4  12  24  37  49  64  87 116 151 188 223 259
#     4  10  18  29  45  67  91 117 147 179 219 264
#     4   8  16  29  46  65  86 111 142 179 218 262
#     4   9  16  27  43  62  84 111 144 181 218 256
#     4  11  21  33  47  63  85 117 153 186 220 259
#     4   8  15  26  40  59  84 114 146 177 213 257
#     4  10  19  33  49  65  86 115 149 185 223 260
#
# _framework density 16.224789999999999
#
# number of rings (size 3 to 8) (size 9 to 14) (size 15 to 20)
#    0.000    2.250    0.000    5.250    0.000    4.500 
#    0.000    0.000    0.000    0.000    0.000    0.000 
#    0.000    1.000    0.000    3.000    0.000    4.875 
#
# Total GULP energy -396511.236303 kJ/mol
# GULP energy per Si atom -12390.976134 kJ/mol
# Density = 1.618786 g / cm^3
# Si number density = 16.224790 Si / 1000 Ang^3
#
#
#
# Elastic Constant Matrix: (Units=GPa)
#
#
# Indices 1 2 3 4 5 6 
#
# 1 38.9030 12.0423 38.3103 0.0000 -0.7460 0.0000
# 2 12.0423 55.2040 25.1677 0.0000 -1.4924 0.0000
# 3 38.3103 25.1677 128.2839 0.0000 -1.8039 0.0000
# 4 0.0000 0.0000 0.0000 26.2520 0.0000 -4.2659
# 5 -0.7460 -1.4924 -1.8039 0.0000 21.8579 0.0000
# 6 0.0000 0.0000 0.0000 -4.2659 0.0000 20.8302
#
#
#
# Elastic Compliance Matrix: (Units=1/GPa)
#
#
# Indices 1 2 3 4 5 6 
#
# 1 0.036963 -0.003324 -0.010384 0.000000 0.000178 0.000000
# 2 -0.003324 0.020217 -0.002959 0.000000 0.001023 0.000000
# 3 -0.010384 -0.002959 0.011482 0.000000 0.000391 0.000000
# 4 0.000000 0.000000 0.000000 0.039404 0.000000 0.008070
# 5 0.000178 0.001023 0.000391 0.000000 0.045858 0.000000
# 6 0.000000 0.000000 0.000000 0.008070 0.000000 0.049660
#
#
# Mechanical properties :
#
#
# Convention : Reuss Voigt Hill
#
# Bulk Modulus (GPa) = 28.30675 41.49239 34.89957
# Shear Modulus (GPa) = 20.10506 23.57940 21.84223
#
# Velocity S-wave (km/s) = 3.52398 3.81635 3.67308
# Velocity P-wave (km/s) = 5.83459 6.71180 6.28851
#
# Compressibility (1/GPa) = 0.03532727
#
# Stress axis : x y z
#
# Youngs Moduli (GPa) = 27.05407 49.46454 87.09103
#
# Poissons Ratio (x) = 0.16444 0.90434
# Poissons Ratio (y) = 0.08994 0.25771
# Poissons Ratio (z) = 0.28092 0.14637
#
# Static dielectric constant tensor:
#      x y z
#    x 2.769320 0.000000 0.021630 
#    y 0.000000 3.253010 0.000000 
#    z 0.021630 0.000000 3.617430 
# 
# 
# High freq. dielectric constant tensor:
#      x y z
#    x 1.567180 0.000000 -0.010070 
#    y 0.000000 1.641750 0.000000 
#    z -0.010070 0.000000 1.631880 
# 
# From -- ./inp_files/54312.got.cif
#   From: 2010.06.25/outbox.cif.g09.slc.cpg/sg11_28_cif.got.tgz:54312.got - 2010.06.27 23:14:04.
