data_PCOD8068965
_publ_section_title
;
Structure prediction by ZEFSAII (Michael W. Deem and Ramdas Pophale) SiO2 
 PCOD8068965
Probable space group: P 21/M
;
_chemical_formula_sum "Si O2"
_cell_formula_units_Z 20
_cell_length_a 21.480013
_cell_length_b 8.739688
_cell_length_c 10.343253
_cell_angle_alpha 90.000000
_cell_angle_beta 144.659521
_cell_angle_gamma 90.000000
_cell_volume 1123.159630
_symmetry_space_group_name_H-M "P 21/M"
_symmetry_group_IT_number 11
_symmetry_cell_setting 'monoclinic'
loop_
_space_group_symop_operation_xyz
x,y,z
-x,1/2+y,-z
-x,-y,-z
x,1/2-y,z
loop_
_atom_site_type_symbol
_atom_site_label
_atom_site_fract_x
_atom_site_fract_y
_atom_site_fract_z
Si Si1 0.037934 0.429058 0.431496
Si Si2 0.495963 0.426956 0.131036
Si Si3 0.274313 0.570467 0.448128
Si Si4 0.067365 0.069716 0.997109
Si Si5 0.265200 0.072560 0.711054
O O1 0.013057 0.250000 0.387077
O O2 0.165092 0.463443 0.633831
O O3 0.000000 0.500000 0.500000
O O4 0.973880 0.507494 0.207926
O O5 0.512221 0.250000 0.135882
O O6 0.603533 0.479097 0.391688
O O7 0.500000 0.500000 0.000000
O O8 0.375524 0.462767 0.981565
O O9 0.251790 0.750000 0.390513
O O10 0.257260 0.531050 0.570181
O O11 0.192337 0.475399 0.221510
O O12 0.053922 0.250000 0.978606
O O13 0.000000 0.000000 0.000000
O O14 0.263856 0.250000 0.664163
#
# Coordination Sequence:
#
# PCOD8068965 Si02
#       5
#     4   4   4   4   4
#     4  11  23  38  56  79 109 145 182 221 268 321
#     4   8  15  27  45  73 104 135 170 213 262 313
#     4  10  18  29  50  79 109 137 172 217 267 317
#     4  12  23  36  55  79 109 142 180 224 270 318
#     4   9  17  31  51  74 105 141 177 217 263 314
#
# _framework density 17.806908
#
# number of rings (size 3 to 8) (size 9 to 14) (size 15 to 20)
#    0.000    2.000    2.000    3.000    0.000    1.600 
#    0.000    0.000    0.000    1.200    0.000    0.000 
#    0.000    0.000    0.000    0.000    0.000    0.000 
#
# Total GULP energy -247777.446291 kJ/mol
# GULP energy per Si atom -12388.872315 kJ/mol
# Density = 1.776638 g / cm^3
# Si number density = 17.806908 Si / 1000 Ang^3
#
#
#
# Elastic Constant Matrix: (Units=GPa)
#
#
# Indices 1 2 3 4 5 6 
#
# 1 100.4161 44.8152 83.6011 0.0000 16.6667 0.0000
# 2 44.8152 93.5104 57.7780 0.0000 7.0572 0.0000
# 3 83.6011 57.7780 148.0430 0.0000 28.9381 0.0000
# 4 0.0000 0.0000 0.0000 28.8463 0.0000 -0.6943
# 5 16.6667 7.0572 28.9381 0.0000 36.9457 0.0000
# 6 0.0000 0.0000 0.0000 -0.6943 0.0000 21.9970
#
#
#
# Elastic Compliance Matrix: (Units=1/GPa)
#
#
# Indices 1 2 3 4 5 6 
#
# 1 0.019578 -0.003402 -0.009598 0.000000 -0.000664 0.000000
# 2 -0.003402 0.014798 -0.004253 0.000000 0.002039 0.000000
# 3 -0.009598 -0.004253 0.015149 0.000000 -0.006723 0.000000
# 4 0.000000 0.000000 0.000000 0.034693 0.000000 0.001095
# 5 -0.000664 0.002039 -0.006723 0.000000 0.032243 0.000000
# 6 0.000000 0.000000 0.000000 0.001095 0.000000 0.045495
#
#
# Mechanical properties :
#
#
# Convention : Reuss Voigt Hill
#
# Bulk Modulus (GPa) = 66.58285 79.37314 72.97799
# Shear Modulus (GPa) = 24.81760 27.94282 26.38021
#
# Velocity S-wave (km/s) = 3.73729 3.96563 3.85315
# Velocity P-wave (km/s) = 7.48972 8.10181 7.80177
#
# Compressibility (1/GPa) = 0.01501888
#
# Stress axis : x y z
#
# Youngs Moduli (GPa) = 51.07702 67.57511 66.01063
#
# Poissons Ratio (x) = 0.22991 0.63360
# Poissons Ratio (y) = 0.17378 0.28073
# Poissons Ratio (z) = 0.49026 0.28738
#
# Static dielectric constant tensor:
#      x y z
#    x 3.507460 0.000000 0.493270 
#    y 0.000000 3.429430 0.000000 
#    z 0.493270 0.000000 4.235420 
# 
# 
# High freq. dielectric constant tensor:
#      x y z
#    x 1.657100 0.000000 0.047140 
#    y 0.000000 1.700530 0.000000 
#    z 0.047140 0.000000 1.692920 
# 
# From -- ./inp_files/20235.got.cif
#   From: 2010.06.25/outbox.cif.g09.slc.cpg/sg11_11_cif.got.tgz:20235.got - 2010.06.27 23:14:04.
