data_PCOD8068378
_publ_section_title
;
Structure prediction by ZEFSAII (Michael W. Deem and Ramdas Pophale) SiO2 
 PCOD8068378
Probable space group: P 21/M
;
_chemical_formula_sum "Si O2"
_cell_formula_units_Z 32
_cell_length_a 21.188674
_cell_length_b 8.608218
_cell_length_c 12.799445
_cell_angle_alpha 90.000000
_cell_angle_beta 126.383799
_cell_angle_gamma 90.000000
_cell_volume 1879.478082
_symmetry_space_group_name_H-M "P 21/M"
_symmetry_group_IT_number 11
_symmetry_cell_setting 'monoclinic'
loop_
_space_group_symop_operation_xyz
x,y,z
-x,1/2+y,-z
-x,-y,-z
x,1/2-y,z
loop_
_atom_site_type_symbol
_atom_site_label
_atom_site_fract_x
_atom_site_fract_y
_atom_site_fract_z
Si Si1 0.661752 0.932496 0.548776
Si Si2 0.090836 0.070533 0.473283
Si Si3 0.086054 0.565986 0.086297
Si Si4 0.655028 0.433306 0.772128
Si Si5 0.818680 0.066245 0.016781
Si Si6 0.184897 0.568314 0.381164
Si Si7 0.496280 0.566346 0.612334
Si Si8 0.910518 0.067894 0.307425
O O1 0.656072 0.750000 0.560457
O O2 0.672975 0.013303 0.671951
O O3 0.733375 0.976241 0.543888
O O4 0.582056 0.993439 0.413422
O O5 0.109721 0.250000 0.471334
O O6 0.999838 0.032919 0.361956
O O7 0.143423 0.966285 0.449672
O O8 0.112902 0.027684 0.613262
O O9 0.082194 0.750000 0.078665
O O10 0.129263 0.508755 0.233290
O O11 0.132637 0.497098 0.032679
O O12 0.000000 0.500000 0.000000
O O13 0.643063 0.250000 0.758424
O O14 0.577367 0.512113 0.746422
O O15 0.727835 0.483052 0.916902
O O16 0.827214 0.250000 0.021964
O O17 0.854300 0.004355 0.160338
O O18 0.202679 0.750000 0.388637
O O19 0.500000 0.500000 0.500000
O O20 0.490082 0.750000 0.607111
O O21 0.898948 0.250000 0.318600
#
# Coordination Sequence:
#
# PCOD8068378 Si02
#       8
#     4   4   4   4   4   4   4   4
#     4  11  20  31  47  70  99 131 166 203 245 291
#     4  10  20  34  52  73  98 126 167 217 256 291
#     4  10  20  33  47  68  98 132 164 198 242 294
#     4  10  17  30  48  69  99 132 166 202 244 293
#     4   9  17  31  50  70  97 131 165 202 244 293
#     4  11  21  34  51  71  99 133 167 203 248 298
#     4  10  18  29  45  67  96 130 166 200 241 290
#     4   9  18  34  54  72  95 129 169 209 253 296
#
# _framework density 17.026004
#
# number of rings (size 3 to 8) (size 9 to 14) (size 15 to 20)
#    0.000    2.000    1.250    5.625    0.000    2.500 
#    0.000    1.875    0.000    0.000    0.000    0.875 
#    0.000    0.000    0.000    0.000    0.000    0.000 
#
# Total GULP energy -396793.939278 kJ/mol
# GULP energy per Si atom -12399.810602 kJ/mol
# Density = 1.698725 g / cm^3
# Si number density = 17.026004 Si / 1000 Ang^3
#
#
#
# Elastic Constant Matrix: (Units=GPa)
#
#
# Indices 1 2 3 4 5 6 
#
# 1 108.2363 30.7319 62.7061 0.0000 22.5043 0.0000
# 2 30.7319 62.3897 21.7502 0.0000 9.6825 0.0000
# 3 62.7061 21.7502 101.9471 0.0000 14.8048 0.0000
# 4 0.0000 0.0000 0.0000 19.2810 0.0000 4.4603
# 5 22.5043 9.6825 14.8048 0.0000 26.2159 0.0000
# 6 0.0000 0.0000 0.0000 4.4603 0.0000 28.2535
#
#
#
# Elastic Compliance Matrix: (Units=1/GPa)
#
#
# Indices 1 2 3 4 5 6 
#
# 1 0.016994 -0.004165 -0.008354 0.000000 -0.008332 0.000000
# 2 -0.004165 0.018884 -0.001060 0.000000 -0.002800 0.000000
# 3 -0.008354 -0.001060 0.015333 0.000000 -0.001096 0.000000
# 4 0.000000 0.000000 0.000000 0.053830 0.000000 -0.008498
# 5 -0.008332 -0.002800 -0.001096 0.000000 0.046950 0.000000
# 6 0.000000 0.000000 0.000000 -0.008498 0.000000 0.036735
#
#
# Mechanical properties :
#
#
# Convention : Reuss Voigt Hill
#
# Bulk Modulus (GPa) = 41.57719 55.88327 48.73023
# Shear Modulus (GPa) = 22.33102 25.24239 23.78670
#
# Velocity S-wave (km/s) = 3.62551 3.85460 3.74181
# Velocity P-wave (km/s) = 6.48063 7.25976 6.88123
#
# Compressibility (1/GPa) = 0.02405165
#
# Stress axis : x y z
#
# Youngs Moduli (GPa) = 58.84432 52.95409 65.21961
#
# Poissons Ratio (x) = 0.22058 0.54485
# Poissons Ratio (y) = 0.24511 0.06914
# Poissons Ratio (z) = 0.49159 0.05614
#
# Static dielectric constant tensor:
#      x y z
#    x 3.985930 0.000000 0.431850 
#    y 0.000000 3.117270 0.000000 
#    z 0.431850 0.000000 3.287880 
# 
# 
# High freq. dielectric constant tensor:
#      x y z
#    x 1.652300 0.000000 0.024250 
#    y 0.000000 1.657850 0.000000 
#    z 0.024250 0.000000 1.633120 
# 
# From -- ./inp_files/42568.got.cif
#   From: 2010.06.25/outbox.cif.g09.slc.cpg/sg11_22_cif.got.tgz:42568.got - 2010.06.27 23:14:04.
