data_PCOD8068807
_publ_section_title
;
Structure prediction by ZEFSAII (Michael W. Deem and Ramdas Pophale) SiO2 
 PCOD8068807
Probable space group: P 21/M
;
_chemical_formula_sum "Si O2"
_cell_formula_units_Z 32
_cell_length_a 21.975396
_cell_length_b 8.878631
_cell_length_c 11.973137
_cell_angle_alpha 90.000000
_cell_angle_beta 46.317081
_cell_angle_gamma 90.000000
_cell_volume 1689.401671
_symmetry_space_group_name_H-M "P 21/M"
_symmetry_group_IT_number 11
_symmetry_cell_setting 'monoclinic'
loop_
_space_group_symop_operation_xyz
x,y,z
-x,1/2+y,-z
-x,-y,-z
x,1/2-y,z
loop_
_atom_site_type_symbol
_atom_site_label
_atom_site_fract_x
_atom_site_fract_y
_atom_site_fract_z
Si Si1 0.272951 0.570861 0.950657
Si Si2 0.224513 0.915643 0.237985
Si Si3 0.590347 0.428652 0.400533
Si Si4 0.712331 0.576172 0.412615
Si Si5 0.951283 0.414114 0.653691
Si Si6 0.810753 0.069973 0.472374
Si Si7 0.014115 0.071325 0.807841
Si Si8 0.854253 0.577340 0.050584
O O1 0.260743 0.750000 0.964789
O O2 0.355199 0.523805 0.776752
O O3 0.287081 0.513226 0.063635
O O4 0.189329 0.501621 0.000618
O O5 0.256870 0.750000 0.231367
O O6 0.144619 0.905694 0.258711
O O7 0.204900 0.997113 0.381049
O O8 0.500000 0.500000 0.500000
O O9 0.584353 0.250000 0.422161
O O10 0.631661 0.499261 0.458635
O O11 0.691728 0.750000 0.465427
O O12 0.730574 0.484906 0.503488
O O13 0.793740 0.560142 0.232626
O O14 0.992558 0.250000 0.607663
O O15 0.968761 0.485872 0.751499
O O16 0.000000 0.500000 0.500000
O O17 0.820439 0.250000 0.460725
O O18 0.893139 0.998562 0.310258
O O19 0.020533 0.250000 0.820375
O O20 0.943398 0.998173 0.979731
O O21 0.870511 0.750000 0.999227
#
# Coordination Sequence:
#
# PCOD8068807 Si02
#       8
#     4   4   4   4   4   4   4   4
#     4   9  17  33  55  81 110 139 170 211 265 317
#     4   9  17  31  50  74 104 138 178 221 264 311
#     4  10  20  36  64  93 115 137 164 204 258 317
#     4  10  22  40  57  77 108 140 176 219 264 318
#     4  10  18  29  45  67  98 136 179 229 270 304
#     4  11  22  35  52  74 104 144 186 224 264 313
#     4  11  21  32  48  70 101 142 186 229 271 316
#     4  10  20  33  51  74 101 136 179 231 276 309
#
# _framework density 18.941617999999998
#
# number of rings (size 3 to 8) (size 9 to 14) (size 15 to 20)
#    0.000    2.000    2.500    1.875    0.000    3.000 
#    0.000    1.250    0.000    0.750    0.000    0.000 
#    0.000    0.000    0.000    0.000    0.000    0.000 
#
# Total GULP energy -396424.170042 kJ/mol
# GULP energy per Si atom -12388.255314 kJ/mol
# Density = 1.889851 g / cm^3
# Si number density = 18.941618 Si / 1000 Ang^3
#
#
#
# Elastic Constant Matrix: (Units=GPa)
#
#
# Indices 1 2 3 4 5 6 
#
# 1 100.8099 35.3035 34.3044 0.0000 -9.8934 0.0000
# 2 35.3035 78.2976 21.7855 0.0000 -5.3931 0.0000
# 3 34.3044 21.7855 53.2793 0.0000 -13.2943 0.0000
# 4 0.0000 0.0000 0.0000 22.2506 0.0000 -3.9587
# 5 -9.8934 -5.3931 -13.2943 0.0000 22.9348 0.0000
# 6 0.0000 0.0000 0.0000 -3.9587 0.0000 29.7486
#
#
#
# Elastic Compliance Matrix: (Units=1/GPa)
#
#
# Indices 1 2 3 4 5 6 
#
# 1 0.013868 -0.004253 -0.006953 0.000000 0.000952 0.000000
# 2 -0.004253 0.015716 -0.003768 0.000000 -0.000323 0.000000
# 3 -0.006953 -0.003768 0.027844 0.000000 0.012255 0.000000
# 4 0.000000 0.000000 0.000000 0.046033 0.000000 0.006126
# 5 0.000952 -0.000323 0.012255 0.000000 0.051040 0.000000
# 6 0.000000 0.000000 0.000000 0.006126 0.000000 0.034430
#
#
# Mechanical properties :
#
#
# Convention : Reuss Voigt Hill
#
# Bulk Modulus (GPa) = 36.38993 46.13040 41.26016
# Shear Modulus (GPa) = 21.92604 24.38637 23.15620
#
# Velocity S-wave (km/s) = 3.40598 3.59200 3.50023
# Velocity P-wave (km/s) = 5.89245 6.45059 6.17783
#
# Compressibility (1/GPa) = 0.02748013
#
# Stress axis : x y z
#
# Youngs Moduli (GPa) = 72.10619 63.63086 35.91398
#
# Poissons Ratio (x) = 0.27062 0.24970
# Poissons Ratio (y) = 0.30667 0.13534
# Poissons Ratio (z) = 0.50134 0.23979
#
# Static dielectric constant tensor:
#      x y z
#    x 3.337360 0.000000 0.263790 
#    y 0.000000 3.417860 0.000000 
#    z 0.263790 0.000000 3.646460 
# 
# 
# High freq. dielectric constant tensor:
#      x y z
#    x 1.718860 0.000000 0.019930 
#    y 0.000000 1.728330 0.000000 
#    z 0.019930 0.000000 1.734000 
# 
# From -- ./inp_files/42827.got.cif
#   From: 2010.06.25/outbox.cif.g09.slc.cpg/sg11_22_cif.got.tgz:42827.got - 2010.06.27 23:14:04.
