data_PCOD8068957
_publ_section_title
;
Structure prediction by ZEFSAII (Michael W. Deem and Ramdas Pophale) SiO2 
 PCOD8068957
Probable space group: P 21/M
;
_chemical_formula_sum "Si O2"
_cell_formula_units_Z 20
_cell_length_a 12.118852
_cell_length_b 8.956181
_cell_length_c 12.415895
_cell_angle_alpha 90.000000
_cell_angle_beta 120.233000
_cell_angle_gamma 90.000000
_cell_volume 1164.309784
_symmetry_space_group_name_H-M "P 21/M"
_symmetry_group_IT_number 11
_symmetry_cell_setting 'monoclinic'
loop_
_space_group_symop_operation_xyz
x,y,z
-x,1/2+y,-z
-x,-y,-z
x,1/2-y,z
loop_
_atom_site_type_symbol
_atom_site_label
_atom_site_fract_x
_atom_site_fract_y
_atom_site_fract_z
Si Si1 0.864975 0.923949 0.420238
Si Si2 0.325485 0.923521 0.826862
Si Si3 0.401680 0.422188 0.302649
Si Si4 0.343551 0.421456 0.509217
Si Si5 0.413016 0.577338 0.101640
O O1 0.884245 0.750000 0.408852
O O2 0.785907 0.955223 0.490439
O O3 0.794923 0.992075 0.281996
O O4 0.000000 0.000000 0.500000
O O5 0.317106 0.750000 0.793511
O O6 0.455682 0.987139 0.842577
O O7 0.322601 0.949892 0.954361
O O8 0.398759 0.250000 0.268472
O O9 0.319575 0.452665 0.370442
O O10 0.547852 0.469977 0.393361
O O11 0.342117 0.517246 0.174287
O O12 0.388228 0.250000 0.548031
O O13 0.448730 0.750000 0.131360
#
# Coordination Sequence:
#
# PCOD8068957 Si02
#       5
#     4   4   4   4   4
#     4  11  22  36  54  74 103 137 172 212 253 299
#     4  10  20  33  50  74 102 134 173 209 251 303
#     4  10  18  29  50  76 103 133 166 206 253 307
#     4   9  19  33  48  72 103 134 168 209 254 298
#     4  10  19  31  49  75 107 135 162 208 260 304
#
# _framework density 17.177558000000001
#
# number of rings (size 3 to 8) (size 9 to 14) (size 15 to 20)
#    0.000    2.000    2.000    2.400    0.000    4.000 
#    0.000    0.000    0.000    1.200    0.000    0.000 
#    0.000    0.000    0.000    0.000    0.000    0.000 
#
# Total GULP energy -248003.524209 kJ/mol
# GULP energy per Si atom -12400.176210 kJ/mol
# Density = 1.713846 g / cm^3
# Si number density = 17.177558 Si / 1000 Ang^3
#
#
#
# Elastic Constant Matrix: (Units=GPa)
#
#
# Indices 1 2 3 4 5 6 
#
# 1 80.9525 48.4453 59.7714 0.0000 -5.4878 0.0000
# 2 48.4453 107.8022 67.1201 0.0000 -5.1919 0.0000
# 3 59.7714 67.1201 131.9641 0.0000 -13.8856 0.0000
# 4 0.0000 0.0000 0.0000 33.3872 0.0000 -1.8444
# 5 -5.4878 -5.1919 -13.8856 0.0000 32.0796 0.0000
# 6 0.0000 0.0000 0.0000 -1.8444 0.0000 24.5150
#
#
#
# Elastic Compliance Matrix: (Units=1/GPa)
#
#
# Indices 1 2 3 4 5 6 
#
# 1 0.020220 -0.004947 -0.006666 0.000000 -0.000227 0.000000
# 2 -0.004947 0.014807 -0.005372 0.000000 -0.000775 0.000000
# 3 -0.006666 -0.005372 0.013744 0.000000 0.003939 0.000000
# 4 0.000000 0.000000 0.000000 0.030077 0.000000 0.002263
# 5 -0.000227 -0.000775 0.003939 0.000000 0.032713 0.000000
# 6 0.000000 0.000000 0.000000 0.002263 0.000000 0.040962
#
#
# Mechanical properties :
#
#
# Convention : Reuss Voigt Hill
#
# Bulk Modulus (GPa) = 67.56537 74.59914 71.08225
# Shear Modulus (GPa) = 26.11977 27.68848 26.90412
#
# Velocity S-wave (km/s) = 3.90369 4.01920 3.96186
# Velocity P-wave (km/s) = 7.72899 8.06605 7.89932
#
# Compressibility (1/GPa) = 0.01480048
#
# Stress axis : x y z
#
# Youngs Moduli (GPa) = 49.45602 67.53652 72.75973
#
# Poissons Ratio (x) = 0.33412 0.48502
# Poissons Ratio (y) = 0.24467 0.39086
# Poissons Ratio (z) = 0.32967 0.36280
#
# Static dielectric constant tensor:
#      x y z
#    x 3.004420 0.000000 -0.403870 
#    y 0.000000 3.257620 0.000000 
#    z -0.403870 0.000000 3.472380 
# 
# 
# High freq. dielectric constant tensor:
#      x y z
#    x 1.624930 0.000000 -0.033240 
#    y 0.000000 1.681580 0.000000 
#    z -0.033240 0.000000 1.665540 
# 
# From -- ./inp_files/33458.got.cif
#   From: 2010.06.25/outbox.cif.g09.slc.cpg/sg11_17_cif.got.tgz:33458.got - 2010.06.27 23:14:04.
