data_PCOD8068974
_publ_section_title
;
Structure prediction by ZEFSAII (Michael W. Deem and Ramdas Pophale) SiO2 
 PCOD8068974
Probable space group: P 21/M
;
_chemical_formula_sum "Si O2"
_cell_formula_units_Z 32
_cell_length_a 13.867375
_cell_length_b 8.753431
_cell_length_c 24.309388
_cell_angle_alpha 90.000000
_cell_angle_beta 136.732434
_cell_angle_gamma 90.000000
_cell_volume 2022.528584
_symmetry_space_group_name_H-M "P 21/M"
_symmetry_group_IT_number 11
_symmetry_cell_setting 'monoclinic'
loop_
_space_group_symop_operation_xyz
x,y,z
-x,1/2+y,-z
-x,-y,-z
x,1/2-y,z
loop_
_atom_site_type_symbol
_atom_site_label
_atom_site_fract_x
_atom_site_fract_y
_atom_site_fract_z
Si Si1 0.793899 0.568005 0.680435
Si Si2 0.324060 0.926076 0.172958
Si Si3 0.913516 0.429489 0.836816
Si Si4 0.204510 0.424034 0.438060
Si Si5 0.864527 0.932061 0.472161
Si Si6 0.098260 0.572592 0.995690
Si Si7 0.488023 0.926067 0.400432
Si Si8 0.578143 0.071627 0.327145
O O1 0.777805 0.750000 0.676941
O O2 0.895868 0.508788 0.770425
O O3 0.855183 0.516533 0.645554
O O4 0.642256 0.490229 0.620264
O O5 0.363085 0.750000 0.198086
O O6 0.214322 0.975904 0.175555
O O7 0.257071 0.951579 0.084189
O O8 0.467091 0.024563 0.233590
O O9 0.922023 0.250000 0.831843
O O10 0.062988 0.488818 0.923466
O O11 0.160763 0.250000 0.426125
O O12 0.143268 0.501330 0.468398
O O13 0.373063 0.442853 0.505130
O O14 0.869613 0.750000 0.473602
O O15 0.725955 0.984087 0.381302
O O16 0.000000 0.000000 0.500000
O O17 0.062557 0.750000 0.974650
O O18 0.000000 0.500000 0.000000
O O19 0.461338 0.750000 0.372432
O O20 0.502308 0.025765 0.351803
O O21 0.609023 0.250000 0.337249
#
# Coordination Sequence:
#
# PCOD8068974 Si02
#       8
#     4   4   4   4   4   4   4   4
#     4  11  19  28  43  63  87 119 158 190 221 266
#     4   9  17  29  43  60  88 120 152 191 232 264
#     4  10  19  29  41  59  88 124 157 190 232 265
#     4   8  18  32  46  64  87 116 148 187 229 269
#     4  10  20  37  55  70  92 117 146 188 236 280
#     4   9  17  28  42  59  83 117 157 193 228 267
#     4  10  18  30  43  59  89 122 151 189 231 262
#     4  11  20  29  46  70  91 119 157 189 224 272
#
# _framework density 15.821778999999999
#
# number of rings (size 3 to 8) (size 9 to 14) (size 15 to 20)
#    0.000    2.250    1.250    4.875    0.000    2.500 
#    0.000    6.875    0.000    0.000    0.000    0.000 
#    0.000    1.000    0.000    3.000    0.000    4.000 
#
# Total GULP energy -396538.175561 kJ/mol
# GULP energy per Si atom -12391.817986 kJ/mol
# Density = 1.578577 g / cm^3
# Si number density = 15.821779 Si / 1000 Ang^3
#
#
#
# Elastic Constant Matrix: (Units=GPa)
#
#
# Indices 1 2 3 4 5 6 
#
# 1 64.9162 25.8509 51.2399 0.0000 -2.0682 0.0000
# 2 25.8509 68.0388 40.3918 0.0000 -0.8118 0.0000
# 3 51.2399 40.3918 117.0081 0.0000 -9.3221 0.0000
# 4 0.0000 0.0000 0.0000 27.1689 0.0000 2.7536
# 5 -2.0682 -0.8118 -9.3221 0.0000 15.5967 0.0000
# 6 0.0000 0.0000 0.0000 2.7536 0.0000 16.4541
#
#
#
# Elastic Compliance Matrix: (Units=1/GPa)
#
#
# Indices 1 2 3 4 5 6 
#
# 1 0.024354 -0.003554 -0.009656 0.000000 -0.002727 0.000000
# 2 -0.003554 0.019139 -0.005259 0.000000 -0.002618 0.000000
# 3 -0.009656 -0.005259 0.015190 0.000000 0.007525 0.000000
# 4 0.000000 0.000000 0.000000 0.037442 0.000000 -0.006266
# 5 -0.002727 -0.002618 0.007525 0.000000 0.068116 0.000000
# 6 0.000000 0.000000 0.000000 -0.006266 0.000000 0.061824
#
#
# Mechanical properties :
#
#
# Convention : Reuss Voigt Hill
#
# Bulk Modulus (GPa) = 45.98605 53.88092 49.93349
# Shear Modulus (GPa) = 18.50147 20.67599 19.58873
#
# Velocity S-wave (km/s) = 3.42331 3.61890 3.52246
# Velocity P-wave (km/s) = 6.68981 7.18267 6.94062
#
# Compressibility (1/GPa) = 0.02174572
#
# Stress axis : x y z
#
# Youngs Moduli (GPa) = 41.06087 52.25060 65.83385
#
# Poissons Ratio (x) = 0.18568 0.63567
# Poissons Ratio (y) = 0.14591 0.34623
# Poissons Ratio (z) = 0.39647 0.27479
#
# Static dielectric constant tensor:
#      x y z
#    x 2.723570 0.000000 -0.175930 
#    y 0.000000 3.071260 0.000000 
#    z -0.175930 0.000000 3.476870 
# 
# 
# High freq. dielectric constant tensor:
#      x y z
#    x 1.546590 0.000000 -0.011910 
#    y 0.000000 1.613840 0.000000 
#    z -0.011910 0.000000 1.616720 
# 
# From -- ./inp_files/59894.got.cif
#   From: 2010.06.25/outbox.cif.g09.slc.cpg/sg11_30_cif.got.tgz:59894.got - 2010.06.27 23:14:04.
