data_PCOD8068252
_publ_section_title
;
Structure prediction by ZEFSAII (Michael W. Deem and Ramdas Pophale) SiO2 
 PCOD8068252
Probable space group: P 21/M
;
_chemical_formula_sum "Si O2"
_cell_formula_units_Z 32
_cell_length_a 14.275689
_cell_length_b 8.844582
_cell_length_c 16.356409
_cell_angle_alpha 90.000000
_cell_angle_beta 97.404222
_cell_angle_gamma 90.000000
_cell_volume 2047.980793
_symmetry_space_group_name_H-M "P 21/M"
_symmetry_group_IT_number 11
_symmetry_cell_setting 'monoclinic'
loop_
_space_group_symop_operation_xyz
x,y,z
-x,1/2+y,-z
-x,-y,-z
x,1/2-y,z
loop_
_atom_site_type_symbol
_atom_site_label
_atom_site_fract_x
_atom_site_fract_y
_atom_site_fract_z
Si Si1 0.355536 0.079913 0.964377
Si Si2 0.568350 0.570440 0.441674
Si Si3 0.739833 0.427334 0.190787
Si Si4 0.958599 0.572550 0.576297
Si Si5 0.221699 0.073421 0.529270
Si Si6 0.116899 0.070746 0.679053
Si Si7 0.448662 0.572718 0.732786
Si Si8 0.451784 0.920236 0.113886
O O1 0.319632 0.250000 0.975936
O O2 0.454658 0.081629 0.929583
O O3 0.278784 0.991438 0.901700
O O4 0.367170 0.995747 0.052529
O O5 0.500000 0.500000 0.500000
O O6 0.563051 0.750000 0.446466
O O7 0.673875 0.506426 0.472670
O O8 0.536904 0.517836 0.348822
O O9 0.755311 0.250000 0.185902
O O10 0.834756 0.505226 0.234510
O O11 0.653230 0.468304 0.241009
O O12 0.979964 0.750000 0.580368
O O13 0.845144 0.541329 0.557645
O O14 0.000000 0.500000 0.500000
O O15 0.009133 0.493144 0.659608
O O16 0.231657 0.250000 0.545731
O O17 0.175289 0.007922 0.607213
O O18 0.113048 0.250000 0.683724
O O19 0.459526 0.750000 0.718047
O O20 0.531136 0.518919 0.803119
O O21 0.422636 0.750000 0.134908
#
# Coordination Sequence:
#
# PCOD8068252 Si02
#       8
#     4   4   4   4   4   4   4   4
#     4   9  16  25  37  55  79 107 137 170 204 243
#     4  11  21  34  47  62  82 108 141 181 221 258
#     4  10  18  26  39  59  83 110 141 175 206 246
#     4   9  16  27  41  60  79 103 134 169 207 249
#     4   8  16  29  44  57  77 105 135 170 213 254
#     4  10  17  27  41  60  82 110 139 170 208 250
#     4  10  19  30  43  60  78 104 140 177 215 253
#     4   9  16  26  40  56  76 104 136 171 207 246
#
# _framework density 15.625146000000001
#
# number of rings (size 3 to 8) (size 9 to 14) (size 15 to 20)
#    0.000    2.500    1.250    3.375    0.000    4.000 
#    0.000    1.875    0.000    0.000    0.000    0.000 
#    0.000    0.000    0.000    1.125    0.000   14.250 
#
# Total GULP energy -396652.474097 kJ/mol
# GULP energy per Si atom -12395.389816 kJ/mol
# Density = 1.558958 g / cm^3
# Si number density = 15.625146 Si / 1000 Ang^3
#
#
#
# Elastic Constant Matrix: (Units=GPa)
#
#
# Indices 1 2 3 4 5 6 
#
# 1 56.8970 27.3817 48.4773 0.0000 22.2725 0.0000
# 2 27.3817 89.4908 42.8152 0.0000 17.5566 0.0000
# 3 48.4773 42.8152 96.5216 0.0000 36.5683 0.0000
# 4 0.0000 0.0000 0.0000 30.0232 0.0000 8.1793
# 5 22.2725 17.5566 36.5683 0.0000 28.7077 0.0000
# 6 0.0000 0.0000 0.0000 8.1793 0.0000 17.3648
#
#
#
# Elastic Compliance Matrix: (Units=1/GPa)
#
#
# Indices 1 2 3 4 5 6 
#
# 1 0.032167 -0.002526 -0.011916 0.000000 -0.008232 0.000000
# 2 -0.002526 0.014407 -0.004883 0.000000 -0.000631 0.000000
# 3 -0.011916 -0.004883 0.026821 0.000000 -0.021934 0.000000
# 4 0.000000 0.000000 0.000000 0.038211 0.000000 -0.017998
# 5 -0.008232 -0.000631 -0.021934 0.000000 0.069546 0.000000
# 6 0.000000 0.000000 0.000000 -0.017998 0.000000 0.066065
#
#
# Mechanical properties :
#
#
# Convention : Reuss Voigt Hill
#
# Bulk Modulus (GPa) = 28.78137 53.36196 41.07167
# Shear Modulus (GPa) = 16.80961 23.50151 20.15556
#
# Velocity S-wave (km/s) = 3.28350 3.88246 3.59547
# Velocity P-wave (km/s) = 5.73019 7.37044 6.60146
#
# Compressibility (1/GPa) = 0.03474470
#
# Stress axis : x y z
#
# Youngs Moduli (GPa) = 31.08824 69.40965 37.28416
#
# Poissons Ratio (x) = 0.17533 0.44428
# Poissons Ratio (y) = 0.07853 0.18206
# Poissons Ratio (z) = 0.37045 0.33893
#
# Static dielectric constant tensor:
#      x y z
#    x 2.890520 0.000000 0.464290 
#    y 0.000000 3.080440 0.000000 
#    z 0.464290 0.000000 2.967420 
# 
# 
# High freq. dielectric constant tensor:
#      x y z
#    x 1.548900 0.000000 0.050300 
#    y 0.000000 1.612200 0.000000 
#    z 0.050300 0.000000 1.583410 
# 
# From -- ./inp_files/51407.got.cif
#   From: 2010.06.25/outbox.cif.g09.slc.cpg/sg11_26_cif.got.tgz:51407.got - 2010.06.27 23:14:04.
