data_PCOD8068436
_publ_section_title
;
Structure prediction by ZEFSAII (Michael W. Deem and Ramdas Pophale) SiO2 
 PCOD8068436
Probable space group: P 21/M
;
_chemical_formula_sum "Si O2"
_cell_formula_units_Z 28
_cell_length_a 13.426108
_cell_length_b 13.535902
_cell_length_c 11.374473
_cell_angle_alpha 90.000000
_cell_angle_beta 49.929760
_cell_angle_gamma 90.000000
_cell_volume 1581.886380
_symmetry_space_group_name_H-M "P 21/M"
_symmetry_group_IT_number 11
_symmetry_cell_setting 'monoclinic'
loop_
_space_group_symop_operation_xyz
x,y,z
-x,1/2+y,-z
-x,-y,-z
x,1/2-y,z
loop_
_atom_site_type_symbol
_atom_site_label
_atom_site_fract_x
_atom_site_fract_y
_atom_site_fract_z
Si Si1 0.270059 0.140995 0.075000
Si Si2 0.638953 0.452850 0.913839
Si Si3 0.370573 0.865594 0.821460
Si Si4 0.553870 0.139600 0.757808
Si Si5 0.586096 0.977969 0.545775
Si Si6 0.048853 0.361251 0.054156
Si Si7 0.189279 0.990548 0.783788
O O1 0.282484 0.250000 0.127353
O O2 0.142356 0.139567 0.094485
O O3 0.260364 0.046570 0.170172
O O4 0.400633 0.120695 0.899587
O O5 0.651857 0.378905 0.793906
O O6 0.500000 0.500000 0.000000
O O7 0.651930 0.392812 0.025248
O O8 0.341895 0.750000 0.824624
O O9 0.275369 0.932099 0.814638
O O10 0.521124 0.888260 0.669502
O O11 0.575739 0.250000 0.698316
O O12 0.596709 0.073780 0.617612
O O13 0.730144 0.959702 0.384680
O O14 0.500000 0.000000 0.500000
O O15 0.019158 0.250000 0.035065
O O16 0.914446 0.414129 0.191765
O O17 0.116056 0.417319 0.895955
#
# Coordination Sequence:
#
# PCOD8068436 Si02
#       7
#     4   4   4   4   4   4   4
#     4   9  16  29  52  76 102 133 172 214 259 309
#     4  10  17  32  50  77 109 131 178 218 260 308
#     4  11  20  33  52  80 109 138 173 217 267 312
#     4  10  19  32  52  77 104 140 174 214 264 318
#     4  10  20  34  49  74 109 138 164 209 265 316
#     4  10  19  34  55  77 101 140 180 216 263 312
#     4  10  21  35  53  78 109 135 175 222 261 316
#
# _framework density 17.700386000000002
#
# number of rings (size 3 to 8) (size 9 to 14) (size 15 to 20)
#    0.000    2.000    4.286    1.714    0.000    4.000 
#    0.000    0.000    0.000    0.857    0.000    0.000 
#    0.000    0.000    0.000    0.000    0.000    0.000 
#
# Total GULP energy -346902.633668 kJ/mol
# GULP energy per Si atom -12389.379774 kJ/mol
# Density = 1.766010 g / cm^3
# Si number density = 17.700386 Si / 1000 Ang^3
#
#
#
# Elastic Constant Matrix: (Units=GPa)
#
#
# Indices 1 2 3 4 5 6 
#
# 1 71.3734 21.1999 27.0542 0.0000 2.8274 0.0000
# 2 21.1999 79.2545 12.8929 0.0000 -4.3928 0.0000
# 3 27.0542 12.8929 59.4124 0.0000 -3.6883 0.0000
# 4 0.0000 0.0000 0.0000 14.4331 0.0000 -0.1339
# 5 2.8274 -4.3928 -3.6883 0.0000 26.8992 0.0000
# 6 0.0000 0.0000 0.0000 -0.1339 0.0000 31.1969
#
#
#
# Elastic Compliance Matrix: (Units=1/GPa)
#
#
# Indices 1 2 3 4 5 6 
#
# 1 0.018198 -0.003817 -0.007681 0.000000 -0.003589 0.000000
# 2 -0.003817 0.013963 -0.001135 0.000000 0.002526 0.000000
# 3 -0.007681 -0.001135 0.020791 0.000000 0.003473 0.000000
# 4 0.000000 0.000000 0.000000 0.069288 0.000000 0.000297
# 5 -0.003589 0.002526 0.003473 0.000000 0.038442 0.000000
# 6 0.000000 0.000000 0.000000 0.000297 0.000000 0.032056
#
#
# Mechanical properties :
#
#
# Convention : Reuss Voigt Hill
#
# Bulk Modulus (GPa) = 36.11992 36.92602 36.52297
# Shear Modulus (GPa) = 22.00371 24.43207 23.21789
#
# Velocity S-wave (km/s) = 3.52962 3.71929 3.62569
# Velocity P-wave (km/s) = 6.08782 6.27305 6.18113
#
# Compressibility (1/GPa) = 0.02768555
#
# Stress axis : x y z
#
# Youngs Moduli (GPa) = 54.94963 71.61615 48.09724
#
# Poissons Ratio (x) = 0.27338 0.36945
# Poissons Ratio (y) = 0.20976 0.05459
# Poissons Ratio (z) = 0.42209 0.08129
#
# Static dielectric constant tensor:
#      x y z
#    x 3.652260 0.000000 0.102630 
#    y 0.000000 3.857480 0.000000 
#    z 0.102630 0.000000 3.303700 
# 
# 
# High freq. dielectric constant tensor:
#      x y z
#    x 1.681970 0.000000 0.003340 
#    y 0.000000 1.699650 0.000000 
#    z 0.003340 0.000000 1.643940 
# 
# From -- ./inp_files/39339.got.cif
#   From: 2010.06.25/outbox.cif.g09.slc.cpg/sg11_20_cif.got.tgz:39339.got - 2010.06.27 23:14:04.
