data_PCOD8068736
_publ_section_title
;
Structure prediction by ZEFSAII (Michael W. Deem and Ramdas Pophale) SiO2 
 PCOD8068736
Probable space group: P 21/M
;
_chemical_formula_sum "Si O2"
_cell_formula_units_Z 32
_cell_length_a 25.675964
_cell_length_b 9.524480
_cell_length_c 15.688450
_cell_angle_alpha 90.000000
_cell_angle_beta 150.160126
_cell_angle_gamma 90.000000
_cell_volume 1909.013587
_symmetry_space_group_name_H-M "P 21/M"
_symmetry_group_IT_number 11
_symmetry_cell_setting 'monoclinic'
loop_
_space_group_symop_operation_xyz
x,y,z
-x,1/2+y,-z
-x,-y,-z
x,1/2-y,z
loop_
_atom_site_type_symbol
_atom_site_label
_atom_site_fract_x
_atom_site_fract_y
_atom_site_fract_z
Si Si1 0.094039 0.915776 0.321162
Si Si2 0.939322 0.087331 0.531377
Si Si3 0.222299 0.086899 0.381893
Si Si4 0.119154 0.416528 0.062435
Si Si5 0.366916 0.084224 0.139795
Si Si6 0.675879 0.583469 0.732600
Si Si7 0.152735 0.087334 0.744787
Si Si8 0.437293 0.086899 0.596887
O O1 0.108655 0.750000 0.330501
O O2 0.081433 0.957825 0.401435
O O3 0.194873 0.994691 0.425861
O O4 0.992661 0.974069 0.126514
O O5 0.914236 0.250000 0.481254
O O6 0.059953 0.053760 0.679855
O O7 0.861071 0.000005 0.361070
O O8 0.205685 0.250000 0.379615
O O9 0.145316 0.038080 0.196109
O O10 0.342229 0.057837 0.526689
O O11 0.120633 0.250000 0.057726
O O12 0.209200 0.476867 0.127605
O O13 0.386809 0.250000 0.164965
O O14 0.358802 0.025932 0.224947
O O15 0.463886 0.005310 0.232901
O O16 0.261433 0.042176 0.941428
O O17 0.683545 0.750000 0.746461
O O18 0.594525 0.538092 0.543731
O O19 0.152780 0.250000 0.719791
O O20 0.468241 0.250000 0.642172
#
# Coordination Sequence:
#
# PCOD8068736 Si02
#       8
#     4   4   4   4   4   4   4   4
#     4  10  18  28  47  71  91 116 152 190 224 261
#     4   9  18  32  49  70  95 120 146 179 223 273
#     4   9  18  31  45  63  91 126 157 184 219 263
#     4   8  14  26  44  66  93 123 152 181 217 265
#     4  10  18  28  47  71  91 116 152 190 224 261
#     4   8  14  26  44  66  93 123 152 181 217 265
#     4   9  18  32  49  70  95 120 146 179 223 273
#     4   9  18  31  45  63  91 126 157 184 219 263
#
# _framework density 16.762584
#
# number of rings (size 3 to 8) (size 9 to 14) (size 15 to 20)
#    0.000    3.000    0.000    3.000    0.000    4.500 
#    0.000    0.000    0.000    4.500    0.000    0.000 
#    0.000    0.000    0.000    0.000    0.000    0.000 
#
# Total GULP energy -396724.742451 kJ/mol
# GULP energy per Si atom -12397.648202 kJ/mol
# Density = 1.672443 g / cm^3
# Si number density = 16.762584 Si / 1000 Ang^3
#
#
#
# Elastic Constant Matrix: (Units=GPa)
#
#
# Indices 1 2 3 4 5 6 
#
# 1 115.1754 48.7616 61.9380 0.0000 0.5950 0.0000
# 2 48.7616 43.2093 46.8168 0.0000 2.3976 0.0000
# 3 61.9380 46.8168 108.7576 0.0000 7.2911 0.0000
# 4 0.0000 0.0000 0.0000 25.6004 0.0000 2.3650
# 5 0.5950 2.3976 7.2911 0.0000 18.1369 0.0000
# 6 0.0000 0.0000 0.0000 2.3650 0.0000 27.5212
#
#
#
# Elastic Compliance Matrix: (Units=1/GPa)
#
#
# Indices 1 2 3 4 5 6 
#
# 1 0.017165 -0.016363 -0.002917 0.000000 0.002773 0.000000
# 2 -0.016363 0.059030 -0.016037 0.000000 -0.000820 0.000000
# 3 -0.002917 -0.016037 0.018099 0.000000 -0.005060 0.000000
# 4 0.000000 0.000000 0.000000 0.039374 0.000000 -0.003384
# 5 0.002773 -0.000820 -0.005060 0.000000 0.057188 0.000000
# 6 0.000000 0.000000 0.000000 -0.003384 0.000000 0.036626
#
#
# Mechanical properties :
#
#
# Convention : Reuss Voigt Hill
#
# Bulk Modulus (GPa) = 42.26738 64.68613 53.47675
# Shear Modulus (GPa) = 16.33969 21.56008 18.94989
#
# Velocity S-wave (km/s) = 3.12552 3.59026 3.36592
# Velocity P-wave (km/s) = 6.18831 7.47395 6.86131
#
# Compressibility (1/GPa) = 0.02365891
#
# Stress axis : x y z
#
# Youngs Moduli (GPa) = 58.25950 16.94049 55.25216
#
# Poissons Ratio (x) = 0.27720 0.16119
# Poissons Ratio (y) = 0.95330 0.88607
# Poissons Ratio (z) = 0.16997 0.27167
#
# Static dielectric constant tensor:
#      x y z
#    x 3.144020 0.000000 0.045190 
#    y 0.000000 2.823690 0.000000 
#    z 0.045190 0.000000 3.107290 
# 
# 
# High freq. dielectric constant tensor:
#      x y z
#    x 1.641870 0.000000 0.008570 
#    y 0.000000 1.619880 0.000000 
#    z 0.008570 0.000000 1.634900 
# 
# From -- ./inp_files/51732.got.cif
#   From: 2010.06.25/outbox.cif.g09.slc.cpg/sg11_26_cif.got.tgz:51732.got - 2010.06.27 23:14:04.
