data_PCOD8068273
_publ_section_title
;
Structure prediction by ZEFSAII (Michael W. Deem and Ramdas Pophale) SiO2 
 PCOD8068273
Probable space group: P 21/M
;
_chemical_formula_sum "Si O2"
_cell_formula_units_Z 24
_cell_length_a 12.089115
_cell_length_b 8.994890
_cell_length_c 14.431534
_cell_angle_alpha 90.000000
_cell_angle_beta 69.335712
_cell_angle_gamma 90.000000
_cell_volume 1468.327255
_symmetry_space_group_name_H-M "P 21/M"
_symmetry_group_IT_number 11
_symmetry_cell_setting 'monoclinic'
loop_
_space_group_symop_operation_xyz
x,y,z
-x,1/2+y,-z
-x,-y,-z
x,1/2-y,z
loop_
_atom_site_type_symbol
_atom_site_label
_atom_site_fract_x
_atom_site_fract_y
_atom_site_fract_z
Si Si1 0.068052 0.923032 0.562473
Si Si2 0.751256 0.075736 0.178081
Si Si3 0.098275 0.579719 0.028070
Si Si4 0.572541 0.578074 0.343375
Si Si5 0.956751 0.574576 0.237262
Si Si6 0.336430 0.920186 0.506326
O O1 0.036156 0.750000 0.574916
O O2 0.207213 0.948759 0.503293
O O3 0.025599 0.996259 0.670246
O O4 0.000000 0.000000 0.500000
O O5 0.757074 0.250000 0.198950
O O6 0.621014 0.013054 0.240351
O O7 0.844941 0.993083 0.216469
O O8 0.776572 0.043317 0.060274
O O9 0.069188 0.750000 0.022307
O O10 0.079219 0.541469 0.142587
O O11 0.000000 0.500000 0.000000
O O12 0.597734 0.750000 0.318461
O O13 0.644126 0.528528 0.413291
O O14 0.432989 0.545295 0.397780
O O15 0.936246 0.750000 0.257456
O O16 0.351046 0.750000 0.536584
#
# Coordination Sequence:
#
# PCOD8068273 Si02
#       6
#     4   4   4   4   4   4
#     4  11  22  35  50  68  92 124 159 195 234 276
#     4  10  17  27  43  67  97 127 152 183 230 280
#     4   8  16  27  41  62  91 122 152 184 226 276
#     4  10  18  28  46  69  93 123 155 188 228 277
#     4  10  18  30  46  66  91 122 158 195 229 271
#     4   9  19  33  46  64  92 123 155 191 233 276
#
# _framework density 16.345130000000001
#
# number of rings (size 3 to 8) (size 9 to 14) (size 15 to 20)
#    0.000    2.333    1.667    2.000    0.000    2.667 
#    0.000    0.000    0.000    0.000    0.000    1.167 
#    0.000    0.000    0.000    0.000    0.000    0.000 
#
# Total GULP energy -297351.798790 kJ/mol
# GULP energy per Si atom -12389.658283 kJ/mol
# Density = 1.630793 g / cm^3
# Si number density = 16.345130 Si / 1000 Ang^3
#
#
#
# Elastic Constant Matrix: (Units=GPa)
#
#
# Indices 1 2 3 4 5 6 
#
# 1 63.2541 37.7610 56.3214 0.0000 -9.2975 0.0000
# 2 37.7610 91.6753 66.0646 0.0000 -9.4002 0.0000
# 3 56.3214 66.0646 155.6224 0.0000 -25.7874 0.0000
# 4 0.0000 0.0000 0.0000 26.0598 0.0000 -3.2179
# 5 -9.2975 -9.4002 -25.7874 0.0000 24.8269 0.0000
# 6 0.0000 0.0000 0.0000 -3.2179 0.0000 20.1127
#
#
#
# Elastic Compliance Matrix: (Units=1/GPa)
#
#
# Indices 1 2 3 4 5 6 
#
# 1 0.025093 -0.005472 -0.006698 0.000000 0.000369 0.000000
# 2 -0.005472 0.016938 -0.005420 0.000000 -0.001265 0.000000
# 3 -0.006698 -0.005420 0.012556 0.000000 0.008481 0.000000
# 4 0.000000 0.000000 0.000000 0.039147 0.000000 0.006263
# 5 0.000369 -0.001265 0.008481 0.000000 0.048747 0.000000
# 6 0.000000 0.000000 0.000000 0.006263 0.000000 0.050722
#
#
# Mechanical properties :
#
#
# Convention : Reuss Voigt Hill
#
# Bulk Modulus (GPa) = 51.52247 70.09396 60.80822
# Shear Modulus (GPa) = 21.29008 24.22688 22.75848
#
# Velocity S-wave (km/s) = 3.61298 3.85412 3.73550
# Velocity P-wave (km/s) = 6.99963 7.92354 7.47587
#
# Compressibility (1/GPa) = 0.01940901
#
# Stress axis : x y z
#
# Youngs Moduli (GPa) = 39.85102 59.03949 79.64303
#
# Poissons Ratio (x) = 0.32304 0.53342
# Poissons Ratio (y) = 0.21805 0.43166
# Poissons Ratio (z) = 0.26691 0.31999
#
# Static dielectric constant tensor:
#      x y z
#    x 2.769390 0.000000 -0.510010 
#    y 0.000000 3.227670 0.000000 
#    z -0.510010 0.000000 3.798050 
# 
# 
# High freq. dielectric constant tensor:
#      x y z
#    x 1.570480 0.000000 -0.037540 
#    y 0.000000 1.647060 0.000000 
#    z -0.037540 0.000000 1.641480 
# 
# From -- ./inp_files/36980.got.cif
#   From: 2010.06.25/outbox.cif.g09.slc.cpg/sg11_19_cif.got.tgz:36980.got - 2010.06.27 23:14:04.
