data_PCOD8068045
_publ_section_title
;
Structure prediction by ZEFSAII (Michael W. Deem and Ramdas Pophale) SiO2 
 PCOD8068045
Probable space group: P 2/M
;
_chemical_formula_sum "Si O2"
_cell_formula_units_Z 28
_cell_length_a 18.702940
_cell_length_b 9.202364
_cell_length_c 23.719364
_cell_angle_alpha 90.000000
_cell_angle_beta 157.046720
_cell_angle_gamma 90.000000
_cell_volume 1592.044166
_symmetry_space_group_name_H-M "P 2/M"
_symmetry_group_IT_number 10
_symmetry_cell_setting 'monoclinic'
loop_
_space_group_symop_operation_xyz
x,y,z
-x,y,-z
-x,-y,-z
x,-y,z
loop_
_atom_site_type_symbol
_atom_site_label
_atom_site_fract_x
_atom_site_fract_y
_atom_site_fract_z
Si Si1 0.340849 0.828920 0.338786
Si Si2 0.391230 0.170021 0.800865
Si Si3 0.899313 0.828710 0.317513
Si Si4 0.621915 0.829097 0.764748
Si Si5 0.695773 0.171485 0.385918
Si Si6 0.350223 0.659848 0.939476
Si Si7 0.977110 0.334110 0.049974
O O1 0.500000 0.781087 0.500000
O O2 0.401734 0.791527 0.318812
O O3 0.147042 0.743709 0.206572
O O4 0.302326 0.000000 0.318178
O O5 0.208125 0.213025 0.702984
O O6 0.379561 0.221162 0.728621
O O7 0.428948 0.000000 0.835680
O O8 0.567908 0.257878 0.948082
O O9 0.816744 0.755821 0.202542
O O10 0.101928 0.761698 0.464557
O O11 0.895541 0.000000 0.306225
O O12 0.434364 0.774536 0.658006
O O13 0.655281 0.000000 0.796875
O O14 0.785761 0.751385 0.918496
O O15 0.713489 0.000000 0.400891
O O16 0.282251 0.500000 0.908053
O O17 0.500000 0.648695 0.000000
O O18 0.963314 0.500000 0.062214
O O19 0.000000 0.331302 0.000000
#
# Coordination Sequence:
#
# PCOD8068045 Si02
#       7
#     4   4   4   4   4   4   4
#     4   9  17  30  50  74  96 120 152 187 223 268
#     4   9  16  28  47  68  88 115 154 195 233 275
#     4   9  16  28  47  68  90 118 153 193 235 276
#     4   9  17  31  49  68  93 123 153 187 228 272
#     4   9  17  29  47  70  92 116 151 195 236 272
#     4   9  17  29  44  63  88 117 151 191 232 275
#     4   9  17  30  49  71  94 121 152 184 220 267
#
# _framework density 17.587451999999999
#
# number of rings (size 3 to 8) (size 9 to 14) (size 15 to 20)
#    0.000    3.000    0.000    1.286    0.000    5.429 
#    0.000    3.571    0.000    8.571    0.000    0.000 
#    0.000    0.000    0.000    0.000    0.000    0.000 
#
# Total GULP energy -346916.793656 kJ/mol
# GULP energy per Si atom -12389.885488 kJ/mol
# Density = 1.754742 g / cm^3
# Si number density = 17.587452 Si / 1000 Ang^3
#
#
#
# Elastic Constant Matrix: (Units=GPa)
#
#
# Indices 1 2 3 4 5 6 
#
# 1 79.0412 17.0228 31.8518 0.0000 -3.2117 0.0000
# 2 17.0228 -21.1739 -177.9515 0.0000 -22.1292 0.0000
# 3 31.8518 -177.9515 -539.0259 0.0000 -75.2490 0.0000
# 4 0.0000 0.0000 0.0000 -7.3552 0.0000 8.8912
# 5 -3.2117 -22.1292 -75.2490 0.0000 11.1196 0.0000
# 6 0.0000 0.0000 0.0000 8.8912 0.0000 5.4280
#
#
#
# Elastic Compliance Matrix: (Units=1/GPa)
#
#
# Indices 1 2 3 4 5 6 
#
# 1 0.013036 -0.002615 0.000943 0.000000 0.004945 0.000000
# 2 -0.002615 0.027382 -0.008585 0.000000 -0.004361 0.000000
# 3 0.000943 -0.008585 0.001739 0.000000 -0.005045 0.000000
# 4 0.000000 0.000000 0.000000 -0.045622 0.000000 0.074730
# 5 0.004945 -0.004361 -0.005045 0.000000 0.048542 0.000000
# 6 0.000000 0.000000 0.000000 0.074730 0.000000 0.061821
#
#
# Mechanical properties :
#
#
# Convention : Reuss Voigt Hill
#
# Bulk Modulus (GPa) = 46.20459 -82.14581 -17.97061
# Shear Modulus (GPa) = 37.14020 -21.63365 7.75327
#
# Velocity S-wave (km/s) = 4.60036 -3.51103 2.10190
# Velocity P-wave (km/s) = 7.38553 7.95266 2.08552
#
# Compressibility (1/GPa) = 0.02164287
#
# Stress axis : x y z
#
# Youngs Moduli (GPa) = 76.71326 36.52067 575.01526
#
# Poissons Ratio (x) = 0.09549 -0.54236
# Poissons Ratio (y) = 0.20058 4.93669
# Poissons Ratio (z) = -0.07236 0.31354
#
# Static dielectric constant tensor:
#      x y z
#    x 3.171230 0.000000 -0.022390 
#    y 0.000000 3.299780 0.000000 
#    z -0.022390 0.000000 3.558680 
# 
# 
# High freq. dielectric constant tensor:
#      x y z
#    x 1.651270 0.000000 -0.005090 
#    y 0.000000 1.663300 0.000000 
#    z -0.005090 0.000000 1.686670 
# 
# From -- ./inp_files/38014.got.cif
#   From: 2010.06.25/outbox.cif.g09.slc.cpg/sg10_20_cif.got.tgz:38014.got - 2010.06.27 22:07:45.
