data_PCOD8068177
_publ_section_title
;
Structure prediction by ZEFSAII (Michael W. Deem and Ramdas Pophale) SiO2 
 PCOD8068177
Probable space group: P 21/M
;
_chemical_formula_sum "Si O2"
_cell_formula_units_Z 26
_cell_length_a 13.722805
_cell_length_b 16.302351
_cell_length_c 11.283391
_cell_angle_alpha 90.000000
_cell_angle_beta 146.343760
_cell_angle_gamma 90.000000
_cell_volume 1398.963007
_symmetry_space_group_name_H-M "P 21/M"
_symmetry_group_IT_number 11
_symmetry_cell_setting 'monoclinic'
loop_
_space_group_symop_operation_xyz
x,y,z
-x,1/2+y,-z
-x,-y,-z
x,1/2-y,z
loop_
_atom_site_type_symbol
_atom_site_label
_atom_site_fract_x
_atom_site_fract_y
_atom_site_fract_z
Si Si1 0.663920 0.576776 0.893766
Si Si2 0.905218 0.157917 0.112602
Si Si3 0.217821 0.750000 0.376061
Si Si4 0.726831 0.425897 0.500494
Si Si5 0.618738 0.750000 0.762351
Si Si6 0.970991 0.012572 0.333288
Si Si7 0.903039 0.750000 0.865285
Si Si8 0.802789 0.473872 0.834133
O O1 0.468932 0.557170 0.746490
O O2 0.679978 0.674589 0.905113
O O3 0.703231 0.548270 0.798521
O O4 0.801826 0.540039 0.125909
O O5 0.826460 0.250000 0.060920
O O6 0.077304 0.170575 0.201648
O O7 0.780947 0.100430 0.906965
O O8 0.946819 0.109206 0.276649
O O9 0.204337 0.831901 0.443523
O O10 0.413999 0.750000 0.518801
O O11 0.066651 0.750000 0.123995
O O12 0.859368 0.484298 0.567101
O O13 0.706605 0.446748 0.618450
O O14 0.715442 0.750000 0.734236
O O15 0.000000 0.000000 0.500000
O O16 0.000000 0.500000 0.000000
#
# Coordination Sequence:
#
# PCOD8068177 Si02
#       8
#     4   4   2   4   2   4   2   4
#     4  10  22  35  57  86 114 148 182 229 284 336
#     4   9  19  34  58  80 111 145 184 232 281 340
#     4  10  20  32  53  89 117 147 170 217 286 352
#     4  11  20  36  58  83 118 146 182 231 280 337
#     4  10  20  32  53  89 119 139 180 213 282 360
#     4  11  24  42  57  79 107 153 204 240 276 321
#     4  10  16  32  54  76 116 148 166 224 280 338
#     4  11  17  33  55  87 119 142 179 220 284 353
#
# _framework density 18.585194000000001
#
# number of rings (size 3 to 8) (size 9 to 14) (size 15 to 20)
#    0.462    1.231    4.615    2.308    0.000    0.615 
#    2.769    0.000    0.000    0.000    0.000    0.000 
#    0.000    0.000    0.000    0.000    0.000    0.000 
#
# Total GULP energy -322094.591211 kJ/mol
# GULP energy per Si atom -12388.253508 kJ/mol
# Density = 1.854289 g / cm^3
# Si number density = 18.585194 Si / 1000 Ang^3
#
#
#
# Elastic Constant Matrix: (Units=GPa)
#
#
# Indices 1 2 3 4 5 6 
#
# 1 56.5826 34.4365 45.6226 0.0000 -15.9475 0.0000
# 2 34.4365 126.6105 42.8554 0.0000 -1.9388 0.0000
# 3 45.6226 42.8554 79.4516 0.0000 -3.5379 0.0000
# 4 0.0000 0.0000 0.0000 18.9701 0.0000 -5.0951
# 5 -15.9475 -1.9388 -3.5379 0.0000 31.0761 0.0000
# 6 0.0000 0.0000 0.0000 -5.0951 0.0000 14.0347
#
#
#
# Elastic Compliance Matrix: (Units=1/GPa)
#
#
# Indices 1 2 3 4 5 6 
#
# 1 0.043120 -0.004089 -0.021691 0.000000 0.019404 0.000000
# 2 -0.004089 0.010050 -0.003154 0.000000 -0.001830 0.000000
# 3 -0.021691 -0.003154 0.026372 0.000000 -0.008326 0.000000
# 4 0.000000 0.000000 0.000000 0.058410 0.000000 0.021205
# 5 0.019404 -0.001830 -0.008326 0.000000 0.041074 0.000000
# 6 0.000000 0.000000 0.000000 0.021205 0.000000 0.078950
#
#
# Mechanical properties :
#
#
# Convention : Reuss Voigt Hill
#
# Bulk Modulus (GPa) = 46.13837 56.49706 51.31772
# Shear Modulus (GPa) = 15.47655 22.13154 18.80404
#
# Velocity S-wave (km/s) = 2.88885 3.45456 3.18429
# Velocity P-wave (km/s) = 6.00054 6.81006 6.41808
#
# Compressibility (1/GPa) = 0.02167393
#
# Stress axis : x y z
#
# Youngs Moduli (GPa) = 23.19120 99.50159 37.91871
#
# Poissons Ratio (x) = 0.40686 0.82248
# Poissons Ratio (y) = 0.09483 0.11961
# Poissons Ratio (z) = 0.50303 0.31387
#
# Static dielectric constant tensor:
#      x y z
#    x 3.221130 0.000000 0.064010 
#    y 0.000000 3.852260 0.000000 
#    z 0.064010 0.000000 3.280520 
# 
# 
# High freq. dielectric constant tensor:
#      x y z
#    x 1.690790 0.000000 0.016010 
#    y 0.000000 1.740930 0.000000 
#    z 0.016010 0.000000 1.700080 
# 
# From -- ./inp_files/39871.got.cif
#   From: 2010.06.25/outbox.cif.g09.slc.cpg/sg11_20_cif.got.tgz:39871.got - 2010.06.27 23:14:04.
