data_PCOD8068495
_publ_section_title
;
Structure prediction by ZEFSAII (Michael W. Deem and Ramdas Pophale) SiO2 
 PCOD8068495
Probable space group: P 21/M
;
_chemical_formula_sum "Si O2"
_cell_formula_units_Z 32
_cell_length_a 16.191234
_cell_length_b 9.117333
_cell_length_c 18.337222
_cell_angle_alpha 90.000000
_cell_angle_beta 54.557854
_cell_angle_gamma 90.000000
_cell_volume 2205.361588
_symmetry_space_group_name_H-M "P 21/M"
_symmetry_group_IT_number 11
_symmetry_cell_setting 'monoclinic'
loop_
_space_group_symop_operation_xyz
x,y,z
-x,1/2+y,-z
-x,-y,-z
x,1/2-y,z
loop_
_atom_site_type_symbol
_atom_site_label
_atom_site_fract_x
_atom_site_fract_y
_atom_site_fract_z
Si Si1 0.483718 0.416669 0.682179
Si Si2 0.888605 0.581435 0.986462
Si Si3 0.411980 0.081068 0.085249
Si Si4 0.480904 0.922046 0.832158
Si Si5 0.880376 0.079490 0.138598
Si Si6 0.404904 0.580335 0.515175
Si Si7 0.712081 0.577086 0.312959
Si Si8 0.699296 0.580088 0.992941
O O1 0.472476 0.250000 0.714718
O O2 0.503846 0.517529 0.740837
O O3 0.582090 0.433395 0.578996
O O4 0.380222 0.463360 0.694086
O O5 0.876591 0.750000 0.018510
O O6 0.813875 0.542872 0.957902
O O7 0.002373 0.551973 0.900874
O O8 0.858440 0.477408 0.068646
O O9 0.438050 0.250000 0.065028
O O10 0.419917 0.039398 0.167238
O O11 0.310245 0.044751 0.090032
O O12 0.500000 0.000000 0.000000
O O13 0.463660 0.750000 0.833964
O O14 0.378778 0.988716 0.918235
O O15 0.850662 0.250000 0.157945
O O16 0.815867 0.987233 0.228925
O O17 0.500000 0.500000 0.500000
O O18 0.404092 0.750000 0.539423
O O19 0.306038 0.499027 0.598500
O O20 0.721963 0.750000 0.319445
O O21 0.674728 0.750000 0.020570
#
# Coordination Sequence:
#
# PCOD8068495 Si02
#       8
#     4   4   4   4   4   4   4   4
#     4   9  18  29  40  56  79 106 132 156 187 230
#     4   9  18  30  42  57  77 104 137 168 198 233
#     4   8  15  26  38  54  75 100 129 161 194 227
#     4  10  18  25  37  59  82 102 130 164 194 228
#     4  10  19  29  41  58  80 104 132 168 203 232
#     4   9  17  29  43  59  79 103 132 164 195 230
#     4  10  19  30  43  58  78 106 137 164 194 234
#     4   9  16  28  43  54  73 106 137 163 194 232
#
# _framework density 14.510092
#
# number of rings (size 3 to 8) (size 9 to 14) (size 15 to 20)
#    0.000    2.750    0.000    3.000    0.000    7.500 
#    0.000    0.000    0.000    0.000    0.000    0.000 
#    0.000    1.000    0.000    2.000    0.000    2.625 
#
# Total GULP energy -396456.708913 kJ/mol
# GULP energy per Si atom -12389.272154 kJ/mol
# Density = 1.447707 g / cm^3
# Si number density = 14.510092 Si / 1000 Ang^3
#
#
#
# Elastic Constant Matrix: (Units=GPa)
#
#
# Indices 1 2 3 4 5 6 
#
# 1 94.8052 36.1082 42.8624 0.0000 10.0407 0.0000
# 2 36.1082 73.5678 46.6124 0.0000 4.1662 0.0000
# 3 42.8624 46.6124 89.4610 0.0000 1.1673 0.0000
# 4 0.0000 0.0000 0.0000 26.3011 0.0000 0.4326
# 5 10.0407 4.1662 1.1673 0.0000 17.4364 0.0000
# 6 0.0000 0.0000 0.0000 0.4326 0.0000 16.4875
#
#
#
# Elastic Compliance Matrix: (Units=1/GPa)
#
#
# Indices 1 2 3 4 5 6 
#
# 1 0.015101 -0.003682 -0.005219 0.000000 -0.007467 0.000000
# 2 -0.003682 0.021493 -0.009404 0.000000 -0.002386 0.000000
# 3 -0.005219 -0.009404 0.018526 0.000000 0.004012 0.000000
# 4 0.000000 0.000000 0.000000 0.038038 0.000000 -0.000998
# 5 -0.007467 -0.002386 0.004012 0.000000 0.061952 0.000000
# 6 0.000000 0.000000 0.000000 -0.000998 0.000000 0.060678
#
#
# Mechanical properties :
#
#
# Convention : Reuss Voigt Hill
#
# Bulk Modulus (GPa) = 54.02334 56.55554 55.28944
# Shear Modulus (GPa) = 19.33730 20.86173 20.09951
#
# Velocity S-wave (km/s) = 3.65455 3.79587 3.72588
# Velocity P-wave (km/s) = 7.42429 7.63366 7.52970
#
# Compressibility (1/GPa) = 0.01851052
#
# Stress axis : x y z
#
# Youngs Moduli (GPa) = 66.22209 46.52624 53.97851
#
# Poissons Ratio (x) = 0.17131 0.28172
# Poissons Ratio (y) = 0.24383 0.50759
# Poissons Ratio (z) = 0.34562 0.43751
#
# Static dielectric constant tensor:
#      x y z
#    x 3.022040 0.000000 0.226300 
#    y 0.000000 2.989460 0.000000 
#    z 0.226300 0.000000 2.761740 
# 
# 
# High freq. dielectric constant tensor:
#      x y z
#    x 1.530750 0.000000 0.012180 
#    y 0.000000 1.570030 0.000000 
#    z 0.012180 0.000000 1.534170 
# 
# From -- ./inp_files/52932.got.cif
#   From: 2010.06.25/outbox.cif.g09.slc.cpg/sg11_27_cif.got.tgz:52932.got - 2010.06.27 23:14:04.
