data_PCOD8068439
_publ_section_title
;
Structure prediction by ZEFSAII (Michael W. Deem and Ramdas Pophale) SiO2 
 PCOD8068439
Probable space group: P 21/M
;
_chemical_formula_sum "Si O2"
_cell_formula_units_Z 32
_cell_length_a 12.825792
_cell_length_b 18.761902
_cell_length_c 15.157400
_cell_angle_alpha 90.000000
_cell_angle_beta 28.307233
_cell_angle_gamma 90.000000
_cell_volume 1729.604186
_symmetry_space_group_name_H-M "P 21/M"
_symmetry_group_IT_number 11
_symmetry_cell_setting 'monoclinic'
loop_
_space_group_symop_operation_xyz
x,y,z
-x,1/2+y,-z
-x,-y,-z
x,1/2-y,z
loop_
_atom_site_type_symbol
_atom_site_label
_atom_site_fract_x
_atom_site_fract_y
_atom_site_fract_z
Si Si1 0.576811 0.335972 0.441549
Si Si2 0.963972 0.329063 0.657618
Si Si3 0.202221 0.638959 0.034265
Si Si4 0.202005 0.534102 0.296395
Si Si5 0.690115 0.512199 0.977925
Si Si6 0.422637 0.328338 0.369114
Si Si7 0.831301 0.914806 0.194774
Si Si8 0.973741 0.433241 0.142328
O O1 0.576086 0.250000 0.453979
O O2 0.518705 0.363549 0.385726
O O3 0.405718 0.376727 0.632057
O O4 0.816997 0.366981 0.283278
O O5 0.976879 0.250000 0.604745
O O6 0.839470 0.321483 0.843246
O O7 0.838009 0.381602 0.685962
O O8 0.202999 0.366478 0.496024
O O9 0.287985 0.559881 0.984380
O O10 0.985779 0.638910 0.134900
O O11 0.394081 0.680136 0.841604
O O12 0.224577 0.493648 0.186030
O O13 0.000000 0.500000 0.500000
O O14 0.432623 0.531462 0.176205
O O15 0.844618 0.567763 0.914828
O O16 0.337924 0.250000 0.459097
O O17 0.834737 0.992711 0.239194
O O18 0.905486 0.920173 0.039353
#
# Coordination Sequence:
#
# PCOD8068439 Si02
#       8
#     4   4   4   4   4   4   4   4
#     4  11  22  34  51  79 116 155 189 222 270 330
#     4  10  20  33  53  82 111 139 179 226 280 340
#     4  10  17  32  53  79 112 142 175 221 278 328
#     4  10  20  38  60  82 107 142 180 238 295 329
#     4   9  21  36  57  82 105 136 189 233 274 335
#     4  10  19  29  47  77 113 146 174 212 271 334
#     4  10  20  34  55  81 113 151 186 225 268 331
#     4  10  21  38  55  81 113 149 191 228 271 329
#
# _framework density 18.501342999999999
#
# number of rings (size 3 to 8) (size 9 to 14) (size 15 to 20)
#    0.000    2.000    2.500    1.500    0.000    2.000 
#    0.000    0.625    0.000    2.250    0.000    0.000 
#    0.000    0.000    0.000    0.000    0.000    0.000 
#
# Total GULP energy -396685.282940 kJ/mol
# GULP energy per Si atom -12396.415092 kJ/mol
# Density = 1.845923 g / cm^3
# Si number density = 18.501343 Si / 1000 Ang^3
#
#
#
# Elastic Constant Matrix: (Units=GPa)
#
#
# Indices 1 2 3 4 5 6 
#
# 1 86.9019 37.3772 38.9531 0.0000 -20.4201 0.0000
# 2 37.3772 81.2564 49.5758 0.0000 -9.1878 0.0000
# 3 38.9531 49.5758 121.4079 0.0000 -12.3912 0.0000
# 4 0.0000 0.0000 0.0000 27.1711 0.0000 -2.1643
# 5 -20.4201 -9.1878 -12.3912 0.0000 31.2178 0.0000
# 6 0.0000 0.0000 0.0000 -2.1643 0.0000 3.9132
#
#
#
# Elastic Compliance Matrix: (Units=1/GPa)
#
#
# Indices 1 2 3 4 5 6 
#
# 1 0.016871 -0.005360 -0.002354 0.000000 0.008523 0.000000
# 2 -0.005360 0.018247 -0.005775 0.000000 -0.000428 0.000000
# 3 -0.002354 -0.005775 0.011485 0.000000 0.001319 0.000000
# 4 0.000000 0.000000 0.000000 0.038500 0.000000 0.021293
# 5 0.008523 -0.000428 0.001319 0.000000 0.038006 0.000000
# 6 0.000000 0.000000 0.000000 0.021293 0.000000 0.267321
#
#
# Mechanical properties :
#
#
# Convention : Reuss Voigt Hill
#
# Bulk Modulus (GPa) = 50.95793 60.15316 55.55555
# Shear Modulus (GPa) = 11.79382 23.37109 17.58246
#
# Velocity S-wave (km/s) = 2.52753 3.55802 3.08609
# Velocity P-wave (km/s) = 6.01003 7.03298 6.54153
#
# Compressibility (1/GPa) = 0.01962403
#
# Stress axis : x y z
#
# Youngs Moduli (GPa) = 59.27401 54.80210 87.07144
#
# Poissons Ratio (x) = 0.29376 0.20498
# Poissons Ratio (y) = 0.31773 0.50284
# Poissons Ratio (z) = 0.13954 0.31648
#
# Static dielectric constant tensor:
#      x y z
#    x 3.350770 0.000000 -0.130730 
#    y 0.000000 3.496690 0.000000 
#    z -0.130730 0.000000 3.417100 
# 
# 
# High freq. dielectric constant tensor:
#      x y z
#    x 1.698050 0.000000 -0.005330 
#    y 0.000000 1.704840 0.000000 
#    z -0.005330 0.000000 1.729400 
# 
# From -- ./inp_files/39967.got.cif
#   From: 2010.06.25/outbox.cif.g09.slc.cpg/sg11_20_cif.got.tgz:39967.got - 2010.06.27 23:14:04.
