data_PCOD8068542
_publ_section_title
;
Structure prediction by ZEFSAII (Michael W. Deem and Ramdas Pophale) SiO2 
 PCOD8068542
Probable space group: P 21/M
;
_chemical_formula_sum "Si O2"
_cell_formula_units_Z 32
_cell_length_a 15.730307
_cell_length_b 9.146687
_cell_length_c 15.982578
_cell_angle_alpha 90.000000
_cell_angle_beta 108.346877
_cell_angle_gamma 90.000000
_cell_volume 2182.684971
_symmetry_space_group_name_H-M "P 21/M"
_symmetry_group_IT_number 11
_symmetry_cell_setting 'monoclinic'
loop_
_space_group_symop_operation_xyz
x,y,z
-x,1/2+y,-z
-x,-y,-z
x,1/2-y,z
loop_
_atom_site_type_symbol
_atom_site_label
_atom_site_fract_x
_atom_site_fract_y
_atom_site_fract_z
Si Si1 0.166737 0.420083 0.166744
Si Si2 0.802286 0.583646 0.017142
Si Si3 0.658914 0.920936 0.682160
Si Si4 0.583208 0.916490 0.491745
Si Si5 0.632282 0.080362 0.009781
Si Si6 0.515583 0.922096 0.301129
Si Si7 0.999722 0.918784 0.087065
Si Si8 0.516029 0.079796 0.134020
O O1 0.146143 0.250000 0.171990
O O2 0.191767 0.456995 0.078941
O O3 0.247203 0.473690 0.250824
O O4 0.077152 0.507594 0.167830
O O5 0.768458 0.750000 0.016666
O O6 0.733994 0.475371 0.041840
O O7 0.899072 0.564345 0.092690
O O8 0.642263 0.750000 0.697838
O O9 0.664662 0.947493 0.582196
O O10 0.579929 0.014083 0.699516
O O11 0.554615 0.750000 0.488895
O O12 0.593232 0.954582 0.395944
O O13 0.500000 0.000000 0.500000
O O14 0.628297 0.250000 0.984448
O O15 0.592274 0.051771 0.089005
O O16 0.577582 0.990797 0.923400
O O17 0.504853 0.750000 0.280350
O O18 0.549633 0.002542 0.228695
O O19 0.023292 0.750000 0.080087
O O20 0.000000 0.000000 0.000000
O O21 0.499063 0.250000 0.145040
#
# Coordination Sequence:
#
# PCOD8068542 Si02
#       8
#     4   4   4   4   4   4   4   4
#     4   9  17  27  40  59  81 107 136 161 191 233
#     4   9  17  28  41  58  81 108 134 160 196 238
#     4   9  16  27  42  59  83 112 136 163 201 238
#     4   8  15  26  39  57  80 105 134 166 197 232
#     4  10  20  31  44  61  78 101 135 171 202 234
#     4  10  18  27  41  60  80 106 141 172 197 231
#     4   9  17  28  41  57  78 104 132 162 195 231
#     4  10  20  32  43  57  80 107 134 166 204 240
#
# _framework density 14.660842000000001
#
# number of rings (size 3 to 8) (size 9 to 14) (size 15 to 20)
#    0.000    2.750    0.000    3.000    0.000    6.000 
#    0.000    0.000    0.000    0.000    0.000    0.000 
#    0.000    1.000    0.000    2.250    0.000    3.500 
#
# Total GULP energy -396505.603187 kJ/mol
# GULP energy per Si atom -12390.800100 kJ/mol
# Density = 1.462747 g / cm^3
# Si number density = 14.660842 Si / 1000 Ang^3
#
#
#
# Elastic Constant Matrix: (Units=GPa)
#
#
# Indices 1 2 3 4 5 6 
#
# 1 74.8577 38.8808 38.2296 0.0000 12.8796 0.0000
# 2 38.8808 73.8932 39.7264 0.0000 2.3455 0.0000
# 3 38.2296 39.7264 95.9706 0.0000 11.0308 0.0000
# 4 0.0000 0.0000 0.0000 19.7856 0.0000 0.7944
# 5 12.8796 2.3455 11.0308 0.0000 18.7201 0.0000
# 6 0.0000 0.0000 0.0000 0.7944 0.0000 25.4108
#
#
#
# Elastic Compliance Matrix: (Units=1/GPa)
#
#
# Indices 1 2 3 4 5 6 
#
# 1 0.022069 -0.009317 -0.003565 0.000000 -0.011916 0.000000
# 2 -0.009317 0.021427 -0.005992 0.000000 0.007257 0.000000
# 3 -0.003565 -0.005992 0.014966 0.000000 -0.005615 0.000000
# 4 0.000000 0.000000 0.000000 0.050605 0.000000 -0.001582
# 5 -0.011916 0.007257 -0.005615 0.000000 0.064016 0.000000
# 6 0.000000 0.000000 0.000000 -0.001582 0.000000 0.039403
#
#
# Mechanical properties :
#
#
# Convention : Reuss Voigt Hill
#
# Bulk Modulus (GPa) = 48.27864 53.15501 50.71682
# Shear Modulus (GPa) = 19.44486 21.30893 20.37689
#
# Velocity S-wave (km/s) = 3.64581 3.81656 3.73216
# Velocity P-wave (km/s) = 7.12210 7.46704 7.29661
#
# Compressibility (1/GPa) = 0.02071309
#
# Stress axis : x y z
#
# Youngs Moduli (GPa) = 45.31321 46.67083 66.82029
#
# Poissons Ratio (x) = 0.43485 0.23818
# Poissons Ratio (y) = 0.42220 0.40038
# Poissons Ratio (z) = 0.16152 0.27965
#
# Static dielectric constant tensor:
#      x y z
#    x 2.857510 0.000000 0.324010 
#    y 0.000000 2.944300 0.000000 
#    z 0.324010 0.000000 3.215400 
# 
# 
# High freq. dielectric constant tensor:
#      x y z
#    x 1.529750 0.000000 0.016610 
#    y 0.000000 1.574970 0.000000 
#    z 0.016610 0.000000 1.545510 
# 
# From -- ./inp_files/51250.got.cif
#   From: 2010.06.25/outbox.cif.g09.slc.cpg/sg11_26_cif.got.tgz:51250.got - 2010.06.27 23:14:04.
