data_PCOD8068312
_publ_section_title
;
Structure prediction by ZEFSAII (Michael W. Deem and Ramdas Pophale) SiO2 
 PCOD8068312
Probable space group: P 21/M
;
_chemical_formula_sum "Si O2"
_cell_formula_units_Z 20
_cell_length_a 10.404979
_cell_length_b 8.666648
_cell_length_c 22.574836
_cell_angle_alpha 90.000000
_cell_angle_beta 142.399304
_cell_angle_gamma 90.000000
_cell_volume 1242.101235
_symmetry_space_group_name_H-M "P 21/M"
_symmetry_group_IT_number 11
_symmetry_cell_setting 'monoclinic'
loop_
_space_group_symop_operation_xyz
x,y,z
-x,1/2+y,-z
-x,-y,-z
x,1/2-y,z
loop_
_atom_site_type_symbol
_atom_site_label
_atom_site_fract_x
_atom_site_fract_y
_atom_site_fract_z
Si Si1 0.527963 0.932110 0.445397
Si Si2 0.946671 0.432330 0.543772
Si Si3 0.889220 0.923567 0.734230
Si Si4 0.311981 0.067717 0.893616
Si Si5 0.164388 0.923337 0.728493
O O1 0.550951 0.750000 0.457019
O O2 0.500000 0.000000 0.500000
O O3 0.724595 0.002891 0.483503
O O4 0.321117 0.978074 0.331747
O O5 0.936634 0.250000 0.537153
O O6 0.000000 0.500000 0.500000
O O7 0.132243 0.482969 0.656352
O O8 0.861033 0.750000 0.748913
O O9 0.940439 0.917448 0.682031
O O10 0.089456 0.005676 0.839367
O O11 0.317846 0.250000 0.897989
O O12 0.333705 0.009104 0.833138
O O13 0.500000 0.000000 0.000000
O O14 0.243341 0.750000 0.743143
#
# Coordination Sequence:
#
# PCOD8068312 Si02
#       5
#     4   4   4   4   4
#     4  12  21  32  50  73 100 134 171 211 255 303
#     4  12  24  37  52  73 103 140 176 213 255 306
#     4   9  18  30  46  70  98 127 163 204 249 297
#     4  10  17  28  46  72 102 132 164 208 260 305
#     4   9  18  32  48  70 100 130 166 208 250 299
#
# _framework density 16.101748000000001
#
# number of rings (size 3 to 8) (size 9 to 14) (size 15 to 20)
#    1.200    0.400    2.000    6.000    0.000    0.000 
#    0.000    0.000    0.000    0.000    0.000    1.400 
#    0.000    0.000    0.000    0.000    0.000    0.000 
#
# Total GULP energy -247862.813138 kJ/mol
# GULP energy per Si atom -12393.140657 kJ/mol
# Density = 1.606510 g / cm^3
# Si number density = 16.101748 Si / 1000 Ang^3
#
#
#
# Elastic Constant Matrix: (Units=GPa)
#
#
# Indices 1 2 3 4 5 6 
#
# 1 73.6495 44.6468 50.5940 0.0000 -2.6432 0.0000
# 2 44.6468 186.9852 69.7657 0.0000 0.6717 0.0000
# 3 50.5940 69.7657 138.8985 0.0000 5.8304 0.0000
# 4 0.0000 0.0000 0.0000 33.3561 0.0000 2.2563
# 5 -2.6432 0.6717 5.8304 0.0000 16.5480 0.0000
# 6 0.0000 0.0000 0.0000 2.2563 0.0000 23.7955
#
#
#
# Elastic Compliance Matrix: (Units=1/GPa)
#
#
# Indices 1 2 3 4 5 6 
#
# 1 0.019398 -0.002376 -0.006097 0.000000 0.005343 0.000000
# 2 -0.002376 0.006886 -0.002604 0.000000 0.000258 0.000000
# 3 -0.006097 -0.002604 0.010926 0.000000 -0.004718 0.000000
# 4 0.000000 0.000000 0.000000 0.030173 0.000000 -0.002861
# 5 0.005343 0.000258 -0.004718 0.000000 0.062936 0.000000
# 6 0.000000 0.000000 0.000000 -0.002861 0.000000 0.042296
#
#
# Mechanical properties :
#
#
# Convention : Reuss Voigt Hill
#
# Bulk Modulus (GPa) = 66.41546 81.06068 73.73807
# Shear Modulus (GPa) = 25.02659 30.37502 27.70080
#
# Velocity S-wave (km/s) = 3.94671 4.34803 4.15222
# Velocity P-wave (km/s) = 7.88071 8.69823 8.29954
#
# Compressibility (1/GPa) = 0.01505674
#
# Stress axis : x y z
#
# Youngs Moduli (GPa) = 51.55135 145.22125 91.52366
#
# Poissons Ratio (x) = 0.34508 0.55798
# Poissons Ratio (y) = 0.12250 0.23833
# Poissons Ratio (z) = 0.31428 0.37816
#
# Static dielectric constant tensor:
#      x y z
#    x 2.809460 0.000000 0.284670 
#    y 0.000000 3.214550 0.000000 
#    z 0.284670 0.000000 4.524880 
# 
# 
# High freq. dielectric constant tensor:
#      x y z
#    x 1.570570 0.000000 0.013110 
#    y 0.000000 1.644920 0.000000 
#    z 0.013110 0.000000 1.612680 
# 
# From -- ./inp_files/57564.got.cif
#   From: 2010.06.25/outbox.cif.g09.slc.cpg/sg11_29_cif.got.tgz:57564.got - 2010.06.27 23:14:04.
