data_PCOD8068985
_publ_section_title
;
Structure prediction by ZEFSAII (Michael W. Deem and Ramdas Pophale) SiO2 
 PCOD8068985
Probable space group: P 21/M
;
_chemical_formula_sum "Si O2"
_cell_formula_units_Z 32
_cell_length_a 31.524361
_cell_length_b 8.859508
_cell_length_c 20.374621
_cell_angle_alpha 90.000000
_cell_angle_beta 20.685744
_cell_angle_gamma 90.000000
_cell_volume 2010.100958
_symmetry_space_group_name_H-M "P 21/M"
_symmetry_group_IT_number 11
_symmetry_cell_setting 'monoclinic'
loop_
_space_group_symop_operation_xyz
x,y,z
-x,1/2+y,-z
-x,-y,-z
x,1/2-y,z
loop_
_atom_site_type_symbol
_atom_site_label
_atom_site_fract_x
_atom_site_fract_y
_atom_site_fract_z
Si Si1 0.785063 0.078087 0.486940
Si Si2 0.164495 0.080054 0.714038
Si Si3 0.213887 0.570341 0.295284
Si Si4 0.884018 0.419057 0.088957
Si Si5 0.045838 0.073550 0.281794
Si Si6 0.873326 0.572483 0.699191
Si Si7 0.064875 0.421600 0.111955
Si Si8 0.370825 0.429100 0.177431
O O1 0.738684 0.250000 0.559118
O O2 0.923283 0.067179 0.306004
O O3 0.765370 0.019337 0.441281
O O4 0.711644 0.972587 0.641904
O O5 0.214156 0.250000 0.639712
O O6 0.188917 0.013740 0.751110
O O7 0.023962 0.075853 0.902581
O O8 0.226125 0.750000 0.278778
O O9 0.226107 0.510152 0.202126
O O10 0.318954 0.496580 0.185240
O O11 0.086029 0.510498 0.508314
O O12 0.833905 0.250000 0.163051
O O13 0.861809 0.485383 0.048560
O O14 0.026051 0.250000 0.299422
O O15 0.144262 0.042695 0.196835
O O16 0.091773 0.007717 0.145487
O O17 0.874949 0.750000 0.681649
O O18 0.000000 0.500000 0.500000
O O19 0.109306 0.250000 0.041644
O O20 0.379475 0.250000 0.159393
O O21 0.500000 0.500000 0.000000
#
# Coordination Sequence:
#
# PCOD8068985 Si02
#       8
#     4   4   4   4   4   4   4   4
#     4  10  18  30  46  61  80 107 139 177 219 256
#     4   9  16  26  39  55  76 104 139 173 207 251
#     4  10  18  32  47  61  82 109 141 181 222 261
#     4   9  16  24  34  54  79 105 138 175 208 243
#     4   8  14  25  41  60  84 112 142 173 209 252
#     4   9  16  26  41  62  84 110 142 177 214 257
#     4   9  15  25  40  57  81 114 142 171 210 251
#     4  12  24  36  49  65  84 109 144 184 225 266
#
# _framework density 15.919599
#
# number of rings (size 3 to 8) (size 9 to 14) (size 15 to 20)
#    0.000    2.500    1.250    3.750    0.000    3.500 
#    0.000    1.250    0.000    0.000    0.000    0.000 
#    0.000    0.000    0.000    1.125    0.000   14.250 
#
# Total GULP energy -396593.462037 kJ/mol
# GULP energy per Si atom -12393.545689 kJ/mol
# Density = 1.588337 g / cm^3
# Si number density = 15.919599 Si / 1000 Ang^3
#
#
#
# Elastic Constant Matrix: (Units=GPa)
#
#
# Indices 1 2 3 4 5 6 
#
# 1 158.3118 58.6777 30.5470 0.0000 10.7897 0.0000
# 2 58.6777 107.3459 20.0049 0.0000 2.4065 0.0000
# 3 30.5470 20.0049 18.4745 0.0000 -4.6291 0.0000
# 4 0.0000 0.0000 0.0000 16.3336 0.0000 4.2077
# 5 10.7897 2.4065 -4.6291 0.0000 16.6650 0.0000
# 6 0.0000 0.0000 0.0000 4.2077 0.0000 28.7201
#
#
#
# Elastic Compliance Matrix: (Units=1/GPa)
#
#
# Indices 1 2 3 4 5 6 
#
# 1 0.012130 -0.002478 -0.020693 0.000000 -0.013244 0.000000
# 2 -0.002478 0.012681 -0.010417 0.000000 -0.003121 0.000000
# 3 -0.020693 -0.010417 0.111090 0.000000 0.045760 0.000000
# 4 0.000000 0.000000 0.000000 0.063625 0.000000 -0.009322
# 5 -0.013244 -0.003121 0.045760 0.000000 0.081743 0.000000
# 6 0.000000 0.000000 0.000000 -0.009322 0.000000 0.036185
#
#
# Mechanical properties :
#
#
# Convention : Reuss Voigt Hill
#
# Bulk Modulus (GPa) = 14.55046 55.84350 35.19698
# Shear Modulus (GPa) = 12.26879 24.00391 18.13635
#
# Velocity S-wave (km/s) = 2.77911 3.88728 3.37893
# Velocity P-wave (km/s) = 4.41109 7.43657 6.11393
#
# Compressibility (1/GPa) = 0.06872635
#
# Stress axis : x y z
#
# Youngs Moduli (GPa) = 82.43773 78.85640 9.00168
#
# Poissons Ratio (x) = 0.19537 0.18627
# Poissons Ratio (y) = 0.20424 0.09377
# Poissons Ratio (z) = 1.70588 0.82147
#
# Static dielectric constant tensor:
#      x y z
#    x 3.615340 0.000000 0.282620 
#    y 0.000000 3.149090 0.000000 
#    z 0.282620 0.000000 2.575900 
# 
# 
# High freq. dielectric constant tensor:
#      x y z
#    x 1.627520 0.000000 0.023870 
#    y 0.000000 1.619550 0.000000 
#    z 0.023870 0.000000 1.530460 
# 
# From -- ./inp_files/67409.got.cif
#   From: 2010.06.25/outbox.cif.g09.slc.cpg/sg11_34_cif.got.tgz:67409.got - 2010.06.27 23:14:04.
