data_PCOD8068392
_publ_section_title
;
Structure prediction by ZEFSAII (Michael W. Deem and Ramdas Pophale) SiO2 
 PCOD8068392
Probable space group: P 21/M
;
_chemical_formula_sum "Si O2"
_cell_formula_units_Z 32
_cell_length_a 10.432417
_cell_length_b 17.832396
_cell_length_c 20.464044
_cell_angle_alpha 90.000000
_cell_angle_beta 28.188840
_cell_angle_gamma 90.000000
_cell_volume 1798.360564
_symmetry_space_group_name_H-M "P 21/M"
_symmetry_group_IT_number 11
_symmetry_cell_setting 'monoclinic'
loop_
_space_group_symop_operation_xyz
x,y,z
-x,1/2+y,-z
-x,-y,-z
x,1/2-y,z
loop_
_atom_site_type_symbol
_atom_site_label
_atom_site_fract_x
_atom_site_fract_y
_atom_site_fract_z
Si Si1 0.025924 0.338041 0.870620
Si Si2 0.193352 0.917871 0.157062
Si Si3 0.842428 0.660829 0.705938
Si Si4 0.197785 0.089305 0.136568
Si Si5 0.655940 0.161371 0.152518
Si Si6 0.433426 0.662103 0.430858
Si Si7 0.726112 0.662029 0.429002
Si Si8 0.721652 0.161398 0.268617
O O1 0.980727 0.250000 0.877322
O O2 0.347610 0.358364 0.723774
O O3 0.865178 0.381358 0.886849
O O4 0.913357 0.361305 0.992049
O O5 0.016296 0.879807 0.294550
O O6 0.114986 0.004805 0.190534
O O7 0.511104 0.907324 0.030613
O O8 0.831065 0.750000 0.709413
O O9 0.783989 0.636862 0.805794
O O10 0.616001 0.627806 0.758541
O O11 0.135351 0.628362 0.550532
O O12 0.975678 0.122551 0.188003
O O13 0.628444 0.250000 0.170579
O O14 0.697393 0.128468 0.206236
O O15 0.395009 0.750000 0.454461
O O16 0.543666 0.632450 0.450700
O O17 0.785358 0.750000 0.397010
O O18 0.562870 0.641769 0.568016
O O19 0.774044 0.250000 0.246944
#
# Coordination Sequence:
#
# PCOD8068392 Si02
#       8
#     4   4   4   4   4   4   4   4
#     4   9  16  31  52  74 101 130 167 213 253 298
#     4  10  21  33  50  78 106 133 174 212 260 301
#     4  10  17  30  52  76  98 130 171 211 251 295
#     4  11  21  33  51  77 107 135 170 219 252 301
#     4   9  18  31  52  76 100 133 171 208 251 305
#     4   8  14  25  46  75  97 117 156 208 250 287
#     4   9  17  32  53  77 105 131 163 213 263 305
#     4  10  20  35  53  78 106 134 169 210 258 307
#
# _framework density 17.793984999999999
#
# number of rings (size 3 to 8) (size 9 to 14) (size 15 to 20)
#    0.000    2.500    2.500    1.500    0.000    2.000 
#    0.000    1.875    0.000    5.250    0.000    0.000 
#    0.000    0.000    0.000    0.000    0.000    0.000 
#
# Total GULP energy -396637.605378 kJ/mol
# GULP energy per Si atom -12394.925168 kJ/mol
# Density = 1.775348 g / cm^3
# Si number density = 17.793985 Si / 1000 Ang^3
#
#
#
# Elastic Constant Matrix: (Units=GPa)
#
#
# Indices 1 2 3 4 5 6 
#
# 1 97.2023 13.0804 52.1743 0.0000 4.4046 0.0000
# 2 13.0804 27.7652 24.8302 0.0000 -2.8053 0.0000
# 3 52.1743 24.8302 131.7990 0.0000 5.3581 0.0000
# 4 0.0000 0.0000 0.0000 20.6832 0.0000 -4.0689
# 5 4.4046 -2.8053 5.3581 0.0000 27.1171 0.0000
# 6 0.0000 0.0000 0.0000 -4.0689 0.0000 4.4404
#
#
#
# Elastic Compliance Matrix: (Units=1/GPa)
#
#
# Indices 1 2 3 4 5 6 
#
# 1 0.013195 -0.002092 -0.004772 0.000000 -0.001417 0.000000
# 2 -0.002092 0.044685 -0.007855 0.000000 0.006515 0.000000
# 3 -0.004772 -0.007855 0.011046 0.000000 -0.002220 0.000000
# 4 0.000000 0.000000 0.000000 0.058981 0.000000 0.054046
# 5 -0.001417 0.006515 -0.002220 0.000000 0.038220 0.000000
# 6 0.000000 0.000000 0.000000 0.054046 0.000000 0.274727
#
#
# Mechanical properties :
#
#
# Convention : Reuss Voigt Hill
#
# Bulk Modulus (GPa) = 25.32388 48.54850 36.93619
# Shear Modulus (GPa) = 10.34226 21.56025 15.95126
#
# Velocity S-wave (km/s) = 2.41347 3.48467 2.99731
# Velocity P-wave (km/s) = 4.69351 6.59799 5.72549
#
# Compressibility (1/GPa) = 0.03948842
#
# Stress axis : x y z
#
# Youngs Moduli (GPa) = 75.78773 22.37897 90.52797
#
# Poissons Ratio (x) = 0.04682 0.43196
# Poissons Ratio (y) = 0.15856 0.71110
# Poissons Ratio (z) = 0.36163 0.17579
#
# Static dielectric constant tensor:
#      x y z
#    x 3.232760 0.000000 -0.030750 
#    y 0.000000 3.024260 0.000000 
#    z -0.030750 0.000000 3.762370 
# 
# 
# High freq. dielectric constant tensor:
#      x y z
#    x 1.658300 0.000000 0.000480 
#    y 0.000000 1.656600 0.000000 
#    z 0.000480 0.000000 1.711270 
# 
# From -- ./inp_files/63999.got.cif
#   From: 2010.06.25/outbox.cif.g09.slc.cpg/sg11_32_cif.got.tgz:63999.got - 2010.06.27 23:14:04.
