data_PCOD8068727
_publ_section_title
;
Structure prediction by ZEFSAII (Michael W. Deem and Ramdas Pophale) SiO2 
 PCOD8068727
Probable space group: P 21/M
;
_chemical_formula_sum "Si O2"
_cell_formula_units_Z 32
_cell_length_a 20.387091
_cell_length_b 8.904644
_cell_length_c 25.409503
_cell_angle_alpha 90.000000
_cell_angle_beta 22.768108
_cell_angle_gamma 90.000000
_cell_volume 1785.178510
_symmetry_space_group_name_H-M "P 21/M"
_symmetry_group_IT_number 11
_symmetry_cell_setting 'monoclinic'
loop_
_space_group_symop_operation_xyz
x,y,z
-x,1/2+y,-z
-x,-y,-z
x,1/2-y,z
loop_
_atom_site_type_symbol
_atom_site_label
_atom_site_fract_x
_atom_site_fract_y
_atom_site_fract_z
Si Si1 0.547454 0.926457 0.093584
Si Si2 0.973514 0.072983 0.169015
Si Si3 0.158158 0.575880 0.189836
Si Si4 0.538372 0.072178 0.312821
Si Si5 0.857421 0.426058 0.140437
Si Si6 0.178939 0.426478 0.618452
Si Si7 0.356032 0.577052 0.138954
Si Si8 0.662103 0.428205 0.108731
O O1 0.557196 0.750000 0.098392
O O2 0.717431 0.973702 0.936716
O O3 0.378184 0.971010 0.184061
O O4 0.533708 0.015408 0.158539
O O5 0.002158 0.250000 0.152346
O O6 0.879812 0.027605 0.184383
O O7 0.853441 0.015533 0.304087
O O8 0.153297 0.992512 0.039929
O O9 0.199953 0.750000 0.146204
O O10 0.180886 0.544149 0.236587
O O11 0.965583 0.537537 0.317639
O O12 0.531118 0.250000 0.314847
O O13 0.673636 0.018176 0.256495
O O14 0.354072 0.010407 0.464959
O O15 0.593892 0.009050 0.214783
O O16 0.875845 0.250000 0.118586
O O17 0.000000 0.500000 0.000000
O O18 0.188610 0.250000 0.624169
O O19 0.400860 0.750000 0.104182
O O20 0.500000 0.500000 0.000000
O O21 0.673176 0.250000 0.099886
#
# Coordination Sequence:
#
# PCOD8068727 Si02
#       8
#     4   4   4   4   4   4   4   4
#     4  10  18  28  46  73 105 132 164 214 264 300
#     4  11  22  34  53  80 106 132 168 215 262 306
#     4   9  16  28  48  72  99 134 174 205 248 308
#     4   9  20  37  55  76 102 135 175 214 254 303
#     4  10  20  36  56  77 104 135 171 214 256 302
#     4  10  20  35  55  77 104 138 173 210 253 307
#     4   8  15  26  41  67 100 132 164 206 253 299
#     4  11  20  33  54  75 100 136 176 215 253 304
#
# _framework density 17.925379
#
# number of rings (size 3 to 8) (size 9 to 14) (size 15 to 20)
#    0.000    2.250    2.500    1.125    0.000    1.500 
#    0.000    1.875    0.000    0.750    0.000    0.000 
#    0.000    0.000    0.000    0.000    0.000    0.750 
#
# Total GULP energy -396570.380653 kJ/mol
# GULP energy per Si atom -12392.824395 kJ/mol
# Density = 1.788458 g / cm^3
# Si number density = 17.925379 Si / 1000 Ang^3
#
#
#
# Elastic Constant Matrix: (Units=GPa)
#
#
# Indices 1 2 3 4 5 6 
#
# 1 172.7424 35.0970 54.0850 0.0000 -12.4988 0.0000
# 2 35.0970 40.9196 15.6247 0.0000 -0.1626 0.0000
# 3 54.0850 15.6247 86.9241 0.0000 -1.9278 0.0000
# 4 0.0000 0.0000 0.0000 13.2781 0.0000 0.3623
# 5 -12.4988 -0.1626 -1.9278 0.0000 25.5192 0.0000
# 6 0.0000 0.0000 0.0000 0.3623 0.0000 25.5336
#
#
#
# Elastic Compliance Matrix: (Units=1/GPa)
#
#
# Indices 1 2 3 4 5 6 
#
# 1 0.008542 -0.005706 -0.004204 0.000000 0.003830 0.000000
# 2 -0.005706 0.030051 -0.001913 0.000000 -0.002747 0.000000
# 3 -0.004204 -0.001913 0.014442 0.000000 -0.000980 0.000000
# 4 0.000000 0.000000 0.000000 0.075341 0.000000 -0.001069
# 5 0.003830 -0.002747 -0.000980 0.000000 0.040970 0.000000
# 6 0.000000 0.000000 0.000000 -0.001069 0.000000 0.039179
#
#
# Mechanical properties :
#
#
# Convention : Reuss Voigt Hill
#
# Bulk Modulus (GPa) = 34.02474 56.68883 45.35678
# Shear Modulus (GPa) = 20.66395 25.91816 23.29105
#
# Velocity S-wave (km/s) = 3.39894 3.80661 3.60854
# Velocity P-wave (km/s) = 5.86739 7.14241 6.53606
#
# Compressibility (1/GPa) = 0.02939038
#
# Stress axis : x y z
#
# Youngs Moduli (GPa) = 117.07408 33.27639 69.24163
#
# Poissons Ratio (x) = 0.18986 0.29110
# Poissons Ratio (y) = 0.66799 0.13243
# Poissons Ratio (z) = 0.49219 0.06364
#
# Static dielectric constant tensor:
#      x y z
#    x 4.067610 0.000000 -0.214560 
#    y 0.000000 3.210680 0.000000 
#    z -0.214560 0.000000 3.087840 
# 
# 
# High freq. dielectric constant tensor:
#      x y z
#    x 1.721560 0.000000 -0.014460 
#    y 0.000000 1.685020 0.000000 
#    z -0.014460 0.000000 1.653410 
# 
# From -- ./inp_files/66432.got.cif
#   From: 2010.06.25/outbox.cif.g09.slc.cpg/sg11_34_cif.got.tgz:66432.got - 2010.06.27 23:14:04.
