data_PCOD8068962
_publ_section_title
;
Structure prediction by ZEFSAII (Michael W. Deem and Ramdas Pophale) SiO2 
 PCOD8068962
Probable space group: P 21/M
;
_chemical_formula_sum "Si O2"
_cell_formula_units_Z 32
_cell_length_a 12.242444
_cell_length_b 8.846512
_cell_length_c 21.307164
_cell_angle_alpha 90.000000
_cell_angle_beta 50.944836
_cell_angle_gamma 90.000000
_cell_volume 1791.964934
_symmetry_space_group_name_H-M "P 21/M"
_symmetry_group_IT_number 11
_symmetry_cell_setting 'monoclinic'
loop_
_space_group_symop_operation_xyz
x,y,z
-x,1/2+y,-z
-x,-y,-z
x,1/2-y,z
loop_
_atom_site_type_symbol
_atom_site_label
_atom_site_fract_x
_atom_site_fract_y
_atom_site_fract_z
Si Si1 0.711476 0.073326 0.943560
Si Si2 0.947505 0.076114 0.673692
Si Si3 0.716694 0.426931 0.332897
Si Si4 0.735919 0.925101 0.459229
Si Si5 0.544303 0.429563 0.631595
Si Si6 0.033432 0.424310 0.202349
Si Si7 0.482259 0.571726 0.102272
Si Si8 0.661174 0.428048 0.720478
O O1 0.713510 0.250000 0.952927
O O2 0.632242 0.024357 0.908442
O O3 0.871545 0.014344 0.882000
O O4 0.632847 0.001119 0.031761
O O5 0.928401 0.250000 0.702601
O O6 0.826048 0.029243 0.668523
O O7 0.098578 0.051954 0.586644
O O8 0.930441 0.972663 0.740309
O O9 0.694067 0.250000 0.355010
O O10 0.696610 0.518990 0.404262
O O11 0.604519 0.488682 0.323972
O O12 0.869744 0.457754 0.247612
O O13 0.691522 0.750000 0.481318
O O14 0.652869 0.026112 0.538337
O O15 0.523864 0.250000 0.639155
O O16 0.604415 0.493697 0.675599
O O17 0.070209 0.250000 0.181767
O O18 0.501216 0.750000 0.097008
O O19 0.428999 0.507419 0.188388
O O20 0.643617 0.250000 0.725858
#
# Coordination Sequence:
#
# PCOD8068962 Si02
#       8
#     4   4   4   4   4   4   4   4
#     4  10  18  29  50  78 107 135 165 203 248 300
#     4   9  17  33  53  74 101 135 169 204 252 305
#     4  10  21  37  55  75 101 130 170 219 261 297
#     4  10  20  34  55  78 102 130 167 215 261 302
#     4  11  22  35  53  74 100 136 176 210 250 304
#     4  10  19  31  51  78 104 131 164 210 259 301
#     4   9  17  31  50  73 105 138 167 201 244 297
#     4   9  18  34  53  73 102 140 172 203 247 303
#
# _framework density 17.857493000000002
#
# number of rings (size 3 to 8) (size 9 to 14) (size 15 to 20)
#    0.000    2.250    1.250    2.250    0.000    3.000 
#    0.000    2.500    0.000    0.750    0.000    0.000 
#    0.000    0.000    0.000    0.000    0.000    0.000 
#
# Total GULP energy -396819.180234 kJ/mol
# GULP energy per Si atom -12400.599382 kJ/mol
# Density = 1.781685 g / cm^3
# Si number density = 17.857493 Si / 1000 Ang^3
#
#
#
# Elastic Constant Matrix: (Units=GPa)
#
#
# Indices 1 2 3 4 5 6 
#
# 1 117.8931 25.0874 44.4534 0.0000 -11.9875 0.0000
# 2 25.0874 40.6760 23.3310 0.0000 -8.4496 0.0000
# 3 44.4534 23.3310 76.4959 0.0000 -23.7667 0.0000
# 4 0.0000 0.0000 0.0000 27.1331 0.0000 -3.4580
# 5 -11.9875 -8.4496 -23.7667 0.0000 21.5764 0.0000
# 6 0.0000 0.0000 0.0000 -3.4580 0.0000 20.4607
#
#
#
# Elastic Compliance Matrix: (Units=1/GPa)
#
#
# Indices 1 2 3 4 5 6 
#
# 1 0.011397 -0.003980 -0.005969 0.000000 -0.001801 0.000000
# 2 -0.003980 0.031277 -0.006246 0.000000 0.003158 0.000000
# 3 -0.005969 -0.006246 0.025322 0.000000 0.022130 0.000000
# 4 0.000000 0.000000 0.000000 0.037667 0.000000 0.006366
# 5 -0.001801 0.003158 0.022130 0.000000 0.070959 0.000000
# 6 0.000000 0.000000 0.000000 0.006366 0.000000 0.049950
#
#
# Mechanical properties :
#
#
# Convention : Reuss Voigt Hill
#
# Bulk Modulus (GPa) = 28.08390 46.75652 37.42021
# Shear Modulus (GPa) = 18.46183 23.31360 20.88772
#
# Velocity S-wave (km/s) = 3.21883 3.61714 3.42378
# Velocity P-wave (km/s) = 5.43832 6.60946 6.05228
#
# Compressibility (1/GPa) = 0.03560759
#
# Stress axis : x y z
#
# Youngs Moduli (GPa) = 87.74614 31.97192 39.49182
#
# Poissons Ratio (x) = 0.12724 0.23571
# Poissons Ratio (y) = 0.34919 0.24666
# Poissons Ratio (z) = 0.52372 0.19969
#
# Static dielectric constant tensor:
#      x y z
#    x 3.365700 0.000000 -0.170180 
#    y 0.000000 3.241230 0.000000 
#    z -0.170180 0.000000 3.400930 
# 
# 
# High freq. dielectric constant tensor:
#      x y z
#    x 1.671760 0.000000 -0.023180 
#    y 0.000000 1.689200 0.000000 
#    z -0.023180 0.000000 1.689880 
# 
# From -- ./inp_files/42489.got.cif
#   From: 2010.06.25/outbox.cif.g09.slc.cpg/sg11_22_cif.got.tgz:42489.got - 2010.06.27 23:14:04.
