data_PCOD8068576
_publ_section_title
;
Structure prediction by ZEFSAII (Michael W. Deem and Ramdas Pophale) SiO2 
 PCOD8068576
Probable space group: P 21/M
;
_chemical_formula_sum "Si O2"
_cell_formula_units_Z 28
_cell_length_a 14.327219
_cell_length_b 9.122689
_cell_length_c 13.603676
_cell_angle_alpha 90.000000
_cell_angle_beta 76.045059
_cell_angle_gamma 90.000000
_cell_volume 1725.560459
_symmetry_space_group_name_H-M "P 21/M"
_symmetry_group_IT_number 11
_symmetry_cell_setting 'monoclinic'
loop_
_space_group_symop_operation_xyz
x,y,z
-x,1/2+y,-z
-x,-y,-z
x,1/2-y,z
loop_
_atom_site_type_symbol
_atom_site_label
_atom_site_fract_x
_atom_site_fract_y
_atom_site_fract_z
Si Si1 0.109251 0.419378 0.572000
Si Si2 0.469339 0.419912 0.105289
Si Si3 0.281438 0.422355 0.264270
Si Si4 0.439576 0.920712 0.715722
Si Si5 0.270062 0.585443 0.630323
Si Si6 0.891521 0.080500 0.632779
Si Si7 0.612331 0.417731 0.593333
O O1 0.128774 0.250000 0.542146
O O2 0.181907 0.473705 0.638319
O O3 0.125454 0.513867 0.470663
O O4 0.001078 0.441769 0.639809
O O5 0.479044 0.250000 0.081186
O O6 0.358875 0.460853 0.160135
O O7 0.539947 0.466461 0.176617
O O8 0.500000 0.500000 0.000000
O O9 0.266259 0.250000 0.277274
O O10 0.178131 0.499612 0.270658
O O11 0.317554 0.484257 0.358609
O O12 0.467214 0.750000 0.693340
O O13 0.327376 0.948935 0.717363
O O14 0.505044 0.017967 0.626927
O O15 0.227441 0.750000 0.642876
O O16 0.351158 0.570042 0.526657
O O17 0.862933 0.250000 0.633762
O O18 0.612923 0.250000 0.630345
#
# Coordination Sequence:
#
# PCOD8068576 Si02
#       7
#     4   4   4   4   4   4   4
#     4  10  20  30  44  65  94 129 162 196 229 264
#     4   9  19  34  51  71  94 118 150 190 237 284
#     4  10  19  31  48  69  94 125 156 193 236 278
#     4   9  19  33  46  64  92 124 155 191 231 278
#     4  10  19  30  44  64  93 127 161 191 225 270
#     4  10  19  31  45  66  93 125 164 197 228 269
#     4  10  18  27  42  66  92 123 159 190 220 268
#
# _framework density 16.226610999999998
#
# number of rings (size 3 to 8) (size 9 to 14) (size 15 to 20)
#    0.000    2.286    1.429    3.000    0.000    5.714 
#    0.000    0.000    0.000    0.000    0.000    1.000 
#    0.000    0.000    0.000    0.000    0.000    0.000 
#
# Total GULP energy -347125.447802 kJ/mol
# GULP energy per Si atom -12397.337421 kJ/mol
# Density = 1.618968 g / cm^3
# Si number density = 16.226611 Si / 1000 Ang^3
#
#
#
# Elastic Constant Matrix: (Units=GPa)
#
#
# Indices 1 2 3 4 5 6 
#
# 1 117.0263 61.3436 45.3900 0.0000 -2.1083 0.0000
# 2 61.3436 95.1902 40.9981 0.0000 -7.3284 0.0000
# 3 45.3900 40.9981 67.3864 0.0000 -4.1304 0.0000
# 4 0.0000 0.0000 0.0000 22.5861 0.0000 -3.4674
# 5 -2.1083 -7.3284 -4.1304 0.0000 15.8650 0.0000
# 6 0.0000 0.0000 0.0000 -3.4674 0.0000 31.1964
#
#
#
# Elastic Compliance Matrix: (Units=1/GPa)
#
#
# Indices 1 2 3 4 5 6 
#
# 1 0.014352 -0.007083 -0.005530 0.000000 -0.002804 0.000000
# 2 -0.007083 0.018039 -0.005844 0.000000 0.005870 0.000000
# 3 -0.005530 -0.005844 0.022265 0.000000 0.002362 0.000000
# 4 0.000000 0.000000 0.000000 0.045044 0.000000 0.005007
# 5 -0.002804 0.005870 0.002362 0.000000 0.065986 0.000000
# 6 0.000000 0.000000 0.000000 0.005007 0.000000 0.032611
#
#
# Mechanical properties :
#
#
# Convention : Reuss Voigt Hill
#
# Bulk Modulus (GPa) = 56.36379 63.89626 60.13002
# Shear Modulus (GPa) = 20.73613 22.72090 21.72851
#
# Velocity S-wave (km/s) = 3.57866 3.74602 3.66330
# Velocity P-wave (km/s) = 7.20323 7.62713 7.41821
#
# Compressibility (1/GPa) = 0.01774189
#
# Stress axis : x y z
#
# Youngs Moduli (GPa) = 69.67499 55.43579 44.91389
#
# Poissons Ratio (x) = 0.39267 0.24836
# Poissons Ratio (y) = 0.49353 0.26247
# Poissons Ratio (z) = 0.38529 0.32396
#
# Static dielectric constant tensor:
#      x y z
#    x 3.313410 0.000000 -0.073600 
#    y 0.000000 3.220750 0.000000 
#    z -0.073600 0.000000 2.713420 
# 
# 
# High freq. dielectric constant tensor:
#      x y z
#    x 1.628700 0.000000 -0.003850 
#    y 0.000000 1.637220 0.000000 
#    z -0.003850 0.000000 1.570690 
# 
# From -- ./inp_files/50970.got.cif
#   From: 2010.06.25/outbox.cif.g09.slc.cpg/sg11_26_cif.got.tgz:50970.got - 2010.06.27 23:14:04.
