data_PCOD8068886
_publ_section_title
;
Structure prediction by ZEFSAII (Michael W. Deem and Ramdas Pophale) SiO2 
 PCOD8068886
Probable space group: P 21/M
;
_chemical_formula_sum "Si O2"
_cell_formula_units_Z 32
_cell_length_a 11.697338
_cell_length_b 9.006734
_cell_length_c 19.870323
_cell_angle_alpha 90.000000
_cell_angle_beta 58.455977
_cell_angle_gamma 90.000000
_cell_volume 1784.105074
_symmetry_space_group_name_H-M "P 21/M"
_symmetry_group_IT_number 11
_symmetry_cell_setting 'monoclinic'
loop_
_space_group_symop_operation_xyz
x,y,z
-x,1/2+y,-z
-x,-y,-z
x,1/2-y,z
loop_
_atom_site_type_symbol
_atom_site_label
_atom_site_fract_x
_atom_site_fract_y
_atom_site_fract_z
Si Si1 0.593527 0.577681 0.784128
Si Si2 0.408011 0.575968 0.718185
Si Si3 0.606429 0.927286 0.418206
Si Si4 0.139603 0.922919 0.097000
Si Si5 0.881493 0.413178 0.174550
Si Si6 0.577421 0.424468 0.036300
Si Si7 0.880141 0.417313 0.334868
Si Si8 0.854164 0.074779 0.750346
O O1 0.630696 0.750000 0.782270
O O2 0.530026 0.547004 0.730962
O O3 0.486267 0.527214 0.873401
O O4 0.726704 0.480295 0.747587
O O5 0.397442 0.750000 0.700609
O O6 0.431615 0.476687 0.645462
O O7 0.267879 0.528918 0.798321
O O8 0.603732 0.750000 0.424236
O O9 0.500000 0.000000 0.500000
O O10 0.751757 0.986806 0.396494
O O11 0.118034 0.750000 0.100660
O O12 0.165634 0.973438 0.165890
O O13 0.266572 0.975030 0.013396
O O14 0.002856 0.989361 0.107952
O O15 0.903037 0.250000 0.137595
O O16 0.888067 0.412741 0.252633
O O17 0.568242 0.250000 0.026937
O O18 0.500000 0.500000 0.000000
O O19 0.870206 0.250000 0.367316
O O20 0.013866 0.497197 0.321460
O O21 0.869516 0.250000 0.737612
#
# Coordination Sequence:
#
# PCOD8068886 Si02
#       8
#     4   4   4   4   4   4   4   4
#     4  10  20  33  51  71  99 140 180 218 264 313
#     4   9  19  36  53  74 103 136 175 214 254 309
#     4  11  21  35  58  86 111 136 165 204 252 301
#     4   9  17  28  43  66  96 127 165 218 266 304
#     4   8  15  28  47  67  91 126 166 210 255 302
#     4  10  19  31  46  68  97 133 175 222 268 309
#     4   9  17  31  51  77 106 135 170 210 250 299
#     4  10  18  29  47  73 104 136 173 219 263 304
#
# _framework density 17.936161999999999
#
# number of rings (size 3 to 8) (size 9 to 14) (size 15 to 20)
#    0.000    2.500    1.250    2.625    0.000    4.500 
#    0.000    0.625    0.000    0.750    0.000    0.000 
#    0.000    0.000    0.000    0.000    0.000    0.000 
#
# Total GULP energy -396706.571804 kJ/mol
# GULP energy per Si atom -12397.080369 kJ/mol
# Density = 1.789534 g / cm^3
# Si number density = 17.936162 Si / 1000 Ang^3
#
#
#
# Elastic Constant Matrix: (Units=GPa)
#
#
# Indices 1 2 3 4 5 6 
#
# 1 100.9519 52.5645 48.5099 0.0000 -25.5453 0.0000
# 2 52.5645 93.1624 49.9910 0.0000 -16.9474 0.0000
# 3 48.5099 49.9910 89.6630 0.0000 -26.5721 0.0000
# 4 0.0000 0.0000 0.0000 24.9320 0.0000 -9.3255
# 5 -25.5453 -16.9474 -26.5721 0.0000 26.0912 0.0000
# 6 0.0000 0.0000 0.0000 -9.3255 0.0000 29.8420
#
#
#
# Elastic Compliance Matrix: (Units=1/GPa)
#
#
# Indices 1 2 3 4 5 6 
#
# 1 0.016993 -0.006326 -0.002799 0.000000 0.009679 0.000000
# 2 -0.006326 0.017730 -0.006997 0.000000 -0.001803 0.000000
# 3 -0.002799 -0.006997 0.020638 0.000000 0.013734 0.000000
# 4 0.000000 0.000000 0.000000 0.045418 0.000000 0.014193
# 5 0.009679 -0.001803 0.013734 0.000000 0.060619 0.000000
# 6 0.000000 0.000000 0.000000 0.014193 0.000000 0.037945
#
#
# Mechanical properties :
#
#
# Convention : Reuss Voigt Hill
#
# Bulk Modulus (GPa) = 43.25538 65.10089 54.17814
# Shear Modulus (GPa) = 20.89496 25.02049 22.95773
#
# Velocity S-wave (km/s) = 3.41686 3.73899 3.58155
# Velocity P-wave (km/s) = 6.30359 7.41719 6.88295
#
# Compressibility (1/GPa) = 0.02311851
#
# Stress axis : x y z
#
# Youngs Moduli (GPa) = 58.84640 56.40275 48.45370
#
# Poissons Ratio (x) = 0.35678 0.13561
# Poissons Ratio (y) = 0.37224 0.33904
# Poissons Ratio (z) = 0.16469 0.39466
#
# Static dielectric constant tensor:
#      x y z
#    x 2.901090 0.000000 -0.261970 
#    y 0.000000 3.363980 0.000000 
#    z -0.261970 0.000000 3.260410 
# 
# 
# High freq. dielectric constant tensor:
#      x y z
#    x 1.688340 0.000000 -0.031320 
#    y 0.000000 1.694110 0.000000 
#    z -0.031320 0.000000 1.667550 
# 
# From -- ./inp_files/64172.got.cif
#   From: 2010.06.25/outbox.cif.g09.slc.cpg/sg11_33_cif.got.tgz:64172.got - 2010.06.27 23:14:04.
