data_PCOD8068253
_publ_section_title
;
Structure prediction by ZEFSAII (Michael W. Deem and Ramdas Pophale) SiO2 
 PCOD8068253
Probable space group: P 21/M
;
_chemical_formula_sum "Si O2"
_cell_formula_units_Z 32
_cell_length_a 20.624651
_cell_length_b 8.757623
_cell_length_c 28.026983
_cell_angle_alpha 90.000000
_cell_angle_beta 23.035580
_cell_angle_gamma 90.000000
_cell_volume 1980.897581
_symmetry_space_group_name_H-M "P 21/M"
_symmetry_group_IT_number 11
_symmetry_cell_setting 'monoclinic'
loop_
_space_group_symop_operation_xyz
x,y,z
-x,1/2+y,-z
-x,-y,-z
x,1/2-y,z
loop_
_atom_site_type_symbol
_atom_site_label
_atom_site_fract_x
_atom_site_fract_y
_atom_site_fract_z
Si Si1 0.288809 0.431365 0.446668
Si Si2 0.494273 0.080702 0.390320
Si Si3 0.676448 0.428524 0.870804
Si Si4 0.660528 0.066982 0.366776
Si Si5 0.844035 0.578850 0.321601
Si Si6 0.846000 0.074635 0.658432
Si Si7 0.806067 0.425334 0.579950
Si Si8 0.011354 0.069368 0.293655
O O1 0.281314 0.250000 0.457329
O O2 0.442082 0.499357 0.375350
O O3 0.312333 0.479041 0.375639
O O4 0.114800 0.496344 0.583054
O O5 0.551107 0.250000 0.338617
O O6 0.643766 0.011805 0.321933
O O7 0.329715 0.081585 0.533738
O O8 0.677597 0.250000 0.882367
O O9 0.716476 0.457472 0.788015
O O10 0.805878 0.513659 0.817094
O O11 0.500000 0.500000 0.000000
O O12 0.659726 0.250000 0.370689
O O13 0.500000 0.000000 0.500000
O O14 0.822041 0.999741 0.284117
O O15 0.911930 0.750000 0.268147
O O16 0.974597 0.483231 0.264397
O O17 0.909171 0.250000 0.616246
O O18 0.756958 0.038743 0.668008
O O19 0.002850 0.966071 0.558622
O O20 0.779743 0.250000 0.584934
O O21 0.998640 0.250000 0.305464
#
# Coordination Sequence:
#
# PCOD8068253 Si02
#       8
#     4   4   4   4   4   4   4   4
#     4  10  17  27  41  60  86 116 143 177 221 258
#     4   7  13  22  33  49  74 106 139 169 205 249
#     4  11  22  36  51  66  87 115 145 183 228 269
#     4   9  14  22  34  50  72 103 141 177 209 249
#     4   9  16  26  38  53  75 105 137 176 218 255
#     4   9  19  33  47  63  86 114 142 178 224 265
#     4  10  18  28  45  67  87 111 146 182 216 261
#     4  11  20  30  44  63  82 107 145 184 217 262
#
# _framework density 16.154292999999999
#
# number of rings (size 3 to 8) (size 9 to 14) (size 15 to 20)
#    0.000    2.500    1.250    4.500    0.000    1.000 
#    0.000    1.875    0.000    0.000    0.000    0.000 
#    0.000    0.000    0.000    1.125    0.000   13.625 
#
# Total GULP energy -396418.333692 kJ/mol
# GULP energy per Si atom -12388.072928 kJ/mol
# Density = 1.611752 g / cm^3
# Si number density = 16.154293 Si / 1000 Ang^3
#
#
#
# Elastic Constant Matrix: (Units=GPa)
#
#
# Indices 1 2 3 4 5 6 
#
# 1 171.5468 50.2728 33.3357 0.0000 -18.9999 0.0000
# 2 50.2728 87.9357 17.3085 0.0000 -5.5407 0.0000
# 3 33.3357 17.3085 34.5661 0.0000 -0.8660 0.0000
# 4 0.0000 0.0000 0.0000 14.0370 0.0000 -3.7361
# 5 -18.9999 -5.5407 -0.8660 0.0000 14.3991 0.0000
# 6 0.0000 0.0000 0.0000 -3.7361 0.0000 28.8983
#
#
#
# Elastic Compliance Matrix: (Units=1/GPa)
#
#
# Indices 1 2 3 4 5 6 
#
# 1 0.009350 -0.003275 -0.007111 0.000000 0.010650 0.000000
# 2 -0.003275 0.014058 -0.003859 0.000000 0.000856 0.000000
# 3 -0.007111 -0.003859 0.037505 0.000000 -0.008612 0.000000
# 4 0.000000 0.000000 0.000000 0.073779 0.000000 0.009538
# 5 0.010650 0.000856 -0.008612 0.000000 0.083313 0.000000
# 6 0.000000 0.000000 0.000000 0.009538 0.000000 0.035837
#
#
# Mechanical properties :
#
#
# Convention : Reuss Voigt Hill
#
# Bulk Modulus (GPa) = 30.84290 55.09805 42.97047
# Shear Modulus (GPa) = 17.05668 24.34233 20.69950
#
# Velocity S-wave (km/s) = 3.25293 3.88605 3.58350
# Velocity P-wave (km/s) = 5.76566 7.36998 6.61662
#
# Compressibility (1/GPa) = 0.03242237
#
# Stress axis : x y z
#
# Youngs Moduli (GPa) = 106.94662 71.13477 26.66331
#
# Poissons Ratio (x) = 0.23296 0.18960
# Poissons Ratio (y) = 0.35024 0.10291
# Poissons Ratio (z) = 0.76049 0.27454
#
# Static dielectric constant tensor:
#      x y z
#    x 3.758990 0.000000 -0.177150 
#    y 0.000000 3.175550 0.000000 
#    z -0.177150 0.000000 2.404570 
# 
# 
# High freq. dielectric constant tensor:
#      x y z
#    x 1.652410 0.000000 -0.019870 
#    y 0.000000 1.626660 0.000000 
#    z -0.019870 0.000000 1.529520 
# 
# From -- ./inp_files/73611.got.cif
#   From: 2010.06.25/outbox.cif.g09.slc.cpg/sg11_37_cif.got.tgz:73611.got - 2010.06.27 23:14:04.
