data_PCOD8068366
_publ_section_title
;
Structure prediction by ZEFSAII (Michael W. Deem and Ramdas Pophale) SiO2 
 PCOD8068366
Probable space group: P 21/M
;
_chemical_formula_sum "Si O2"
_cell_formula_units_Z 32
_cell_length_a 12.283022
_cell_length_b 13.729555
_cell_length_c 17.989936
_cell_angle_alpha 90.000000
_cell_angle_beta 146.854882
_cell_angle_gamma 90.000000
_cell_volume 1658.781578
_symmetry_space_group_name_H-M "P 21/M"
_symmetry_group_IT_number 11
_symmetry_cell_setting 'monoclinic'
loop_
_space_group_symop_operation_xyz
x,y,z
-x,1/2+y,-z
-x,-y,-z
x,1/2-y,z
loop_
_atom_site_type_symbol
_atom_site_label
_atom_site_fract_x
_atom_site_fract_y
_atom_site_fract_z
Si Si1 0.205567 0.636483 0.444686
Si Si2 0.602193 0.361205 0.013467
Si Si3 0.928522 0.645093 0.090969
Si Si4 0.329261 0.857512 0.117910
Si Si5 0.796760 0.552466 0.157271
Si Si6 0.474413 0.494781 0.326269
Si Si7 0.368874 0.858573 0.376247
Si Si8 0.908261 0.598818 0.921320
O O1 0.182110 0.750000 0.454940
O O2 0.330344 0.572819 0.576137
O O3 0.336126 0.626636 0.444681
O O4 0.992177 0.585651 0.313394
O O5 0.665890 0.250000 0.068732
O O6 0.750763 0.437089 0.140365
O O7 0.600899 0.381064 0.925023
O O8 0.380317 0.380272 0.915048
O O9 0.908516 0.750000 0.120317
O O10 0.821962 0.567178 0.082677
O O11 0.162148 0.622325 0.214236
O O12 0.836642 0.652655 0.956100
O O13 0.406948 0.750000 0.186583
O O14 0.425584 0.939399 0.226151
O O15 0.086077 0.849345 0.978261
O O16 0.516804 0.563427 0.422751
O O17 0.290932 0.420436 0.240294
O O18 0.450156 0.750000 0.407337
O O19 0.000000 0.500000 0.000000
#
# Coordination Sequence:
#
# PCOD8068366 Si02
#       8
#     4   4   4   4   4   4   4   4
#     4  10  22  36  52  76 107 143 185 224 264 317
#     4  10  21  37  60  87 107 134 180 226 272 323
#     4  10  17  29  53  79 103 138 184 223 269 320
#     4  10  20  34  53  80 113 144 175 217 273 328
#     4  10  20  38  61  79 107 142 175 227 276 314
#     4  11  20  32  51  75 107 149 181 218 261 324
#     4   9  17  31  50  72 101 140 181 218 262 321
#     4  10  18  28  48  77 111 142 174 220 269 318
#
# _framework density 19.291266
#
# number of rings (size 3 to 8) (size 9 to 14) (size 15 to 20)
#    0.000    2.000    2.500    4.500    1.750    1.000 
#    0.000    1.875    0.000    0.750    0.000    0.000 
#    0.000    0.000    0.000    0.000    0.000    0.000 
#
# Total GULP energy -396481.131749 kJ/mol
# GULP energy per Si atom -12390.035367 kJ/mol
# Density = 1.924736 g / cm^3
# Si number density = 19.291266 Si / 1000 Ang^3
#
#
#
# Elastic Constant Matrix: (Units=GPa)
#
#
# Indices 1 2 3 4 5 6 
#
# 1 47.0116 25.9262 15.3924 0.0000 10.1083 0.0000
# 2 25.9262 137.6330 56.9737 0.0000 12.7517 0.0000
# 3 15.3924 56.9737 81.9921 0.0000 13.6404 0.0000
# 4 0.0000 0.0000 0.0000 -6.9738 0.0000 -4.4166
# 5 10.1083 12.7517 13.6404 0.0000 18.0736 0.0000
# 6 0.0000 0.0000 0.0000 -4.4166 0.0000 24.5207
#
#
#
# Elastic Compliance Matrix: (Units=1/GPa)
#
#
# Indices 1 2 3 4 5 6 
#
# 1 0.025907 -0.003637 -0.000404 0.000000 -0.011619 0.000000
# 2 -0.003637 0.010781 -0.006726 0.000000 -0.000496 0.000000
# 3 -0.000404 -0.006726 0.018433 0.000000 -0.008941 0.000000
# 4 0.000000 0.000000 0.000000 -0.128712 0.000000 -0.023183
# 5 -0.011619 -0.000496 -0.008941 0.000000 0.068926 0.000000
# 6 0.000000 0.000000 0.000000 -0.023183 0.000000 0.036606
#
#
# Mechanical properties :
#
#
# Convention : Reuss Voigt Hill
#
# Bulk Modulus (GPa) = 29.77176 51.46903 40.62040
# Shear Modulus (GPa) = 77.31478 18.34705 47.83092
#
# Velocity S-wave (km/s) = 6.33756 3.08726 4.98477
# Velocity P-wave (km/s) = 8.30777 6.28062 7.36428
#
# Compressibility (1/GPa) = 0.03358888
#
# Stress axis : x y z
#
# Youngs Moduli (GPa) = 38.59902 92.75556 54.24990
#
# Poissons Ratio (x) = 0.33732 0.02190
# Poissons Ratio (y) = 0.14037 0.36489
# Poissons Ratio (z) = 0.01558 0.62389
#
# Static dielectric constant tensor:
#      x y z
#    x 3.017470 0.000000 0.289880 
#    y 0.000000 3.828910 0.000000 
#    z 0.289880 0.000000 3.300390 
# 
# 
# High freq. dielectric constant tensor:
#      x y z
#    x 1.727400 0.000000 -0.000800 
#    y 0.000000 1.773060 0.000000 
#    z -0.000800 0.000000 1.714470 
# 
# From -- ./inp_files/59528.got.cif
#   From: 2010.06.25/outbox.cif.g09.slc.cpg/sg11_30_cif.got.tgz:59528.got - 2010.06.27 23:14:04.
