data_PCOD8068823
_publ_section_title
;
Structure prediction by ZEFSAII (Michael W. Deem and Ramdas Pophale) SiO2 
 PCOD8068823
Probable space group: P 21/M
;
_chemical_formula_sum "Si O2"
_cell_formula_units_Z 32
_cell_length_a 27.708752
_cell_length_b 8.737699
_cell_length_c 21.028558
_cell_angle_alpha 90.000000
_cell_angle_beta 21.738468
_cell_angle_gamma 90.000000
_cell_volume 1885.644901
_symmetry_space_group_name_H-M "P 21/M"
_symmetry_group_IT_number 11
_symmetry_cell_setting 'monoclinic'
loop_
_space_group_symop_operation_xyz
x,y,z
-x,1/2+y,-z
-x,-y,-z
x,1/2-y,z
loop_
_atom_site_type_symbol
_atom_site_label
_atom_site_fract_x
_atom_site_fract_y
_atom_site_fract_z
Si Si1 0.792128 0.073795 0.246158
Si Si2 0.034154 0.571920 0.191362
Si Si3 0.769238 0.580251 0.883884
Si Si4 0.065471 0.578950 0.566772
Si Si5 0.525485 0.570437 0.537155
Si Si6 0.304171 0.433101 0.894130
Si Si7 0.037638 0.074657 0.861803
Si Si8 0.866255 0.933170 0.638995
O O1 0.747341 0.250000 0.301091
O O2 0.669923 0.965801 0.383534
O O3 0.854931 0.033476 0.237406
O O4 0.894920 0.039308 0.064574
O O5 0.065311 0.750000 0.162625
O O6 0.934290 0.515756 0.367948
O O7 0.962790 0.539273 0.212265
O O8 0.170216 0.481745 0.024529
O O9 0.712614 0.750000 0.949444
O O10 0.759006 0.511843 0.824213
O O11 0.920685 0.582109 0.716877
O O12 0.693242 0.499934 0.035701
O O13 0.116786 0.750000 0.517211
O O14 0.162350 0.499745 0.396332
O O15 0.500000 0.500000 0.500000
O O16 0.503677 0.750000 0.559365
O O17 0.426352 0.501776 0.709132
O O18 0.309932 0.250000 0.886477
O O19 0.074922 0.250000 0.830595
O O20 0.873540 0.750000 0.627368
O O21 0.000000 0.000000 0.500000
#
# Coordination Sequence:
#
# PCOD8068823 Si02
#       8
#     4   4   4   4   4   4   4   4
#     4  10  20  35  54  74  94 119 153 191 234 280
#     4  10  18  29  46  68  95 127 161 195 233 276
#     4   7  13  24  38  56  81 114 150 187 225 269
#     4   9  16  25  36  56  86 119 155 192 230 272
#     4  12  24  37  52  71  96 125 158 194 233 275
#     4  10  19  32  48  68  95 125 158 195 235 279
#     4   9  19  34  51  71  95 121 152 191 233 279
#     4   9  14  22  36  55  80 113 151 187 227 274
#
# _framework density 16.970320999999998
#
# number of rings (size 3 to 8) (size 9 to 14) (size 15 to 20)
#    0.000    2.500    0.000    5.250    0.000    2.500 
#    0.000    1.875    0.000    0.000    0.000    0.000 
#    0.000    1.000    0.000    3.000    0.000    5.750 
#
# Total GULP energy -396500.375288 kJ/mol
# GULP energy per Si atom -12390.636728 kJ/mol
# Density = 1.693170 g / cm^3
# Si number density = 16.970321 Si / 1000 Ang^3
#
#
#
# Elastic Constant Matrix: (Units=GPa)
#
#
# Indices 1 2 3 4 5 6 
#
# 1 110.8604 43.9884 57.0887 0.0000 34.3155 0.0000
# 2 43.9884 90.8948 32.9698 0.0000 13.3526 0.0000
# 3 57.0887 32.9698 68.2430 0.0000 24.8107 0.0000
# 4 0.0000 0.0000 0.0000 22.8698 0.0000 3.5831
# 5 34.3155 13.3526 24.8107 0.0000 30.8615 0.0000
# 6 0.0000 0.0000 0.0000 3.5831 0.0000 26.9996
#
#
#
# Elastic Compliance Matrix: (Units=1/GPa)
#
#
# Indices 1 2 3 4 5 6 
#
# 1 0.019436 -0.004039 -0.010013 0.000000 -0.011814 0.000000
# 2 -0.004039 0.014194 -0.004068 0.000000 0.001620 0.000000
# 3 -0.010013 -0.004068 0.028694 0.000000 -0.010175 0.000000
# 4 0.000000 0.000000 0.000000 0.044654 0.000000 -0.005926
# 5 -0.011814 0.001620 -0.010175 0.000000 0.053018 0.000000
# 6 0.000000 0.000000 0.000000 -0.005926 0.000000 0.037824
#
#
# Mechanical properties :
#
#
# Convention : Reuss Voigt Hill
#
# Bulk Modulus (GPa) = 38.33519 59.78797 49.06158
# Shear Modulus (GPa) = 20.59700 25.20963 22.90331
#
# Velocity S-wave (km/s) = 3.48761 3.85842 3.67769
# Velocity P-wave (km/s) = 6.23350 7.42679 6.85615
#
# Compressibility (1/GPa) = 0.02608569
#
# Stress axis : x y z
#
# Youngs Moduli (GPa) = 51.45094 70.45376 34.85034
#
# Poissons Ratio (x) = 0.28453 0.34895
# Poissons Ratio (y) = 0.20779 0.14176
# Poissons Ratio (z) = 0.51517 0.28658
#
# Static dielectric constant tensor:
#      x y z
#    x 3.385950 0.000000 0.544710 
#    y 0.000000 3.291020 0.000000 
#    z 0.544710 0.000000 3.054490 
# 
# 
# High freq. dielectric constant tensor:
#      x y z
#    x 1.650230 0.000000 0.044320 
#    y 0.000000 1.659650 0.000000 
#    z 0.044320 0.000000 1.615980 
# 
# From -- ./inp_files/66959.got.cif
#   From: 2010.06.25/outbox.cif.g09.slc.cpg/sg11_34_cif.got.tgz:66959.got - 2010.06.27 23:14:04.
