data_PCOD8068904
_publ_section_title
;
Structure prediction by ZEFSAII (Michael W. Deem and Ramdas Pophale) SiO2 
 PCOD8068904
Probable space group: P 21/M
;
_chemical_formula_sum "Si O2"
_cell_formula_units_Z 32
_cell_length_a 10.669283
_cell_length_b 16.939004
_cell_length_c 11.492177
_cell_angle_alpha 90.000000
_cell_angle_beta 61.058213
_cell_angle_gamma 90.000000
_cell_volume 1817.560872
_symmetry_space_group_name_H-M "P 21/M"
_symmetry_group_IT_number 11
_symmetry_cell_setting 'monoclinic'
loop_
_space_group_symop_operation_xyz
x,y,z
-x,1/2+y,-z
-x,-y,-z
x,1/2-y,z
loop_
_atom_site_type_symbol
_atom_site_label
_atom_site_fract_x
_atom_site_fract_y
_atom_site_fract_z
Si Si1 0.092099 0.045878 0.363638
Si Si2 0.596189 0.898568 0.449042
Si Si3 0.332296 0.552321 0.164146
Si Si4 0.385717 0.837581 0.353995
Si Si5 0.678176 0.663279 0.642219
Si Si6 0.444176 0.921930 0.878143
Si Si7 0.322978 0.955410 0.700416
Si Si8 0.134660 0.842172 0.644862
O O1 0.210710 0.095587 0.377653
O O2 0.005985 0.107285 0.321334
O O3 0.169188 0.979381 0.249428
O O4 0.000000 0.000000 0.500000
O O5 0.519455 0.855669 0.376686
O O6 0.667395 0.836540 0.505745
O O7 0.483940 0.942787 0.582880
O O8 0.715441 0.960110 0.342939
O O9 0.381784 0.607086 0.246115
O O10 0.435009 0.477808 0.124224
O O11 0.348474 0.600124 0.034688
O O12 0.404630 0.750000 0.297531
O O13 0.237158 0.846895 0.488249
O O14 0.733990 0.750000 0.653332
O O15 0.525395 0.650558 0.777414
O O16 0.334444 0.962038 0.835068
O O17 0.213483 0.885112 0.717523
O O18 0.099905 0.750000 0.691653
#
# Coordination Sequence:
#
# PCOD8068904 Si02
#       8
#     4   4   4   4   4   4   4   4
#     4  11  20  34  53  74 102 139 176 216 255 302
#     4   9  16  28  49  75 102 127 167 209 258 311
#     4  10  19  34  51  76 102 136 176 209 255 313
#     4  10  18  29  48  74 104 131 161 212 265 308
#     4  10  20  32  51  78 105 134 167 211 263 310
#     4   9  19  33  53  74 104 134 171 213 253 315
#     4   9  16  29  51  73  99 135 166 211 256 302
#     4  10  20  32  49  76 103 130 170 217 263 303
#
# _framework density 17.606013000000001
#
# number of rings (size 3 to 8) (size 9 to 14) (size 15 to 20)
#    0.000    2.250    2.500    1.500    3.500    3.500 
#    0.000    0.625    0.000    0.000    0.000    1.750 
#    0.000    0.000    0.000    0.000    0.000    0.000 
#
# Total GULP energy -396490.335921 kJ/mol
# GULP energy per Si atom -12390.322998 kJ/mol
# Density = 1.756594 g / cm^3
# Si number density = 17.606013 Si / 1000 Ang^3
#
#
#
# Elastic Constant Matrix: (Units=GPa)
#
#
# Indices 1 2 3 4 5 6 
#
# 1 70.6014 18.1059 38.9506 0.0000 4.0912 0.0000
# 2 18.1059 58.1726 23.5797 0.0000 -12.1701 0.0000
# 3 38.9506 23.5797 84.4002 0.0000 7.0406 0.0000
# 4 0.0000 0.0000 0.0000 9.2187 0.0000 -0.5858
# 5 4.0912 -12.1701 7.0406 0.0000 17.9187 0.0000
# 6 0.0000 0.0000 0.0000 -0.5858 0.0000 26.5210
#
#
#
# Elastic Compliance Matrix: (Units=1/GPa)
#
#
# Indices 1 2 3 4 5 6 
#
# 1 0.019599 -0.003871 -0.007621 0.000000 -0.004110 0.000000
# 2 -0.003871 0.025731 -0.007169 0.000000 0.021177 0.000000
# 3 -0.007621 -0.007169 0.018227 0.000000 -0.010291 0.000000
# 4 0.000000 0.000000 0.000000 0.108627 0.000000 0.002399
# 5 -0.004110 0.021177 -0.010291 0.000000 0.075172 0.000000
# 6 0.000000 0.000000 0.000000 0.002399 0.000000 0.037759
#
#
# Mechanical properties :
#
#
# Convention : Reuss Voigt Hill
#
# Bulk Modulus (GPa) = 38.11578 41.60519 39.86049
# Shear Modulus (GPa) = 15.09744 19.56756 17.33250
#
# Velocity S-wave (km/s) = 2.93151 3.33740 3.14102
# Velocity P-wave (km/s) = 5.75801 6.20754 5.98700
#
# Compressibility (1/GPa) = 0.02623585
#
# Stress axis : x y z
#
# Youngs Moduli (GPa) = 51.02244 38.86328 54.86492
#
# Poissons Ratio (x) = 0.15044 0.41811
# Poissons Ratio (y) = 0.19750 0.39332
# Poissons Ratio (z) = 0.38883 0.27861
#
# Static dielectric constant tensor:
#      x y z
#    x 3.173000 0.000000 0.092830 
#    y 0.000000 3.332100 0.000000 
#    z 0.092830 0.000000 3.341480 
# 
# 
# High freq. dielectric constant tensor:
#      x y z
#    x 1.668370 0.000000 0.019960 
#    y 0.000000 1.678550 0.000000 
#    z 0.019960 0.000000 1.655390 
# 
# From -- ./inp_files/35887.got.cif
#   From: 2010.06.25/outbox.cif.g09.slc.cpg/sg11_18_cif.got.tgz:35887.got - 2010.06.27 23:14:04.
