data_PCOD8068157
_publ_section_title
;
Structure prediction by ZEFSAII (Michael W. Deem and Ramdas Pophale) SiO2 
 PCOD8068157
Probable space group: P 21/M
;
_chemical_formula_sum "Si O2"
_cell_formula_units_Z 24
_cell_length_a 8.447119
_cell_length_b 18.094557
_cell_length_c 14.929675
_cell_angle_alpha 90.000000
_cell_angle_beta 38.496006
_cell_angle_gamma 90.000000
_cell_volume 1420.425387
_symmetry_space_group_name_H-M "P 21/M"
_symmetry_group_IT_number 11
_symmetry_cell_setting 'monoclinic'
loop_
_space_group_symop_operation_xyz
x,y,z
-x,1/2+y,-z
-x,-y,-z
x,1/2-y,z
loop_
_atom_site_type_symbol
_atom_site_label
_atom_site_fract_x
_atom_site_fract_y
_atom_site_fract_z
Si Si1 0.753335 0.969979 0.230304
Si Si2 0.813045 0.931558 0.009432
Si Si3 0.610975 0.552416 0.826387
Si Si4 0.497166 0.163756 0.973135
Si Si5 0.978479 0.424528 0.714216
Si Si6 0.758301 0.957421 0.571198
O O1 0.803800 0.919109 0.120427
O O2 0.843796 0.925663 0.277288
O O3 0.454412 0.986415 0.372927
O O4 0.904484 0.047462 0.148931
O O5 0.718084 0.856702 0.004613
O O6 0.634297 0.999881 0.058299
O O7 0.851310 0.505260 0.756003
O O8 0.646155 0.583151 0.709195
O O9 0.566486 0.623796 0.905859
O O10 0.493585 0.250000 0.992660
O O11 0.771845 0.139856 0.814345
O O12 0.153015 0.404817 0.549870
O O13 0.000000 0.000000 0.500000
#
# Coordination Sequence:
#
# PCOD8068157 Si02
#       6
#     4   4   4   4   4   4
#     4  10  16  28  55  78 102 126 165 220 263 285
#     4   9  17  30  52  78 100 130 169 215 256 292
#     4   9  16  33  51  74 103 129 166 212 250 304
#     4  11  20  33  52  73 102 140 170 205 255 314
#     4  10  17  32  52  79 102 128 170 213 253 301
#     4   9  19  29  50  82 104 126 165 213 262 301
#
# _framework density 16.896348
#
# number of rings (size 3 to 8) (size 9 to 14) (size 15 to 20)
#    0.000    2.333    3.333    2.500    0.000    0.000 
#    0.000    1.667    0.000    1.000    0.000    0.000 
#    0.000    0.000    0.000    0.000    0.000    0.000 
#
# Total GULP energy -297475.707675 kJ/mol
# GULP energy per Si atom -12394.821153 kJ/mol
# Density = 1.685789 g / cm^3
# Si number density = 16.896348 Si / 1000 Ang^3
#
#
#
# Elastic Constant Matrix: (Units=GPa)
#
#
# Indices 1 2 3 4 5 6 
#
# 1 105.4528 23.7022 27.1415 0.0000 8.0800 0.0000
# 2 23.7022 80.9615 28.5638 0.0000 12.3665 0.0000
# 3 27.1415 28.5638 85.5546 0.0000 9.6726 0.0000
# 4 0.0000 0.0000 0.0000 12.1944 0.0000 0.5198
# 5 8.0800 12.3665 9.6726 0.0000 39.6618 0.0000
# 6 0.0000 0.0000 0.0000 0.5198 0.0000 14.1609
#
#
#
# Elastic Compliance Matrix: (Units=1/GPa)
#
#
# Indices 1 2 3 4 5 6 
#
# 1 0.010686 -0.002076 -0.002596 0.000000 -0.000897 0.000000
# 2 -0.002076 0.014841 -0.003930 0.000000 -0.003246 0.000000
# 3 -0.002596 -0.003930 0.014012 0.000000 -0.001663 0.000000
# 4 0.000000 0.000000 0.000000 0.082133 0.000000 -0.003015
# 5 -0.000897 -0.003246 -0.001663 0.000000 0.026814 0.000000
# 6 0.000000 0.000000 0.000000 -0.003015 0.000000 0.070727
#
#
# Mechanical properties :
#
#
# Convention : Reuss Voigt Hill
#
# Bulk Modulus (GPa) = 44.76749 47.86489 46.31619
# Shear Modulus (GPa) = 20.50340 26.04085 23.27213
#
# Velocity S-wave (km/s) = 3.48728 3.93009 3.71529
# Velocity P-wave (km/s) = 6.53971 6.99887 6.77318
#
# Compressibility (1/GPa) = 0.02233764
#
# Stress axis : x y z
#
# Youngs Moduli (GPa) = 93.57801 67.37880 71.36798
#
# Poissons Ratio (x) = 0.13986 0.18525
# Poissons Ratio (y) = 0.19424 0.28044
# Poissons Ratio (z) = 0.24290 0.26477
#
# Static dielectric constant tensor:
#      x y z
#    x 3.520100 0.000000 0.173150 
#    y 0.000000 2.500280 0.000000 
#    z 0.173150 0.000000 3.653350 
# 
# 
# High freq. dielectric constant tensor:
#      x y z
#    x 1.676970 0.000000 0.007300 
#    y 0.000000 1.569200 0.000000 
#    z 0.007300 0.000000 1.667210 
# 
# From -- ./inp_files/18275.got.cif
#   From: 2010.06.25/outbox.cif.g09.slc.cpg/sg11_10_cif.got.tgz:18275.got - 2010.06.27 23:14:04.
