data_PCOD8068472
_publ_section_title
;
Structure prediction by ZEFSAII (Michael W. Deem and Ramdas Pophale) SiO2 
 PCOD8068472
Probable space group: P 21/M
;
_chemical_formula_sum "Si O2"
_cell_formula_units_Z 26
_cell_length_a 10.080605
_cell_length_b 15.363606
_cell_length_c 10.016879
_cell_angle_alpha 90.000000
_cell_angle_beta 55.385170
_cell_angle_gamma 90.000000
_cell_volume 1276.751596
_symmetry_space_group_name_H-M "P 21/M"
_symmetry_group_IT_number 11
_symmetry_cell_setting 'monoclinic'
loop_
_space_group_symop_operation_xyz
x,y,z
-x,1/2+y,-z
-x,-y,-z
x,1/2-y,z
loop_
_atom_site_type_symbol
_atom_site_label
_atom_site_fract_x
_atom_site_fract_y
_atom_site_fract_z
Si Si1 0.364229 0.487231 0.771410
Si Si2 0.958971 0.750000 0.595722
Si Si3 0.317562 0.564386 0.512500
Si Si4 0.307151 0.750000 0.470631
Si Si5 0.096029 0.147065 0.953454
Si Si6 0.205948 0.750000 0.243750
Si Si7 0.038688 0.415362 0.273383
Si Si8 0.827301 0.415445 0.908536
O O1 0.314963 0.514345 0.651715
O O2 0.558598 0.478119 0.664934
O O3 0.273179 0.396148 0.851707
O O4 0.313318 0.559808 0.907330
O O5 0.869500 0.840904 0.688178
O O6 0.114195 0.750000 0.606773
O O7 0.019670 0.750000 0.406804
O O8 0.381269 0.664000 0.496010
O O9 0.135645 0.564598 0.558041
O O10 0.332611 0.750000 0.294019
O O11 0.114677 0.250000 0.926837
O O12 0.009460 0.120776 0.140540
O O13 0.990769 0.108229 0.893062
O O14 0.238050 0.834663 0.137286
O O15 0.141153 0.504040 0.210450
#
# Coordination Sequence:
#
# PCOD8068472 Si02
#       8
#     4   2   4   2   4   2   4   4
#     4  10  21  32  53  86 109 131 174 211 281 322
#     4   8  18  33  51  76  93 139 186 210 242 313
#     4  10  18  35  55  79 105 138 176 214 259 330
#     4   8  20  35  52  73 102 142 181 213 246 307
#     4  11  19  31  52  81 113 138 161 218 276 321
#     4  10  22  34  53  77 103 145 193 207 256 312
#     4  10  17  34  56  76 108 136 173 218 269 309
#     4  11  20  33  51  83 109 139 168 226 263 312
#
# _framework density 20.364180000000001
#
# number of rings (size 3 to 8) (size 9 to 14) (size 15 to 20)
#    0.462    1.538    4.615    0.923    1.077    1.231 
#    0.000    0.769    0.000    0.000    8.000    0.000 
#    0.000    0.000    0.000    0.000    0.000    0.000 
#
# Total GULP energy -322173.190248 kJ/mol
# GULP energy per Si atom -12391.276548 kJ/mol
# Density = 2.031783 g / cm^3
# Si number density = 20.364180 Si / 1000 Ang^3
#
#
#
# Elastic Constant Matrix: (Units=GPa)
#
#
# Indices 1 2 3 4 5 6 
#
# 1 12.7256 8.5927 19.8271 0.0000 -7.7483 0.0000
# 2 8.5927 149.6846 57.6124 0.0000 -1.0982 0.0000
# 3 19.8271 57.6124 115.4581 0.0000 -17.1781 0.0000
# 4 0.0000 0.0000 0.0000 37.8873 0.0000 7.0080
# 5 -7.7483 -1.0982 -17.1781 0.0000 16.4600 0.0000
# 6 0.0000 0.0000 0.0000 7.0080 0.0000 8.7503
#
#
#
# Elastic Compliance Matrix: (Units=1/GPa)
#
#
# Indices 1 2 3 4 5 6 
#
# 1 0.130704 -0.001429 -0.014907 0.000000 0.045875 0.000000
# 2 -0.001429 0.008569 -0.004789 0.000000 -0.005099 0.000000
# 3 -0.014907 -0.004789 0.014820 0.000000 0.008130 0.000000
# 4 0.000000 0.000000 0.000000 0.030984 0.000000 -0.024815
# 5 0.045875 -0.005099 0.008130 0.000000 0.090493 0.000000
# 6 0.000000 0.000000 0.000000 -0.024815 0.000000 0.134156
#
#
# Mechanical properties :
#
#
# Convention : Reuss Voigt Hill
#
# Bulk Modulus (GPa) = 8.94107 49.99253 29.46680
# Shear Modulus (GPa) = 10.21959 25.40859 17.81409
#
# Velocity S-wave (km/s) = 2.24261 3.53613 2.96087
# Velocity P-wave (km/s) = 3.33255 6.42455 5.11765
#
# Compressibility (1/GPa) = 0.11184343
#
# Stress axis : x y z
#
# Youngs Moduli (GPa) = 7.65087 116.70645 67.47547
#
# Poissons Ratio (x) = 0.16678 1.00584
# Poissons Ratio (y) = 0.01093 0.32313
# Poissons Ratio (z) = 0.11405 0.55888
#
# Static dielectric constant tensor:
#      x y z
#    x 3.021530 0.000000 -0.029670 
#    y 0.000000 4.023250 0.000000 
#    z -0.029670 0.000000 3.801440 
# 
# 
# High freq. dielectric constant tensor:
#      x y z
#    x 1.723310 0.000000 0.005320 
#    y 0.000000 1.815420 0.000000 
#    z 0.005320 0.000000 1.801870 
# 
# From -- ./inp_files/35430.got.cif
#   From: 2010.06.25/outbox.cif.g09.slc.cpg/sg11_18_cif.got.tgz:35430.got - 2010.06.27 23:14:04.
