data_PCOD8068068
_publ_section_title
;
Structure prediction by ZEFSAII (Michael W. Deem and Ramdas Pophale) SiO2 
 PCOD8068068
Probable space group: P 2/M
;
_chemical_formula_sum "Si O2"
_cell_formula_units_Z 32
_cell_length_a 12.000000
_cell_length_b 24.000000
_cell_length_c 18.000000
_cell_angle_alpha 90.000000
_cell_angle_beta 20.000000
_cell_angle_gamma 90.000000
_cell_volume 1773.032423
_symmetry_space_group_name_H-M "P 2/M"
_symmetry_group_IT_number 10
_symmetry_cell_setting 'monoclinic'
loop_
_space_group_symop_operation_xyz
x,y,z
-x,y,-z
-x,-y,-z
x,-y,z
loop_
_atom_site_type_symbol
_atom_site_label
_atom_site_fract_x
_atom_site_fract_y
_atom_site_fract_z
Si Si1 0.299128 0.064396 0.949003
Si Si2 0.014496 0.562729 0.153833
Si Si3 0.368441 0.758633 0.291097
Si Si4 0.634005 0.563149 0.535587
Si Si5 0.325560 0.642170 0.845200
Si Si6 0.462790 0.157144 0.107827
Si Si7 0.576801 0.937225 0.366479
Si Si8 0.722751 0.130989 0.572203
O O1 0.293218 0.105821 0.024479
O O2 0.581784 0.086358 0.718333
O O3 0.358830 0.000000 0.935919
O O4 0.963769 0.069430 0.113236
O O5 0.165027 0.500000 0.059910
O O6 0.923945 0.580249 0.295941
O O7 0.695580 0.561912 0.303824
O O8 0.261979 0.606373 0.960338
O O9 0.547482 0.702706 0.207465
O O10 0.529691 0.788088 0.117097
O O11 0.396256 0.805299 0.338872
O O12 0.000000 0.742564 0.500000
O O13 0.697179 0.500000 0.527125
O O14 0.596048 0.608340 0.626326
O O15 0.000000 0.650744 0.000000
O O16 0.107239 0.131314 0.343370
O O17 0.500000 0.176587 0.000000
O O18 0.500000 0.927446 0.500000
O O19 0.384165 0.889671 0.442156
O O20 0.468588 0.000000 0.409922
#
# Coordination Sequence:
#
# PCOD8068068 Si02
#       8
#     4   4   4   4   4   4   4   4
#     4  10  20  33  53  80 106 132 162 205 262 318
#     4   8  14  26  46  76 111 139 167 206 257 309
#     4   9  21  39  52  69  99 136 175 214 256 306
#     4   8  14  26  47  76 111 141 164 207 261 305
#     4  10  18  30  52  80 105 133 177 217 254 303
#     4  10  21  38  56  73  96 131 177 220 257 305
#     4  10  20  33  52  81 111 133 161 206 263 319
#     4  10  20  36  55  71  98 138 177 209 250 312
#
# _framework density 18.048175000000001
#
# number of rings (size 3 to 8) (size 9 to 14) (size 15 to 20)
#    0.000    2.625    0.000    3.750    0.000    6.250 
#    4.500    0.000    2.750    1.500    0.000    1.750 
#    0.000    0.000    0.000    0.000    0.000    0.000 
#
# Total GULP energy -396520.746031 kJ/mol
# GULP energy per Si atom -12391.273313 kJ/mol
# Density = 1.800710 g / cm^3
# Si number density = 18.048175 Si / 1000 Ang^3
#
#
#
# Elastic Constant Matrix: (Units=GPa)
#
#
# Indices 1 2 3 4 5 6 
#
# 1 90.0088 66.4203 29.4768 0.0000 16.5030 0.0000
# 2 66.4203 165.8072 41.8683 0.0000 11.5314 0.0000
# 3 29.4768 41.8683 59.7656 0.0000 15.1587 0.0000
# 4 0.0000 0.0000 0.0000 25.5131 0.0000 -1.1273
# 5 16.5030 11.5314 15.1587 0.0000 28.0007 0.0000
# 6 0.0000 0.0000 0.0000 -1.1273 0.0000 33.1591
#
#
#
# Elastic Compliance Matrix: (Units=1/GPa)
#
#
# Indices 1 2 3 4 5 6 
#
# 1 0.017553 -0.005844 -0.002955 0.000000 -0.006339 0.000000
# 2 -0.005844 0.009275 -0.004080 0.000000 0.001834 0.000000
# 3 -0.002955 -0.004080 0.023392 0.000000 -0.009242 0.000000
# 4 0.000000 0.000000 0.000000 0.039255 0.000000 0.001335
# 5 -0.006339 0.001834 -0.009242 0.000000 0.043697 0.000000
# 6 0.000000 0.000000 0.000000 0.001335 0.000000 0.030203
#
#
# Mechanical properties :
#
#
# Convention : Reuss Voigt Hill
#
# Bulk Modulus (GPa) = 40.88286 65.67918 53.28102
# Shear Modulus (GPa) = 25.34376 29.18899 27.26637
#
# Velocity S-wave (km/s) = 3.75137 4.02591 3.89106
# Velocity P-wave (km/s) = 6.43933 7.62106 7.05498
#
# Compressibility (1/GPa) = 0.02446013
#
# Stress axis : x y z
#
# Youngs Moduli (GPa) = 56.97124 107.81626 42.74980
#
# Poissons Ratio (x) = 0.63012 0.12634
# Poissons Ratio (y) = 0.33296 0.17443
# Poissons Ratio (z) = 0.16836 0.43991
#
# Static dielectric constant tensor:
#      x y z
#    x 3.492460 0.000000 0.199330 
#    y 0.000000 3.533540 0.000000 
#    z 0.199330 0.000000 3.436000 
# 
# 
# High freq. dielectric constant tensor:
#      x y z
#    x 1.693290 0.000000 0.019230 
#    y 0.000000 1.706350 0.000000 
#    z 0.019230 0.000000 1.692740 
# 
# From -- ./inp_files/77238.got.cif
#   From: 2010.06.25/outbox.ucp.g09.slc.cvg/sg10_39_cif.got.tgz:77238.got - 2010.06.28 13:37:52.
