data_PCOD8068618
_publ_section_title
;
Structure prediction by ZEFSAII (Michael W. Deem and Ramdas Pophale) SiO2 
 PCOD8068618
Probable space group: P 21/M
;
_chemical_formula_sum "Si O2"
_cell_formula_units_Z 32
_cell_length_a 18.468333
_cell_length_b 9.015520
_cell_length_c 26.691568
_cell_angle_alpha 90.000000
_cell_angle_beta 152.171464
_cell_angle_gamma 90.000000
_cell_volume 2074.668280
_symmetry_space_group_name_H-M "P 21/M"
_symmetry_group_IT_number 11
_symmetry_cell_setting 'monoclinic'
loop_
_space_group_symop_operation_xyz
x,y,z
-x,1/2+y,-z
-x,-y,-z
x,1/2-y,z
loop_
_atom_site_type_symbol
_atom_site_label
_atom_site_fract_x
_atom_site_fract_y
_atom_site_fract_z
Si Si1 0.765795 0.585339 0.343835
Si Si2 0.704151 0.577559 0.663954
Si Si3 0.986471 0.414093 0.416149
Si Si4 0.647295 0.422618 0.527515
Si Si5 0.210752 0.081575 0.103081
Si Si6 0.114645 0.921483 0.140736
Si Si7 0.258016 0.073843 0.514871
Si Si8 0.448059 0.578516 0.716431
O O1 0.704970 0.750000 0.294682
O O2 0.896008 0.588453 0.465716
O O3 0.622064 0.487451 0.275227
O O4 0.840208 0.519390 0.338372
O O5 0.731005 0.750000 0.668698
O O6 0.720254 0.485910 0.622852
O O7 0.536869 0.550283 0.586648
O O8 0.834967 0.518935 0.781316
O O9 0.919472 0.250000 0.365898
O O10 0.084718 0.468695 0.428101
O O11 0.688240 0.250000 0.548148
O O12 0.725521 0.510711 0.530309
O O13 0.201844 0.250000 0.118404
O O14 0.367371 0.055949 0.167746
O O15 0.207209 0.971774 0.147988
O O16 0.068372 0.050285 0.978570
O O17 0.153895 0.750000 0.174834
O O18 0.282005 0.250000 0.530253
O O19 0.386912 0.003242 0.629638
O O20 0.400335 0.750000 0.683324
#
# Coordination Sequence:
#
# PCOD8068618 Si02
#       8
#     4   4   4   4   4   4   4   4
#     4   9  16  25  38  57  80 107 141 176 208 245
#     4  10  20  33  47  63  85 112 142 176 214 254
#     4   8  15  26  38  54  79 111 141 168 204 249
#     4  10  20  32  46  64  85 111 143 176 211 252
#     4   9  19  32  44  62  86 113 145 177 211 253
#     4  10  19  31  47  64  84 111 143 179 216 252
#     4  10  19  29  42  62  87 113 143 178 212 248
#     4  10  18  28  42  59  84 116 146 176 210 250
#
# _framework density 15.424153
#
# number of rings (size 3 to 8) (size 9 to 14) (size 15 to 20)
#    0.000    2.500    0.000    3.750    0.000    9.500 
#    0.000    0.000    0.000    0.000    0.000    0.000 
#    0.000    1.000    0.000    3.000    0.000    4.250 
#
# Total GULP energy -396794.104834 kJ/mol
# GULP energy per Si atom -12399.815776 kJ/mol
# Density = 1.538905 g / cm^3
# Si number density = 15.424153 Si / 1000 Ang^3
#
#
#
# Elastic Constant Matrix: (Units=GPa)
#
#
# Indices 1 2 3 4 5 6 
#
# 1 114.4247 56.6019 37.9840 0.0000 10.5078 0.0000
# 2 56.6019 97.1961 34.9888 0.0000 5.9787 0.0000
# 3 37.9840 34.9888 59.4477 0.0000 1.9602 0.0000
# 4 0.0000 0.0000 0.0000 20.2648 0.0000 -1.3266
# 5 10.5078 5.9787 1.9602 0.0000 16.5396 0.0000
# 6 0.0000 0.0000 0.0000 -1.3266 0.0000 30.4623
#
#
#
# Elastic Compliance Matrix: (Units=1/GPa)
#
#
# Indices 1 2 3 4 5 6 
#
# 1 0.013941 -0.005847 -0.005265 0.000000 -0.006120 0.000000
# 2 -0.005847 0.015752 -0.005491 0.000000 -0.001328 0.000000
# 3 -0.005265 -0.005491 0.023333 0.000000 0.002564 0.000000
# 4 0.000000 0.000000 0.000000 0.049488 0.000000 0.002155
# 5 -0.006120 -0.001328 0.002564 0.000000 0.064525 0.000000
# 6 0.000000 0.000000 0.000000 0.002155 0.000000 0.032921
#
#
# Mechanical properties :
#
#
# Convention : Reuss Voigt Hill
#
# Bulk Modulus (GPa) = 50.45383 58.91310 54.68347
# Shear Modulus (GPa) = 20.85306 22.88625 21.86965
#
# Velocity S-wave (km/s) = 3.68091 3.85618 3.76956
# Velocity P-wave (km/s) = 7.13074 7.62267 7.38080
#
# Compressibility (1/GPa) = 0.01982010
#
# Stress axis : x y z
#
# Youngs Moduli (GPa) = 71.72919 63.48407 42.85829
#
# Poissons Ratio (x) = 0.37120 0.22563
# Poissons Ratio (y) = 0.41941 0.23535
# Poissons Ratio (z) = 0.37763 0.34861
#
# Static dielectric constant tensor:
#      x y z
#    x 3.032110 0.000000 0.131340 
#    y 0.000000 3.170900 0.000000 
#    z 0.131340 0.000000 2.635660 
# 
# 
# High freq. dielectric constant tensor:
#      x y z
#    x 1.588120 0.000000 0.012060 
#    y 0.000000 1.611150 0.000000 
#    z 0.012060 0.000000 1.544510 
# 
# From -- ./inp_files/61809.got.cif
#   From: 2010.06.25/outbox.cif.g09.slc.cpg/sg11_31_cif.got.tgz:61809.got - 2010.06.27 23:14:04.
