data_PCOD8068831
_publ_section_title
;
Structure prediction by ZEFSAII (Michael W. Deem and Ramdas Pophale) SiO2 
 PCOD8068831
Probable space group: P 21/M
;
_chemical_formula_sum "Si O2"
_cell_formula_units_Z 28
_cell_length_a 18.953563
_cell_length_b 9.128450
_cell_length_c 17.737543
_cell_angle_alpha 90.000000
_cell_angle_beta 147.897863
_cell_angle_gamma 90.000000
_cell_volume 1630.900913
_symmetry_space_group_name_H-M "P 21/M"
_symmetry_group_IT_number 11
_symmetry_cell_setting 'monoclinic'
loop_
_space_group_symop_operation_xyz
x,y,z
-x,1/2+y,-z
-x,-y,-z
x,1/2-y,z
loop_
_atom_site_type_symbol
_atom_site_label
_atom_site_fract_x
_atom_site_fract_y
_atom_site_fract_z
Si Si1 0.224214 0.080443 0.421053
Si Si2 0.860079 0.578476 0.369685
Si Si3 0.634729 0.921300 0.602123
Si Si4 0.916858 0.080541 0.114696
Si Si5 0.123427 0.076747 0.072402
Si Si6 0.884326 0.912683 0.228202
Si Si7 0.803886 0.084683 0.458405
O O1 0.243568 0.250000 0.458314
O O2 0.317860 0.028576 0.437775
O O3 0.073569 0.050939 0.259249
O O4 0.265874 0.988464 0.532312
O O5 0.877853 0.750000 0.403885
O O6 0.803811 0.555391 0.233322
O O7 0.765374 0.504673 0.347244
O O8 0.000000 0.500000 0.500000
O O9 0.608505 0.750000 0.579417
O O10 0.745263 0.964780 0.762912
O O11 0.500000 0.000000 0.500000
O O12 0.883531 0.250000 0.071159
O O13 0.848083 0.029246 0.130702
O O14 0.855501 0.984831 0.992270
O O15 0.097783 0.250000 0.047753
O O16 0.000000 0.000000 0.000000
O O17 0.849928 0.750000 0.167227
O O18 0.039184 0.921632 0.387930
O O19 0.751507 0.250000 0.402665
#
# Coordination Sequence:
#
# PCOD8068831 Si02
#       7
#     4   4   4   4   4   4   4
#     4   9  17  31  46  64  93 123 158 200 241 287
#     4   9  15  23  35  53  81 118 156 191 234 283
#     4  10  22  38  53  73  99 129 164 205 251 297
#     4  10  18  29  46  69  94 123 160 200 244 288
#     4  11  21  35  53  74  99 126 164 206 246 294
#     4   8  15  25  36  56  86 120 156 192 234 284
#     4   9  16  24  37  59  84 116 158 194 234 285
#
# _framework density 17.168426
#
# number of rings (size 3 to 8) (size 9 to 14) (size 15 to 20)
#    0.000    2.571    1.429    2.571    0.000    6.286 
#    0.000    0.000    0.000    0.000    0.000    0.000 
#    0.000    1.143    0.000    3.714    0.000    5.571 
#
# Total GULP energy -347080.399166 kJ/mol
# GULP energy per Si atom -12395.728542 kJ/mol
# Density = 1.712935 g / cm^3
# Si number density = 17.168426 Si / 1000 Ang^3
#
#
#
# Elastic Constant Matrix: (Units=GPa)
#
#
# Indices 1 2 3 4 5 6 
#
# 1 137.0491 71.1699 57.5848 0.0000 -34.0125 0.0000
# 2 71.1699 108.8621 46.8776 0.0000 -17.7320 0.0000
# 3 57.5848 46.8776 55.3729 0.0000 -12.9046 0.0000
# 4 0.0000 0.0000 0.0000 21.2694 0.0000 -8.2951
# 5 -34.0125 -17.7320 -12.9046 0.0000 24.2127 0.0000
# 6 0.0000 0.0000 0.0000 -8.2951 0.0000 34.3318
#
#
#
# Elastic Compliance Matrix: (Units=1/GPa)
#
#
# Indices 1 2 3 4 5 6 
#
# 1 0.018714 -0.004416 -0.011818 0.000000 0.016755 0.000000
# 2 -0.004416 0.015970 -0.008732 0.000000 0.000838 0.000000
# 3 -0.011818 -0.008732 0.036975 0.000000 -0.003289 0.000000
# 4 0.000000 0.000000 0.000000 0.051907 0.000000 0.012542
# 5 0.016755 0.000838 -0.003289 0.000000 0.063698 0.000000
# 6 0.000000 0.000000 0.000000 0.012542 0.000000 0.032158
#
#
# Mechanical properties :
#
#
# Convention : Reuss Voigt Hill
#
# Bulk Modulus (GPa) = 46.02624 72.50543 59.26583
# Shear Modulus (GPa) = 18.07696 24.33957 21.20827
#
# Velocity S-wave (km/s) = 3.24839 3.76931 3.51851
# Velocity P-wave (km/s) = 6.39814 7.82733 7.14855
#
# Compressibility (1/GPa) = 0.02172674
#
# Stress axis : x y z
#
# Youngs Moduli (GPa) = 53.43593 62.61917 27.04542
#
# Poissons Ratio (x) = 0.27655 0.31962
# Poissons Ratio (y) = 0.23599 0.23615
# Poissons Ratio (z) = 0.63150 0.54676
#
# Static dielectric constant tensor:
#      x y z
#    x 3.058360 0.000000 0.762450 
#    y 0.000000 3.402120 0.000000 
#    z 0.762450 0.000000 -0.205260 
# 
# 
# High freq. dielectric constant tensor:
#      x y z
#    x 1.665200 0.000000 -0.045360 
#    y 0.000000 1.674390 0.000000 
#    z -0.045360 0.000000 1.603620 
# 
# From -- ./inp_files/61272.got.cif
#   From: 2010.06.25/outbox.cif.g09.slc.cpg/sg11_31_cif.got.tgz:61272.got - 2010.06.27 23:14:04.
