data_PCOD8068431
_publ_section_title
;
Structure prediction by ZEFSAII (Michael W. Deem and Ramdas Pophale) SiO2 
 PCOD8068431
Probable space group: P 21/M
;
_chemical_formula_sum "Si O2"
_cell_formula_units_Z 32
_cell_length_a 9.672808
_cell_length_b 13.451136
_cell_length_c 25.158730
_cell_angle_alpha 90.000000
_cell_angle_beta 152.097476
_cell_angle_gamma 90.000000
_cell_volume 1531.853009
_symmetry_space_group_name_H-M "P 21/M"
_symmetry_group_IT_number 11
_symmetry_cell_setting 'monoclinic'
loop_
_space_group_symop_operation_xyz
x,y,z
-x,1/2+y,-z
-x,-y,-z
x,1/2-y,z
loop_
_atom_site_type_symbol
_atom_site_label
_atom_site_fract_x
_atom_site_fract_y
_atom_site_fract_z
Si Si1 0.790020 0.457182 0.654480
Si Si2 0.875657 0.862828 0.326709
Si Si3 0.766130 0.558368 0.990097
Si Si4 0.874204 0.363589 0.254960
Si Si5 0.219669 0.860415 0.062185
Si Si6 0.821785 0.636321 0.536056
Si Si7 0.254457 0.366303 0.604946
Si Si8 0.910892 0.367088 0.803439
O O1 0.441920 0.436427 0.535139
O O2 0.958070 0.397173 0.758096
O O3 0.926090 0.427978 0.644123
O O4 0.860682 0.575275 0.683822
O O5 0.990085 0.750000 0.362123
O O6 0.533303 0.871547 0.196499
O O7 0.907236 0.909857 0.397393
O O8 0.432131 0.587873 0.865103
O O9 0.815988 0.441276 0.996438
O O10 0.973886 0.625198 0.023752
O O11 0.841651 0.578661 0.077144
O O12 0.895443 0.250000 0.242855
O O13 0.908027 0.371297 0.330914
O O14 0.180964 0.750000 0.024387
O O15 0.695379 0.750000 0.492061
O O16 0.925626 0.609797 0.510813
O O17 0.278308 0.250000 0.624529
O O18 0.588350 0.406412 0.711583
O O19 0.949478 0.250000 0.822578
#
# Coordination Sequence:
#
# PCOD8068431 Si02
#       8
#     4   4   4   4   4   4   4   4
#     4  11  21  36  57  86 113 146 193 247 290 326
#     4  10  17  31  56  89 115 134 178 244 296 325
#     4  11  21  37  59  85 119 156 192 229 287 350
#     4  11  23  38  55  79 115 157 195 228 285 360
#     4  10  20  35  58  87 118 151 191 238 287 337
#     4   9  19  37  60  84 112 149 192 238 283 342
#     4   8  15  30  55  85 112 141 183 234 280 326
#     4  10  19  34  58  86 114 148 191 235 283 338
#
# _framework density 20.889731999999999
#
# number of rings (size 3 to 8) (size 9 to 14) (size 15 to 20)
#    0.000    2.000    2.500    3.375    0.000    0.500 
#    0.000    1.250    0.000    1.500    0.000    4.375 
#    0.000    0.000    0.000    0.000    0.000    0.000 
#
# Total GULP energy -396722.170498 kJ/mol
# GULP energy per Si atom -12397.567828 kJ/mol
# Density = 2.084219 g / cm^3
# Si number density = 20.889732 Si / 1000 Ang^3
#
#
#
# Elastic Constant Matrix: (Units=GPa)
#
#
# Indices 1 2 3 4 5 6 
#
# 1 102.6835 23.3404 26.7201 0.0000 -12.4989 0.0000
# 2 23.3404 98.5353 18.0981 0.0000 -8.9549 0.0000
# 3 26.7201 18.0981 87.8106 0.0000 -21.6969 0.0000
# 4 0.0000 0.0000 0.0000 24.9337 0.0000 -4.7303
# 5 -12.4989 -8.9549 -21.6969 0.0000 24.6290 0.0000
# 6 0.0000 0.0000 0.0000 -4.7303 0.0000 17.9417
#
#
#
# Elastic Compliance Matrix: (Units=1/GPa)
#
#
# Indices 1 2 3 4 5 6 
#
# 1 0.011129 -0.001954 -0.002254 0.000000 0.002951 0.000000
# 2 -0.001954 0.011008 -0.001189 0.000000 0.001963 0.000000
# 3 -0.002254 -0.001189 0.015249 0.000000 0.011857 0.000000
# 4 0.000000 0.000000 0.000000 0.042218 0.000000 0.011131
# 5 0.002951 0.001963 0.011857 0.000000 0.053260 0.000000
# 6 0.000000 0.000000 0.000000 0.011131 0.000000 0.058671
#
#
# Mechanical properties :
#
#
# Convention : Reuss Voigt Hill
#
# Bulk Modulus (GPa) = 37.60669 47.26072 42.43370
# Shear Modulus (GPa) = 23.67503 28.22559 25.95031
#
# Velocity S-wave (km/s) = 3.37015 3.67981 3.52838
# Velocity P-wave (km/s) = 5.76068 6.38183 6.07919
#
# Compressibility (1/GPa) = 0.02659102
#
# Stress axis : x y z
#
# Youngs Moduli (GPa) = 89.85811 90.84048 65.57810
#
# Poissons Ratio (x) = 0.17748 0.14784
# Poissons Ratio (y) = 0.17556 0.07799
# Poissons Ratio (z) = 0.20258 0.10803
#
# Static dielectric constant tensor:
#      x y z
#    x 3.834450 0.000000 -0.216100 
#    y 0.000000 4.045720 0.000000 
#    z -0.216100 0.000000 3.712750 
# 
# 
# High freq. dielectric constant tensor:
#      x y z
#    x 1.803930 0.000000 -0.014970 
#    y 0.000000 1.822560 0.000000 
#    z -0.014970 0.000000 1.808750 
# 
# From -- ./inp_files/68155.got.cif
#   From: 2010.06.25/outbox.cif.g09.slc.cpg/sg11_35_cif.got.tgz:68155.got - 2010.06.27 23:14:04.
