data_PCOD8068134
_publ_section_title
;
Structure prediction by ZEFSAII (Michael W. Deem and Ramdas Pophale) SiO2 
 PCOD8068134
Probable space group: P 21/M
;
_chemical_formula_sum "Si O2"
_cell_formula_units_Z 32
_cell_length_a 18.776551
_cell_length_b 18.126930
_cell_length_c 13.141725
_cell_angle_alpha 90.000000
_cell_angle_beta 19.450484
_cell_angle_gamma 90.000000
_cell_volume 1489.451507
_symmetry_space_group_name_H-M "P 21/M"
_symmetry_group_IT_number 11
_symmetry_cell_setting 'monoclinic'
loop_
_space_group_symop_operation_xyz
x,y,z
-x,1/2+y,-z
-x,-y,-z
x,1/2-y,z
loop_
_atom_site_type_symbol
_atom_site_label
_atom_site_fract_x
_atom_site_fract_y
_atom_site_fract_z
Si Si1 0.776041 0.334335 0.975003
Si Si2 0.462366 0.914017 0.537575
Si Si3 0.393543 0.163773 0.106383
Si Si4 0.035107 0.087364 0.464958
Si Si5 0.943787 0.082226 0.056130
Si Si6 0.827097 0.831241 0.406737
Si Si7 0.278016 0.334336 0.971078
Si Si8 0.705458 0.331237 0.528196
O O1 0.708722 0.250000 0.042573
O O2 0.827504 0.376072 0.799337
O O3 0.980621 0.337132 0.772130
O O4 0.580104 0.375902 0.295885
O O5 0.258086 0.901954 0.741932
O O6 0.668146 0.875952 0.207593
O O7 0.500000 0.000000 0.500000
O O8 0.324384 0.250000 0.175555
O O9 0.238656 0.104925 0.261345
O O10 0.385080 0.150275 0.240160
O O11 0.635813 0.150257 0.738702
O O12 0.080959 0.123975 0.292441
O O13 0.000000 0.000000 0.500000
O O14 0.893318 0.116140 0.234922
O O15 0.150048 0.116106 0.721423
O O16 0.000000 0.000000 0.000000
O O17 0.814787 0.750000 0.376302
O O18 0.211240 0.250000 0.037570
O O19 0.486173 0.337120 0.761049
O O20 0.803296 0.250000 0.387589
#
# Coordination Sequence:
#
# PCOD8068134 Si02
#       8
#     4   4   4   4   4   4   4   4
#     4   9  16  27  43  63  86 116 154 192 222 259
#     4  10  19  31  47  67  91 118 150 188 228 268
#     4   8  14  26  43  63  84 109 149 198 230 256
#     4  10  16  22  36  63  94 117 140 180 235 274
#     4  10  19  29  43  67  95 116 140 178 226 272
#     4   8  14  26  45  64  83 110 147 187 223 257
#     4   9  16  27  43  63  86 116 154 192 222 259
#     4   8  14  26  45  64  83 110 147 187 223 257
#
# _framework density 21.484418999999999
#
# number of rings (size 3 to 8) (size 9 to 14) (size 15 to 20)
#    0.000    3.000    0.000    4.125    0.000    3.000 
#    0.000    0.625    0.000    3.000    0.000    0.000 
#    0.000    4.000    0.000    0.000    0.000    0.000 
#
# Total GULP energy -396464.142483 kJ/mol
# GULP energy per Si atom -12389.504453 kJ/mol
# Density = 2.143552 g / cm^3
# Si number density = 21.484419 Si / 1000 Ang^3
#
#
#
# Elastic Constant Matrix: (Units=GPa)
#
#
# Indices 1 2 3 4 5 6 
#
# 1 16.8072 24.1990 42.9959 0.0000 17.4421 0.0000
# 2 24.1990 198.9376 106.4882 0.0000 49.9111 0.0000
# 3 42.9959 106.4882 183.6016 0.0000 83.7134 0.0000
# 4 0.0000 0.0000 0.0000 38.6142 0.0000 7.8866
# 5 17.4421 49.9111 83.7134 0.0000 41.3358 0.0000
# 6 0.0000 0.0000 0.0000 7.8866 0.0000 25.6889
#
#
#
# Elastic Compliance Matrix: (Units=1/GPa)
#
#
# Indices 1 2 3 4 5 6 
#
# 1 0.190043 -0.000262 -0.103566 0.000000 0.129868 0.000000
# 2 -0.000262 0.007321 -0.002672 0.000000 -0.003318 0.000000
# 3 -0.103566 -0.002672 0.128621 0.000000 -0.213557 0.000000
# 4 0.000000 0.000000 0.000000 0.027630 0.000000 -0.008482
# 5 0.129868 -0.003318 -0.213557 0.000000 0.405897 0.000000
# 6 0.000000 0.000000 0.000000 -0.008482 0.000000 0.041531
#
#
# Mechanical properties :
#
#
# Convention : Reuss Voigt Hill
#
# Bulk Modulus (GPa) = 8.85071 82.96808 45.90939
# Shear Modulus (GPa) = 4.75418 36.17200 20.46309
#
# Velocity S-wave (km/s) = 1.48918 4.10767 3.08955
# Velocity P-wave (km/s) = 2.66184 7.82297 5.84313
#
# Compressibility (1/GPa) = 0.11298535
#
# Stress axis : x y z
#
# Youngs Moduli (GPa) = 5.26196 136.58602 7.77476
#
# Poissons Ratio (x) = 0.03583 0.80520
# Poissons Ratio (y) = 0.00138 0.02077
# Poissons Ratio (z) = 0.54496 0.36495
#
# Static dielectric constant tensor:
#      x y z
#    x 3.357510 0.000000 0.714170 
#    y 0.000000 3.737510 0.000000 
#    z 0.714170 0.000000 4.535710 
# 
# 
# High freq. dielectric constant tensor:
#      x y z
#    x 1.785550 0.000000 0.044890 
#    y 0.000000 1.839360 0.000000 
#    z 0.044890 0.000000 1.859600 
# 
# From -- ./inp_files/55935.got.cif
#   From: 2010.06.25/outbox.cif.g09.slc.cpg/sg11_28_cif.got.tgz:55935.got - 2010.06.27 23:14:04.
