data_PCOD8068487
_publ_section_title
;
Structure prediction by ZEFSAII (Michael W. Deem and Ramdas Pophale) SiO2 
 PCOD8068487
Probable space group: P 21/M
;
_chemical_formula_sum "Si O2"
_cell_formula_units_Z 28
_cell_length_a 9.631577
_cell_length_b 19.161379
_cell_length_c 15.351994
_cell_angle_alpha 90.000000
_cell_angle_beta 150.310086
_cell_angle_gamma 90.000000
_cell_volume 1403.338130
_symmetry_space_group_name_H-M "P 21/M"
_symmetry_group_IT_number 11
_symmetry_cell_setting 'monoclinic'
loop_
_space_group_symop_operation_xyz
x,y,z
-x,1/2+y,-z
-x,-y,-z
x,1/2-y,z
loop_
_atom_site_type_symbol
_atom_site_label
_atom_site_fract_x
_atom_site_fract_y
_atom_site_fract_z
Si Si1 0.282204 0.607991 0.538350
Si Si2 0.683523 0.669528 0.618971
Si Si3 0.778158 0.426115 0.064593
Si Si4 0.450475 0.003820 0.203682
Si Si5 0.300060 0.327353 0.738560
Si Si6 0.362080 0.118702 0.592459
Si Si7 0.908057 0.017676 0.312295
O O1 0.437764 0.654919 0.552837
O O2 0.511589 0.582411 0.737776
O O3 0.028073 0.653485 0.436612
O O4 0.155615 0.537551 0.427103
O O5 0.777232 0.750000 0.676211
O O6 0.554253 0.653824 0.453208
O O7 0.945543 0.620806 0.784820
O O8 0.734428 0.469009 0.129618
O O9 0.807952 0.484466 0.001988
O O10 0.500176 0.378798 0.902386
O O11 0.722446 0.988136 0.290263
O O12 0.441462 0.947977 0.277602
O O13 0.342663 0.250000 0.799847
O O14 0.388900 0.326177 0.685339
O O15 0.041665 0.091661 0.412308
#
# Coordination Sequence:
#
# PCOD8068487 Si02
#       7
#     4   4   4   4   4   4   4
#     4  11  21  36  60  85 116 143 186 241 285 325
#     4  11  24  40  53  81 122 155 186 228 279 340
#     4  10  22  34  61  84 114 152 181 236 290 331
#     4  10  18  35  61  90 112 136 190 246 282 329
#     4  11  20  36  60  84 107 155 202 224 265 344
#     4   9  18  34  59  82 108 149 189 232 274 329
#     4  10  17  35  61  89 113 136 186 249 286 323
#
# _framework density 19.952424000000001
#
# number of rings (size 3 to 8) (size 9 to 14) (size 15 to 20)
#    0.000    1.714    4.286    2.571    0.000    5.714 
#    0.000    1.429    0.000    0.000    0.000    0.000 
#    0.000    0.000    0.000    0.000    0.000    0.000 
#
# Total GULP energy -346871.844711 kJ/mol
# GULP energy per Si atom -12388.280168 kJ/mol
# Density = 1.990701 g / cm^3
# Si number density = 19.952424 Si / 1000 Ang^3
#
#
#
# Elastic Constant Matrix: (Units=GPa)
#
#
# Indices 1 2 3 4 5 6 
#
# 1 61.2914 3.8504 11.0379 0.0000 -11.1201 0.0000
# 2 3.8504 57.7455 3.0263 0.0000 -9.7692 0.0000
# 3 11.0379 3.0263 48.3873 0.0000 -19.8058 0.0000
# 4 0.0000 0.0000 0.0000 26.9900 0.0000 1.8608
# 5 -11.1201 -9.7692 -19.8058 0.0000 31.2691 0.0000
# 6 0.0000 0.0000 0.0000 1.8608 0.0000 19.9296
#
#
#
# Elastic Compliance Matrix: (Units=1/GPa)
#
#
# Indices 1 2 3 4 5 6 
#
# 1 0.017580 -0.000235 -0.001980 0.000000 0.004924 0.000000
# 2 -0.000235 0.018381 0.001648 0.000000 0.006702 0.000000
# 3 -0.001980 0.001648 0.028266 0.000000 0.017714 0.000000
# 4 0.000000 0.000000 0.000000 0.037291 0.000000 -0.003482
# 5 0.004924 0.006702 0.017714 0.000000 0.047046 0.000000
# 6 0.000000 0.000000 0.000000 -0.003482 0.000000 0.050502
#
#
# Mechanical properties :
#
#
# Convention : Reuss Voigt Hill
#
# Bulk Modulus (GPa) = 15.85007 22.58368 19.21688
# Shear Modulus (GPa) = 22.60081 25.60507 24.10294
#
# Velocity S-wave (km/s) = 3.36926 3.58621 3.47943
# Velocity P-wave (km/s) = 4.80594 5.33772 5.07880
#
# Compressibility (1/GPa) = 0.06309120
#
# Stress axis : x y z
#
# Youngs Moduli (GPa) = 56.88192 54.40514 35.37825
#
# Poissons Ratio (x) = 0.01281 0.07005
# Poissons Ratio (y) = 0.01339 -0.05829
# Poissons Ratio (z) = 0.11263 -0.08963
#
# Static dielectric constant tensor:
#      x y z
#    x 3.507010 0.000000 -0.313360 
#    y 0.000000 3.617190 0.000000 
#    z -0.313360 0.000000 3.706920 
# 
# 
# High freq. dielectric constant tensor:
#      x y z
#    x 1.763330 0.000000 -0.018730 
#    y 0.000000 1.770110 0.000000 
#    z -0.018730 0.000000 1.772360 
# 
# From -- ./inp_files/48338.got.cif
#   From: 2010.06.25/outbox.cif.g09.slc.cpg/sg11_25_cif.got.tgz:48338.got - 2010.06.27 23:14:04.
