data_PCOD8068131
_publ_section_title
;
Structure prediction by ZEFSAII (Michael W. Deem and Ramdas Pophale) SiO2 
 PCOD8068131
Probable space group: P 21/M
;
_chemical_formula_sum "Si O2"
_cell_formula_units_Z 32
_cell_length_a 23.322539
_cell_length_b 8.790081
_cell_length_c 11.485935
_cell_angle_alpha 90.000000
_cell_angle_beta 53.744568
_cell_angle_gamma 90.000000
_cell_volume 1898.800804
_symmetry_space_group_name_H-M "P 21/M"
_symmetry_group_IT_number 11
_symmetry_cell_setting 'monoclinic'
loop_
_space_group_symop_operation_xyz
x,y,z
-x,1/2+y,-z
-x,-y,-z
x,1/2-y,z
loop_
_atom_site_type_symbol
_atom_site_label
_atom_site_fract_x
_atom_site_fract_y
_atom_site_fract_z
Si Si1 0.802920 0.927460 0.194916
Si Si2 0.353440 0.425704 0.580078
Si Si3 0.780485 0.424824 0.973786
Si Si4 0.958738 0.072396 0.386793
Si Si5 0.374479 0.925245 0.800024
Si Si6 0.062597 0.570902 0.850770
Si Si7 0.509826 0.429763 0.616905
Si Si8 0.892068 0.573137 0.681280
O O1 0.822507 0.750000 0.170280
O O2 0.728879 0.957447 0.353738
O O3 0.861513 0.020212 0.193638
O O4 0.799774 0.980300 0.065296
O O5 0.372776 0.250000 0.542857
O O6 0.360261 0.473493 0.704813
O O7 0.411106 0.520629 0.433551
O O8 0.798981 0.250000 0.978199
O O9 0.824700 0.483401 0.811323
O O10 0.696991 0.441013 0.037100
O O11 0.943041 0.250000 0.422585
O O12 0.945052 0.015904 0.272763
O O13 0.040052 0.033802 0.320543
O O14 0.905497 0.979864 0.533387
O O15 0.388172 0.750000 0.748723
O O16 0.446344 0.995960 0.772549
O O17 0.055430 0.750000 0.867944
O O18 0.000000 0.500000 0.000000
O O19 0.500000 0.500000 0.500000
O O20 0.502917 0.250000 0.626167
O O21 0.874112 0.750000 0.703614
#
# Coordination Sequence:
#
# PCOD8068131 Si02
#       8
#     4   4   4   4   4   4   4   4
#     4  10  20  32  46  66  93 123 158 196 231 273
#     4   9  16  26  39  55  80 115 150 186 225 265
#     4  10  19  30  46  67  93 125 157 190 230 276
#     4   9  20  36  50  68  92 119 152 187 227 274
#     4   9  16  25  37  56  83 115 150 184 220 266
#     4  11  22  35  52  71  95 125 155 190 229 272
#     4  10  16  22  35  54  79 112 148 185 222 264
#     4  10  19  32  52  72  91 117 150 191 233 273
#
# _framework density 16.852741999999999
#
# number of rings (size 3 to 8) (size 9 to 14) (size 15 to 20)
#    0.000    2.250    0.000    5.625    0.000    5.500 
#    0.000    0.000    0.000    0.000    0.000    0.000 
#    0.000    1.000    0.000    3.250    0.000    6.625 
#
# Total GULP energy -396607.914608 kJ/mol
# GULP energy per Si atom -12393.997331 kJ/mol
# Density = 1.681438 g / cm^3
# Si number density = 16.852742 Si / 1000 Ang^3
#
#
#
# Elastic Constant Matrix: (Units=GPa)
#
#
# Indices 1 2 3 4 5 6 
#
# 1 68.5465 34.6614 55.6237 0.0000 -16.6164 0.0000
# 2 34.6614 73.1101 46.2255 0.0000 -11.4698 0.0000
# 3 55.6237 46.2255 102.8236 0.0000 -20.7322 0.0000
# 4 0.0000 0.0000 0.0000 28.7407 0.0000 -6.7423
# 5 -16.6164 -11.4698 -20.7322 0.0000 28.2110 0.0000
# 6 0.0000 0.0000 0.0000 -6.7423 0.0000 23.5965
#
#
#
# Elastic Compliance Matrix: (Units=1/GPa)
#
#
# Indices 1 2 3 4 5 6 
#
# 1 0.028067 -0.004938 -0.011781 0.000000 0.005867 0.000000
# 2 -0.004938 0.020049 -0.006204 0.000000 0.000684 0.000000
# 3 -0.011781 -0.006204 0.019934 0.000000 0.005188 0.000000
# 4 0.000000 0.000000 0.000000 0.037294 0.000000 0.010656
# 5 0.005867 0.000684 0.005188 0.000000 0.042993 0.000000
# 6 0.000000 0.000000 0.000000 0.010656 0.000000 0.045424
#
#
# Mechanical properties :
#
#
# Convention : Reuss Voigt Hill
#
# Bulk Modulus (GPa) = 45.03605 57.50016 51.26811
# Shear Modulus (GPa) = 20.24230 23.30760 21.77495
#
# Velocity S-wave (km/s) = 3.46949 3.72293 3.59844
# Velocity P-wave (km/s) = 6.54455 7.25765 6.91030
#
# Compressibility (1/GPa) = 0.02220443
#
# Stress axis : x y z
#
# Youngs Moduli (GPa) = 35.62863 49.87778 50.16674
#
# Poissons Ratio (x) = 0.24628 0.59100
# Poissons Ratio (y) = 0.17592 0.31125
# Poissons Ratio (z) = 0.41973 0.30946
#
# Static dielectric constant tensor:
#      x y z
#    x 3.413330 0.000000 -0.741300 
#    y 0.000000 3.273690 0.000000 
#    z -0.741300 0.000000 3.437450 
# 
# 
# High freq. dielectric constant tensor:
#      x y z
#    x 1.617070 0.000000 -0.048950 
#    y 0.000000 1.669170 0.000000 
#    z -0.048950 0.000000 1.634090 
# 
# From -- ./inp_files/43768.got.cif
#   From: 2010.06.25/outbox.cif.g09.slc.cpg/sg11_22_cif.got.tgz:43768.got - 2010.06.27 23:14:04.
