data_PCOD8068718
_publ_section_title
;
Structure prediction by ZEFSAII (Michael W. Deem and Ramdas Pophale) SiO2 
 PCOD8068718
Probable space group: P 21/M
;
_chemical_formula_sum "Si O2"
_cell_formula_units_Z 32
_cell_length_a 12.280886
_cell_length_b 9.058983
_cell_length_c 19.943220
_cell_angle_alpha 90.000000
_cell_angle_beta 56.638564
_cell_angle_gamma 90.000000
_cell_volume 1853.123513
_symmetry_space_group_name_H-M "P 21/M"
_symmetry_group_IT_number 11
_symmetry_cell_setting 'monoclinic'
loop_
_space_group_symop_operation_xyz
x,y,z
-x,1/2+y,-z
-x,-y,-z
x,1/2-y,z
loop_
_atom_site_type_symbol
_atom_site_label
_atom_site_fract_x
_atom_site_fract_y
_atom_site_fract_z
Si Si1 0.608902 0.422545 0.280198
Si Si2 0.943076 0.576376 0.795942
Si Si3 0.155704 0.421571 0.549692
Si Si4 0.788812 0.922304 0.318897
Si Si5 0.108942 0.076261 0.334659
Si Si6 0.682958 0.575002 0.631101
Si Si7 0.167104 0.580781 0.896210
Si Si8 0.084793 0.920260 0.067394
O O1 0.607520 0.250000 0.299553
O O2 0.661865 0.512363 0.325971
O O3 0.464404 0.484324 0.313902
O O4 0.694305 0.452588 0.184809
O O5 0.955911 0.750000 0.799853
O O6 0.873995 0.532549 0.749357
O O7 0.861346 0.509812 0.886111
O O8 0.086658 0.507671 0.751863
O O9 0.125550 0.250000 0.549584
O O10 0.225848 0.451332 0.596858
O O11 0.250439 0.483343 0.459766
O O12 0.018773 0.504026 0.590526
O O13 0.804252 0.750000 0.297514
O O14 0.090865 0.250000 0.348729
O O15 0.235169 0.018395 0.332255
O O16 0.680609 0.750000 0.631547
O O17 0.122819 0.750000 0.898360
O O18 0.060475 0.472911 0.901358
O O19 0.180135 0.551890 0.971759
O O20 0.078526 0.750000 0.089380
#
# Coordination Sequence:
#
# PCOD8068718 Si02
#       8
#     4   4   4   4   4   4   4   4
#     4  10  19  32  50  68  94 129 160 190 227 282
#     4  10  18  29  47  71  96 122 155 196 237 281
#     4   9  18  32  50  71  96 122 154 199 243 280
#     4  10  19  30  45  69  98 126 154 190 238 284
#     4   9  18  32  51  72  93 120 160 203 237 274
#     4   9  18  33  51  70  92 125 163 196 234 278
#     4   9  18  30  45  69  97 125 157 190 228 280
#     4  10  18  28  46  71  97 123 152 192 239 280
#
# _framework density 17.268142000000001
#
# number of rings (size 3 to 8) (size 9 to 14) (size 15 to 20)
#    0.000    2.500    1.250    1.500    0.000    2.000 
#    0.000    1.250    0.000    0.750    0.000    0.000 
#    0.000    0.000    0.000    0.000    0.000    0.750 
#
# Total GULP energy -396754.210587 kJ/mol
# GULP energy per Si atom -12398.569081 kJ/mol
# Density = 1.722884 g / cm^3
# Si number density = 17.268142 Si / 1000 Ang^3
#
#
#
# Elastic Constant Matrix: (Units=GPa)
#
#
# Indices 1 2 3 4 5 6 
#
# 1 127.4436 35.3257 67.2513 0.0000 7.0467 0.0000
# 2 35.3257 54.6878 34.2130 0.0000 6.2518 0.0000
# 3 67.2513 34.2130 108.5706 0.0000 17.4976 0.0000
# 4 0.0000 0.0000 0.0000 22.4239 0.0000 2.1119
# 5 7.0467 6.2518 17.4976 0.0000 22.4623 0.0000
# 6 0.0000 0.0000 0.0000 2.1119 0.0000 16.4211
#
#
#
# Elastic Compliance Matrix: (Units=1/GPa)
#
#
# Indices 1 2 3 4 5 6 
#
# 1 0.012436 -0.004046 -0.006840 0.000000 0.002553 0.000000
# 2 -0.004046 0.024106 -0.004818 0.000000 -0.001687 0.000000
# 3 -0.006840 -0.004818 0.016472 0.000000 -0.009344 0.000000
# 4 0.000000 0.000000 0.000000 0.045142 0.000000 -0.005806
# 5 0.002553 -0.001687 -0.009344 0.000000 0.051467 0.000000
# 6 0.000000 0.000000 0.000000 -0.005806 0.000000 0.061644
#
#
# Mechanical properties :
#
#
# Convention : Reuss Voigt Hill
#
# Bulk Modulus (GPa) = 46.28360 62.69799 54.49079
# Shear Modulus (GPa) = 20.00983 22.52227 21.26605
#
# Velocity S-wave (km/s) = 3.40777 3.61538 3.51311
# Velocity P-wave (km/s) = 6.50730 7.33589 6.93398
#
# Compressibility (1/GPa) = 0.02160593
#
# Stress axis : x y z
#
# Youngs Moduli (GPa) = 80.41004 41.48272 60.71054
#
# Poissons Ratio (x) = 0.16784 0.41524
# Poissons Ratio (y) = 0.32535 0.29253
# Poissons Ratio (z) = 0.54998 0.19988
#
# Static dielectric constant tensor:
#      x y z
#    x 3.211130 0.000000 0.226380 
#    y 0.000000 3.150760 0.000000 
#    z 0.226380 0.000000 3.481260 
# 
# 
# High freq. dielectric constant tensor:
#      x y z
#    x 1.642310 0.000000 0.023670 
#    y 0.000000 1.659410 0.000000 
#    z 0.023670 0.000000 1.671430 
# 
# From -- ./inp_files/42415.got.cif
#   From: 2010.06.25/outbox.cif.g09.slc.cpg/sg11_22_cif.got.tgz:42415.got - 2010.06.27 23:14:04.
