data_PCOD8068937
_publ_section_title
;
Structure prediction by ZEFSAII (Michael W. Deem and Ramdas Pophale) SiO2 
 PCOD8068937
Probable space group: P 21/M
;
_chemical_formula_sum "Si O2"
_cell_formula_units_Z 28
_cell_length_a 10.392018
_cell_length_b 9.504138
_cell_length_c 18.371071
_cell_angle_alpha 90.000000
_cell_angle_beta 56.349416
_cell_angle_gamma 90.000000
_cell_volume 1510.414163
_symmetry_space_group_name_H-M "P 21/M"
_symmetry_group_IT_number 11
_symmetry_cell_setting 'monoclinic'
loop_
_space_group_symop_operation_xyz
x,y,z
-x,1/2+y,-z
-x,-y,-z
x,1/2-y,z
loop_
_atom_site_type_symbol
_atom_site_label
_atom_site_fract_x
_atom_site_fract_y
_atom_site_fract_z
Si Si1 0.431527 0.405273 0.624835
Si Si2 0.019286 0.914349 0.420162
Si Si3 0.846034 0.093624 0.250103
Si Si4 0.676680 0.901960 0.504051
Si Si5 0.133232 0.086526 0.259038
Si Si6 0.341775 0.084110 0.058548
Si Si7 0.060022 0.092088 0.047092
O O1 0.445241 0.250000 0.655112
O O2 0.295039 0.486063 0.708119
O O3 0.404604 0.397302 0.547868
O O4 0.595633 0.485184 0.583201
O O5 0.063136 0.750000 0.419354
O O6 0.854741 0.933834 0.432920
O O7 0.000000 0.000000 0.500000
O O8 0.144872 0.988252 0.327367
O O9 0.782024 0.250000 0.287585
O O10 0.971676 0.051371 0.270736
O O11 0.923022 0.090972 0.147669
O O12 0.659329 0.750000 0.548131
O O13 0.140656 0.250000 0.279808
O O14 0.272612 0.050178 0.160139
O O15 0.373556 0.250000 0.041516
O O16 0.218912 0.036186 0.034780
O O17 0.500000 0.000000 0.000000
O O18 0.088442 0.250000 0.009605
O O19 0.000000 0.000000 0.000000
#
# Coordination Sequence:
#
# PCOD8068937 Si02
#       7
#     4   4   4   4   4   4   4
#     4  10  18  29  49  76 100 125 165 210 250 298
#     4  11  22  36  53  75 104 138 179 222 264 314
#     4   9  17  31  52  75 103 137 172 213 262 312
#     4   9  19  33  47  69 101 131 162 205 254 300
#     4   9  18  34  55  77 103 138 180 223 266 316
#     4   9  19  36  58  85 113 142 182 228 276 331
#     4   9  19  35  54  80 111 142 177 219 269 326
#
# _framework density 18.537960999999999
#
# number of rings (size 3 to 8) (size 9 to 14) (size 15 to 20)
#    0.000    2.571    1.429    2.571    0.000    3.429 
#    0.000    4.286    0.000    1.714    0.000    0.000 
#    0.000    0.000    0.000    0.000    0.000    0.000 
#
# Total GULP energy -347003.751747 kJ/mol
# GULP energy per Si atom -12392.991134 kJ/mol
# Density = 1.849577 g / cm^3
# Si number density = 18.537961 Si / 1000 Ang^3
#
#
#
# Elastic Constant Matrix: (Units=GPa)
#
#
# Indices 1 2 3 4 5 6 
#
# 1 49.7375 44.0778 42.6065 0.0000 -2.8098 0.0000
# 2 44.0778 117.4300 70.2223 0.0000 -3.8133 0.0000
# 3 42.6065 70.2223 101.7593 0.0000 -3.2741 0.0000
# 4 0.0000 0.0000 0.0000 39.8059 0.0000 -3.2365
# 5 -2.8098 -3.8133 -3.2741 0.0000 32.0116 0.0000
# 6 0.0000 0.0000 0.0000 -3.2365 0.0000 27.6913
#
#
#
# Elastic Compliance Matrix: (Units=1/GPa)
#
#
# Indices 1 2 3 4 5 6 
#
# 1 0.034798 -0.007377 -0.009440 0.000000 0.001210 0.000000
# 2 -0.007377 0.016079 -0.007992 0.000000 0.000450 0.000000
# 3 -0.009440 -0.007992 0.019301 0.000000 0.000193 0.000000
# 4 0.000000 0.000000 0.000000 0.025363 0.000000 0.002964
# 5 0.001210 0.000450 0.000193 0.000000 0.031418 0.000000
# 6 0.000000 0.000000 0.000000 0.002964 0.000000 0.036459
#
#
# Mechanical properties :
#
#
# Convention : Reuss Voigt Hill
#
# Bulk Modulus (GPa) = 48.64068 64.74888 56.69478
# Shear Modulus (GPa) = 22.73850 27.36977 25.05414
#
# Velocity S-wave (km/s) = 3.50607 3.84659 3.68027
# Velocity P-wave (km/s) = 6.53341 7.39810 6.97916
#
# Compressibility (1/GPa) = 0.02055892
#
# Stress axis : x y z
#
# Youngs Moduli (GPa) = 28.73689 62.19375 51.80994
#
# Poissons Ratio (x) = 0.45882 0.48910
# Poissons Ratio (y) = 0.21200 0.41408
# Poissons Ratio (z) = 0.27128 0.49707
#
# Static dielectric constant tensor:
#      x y z
#    x 3.310860 0.000000 -0.184220 
#    y 0.000000 8.987750 0.000000 
#    z -0.184220 0.000000 3.349960 
# 
# 
# High freq. dielectric constant tensor:
#      x y z
#    x 1.693510 0.000000 -0.010800 
#    y 0.000000 1.725970 0.000000 
#    z -0.010800 0.000000 1.712420 
# 
# From -- ./inp_files/64139.got.cif
#   From: 2010.06.25/outbox.cif.g09.slc.cpg/sg11_33_cif.got.tgz:64139.got - 2010.06.27 23:14:04.
