data_PCOD8068560
_publ_section_title
;
Structure prediction by ZEFSAII (Michael W. Deem and Ramdas Pophale) SiO2 
 PCOD8068560
Probable space group: P 21/M
;
_chemical_formula_sum "Si O2"
_cell_formula_units_Z 28
_cell_length_a 14.301926
_cell_length_b 9.106160
_cell_length_c 17.027396
_cell_angle_alpha 90.000000
_cell_angle_beta 128.851263
_cell_angle_gamma 90.000000
_cell_volume 1726.995361
_symmetry_space_group_name_H-M "P 21/M"
_symmetry_group_IT_number 11
_symmetry_cell_setting 'monoclinic'
loop_
_space_group_symop_operation_xyz
x,y,z
-x,1/2+y,-z
-x,-y,-z
x,1/2-y,z
loop_
_atom_site_type_symbol
_atom_site_label
_atom_site_fract_x
_atom_site_fract_y
_atom_site_fract_z
Si Si1 0.296922 0.417932 0.916337
Si Si2 0.675858 0.915519 0.249982
Si Si3 0.586354 0.419344 0.887233
Si Si4 0.055243 0.577458 0.768040
Si Si5 0.085863 0.922662 0.606263
Si Si6 0.171563 0.581351 0.065198
Si Si7 0.972785 0.079951 0.863324
O O1 0.264498 0.250000 0.919128
O O2 0.345272 0.433418 0.853927
O O3 0.180522 0.518280 0.867361
O O4 0.397007 0.477182 0.028514
O O5 0.717322 0.750000 0.292593
O O6 0.545643 0.952502 0.219461
O O7 0.777484 0.024868 0.335457
O O8 0.591067 0.250000 0.917620
O O9 0.687658 0.451484 0.874814
O O10 0.050969 0.750000 0.776261
O O11 0.039741 0.532456 0.668841
O O12 0.953235 0.504147 0.769718
O O13 0.081603 0.750000 0.590760
O O14 0.000000 0.000000 0.500000
O O15 0.138934 0.750000 0.027156
O O16 0.142159 0.550343 0.141387
O O17 0.092870 0.476367 0.969353
O O18 0.989363 0.250000 0.853151
#
# Coordination Sequence:
#
# PCOD8068560 Si02
#       7
#     4   4   4   4   4   4   4
#     4  10  18  27  41  64  92 123 159 194 222 262
#     4   9  19  32  46  66  93 123 155 188 227 277
#     4  10  18  29  44  63  92 130 160 187 226 270
#     4  10  19  31  47  67  92 123 155 189 233 282
#     4  10  21  36  54  73  93 117 148 190 239 285
#     4   9  18  29  42  62  93 129 163 195 228 267
#     4  10  18  28  43  65  91 124 163 199 231 264
#
# _framework density 16.21313
#
# number of rings (size 3 to 8) (size 9 to 14) (size 15 to 20)
#    0.000    2.286    1.429    2.143    0.000    3.429 
#    0.000    0.000    0.000    0.000    0.000    1.000 
#    0.000    0.000    0.000    0.000    0.000    0.000 
#
# Total GULP energy -347120.466161 kJ/mol
# GULP energy per Si atom -12397.159506 kJ/mol
# Density = 1.617623 g / cm^3
# Si number density = 16.213130 Si / 1000 Ang^3
#
#
#
# Elastic Constant Matrix: (Units=GPa)
#
#
# Indices 1 2 3 4 5 6 
#
# 1 109.6489 44.5818 47.8247 0.0000 3.8371 0.0000
# 2 44.5818 79.9157 45.7361 0.0000 -1.0494 0.0000
# 3 47.8247 45.7361 79.6053 0.0000 4.6932 0.0000
# 4 0.0000 0.0000 0.0000 25.5004 0.0000 -1.5004
# 5 3.8371 -1.0494 4.6932 0.0000 15.3292 0.0000
# 6 0.0000 0.0000 0.0000 -1.5004 0.0000 23.3819
#
#
#
# Elastic Compliance Matrix: (Units=1/GPa)
#
#
# Indices 1 2 3 4 5 6 
#
# 1 0.013310 -0.004383 -0.005360 0.000000 -0.001991 0.000000
# 2 -0.004383 0.020417 -0.009414 0.000000 0.005377 0.000000
# 3 -0.005360 -0.009414 0.021539 0.000000 -0.005897 0.000000
# 4 0.000000 0.000000 0.000000 0.039364 0.000000 0.002526
# 5 -0.001991 0.005377 -0.005897 0.000000 0.067907 0.000000
# 6 0.000000 0.000000 0.000000 0.002526 0.000000 0.042930
#
#
# Mechanical properties :
#
#
# Convention : Reuss Voigt Hill
#
# Bulk Modulus (GPa) = 58.99690 60.60609 59.80150
# Shear Modulus (GPa) = 20.04564 21.57745 20.81154
#
# Velocity S-wave (km/s) = 3.52004 3.65206 3.58665
# Velocity P-wave (km/s) = 7.27930 7.43272 7.35641
#
# Compressibility (1/GPa) = 0.01695004
#
# Stress axis : x y z
#
# Youngs Moduli (GPa) = 75.13179 48.97979 46.42841
#
# Poissons Ratio (x) = 0.21470 0.24888
# Poissons Ratio (y) = 0.32933 0.43706
# Poissons Ratio (z) = 0.40274 0.46108
#
# Static dielectric constant tensor:
#      x y z
#    x 3.412440 0.000000 -0.137110 
#    y 0.000000 3.168940 0.000000 
#    z -0.137110 0.000000 2.725270 
# 
# 
# High freq. dielectric constant tensor:
#      x y z
#    x 1.627680 0.000000 -0.008330 
#    y 0.000000 1.635650 0.000000 
#    z -0.008330 0.000000 1.572640 
# 
# From -- ./inp_files/42605.got.cif
#   From: 2010.06.25/outbox.cif.g09.slc.cpg/sg11_22_cif.got.tgz:42605.got - 2010.06.27 23:14:04.
