data_PCOD8068317
_publ_section_title
;
Structure prediction by ZEFSAII (Michael W. Deem and Ramdas Pophale) SiO2 
 PCOD8068317
Probable space group: P 21/M
;
_chemical_formula_sum "Si O2"
_cell_formula_units_Z 32
_cell_length_a 21.926357
_cell_length_b 18.917408
_cell_length_c 8.311217
_cell_angle_alpha 90.000000
_cell_angle_beta 149.264261
_cell_angle_gamma 90.000000
_cell_volume 1761.898589
_symmetry_space_group_name_H-M "P 21/M"
_symmetry_group_IT_number 11
_symmetry_cell_setting 'monoclinic'
loop_
_space_group_symop_operation_xyz
x,y,z
-x,1/2+y,-z
-x,-y,-z
x,1/2-y,z
loop_
_atom_site_type_symbol
_atom_site_label
_atom_site_fract_x
_atom_site_fract_y
_atom_site_fract_z
Si Si1 0.195331 0.517022 0.653292
Si Si2 0.337011 0.013148 0.494090
Si Si3 0.419368 0.457155 0.026589
Si Si4 0.892229 0.036635 0.892358
Si Si5 0.000012 0.397755 0.719827
Si Si6 0.191573 0.099837 0.913449
Si Si7 0.040346 0.168933 0.138528
Si Si8 0.708835 0.671873 0.136573
O O1 0.335106 0.516993 0.921243
O O2 0.118264 0.504456 0.313099
O O3 0.169011 0.456520 0.722041
O O4 0.145718 0.591545 0.617719
O O5 0.240121 0.954610 0.330057
O O6 0.392815 0.050872 0.777038
O O7 0.442726 0.976622 0.631683
O O8 0.277013 0.073051 0.248864
O O9 0.396353 0.381922 0.057618
O O10 0.952634 0.114209 0.031107
O O11 0.958409 0.978455 0.149761
O O12 0.063318 0.375706 0.696495
O O13 0.033916 0.341090 0.931713
O O14 0.254471 0.166163 0.968894
O O15 0.004623 0.250000 0.100398
O O16 0.176080 0.153304 0.494651
O O17 0.660629 0.750000 0.061311
#
# Coordination Sequence:
#
# PCOD8068317 Si02
#       8
#     4   4   4   4   4   4   4   4
#     4   9  16  25  43  67  93 116 142 184 230 271
#     4   9  18  30  51  73  91 113 152 204 237 263
#     4   9  17  33  49  69  92 118 155 193 232 273
#     4   9  16  30  47  67  91 120 154 192 229 272
#     4  10  17  28  47  68  91 120 155 192 228 271
#     4  10  18  28  45  72  95 117 150 193 237 274
#     4  10  19  31  47  66  92 127 159 187 227 279
#     4  10  20  32  46  66  97 130 153 181 227 283
#
# _framework density 18.162227000000001
#
# number of rings (size 3 to 8) (size 9 to 14) (size 15 to 20)
#    0.000    2.500    0.000    6.375    0.000    3.500 
#    0.000    1.250    0.000    0.000    0.000   21.000 
#    0.000    0.000    0.000    0.000    0.000    0.000 
#
# Total GULP energy -396459.032280 kJ/mol
# GULP energy per Si atom -12389.344759 kJ/mol
# Density = 1.812089 g / cm^3
# Si number density = 18.162227 Si / 1000 Ang^3
#
#
#
# Elastic Constant Matrix: (Units=GPa)
#
#
# Indices 1 2 3 4 5 6 
#
# 1 97.5008 18.5687 19.0861 0.0000 18.0472 0.0000
# 2 18.5687 59.6665 9.9742 0.0000 9.4380 0.0000
# 3 19.0861 9.9742 36.1916 0.0000 11.0622 0.0000
# 4 0.0000 0.0000 0.0000 15.3253 0.0000 0.6169
# 5 18.0472 9.4380 11.0622 0.0000 28.7258 0.0000
# 6 0.0000 0.0000 0.0000 0.6169 0.0000 16.0025
#
#
#
# Elastic Compliance Matrix: (Units=1/GPa)
#
#
# Indices 1 2 3 4 5 6 
#
# 1 0.012554 -0.002322 -0.004310 0.000000 -0.005464 0.000000
# 2 -0.002322 0.018510 -0.002793 0.000000 -0.003548 0.000000
# 3 -0.004310 -0.002793 0.033510 0.000000 -0.009279 0.000000
# 4 0.000000 0.000000 0.000000 0.065353 0.000000 -0.002519
# 5 -0.005464 -0.003548 -0.009279 0.000000 0.042984 0.000000
# 6 0.000000 0.000000 0.000000 -0.002519 0.000000 0.062587
#
#
# Mechanical properties :
#
#
# Convention : Reuss Voigt Hill
#
# Bulk Modulus (GPa) = 21.87026 32.06852 26.96939
# Shear Modulus (GPa) = 18.54679 21.72606 20.13643
#
# Velocity S-wave (km/s) = 3.19905 3.46240 3.33332
# Velocity P-wave (km/s) = 5.07080 5.80339 5.44942
#
# Compressibility (1/GPa) = 0.04572418
#
# Stress axis : x y z
#
# Youngs Moduli (GPa) = 79.65780 54.02373 29.84226
#
# Poissons Ratio (x) = 0.12544 0.12863
# Poissons Ratio (y) = 0.18496 0.08333
# Poissons Ratio (z) = 0.34334 0.15086
#
# Static dielectric constant tensor:
#      x y z
#    x 3.834320 0.000000 0.163450 
#    y 0.000000 3.077810 0.000000 
#    z 0.163450 0.000000 3.317520 
# 
# 
# High freq. dielectric constant tensor:
#      x y z
#    x 1.723050 0.000000 0.001380 
#    y 0.000000 1.658350 0.000000 
#    z 0.001380 0.000000 1.684420 
# 
# From -- ./inp_files/27858.got.cif
#   From: 2010.06.25/outbox.cif.g09.slc.cpg/sg11_14_cif.got.tgz:27858.got - 2010.06.27 23:14:04.
