data_PCOD8068496
_publ_section_title
;
Structure prediction by ZEFSAII (Michael W. Deem and Ramdas Pophale) SiO2 
 PCOD8068496
Probable space group: P 21/M
;
_chemical_formula_sum "Si O2"
_cell_formula_units_Z 32
_cell_length_a 16.141317
_cell_length_b 9.226153
_cell_length_c 23.050975
_cell_angle_alpha 90.000000
_cell_angle_beta 38.028409
_cell_angle_gamma 90.000000
_cell_volume 2114.785748
_symmetry_space_group_name_H-M "P 21/M"
_symmetry_group_IT_number 11
_symmetry_cell_setting 'monoclinic'
loop_
_space_group_symop_operation_xyz
x,y,z
-x,1/2+y,-z
-x,-y,-z
x,1/2-y,z
loop_
_atom_site_type_symbol
_atom_site_label
_atom_site_fract_x
_atom_site_fract_y
_atom_site_fract_z
Si Si1 0.012901 0.081859 0.052923
Si Si2 0.437268 0.079239 0.266071
Si Si3 0.684468 0.419542 0.558297
Si Si4 0.769475 0.581264 0.217010
Si Si5 0.481096 0.417599 0.569706
Si Si6 0.934899 0.587693 0.451857
Si Si7 0.830932 0.589622 0.640045
Si Si8 0.694243 0.585484 0.126201
O O1 0.976847 0.250000 0.064149
O O2 0.906135 0.008872 0.156001
O O3 0.168668 0.064584 0.987067
O O4 0.000000 0.000000 0.000000
O O5 0.440820 0.250000 0.277701
O O6 0.326242 0.045146 0.277445
O O7 0.403265 0.994457 0.343561
O O8 0.581088 0.022894 0.163727
O O9 0.698699 0.250000 0.565485
O O10 0.610453 0.445103 0.538421
O O11 0.832066 0.490721 0.471232
O O12 0.801647 0.750000 0.207379
O O13 0.653689 0.526648 0.324148
O O14 0.721138 0.548661 0.178544
O O15 0.500000 0.500000 0.500000
O O16 0.465302 0.250000 0.563919
O O17 0.939718 0.750000 0.423500
O O18 0.886404 0.589238 0.544384
O O19 0.085179 0.520447 0.365985
O O20 0.846692 0.750000 0.658179
O O21 0.641778 0.750000 0.149467
#
# Coordination Sequence:
#
# PCOD8068496 Si02
#       8
#     4   4   4   4   4   4   4   4
#     4   9  17  27  40  59  79 103 134 166 202 244
#     4  10  18  25  38  59  80 104 139 170 195 235
#     4  10  18  30  43  54  75 105 132 166 212 248
#     4   9  17  31  44  57  78 103 134 171 209 249
#     4  10  21  34  46  61  80 105 138 176 217 253
#     4   9  16  25  38  56  73  95 133 168 194 235
#     4   8  15  25  34  51  77 103 129 161 197 232
#     4   9  16  27  40  56  82 108 133 165 203 244
#
# _framework density 15.131556
#
# number of rings (size 3 to 8) (size 9 to 14) (size 15 to 20)
#    0.000    2.750    1.250    3.000    0.000    7.500 
#    0.000    0.000    0.000    0.000    0.000    0.000 
#    0.000    0.000    0.000    1.125    0.000   14.750 
#
# Total GULP energy -396615.078293 kJ/mol
# GULP energy per Si atom -12394.221197 kJ/mol
# Density = 1.509712 g / cm^3
# Si number density = 15.131556 Si / 1000 Ang^3
#
#
#
# Elastic Constant Matrix: (Units=GPa)
#
#
# Indices 1 2 3 4 5 6 
#
# 1 61.5374 50.5054 47.3987 0.0000 -25.2334 0.0000
# 2 50.5054 101.0561 49.0424 0.0000 -24.2373 0.0000
# 3 47.3987 49.0424 81.1144 0.0000 -24.9356 0.0000
# 4 0.0000 0.0000 0.0000 25.3681 0.0000 -8.3462
# 5 -25.2334 -24.2373 -24.9356 0.0000 25.4848 0.0000
# 6 0.0000 0.0000 0.0000 -8.3462 0.0000 23.9376
#
#
#
# Elastic Compliance Matrix: (Units=1/GPa)
#
#
# Indices 1 2 3 4 5 6 
#
# 1 0.042655 -0.010467 -0.012405 0.000000 0.020142 0.000000
# 2 -0.010467 0.017562 -0.003652 0.000000 0.002766 0.000000
# 3 -0.012405 -0.003652 0.024229 0.000000 0.007952 0.000000
# 4 0.000000 0.000000 0.000000 0.044527 0.000000 0.015525
# 5 0.020142 0.002766 0.007952 0.000000 0.069593 0.000000
# 6 0.000000 0.000000 0.000000 0.015525 0.000000 0.047188
#
#
# Mechanical properties :
#
#
# Convention : Reuss Voigt Hill
#
# Bulk Modulus (GPa) = 31.84785 59.73344 45.79064
# Shear Modulus (GPa) = 16.16723 21.40887 18.78805
#
# Velocity S-wave (km/s) = 3.27225 3.76553 3.52752
# Velocity P-wave (km/s) = 5.94726 7.64640 6.84972
#
# Compressibility (1/GPa) = 0.03139930
#
# Stress axis : x y z
#
# Youngs Moduli (GPa) = 23.44415 56.94074 41.27253
#
# Poissons Ratio (x) = 0.59599 0.51197
# Poissons Ratio (y) = 0.24539 0.15071
# Poissons Ratio (z) = 0.29082 0.20793
#
# Static dielectric constant tensor:
#      x y z
#    x 2.768750 0.000000 -0.545160 
#    y 0.000000 3.112810 0.000000 
#    z -0.545160 0.000000 3.017250 
# 
# 
# High freq. dielectric constant tensor:
#      x y z
#    x 1.542210 0.000000 -0.050530 
#    y 0.000000 1.593560 0.000000 
#    z -0.050530 0.000000 1.548760 
# 
# From -- ./inp_files/51352.got.cif
#   From: 2010.06.25/outbox.cif.g09.slc.cpg/sg11_26_cif.got.tgz:51352.got - 2010.06.27 23:14:04.
