data_PCOD8068038
_publ_section_title
;
Structure prediction by ZEFSAII (Michael W. Deem and Ramdas Pophale) SiO2 
 PCOD8068038
Probable space group: P 2/M
;
_chemical_formula_sum "Si O2"
_cell_formula_units_Z 28
_cell_length_a 23.102919
_cell_length_b 9.764633
_cell_length_c 20.257629
_cell_angle_alpha 90.000000
_cell_angle_beta 19.482066
_cell_angle_gamma 90.000000
_cell_volume 1524.132009
_symmetry_space_group_name_H-M "P 2/M"
_symmetry_group_IT_number 10
_symmetry_cell_setting 'monoclinic'
loop_
_space_group_symop_operation_xyz
x,y,z
-x,y,-z
-x,-y,-z
x,-y,z
loop_
_atom_site_type_symbol
_atom_site_label
_atom_site_fract_x
_atom_site_fract_y
_atom_site_fract_z
Si Si1 0.856975 0.344800 0.333785
Si Si2 0.085903 0.846843 0.841171
Si Si3 0.728802 0.662591 0.935374
Si Si4 0.452264 0.655199 0.738495
Si Si5 0.892973 0.337413 0.442851
Si Si6 0.537966 0.663618 0.886104
Si Si7 0.487019 0.846841 0.440055
O O1 0.925992 0.500000 0.252318
O O2 0.961096 0.251986 0.169266
O O3 0.652486 0.339600 0.542541
O O4 0.896115 0.284453 0.364202
O O5 0.290163 0.851643 0.629509
O O6 0.013075 0.000000 0.905611
O O7 0.000000 0.786806 0.000000
O O8 0.713486 0.500000 0.951299
O O9 0.612554 0.721429 0.000474
O O10 0.929538 0.709522 0.711393
O O11 0.656433 0.715543 0.083250
O O12 0.395694 0.500000 0.782617
O O13 0.408541 0.748018 0.721821
O O14 0.878260 0.500000 0.456952
O O15 0.725578 0.278563 0.661393
O O16 0.538308 0.500000 0.885076
O O17 0.500000 0.720077 0.000000
O O18 0.500000 0.786809 0.500000
O O19 0.568234 0.000000 0.350453
#
# Coordination Sequence:
#
# PCOD8068038 Si02
#       7
#     4   4   4   4   4   4   4
#     4   9  16  28  45  62  85 119 154 190 232 276
#     4   9  18  31  45  62  87 118 150 188 234 279
#     4   9  16  26  41  62  88 119 155 192 231 274
#     4   9  16  28  45  62  85 119 154 190 232 276
#     4   9  16  26  41  62  88 119 155 192 231 274
#     4   9  16  26  40  60  91 127 157 189 231 279
#     4   9  18  31  45  62  87 118 150 188 234 279
#
# _framework density 18.371110999999999
#
# number of rings (size 3 to 8) (size 9 to 14) (size 15 to 20)
#    0.000    3.000    1.429    0.000    0.000    2.286 
#    0.000    2.857    0.000    0.000    0.000    0.000 
#    0.000    2.286    0.000    2.571    0.000    2.857 
#
# Total GULP energy -347074.821496 kJ/mol
# GULP energy per Si atom -12395.529339 kJ/mol
# Density = 1.832930 g / cm^3
# Si number density = 18.371111 Si / 1000 Ang^3
#
#
#
# Elastic Constant Matrix: (Units=GPa)
#
#
# Indices 1 2 3 4 5 6 
#
# 1 146.5444 38.4920 73.3467 0.0000 25.0532 0.0000
# 2 38.4920 39.1280 26.8876 0.0000 12.7096 0.0000
# 3 73.3467 26.8876 106.4936 0.0000 18.8157 0.0000
# 4 0.0000 0.0000 0.0000 5.6733 0.0000 -0.9862
# 5 25.0532 12.7096 18.8157 0.0000 31.9949 0.0000
# 6 0.0000 0.0000 0.0000 -0.9862 0.0000 4.7731
#
#
#
# Elastic Compliance Matrix: (Units=1/GPa)
#
#
# Indices 1 2 3 4 5 6 
#
# 1 0.012231 -0.006745 -0.006140 0.000000 -0.003287 0.000000
# 2 -0.006745 0.036909 -0.003366 0.000000 -0.007401 0.000000
# 3 -0.006140 -0.003366 0.014935 0.000000 -0.002638 0.000000
# 4 0.000000 0.000000 0.000000 0.182831 0.000000 0.037778
# 5 -0.003287 -0.007401 -0.002638 0.000000 0.038320 0.000000
# 6 0.000000 0.000000 0.000000 0.037778 0.000000 0.217316
#
#
# Mechanical properties :
#
#
# Convention : Reuss Voigt Hill
#
# Bulk Modulus (GPa) = 31.67211 63.29097 47.48154
# Shear Modulus (GPa) = 9.16478 18.71757 13.94117
#
# Velocity S-wave (km/s) = 2.23596 3.19542 2.75774
# Velocity P-wave (km/s) = 4.89322 6.93833 6.00350
#
# Compressibility (1/GPa) = 0.03157352
#
# Stress axis : x y z
#
# Youngs Moduli (GPa) = 81.76237 27.09346 66.95656
#
# Poissons Ratio (x) = 0.18274 0.41112
# Poissons Ratio (y) = 0.55148 0.22536
# Poissons Ratio (z) = 0.50202 0.09119
#
# Static dielectric constant tensor:
#      x y z
#    x 3.516640 0.000000 0.083190 
#    y 0.000000 3.096980 0.000000 
#    z 0.083190 0.000000 3.440670 
# 
# 
# High freq. dielectric constant tensor:
#      x y z
#    x 1.715820 0.000000 0.001370 
#    y 0.000000 1.647060 0.000000 
#    z 0.001370 0.000000 1.714570 
# 
# From -- ./inp_files/34544.got.cif
#   From: 2010.06.25/outbox.cif.g09.slc.cpg/sg10_18_cif.got.tgz:34544.got - 2010.06.27 22:07:45.
