data_PCOD8068254
_publ_section_title
;
Structure prediction by ZEFSAII (Michael W. Deem and Ramdas Pophale) SiO2 
 PCOD8068254
Probable space group: P 21/M
;
_chemical_formula_sum "Si O2"
_cell_formula_units_Z 28
_cell_length_a 13.825509
_cell_length_b 8.490446
_cell_length_c 14.712785
_cell_angle_alpha 90.000000
_cell_angle_beta 75.545554
_cell_angle_gamma 90.000000
_cell_volume 1672.388859
_symmetry_space_group_name_H-M "P 21/M"
_symmetry_group_IT_number 11
_symmetry_cell_setting 'monoclinic'
loop_
_space_group_symop_operation_xyz
x,y,z
-x,1/2+y,-z
-x,-y,-z
x,1/2-y,z
loop_
_atom_site_type_symbol
_atom_site_label
_atom_site_fract_x
_atom_site_fract_y
_atom_site_fract_z
Si Si1 0.751150 0.931148 0.201312
Si Si2 0.411113 0.565891 0.885303
Si Si3 0.275195 0.063784 0.062177
Si Si4 0.110084 0.933506 0.973705
Si Si5 0.625651 0.935795 0.393480
Si Si6 0.369385 0.434987 0.217657
Si Si7 0.585723 0.564092 0.599797
O O1 0.783594 0.750000 0.185093
O O2 0.726252 0.976470 0.312379
O O3 0.648968 0.959545 0.171778
O O4 0.839870 0.034002 0.136566
O O5 0.394058 0.750000 0.867692
O O6 0.525934 0.515490 0.852549
O O7 0.368123 0.525606 0.994472
O O8 0.289456 0.250000 0.047051
O O9 0.280871 0.014942 0.168398
O O10 0.170716 0.013798 0.041918
O O11 0.108008 0.750000 0.992947
O O12 0.000000 0.000000 0.000000
O O13 0.604934 0.750000 0.395834
O O14 0.638840 0.997086 0.494558
O O15 0.530607 0.019420 0.370740
O O16 0.367448 0.250000 0.230417
O O17 0.360304 0.508009 0.322140
O O18 0.592761 0.750000 0.601121
#
# Coordination Sequence:
#
# PCOD8068254 Si02
#       7
#     4   4   4   4   4   4   4
#     4  10  18  29  45  69  96 123 154 191 230 272
#     4  10  17  27  41  62  89 125 162 191 221 262
#     4  10  19  31  45  65  91 121 153 189 227 272
#     4  11  22  37  54  72  90 114 145 186 236 282
#     4   9  17  27  42  65  92 124 161 196 229 259
#     4   9  17  27  42  63  91 127 162 189 222 263
#     4   9  16  28  43  61  91 129 164 195 223 260
#
# _framework density 16.742518
#
# number of rings (size 3 to 8) (size 9 to 14) (size 15 to 20)
#    0.000    2.286    1.429    4.714    0.000    0.571 
#    0.000    3.571    0.000    0.000    0.000    1.000 
#    0.000    0.000    0.000    0.000    0.000    0.000 
#
# Total GULP energy -346903.956650 kJ/mol
# GULP energy per Si atom -12389.427023 kJ/mol
# Density = 1.670441 g / cm^3
# Si number density = 16.742518 Si / 1000 Ang^3
#
#
#
# Elastic Constant Matrix: (Units=GPa)
#
#
# Indices 1 2 3 4 5 6 
#
# 1 77.0877 8.1106 58.2537 0.0000 2.8144 0.0000
# 2 8.1106 26.2294 9.6094 0.0000 -0.8043 0.0000
# 3 58.2537 9.6094 137.6262 0.0000 11.9499 0.0000
# 4 0.0000 0.0000 0.0000 17.7178 0.0000 -1.9082
# 5 2.8144 -0.8043 11.9499 0.0000 17.6436 0.0000
# 6 0.0000 0.0000 0.0000 -1.9082 0.0000 20.0868
#
#
#
# Elastic Compliance Matrix: (Units=1/GPa)
#
#
# Indices 1 2 3 4 5 6 
#
# 1 0.019398 -0.002919 -0.008209 0.000000 0.002333 0.000000
# 2 -0.002919 0.039814 -0.001851 0.000000 0.003534 0.000000
# 3 -0.008209 -0.001851 0.011436 0.000000 -0.006521 0.000000
# 4 0.000000 0.000000 0.000000 0.057024 0.000000 0.005417
# 5 0.002333 0.003534 -0.006521 0.000000 0.060883 0.000000
# 6 0.000000 0.000000 0.000000 0.005417 0.000000 0.050298
#
#
# Mechanical properties :
#
#
# Convention : Reuss Voigt Hill
#
# Bulk Modulus (GPa) = 22.37680 43.65451 33.01565
# Shear Modulus (GPa) = 17.87567 22.08762 19.98165
#
# Velocity S-wave (km/s) = 3.27108 3.63609 3.45841
# Velocity P-wave (km/s) = 5.25937 6.61505 5.97578
#
# Compressibility (1/GPa) = 0.04468915
#
# Stress axis : x y z
#
# Youngs Moduli (GPa) = 51.55215 25.11659 87.44078
#
# Poissons Ratio (x) = 0.07332 0.71783
# Poissons Ratio (y) = 0.15048 0.16188
# Poissons Ratio (z) = 0.42321 0.04650
#
# Static dielectric constant tensor:
#      x y z
#    x 2.825370 0.000000 0.134140 
#    y 0.000000 3.125740 0.000000 
#    z 0.134140 0.000000 3.890230 
# 
# 
# High freq. dielectric constant tensor:
#      x y z
#    x 1.594540 0.000000 0.008640 
#    y 0.000000 1.641820 0.000000 
#    z 0.008640 0.000000 1.655460 
# 
# From -- ./inp_files/50963.got.cif
#   From: 2010.06.25/outbox.cif.g09.slc.cpg/sg11_26_cif.got.tgz:50963.got - 2010.06.27 23:14:04.
