data_PCOD8068179
_publ_section_title
;
Structure prediction by ZEFSAII (Michael W. Deem and Ramdas Pophale) SiO2 
 PCOD8068179
Probable space group: P 21/M
;
_chemical_formula_sum "Si O2"
_cell_formula_units_Z 26
_cell_length_a 9.417157
_cell_length_b 13.525419
_cell_length_c 12.064929
_cell_angle_alpha 90.000000
_cell_angle_beta 124.522375
_cell_angle_gamma 90.000000
_cell_volume 1266.112840
_symmetry_space_group_name_H-M "P 21/M"
_symmetry_group_IT_number 11
_symmetry_cell_setting 'monoclinic'
loop_
_space_group_symop_operation_xyz
x,y,z
-x,1/2+y,-z
-x,-y,-z
x,1/2-y,z
loop_
_atom_site_type_symbol
_atom_site_label
_atom_site_fract_x
_atom_site_fract_y
_atom_site_fract_z
Si Si1 0.742893 0.002440 0.798277
Si Si2 0.627217 0.464316 0.283477
Si Si3 0.053441 0.132700 0.969051
Si Si4 0.134181 0.250000 0.441231
Si Si5 0.989162 0.750000 0.382882
Si Si6 0.208162 0.039406 0.420552
Si Si7 0.754621 0.250000 0.324926
Si Si8 0.868879 0.555967 0.222890
O O1 0.567537 0.999718 0.789108
O O2 0.695414 0.001220 0.646318
O O3 0.860337 0.906050 0.879002
O O4 0.851454 0.101746 0.874651
O O5 0.734512 0.482547 0.443343
O O6 0.639536 0.348424 0.254680
O O7 0.694870 0.532350 0.212054
O O8 0.072254 0.250000 0.968234
O O9 0.160204 0.071704 0.921217
O O10 0.239021 0.156402 0.442365
O O11 0.154280 0.250000 0.583529
O O12 0.926621 0.250000 0.322363
O O13 0.181915 0.750000 0.519026
O O14 0.966581 0.655612 0.297856
O O15 0.002179 0.030390 0.313341
#
# Coordination Sequence:
#
# PCOD8068179 Si02
#       8
#     4   4   4   2   2   4   2   4
#     4  10  26  41  61  85 124 158 196 250 298 354
#     4  12  21  38  60  96 125 149 194 254 308 349
#     4  10  23  46  63  82 110 168 212 240 291 355
#     4  10  18  31  56  89 123 159 194 230 302 363
#     4  10  16  32  54  92 111 160 190 236 294 353
#     4  11  20  37  58  91 124 158 189 238 304 367
#     4  10  20  31  58  93 126 153 192 244 306 356
#     4  11  19  36  66  83 120 153 201 248 283 353
#
# _framework density 20.535295999999999
#
# number of rings (size 3 to 8) (size 9 to 14) (size 15 to 20)
#    0.462    0.923    5.385    0.923    2.154    0.615 
#    2.769    0.000    0.000    0.000    0.000    0.000 
#    0.000    0.000    0.000    0.000    0.000    0.000 
#
# Total GULP energy -322256.745263 kJ/mol
# GULP energy per Si atom -12394.490202 kJ/mol
# Density = 2.048856 g / cm^3
# Si number density = 20.535296 Si / 1000 Ang^3
#
#
#
# Elastic Constant Matrix: (Units=GPa)
#
#
# Indices 1 2 3 4 5 6 
#
# 1 106.8011 20.9926 11.0728 0.0000 4.1250 0.0000
# 2 20.9926 107.1438 16.0566 0.0000 -5.1958 0.0000
# 3 11.0728 16.0566 50.7812 0.0000 -7.9224 0.0000
# 4 0.0000 0.0000 0.0000 21.4408 0.0000 -3.8089
# 5 4.1250 -5.1958 -7.9224 0.0000 13.6590 0.0000
# 6 0.0000 0.0000 0.0000 -3.8089 0.0000 16.6647
#
#
#
# Elastic Compliance Matrix: (Units=1/GPa)
#
#
# Indices 1 2 3 4 5 6 
#
# 1 0.010187 -0.001883 -0.002438 0.000000 -0.005207 0.000000
# 2 -0.001883 0.010202 -0.002332 0.000000 0.003097 0.000000
# 3 -0.002438 -0.002332 0.023021 0.000000 0.013202 0.000000
# 4 0.000000 0.000000 0.000000 0.048614 0.000000 0.011111
# 5 -0.005207 0.003097 0.013202 0.000000 0.083620 0.000000
# 6 0.000000 0.000000 0.000000 0.011111 0.000000 0.062547
#
#
# Mechanical properties :
#
#
# Convention : Reuss Voigt Hill
#
# Bulk Modulus (GPa) = 33.21890 40.10778 36.66334
# Shear Modulus (GPa) = 19.11816 24.79318 21.95567
#
# Velocity S-wave (km/s) = 3.05452 3.47846 3.27336
# Velocity P-wave (km/s) = 5.35273 5.97549 5.67266
#
# Compressibility (1/GPa) = 0.03010335
#
# Stress axis : x y z
#
# Youngs Moduli (GPa) = 98.16206 98.02141 43.43869
#
# Poissons Ratio (x) = 0.18458 0.10591
# Poissons Ratio (y) = 0.18485 0.10130
# Poissons Ratio (z) = 0.23934 0.22859
#
# Static dielectric constant tensor:
#      x y z
#    x 3.503860 0.000000 -0.197550 
#    y 0.000000 3.612680 0.000000 
#    z -0.197550 0.000000 3.593870 
# 
# 
# High freq. dielectric constant tensor:
#      x y z
#    x 1.786390 0.000000 -0.016950 
#    y 0.000000 1.804170 0.000000 
#    z -0.016950 0.000000 1.787350 
# 
# From -- ./inp_files/31770.got.cif
#   From: 2010.06.25/outbox.cif.g09.slc.cpg/sg11_16_cif.got.tgz:31770.got - 2010.06.27 23:14:04.
