data_PCOD8068614
_publ_section_title
;
Structure prediction by ZEFSAII (Michael W. Deem and Ramdas Pophale) SiO2 
 PCOD8068614
Probable space group: P 21/M
;
_chemical_formula_sum "Si O2"
_cell_formula_units_Z 28
_cell_length_a 22.189022
_cell_length_b 9.165976
_cell_length_c 13.662238
_cell_angle_alpha 90.000000
_cell_angle_beta 39.314527
_cell_angle_gamma 90.000000
_cell_volume 1760.508652
_symmetry_space_group_name_H-M "P 21/M"
_symmetry_group_IT_number 11
_symmetry_cell_setting 'monoclinic'
loop_
_space_group_symop_operation_xyz
x,y,z
-x,1/2+y,-z
-x,-y,-z
x,1/2-y,z
loop_
_atom_site_type_symbol
_atom_site_label
_atom_site_fract_x
_atom_site_fract_y
_atom_site_fract_z
Si Si1 0.392477 0.579441 0.030912
Si Si2 0.020813 0.424262 0.872183
Si Si3 0.078656 0.080401 0.178199
Si Si4 0.799533 0.918421 0.467767
Si Si5 0.792570 0.080325 0.846028
Si Si6 0.111143 0.914864 0.474451
Si Si7 0.601754 0.918641 0.774002
O O1 0.377924 0.750000 0.066221
O O2 0.498753 0.541286 0.856921
O O3 0.312888 0.526413 0.053735
O O4 0.377591 0.507286 0.154234
O O5 0.008572 0.250000 0.895478
O O6 0.128914 0.473433 0.706971
O O7 0.947612 0.488221 0.884900
O O8 0.000000 0.500000 0.000000
O O9 0.092153 0.250000 0.133056
O O10 0.998888 0.057964 0.361813
O O11 0.176247 0.015674 0.099832
O O12 0.820419 0.750000 0.454607
O O13 0.687057 0.950144 0.588219
O O14 0.821681 0.986486 0.544435
O O15 0.792329 0.250000 0.876506
O O16 0.868222 0.050158 0.664378
O O17 0.140463 0.750000 0.461930
O O18 0.602421 0.750000 0.803969
#
# Coordination Sequence:
#
# PCOD8068614 Si02
#       7
#     4   4   4   4   4   4   4
#     4   9  17  27  41  61  90 125 157 187 218 253
#     4  10  20  35  52  70  91 114 143 184 231 276
#     4  10  20  31  45  65  88 118 153 187 222 266
#     4   9  17  28  45  67  91 118 149 185 224 265
#     4  10  18  28  41  61  91 126 156 184 218 256
#     4   9  17  28  41  60  89 122 155 185 216 257
#     4   9  16  27  42  63  89 120 156 188 219 257
#
# _framework density 15.904495000000001
#
# number of rings (size 3 to 8) (size 9 to 14) (size 15 to 20)
#    0.000    2.571    1.429    1.286    0.000    2.286 
#    0.000    0.000    0.000    0.000    0.000    1.000 
#    0.000    0.000    0.000    0.000    0.000    0.000 
#
# Total GULP energy -346970.651732 kJ/mol
# GULP energy per Si atom -12391.808990 kJ/mol
# Density = 1.586830 g / cm^3
# Si number density = 15.904495 Si / 1000 Ang^3
#
#
#
# Elastic Constant Matrix: (Units=GPa)
#
#
# Indices 1 2 3 4 5 6 
#
# 1 115.1352 42.1120 61.7270 0.0000 -14.3194 0.0000
# 2 42.1120 49.1705 33.6079 0.0000 -1.3182 0.0000
# 3 61.7270 33.6079 74.4641 0.0000 -6.5139 0.0000
# 4 0.0000 0.0000 0.0000 17.7914 0.0000 3.5463
# 5 -14.3194 -1.3182 -6.5139 0.0000 20.6117 0.0000
# 6 0.0000 0.0000 0.0000 3.5463 0.0000 25.8737
#
#
#
# Elastic Compliance Matrix: (Units=1/GPa)
#
#
# Indices 1 2 3 4 5 6 
#
# 1 0.018735 -0.008283 -0.011004 0.000000 0.009008 0.000000
# 2 -0.008283 0.033186 -0.008669 0.000000 -0.006371 0.000000
# 3 -0.011004 -0.008669 0.026478 0.000000 0.000169 0.000000
# 4 0.000000 0.000000 0.000000 0.057786 0.000000 -0.007920
# 5 0.009008 -0.006371 0.000169 0.000000 0.054420 0.000000
# 6 0.000000 0.000000 0.000000 -0.007920 0.000000 0.039735
#
#
# Mechanical properties :
#
#
# Convention : Reuss Voigt Hill
#
# Bulk Modulus (GPa) = 44.46954 57.07373 50.77164
# Shear Modulus (GPa) = 17.02148 19.61023 18.31585
#
# Velocity S-wave (km/s) = 3.27499 3.51522 3.39723
# Velocity P-wave (km/s) = 6.50552 7.24147 6.88334
#
# Compressibility (1/GPa) = 0.02248730
#
# Stress axis : x y z
#
# Youngs Moduli (GPa) = 53.37670 30.13360 37.76665
#
# Poissons Ratio (x) = 0.24959 0.41558
# Poissons Ratio (y) = 0.44210 0.32740
# Poissons Ratio (z) = 0.58735 0.26123
#
# Static dielectric constant tensor:
#      x y z
#    x 3.027280 0.000000 -0.382180 
#    y 0.000000 3.140970 0.000000 
#    z -0.382180 0.000000 3.110620 
# 
# 
# High freq. dielectric constant tensor:
#      x y z
#    x 1.596320 0.000000 -0.027110 
#    y 0.000000 1.617600 0.000000 
#    z -0.027110 0.000000 1.583500 
# 
# From -- ./inp_files/42329.got.cif
#   From: 2010.06.25/outbox.cif.g09.slc.cpg/sg11_22_cif.got.tgz:42329.got - 2010.06.27 23:14:04.
