data_PCOD8068132
_publ_section_title
;
Structure prediction by ZEFSAII (Michael W. Deem and Ramdas Pophale) SiO2 
 PCOD8068132
Probable space group: P 21/M
;
_chemical_formula_sum "Si O2"
_cell_formula_units_Z 28
_cell_length_a 27.171227
_cell_length_b 8.853661
_cell_length_c 21.004834
_cell_angle_alpha 90.000000
_cell_angle_beta 17.603528
_cell_angle_gamma 90.000000
_cell_volume 1528.179003
_symmetry_space_group_name_H-M "P 21/M"
_symmetry_group_IT_number 11
_symmetry_cell_setting 'monoclinic'
loop_
_space_group_symop_operation_xyz
x,y,z
-x,1/2+y,-z
-x,-y,-z
x,1/2-y,z
loop_
_atom_site_type_symbol
_atom_site_label
_atom_site_fract_x
_atom_site_fract_y
_atom_site_fract_z
Si Si1 0.949530 0.425364 0.422686
Si Si2 0.752547 0.928263 0.307015
Si Si3 0.032752 0.927655 0.056758
Si Si4 0.919999 0.574620 0.869773
Si Si5 0.831171 0.929131 0.682594
Si Si6 0.272715 0.575407 0.074528
Si Si7 0.597133 0.075283 0.216631
O O1 0.934640 0.250000 0.458084
O O2 0.944453 0.452812 0.352873
O O3 0.122399 0.486656 0.230827
O O4 0.810068 0.515128 0.634988
O O5 0.756994 0.750000 0.292785
O O6 0.572271 0.985396 0.546421
O O7 0.873726 0.979890 0.213845
O O8 0.805960 0.003934 0.174898
O O9 0.051961 0.750000 0.034555
O O10 0.012992 0.986880 0.152273
O O11 0.904304 0.750000 0.905313
O O12 0.741717 0.518647 0.069631
O O13 0.830502 0.750000 0.686519
O O14 0.688220 0.996672 0.905000
O O15 0.000000 0.000000 0.500000
O O16 0.227885 0.750000 0.141287
O O17 0.413523 0.557690 0.847655
O O18 0.626625 0.250000 0.197760
#
# Coordination Sequence:
#
# PCOD8068132 Si02
#       7
#     4   4   4   4   4   4   4
#     4   9  16  26  39  58  86 119 153 188 226 267
#     4   9  19  36  54  72  94 121 157 197 234 278
#     4  10  20  34  53  73  94 123 157 193 235 282
#     4  10  20  32  48  71  99 127 156 194 237 280
#     4  10  16  22  35  56  85 120 153 185 223 267
#     4   9  15  24  39  60  87 118 150 185 227 272
#     4   9  18  32  50  71  96 125 157 195 237 279
#
# _framework density 18.322461000000001
#
# number of rings (size 3 to 8) (size 9 to 14) (size 15 to 20)
#    0.000    2.571    0.000    4.714    0.000    4.000 
#    0.000    0.000    0.000    0.000    0.000    1.000 
#    0.000    0.000    0.000    0.000    0.000    0.000 
#
# Total GULP energy -346955.914045 kJ/mol
# GULP energy per Si atom -12391.282644 kJ/mol
# Density = 1.828076 g / cm^3
# Si number density = 18.322461 Si / 1000 Ang^3
#
#
#
# Elastic Constant Matrix: (Units=GPa)
#
#
# Indices 1 2 3 4 5 6 
#
# 1 90.4053 26.0415 23.8298 0.0000 27.0490 0.0000
# 2 26.0415 109.6268 14.6240 0.0000 14.5390 0.0000
# 3 23.8298 14.6240 13.4619 0.0000 10.8122 0.0000
# 4 0.0000 0.0000 0.0000 21.4965 0.0000 8.5969
# 5 27.0490 14.5390 10.8122 0.0000 24.2256 0.0000
# 6 0.0000 0.0000 0.0000 8.5969 0.0000 27.9876
#
#
#
# Elastic Compliance Matrix: (Units=1/GPa)
#
#
# Indices 1 2 3 4 5 6 
#
# 1 0.022635 0.000308 -0.031105 0.000000 -0.011575 0.000000
# 2 0.000308 0.010729 -0.010525 0.000000 -0.002085 0.000000
# 3 -0.031105 -0.010525 0.168051 0.000000 -0.033956 0.000000
# 4 0.000000 0.000000 0.000000 0.053034 0.000000 -0.016290
# 5 -0.011575 -0.002085 -0.033956 0.000000 0.070609 0.000000
# 6 0.000000 0.000000 0.000000 -0.016290 0.000000 0.040734
#
#
# Mechanical properties :
#
#
# Convention : Reuss Voigt Hill
#
# Bulk Modulus (GPa) = 8.41966 38.05386 23.23676
# Shear Modulus (GPa) = 10.24534 24.67519 17.46027
#
# Velocity S-wave (km/s) = 2.36724 3.67375 3.09033
# Velocity P-wave (km/s) = 3.47520 6.22971 5.04412
#
# Compressibility (1/GPa) = 0.11876966
#
# Stress axis : x y z
#
# Youngs Moduli (GPa) = 44.18006 93.20193 5.95059
#
# Poissons Ratio (x) = -0.02867 0.18509
# Poissons Ratio (y) = -0.01359 0.06263
# Poissons Ratio (z) = 1.37420 0.98100
#
# Static dielectric constant tensor:
#      x y z
#    x 4.754860 0.000000 1.672970 
#    y 0.000000 3.434210 0.000000 
#    z 1.672970 0.000000 4.271550 
# 
# 
# High freq. dielectric constant tensor:
#      x y z
#    x 1.697270 0.000000 0.052770 
#    y 0.000000 1.722290 0.000000 
#    z 0.052770 0.000000 1.679210 
# 
# From -- ./inp_files/66878.got.cif
#   From: 2010.06.25/outbox.cif.g09.slc.cpg/sg11_34_cif.got.tgz:66878.got - 2010.06.27 23:14:04.
