data_PCOD8068819
_publ_section_title
;
Structure prediction by ZEFSAII (Michael W. Deem and Ramdas Pophale) SiO2 
 PCOD8068819
Probable space group: P 21/M
;
_chemical_formula_sum "Si O2"
_cell_formula_units_Z 32
_cell_length_a 30.758871
_cell_length_b 8.626354
_cell_length_c 21.382263
_cell_angle_alpha 90.000000
_cell_angle_beta 160.639483
_cell_angle_gamma 90.000000
_cell_volume 1880.829249
_symmetry_space_group_name_H-M "P 21/M"
_symmetry_group_IT_number 11
_symmetry_cell_setting 'monoclinic'
loop_
_space_group_symop_operation_xyz
x,y,z
-x,1/2+y,-z
-x,-y,-z
x,1/2-y,z
loop_
_atom_site_type_symbol
_atom_site_label
_atom_site_fract_x
_atom_site_fract_y
_atom_site_fract_z
Si Si1 0.034155 0.067128 0.690936
Si Si2 0.876225 0.433952 0.062396
Si Si3 0.960841 0.067192 0.042932
Si Si4 0.512393 0.928732 0.337149
Si Si5 0.412983 0.432059 0.326642
Si Si6 0.118549 0.433550 0.620290
Si Si7 0.735594 0.069560 0.078062
Si Si8 0.193903 0.430782 0.275438
O O1 0.023331 0.250000 0.673288
O O2 0.036122 0.009964 0.764642
O O3 0.167837 0.014798 0.839039
O O4 0.904760 0.994303 0.481859
O O5 0.882413 0.250000 0.077431
O O6 0.939250 0.496514 0.083438
O O7 0.726390 0.484914 0.863531
O O8 0.956692 0.250000 0.039646
O O9 0.841375 0.011345 0.837727
O O10 0.099890 0.006774 0.203663
O O11 0.503226 0.750000 0.346841
O O12 0.655712 0.968308 0.504104
O O13 0.484586 0.037705 0.358241
O O14 0.412190 0.961659 0.144727
O O15 0.500000 0.500000 0.500000
O O16 0.393550 0.250000 0.310180
O O17 0.121715 0.250000 0.625650
O O18 0.249776 0.500381 0.831636
O O19 0.000000 0.500000 0.500000
O O20 0.772109 0.250000 0.127789
O O21 0.169305 0.250000 0.232604
#
# Coordination Sequence:
#
# PCOD8068819 Si02
#       8
#     4   4   4   4   4   4   4   4
#     4  11  20  31  47  70  98 130 164 200 241 289
#     4  11  21  34  50  71  99 130 164 202 246 292
#     4   9  19  34  52  72  95 125 163 208 250 289
#     4  10  20  33  51  72  99 130 162 200 243 292
#     4  12  24  35  48  67  97 132 166 200 240 293
#     4  10  18  29  46  67  95 130 164 198 237 285
#     4  10  18  30  47  69  99 131 162 198 239 289
#     4   9  18  34  53  73  95 124 164 206 248 290
#
# _framework density 17.013771999999999
#
# number of rings (size 3 to 8) (size 9 to 14) (size 15 to 20)
#    0.000    1.750    1.250    6.375    0.000    4.000 
#    0.000    0.000    0.000    0.000    0.000    0.875 
#    0.000    0.000    0.000    0.000    0.000    0.000 
#
# Total GULP energy -396777.753260 kJ/mol
# GULP energy per Si atom -12399.304789 kJ/mol
# Density = 1.697505 g / cm^3
# Si number density = 17.013772 Si / 1000 Ang^3
#
#
#
# Elastic Constant Matrix: (Units=GPa)
#
#
# Indices 1 2 3 4 5 6 
#
# 1 86.2234 21.2135 59.2551 0.0000 -14.5846 0.0000
# 2 21.2135 77.7382 29.6073 0.0000 -8.4912 0.0000
# 3 59.2551 29.6073 114.0805 0.0000 -20.5305 0.0000
# 4 0.0000 0.0000 0.0000 22.7362 0.0000 -10.3101
# 5 -14.5846 -8.4912 -20.5305 0.0000 29.1366 0.0000
# 6 0.0000 0.0000 0.0000 -10.3101 0.0000 20.7138
#
#
#
# Elastic Compliance Matrix: (Units=1/GPa)
#
#
# Indices 1 2 3 4 5 6 
#
# 1 0.018372 -0.001410 -0.008699 0.000000 0.002656 0.000000
# 2 -0.001410 0.014463 -0.002737 0.000000 0.001581 0.000000
# 3 -0.008699 -0.002737 0.014965 0.000000 0.005393 0.000000
# 4 0.000000 0.000000 0.000000 0.056804 0.000000 0.028274
# 5 0.002656 0.001581 0.005393 0.000000 0.039911 0.000000
# 6 0.000000 0.000000 0.000000 0.028274 0.000000 0.062350
#
#
# Mechanical properties :
#
#
# Convention : Reuss Voigt Hill
#
# Bulk Modulus (GPa) = 45.23083 55.35489 50.29286
# Shear Modulus (GPa) = 20.83971 25.71506 23.27739
#
# Velocity S-wave (km/s) = 3.50362 3.89192 3.70286
# Velocity P-wave (km/s) = 6.55817 7.26650 6.92141
#
# Compressibility (1/GPa) = 0.02210881
#
# Stress axis : x y z
#
# Youngs Moduli (GPa) = 54.43067 69.13960 66.82376
#
# Poissons Ratio (x) = 0.09751 0.58128
# Poissons Ratio (y) = 0.07677 0.18288
# Poissons Ratio (z) = 0.47348 0.18921
#
# Static dielectric constant tensor:
#      x y z
#    x 3.356240 0.000000 -0.295780 
#    y 0.000000 3.257390 0.000000 
#    z -0.295780 0.000000 3.464760 
# 
# 
# High freq. dielectric constant tensor:
#      x y z
#    x 1.632510 0.000000 -0.025230 
#    y 0.000000 1.667660 0.000000 
#    z -0.025230 0.000000 1.651070 
# 
# From -- ./inp_files/67452.got.cif
#   From: 2010.06.25/outbox.cif.g09.slc.cpg/sg11_34_cif.got.tgz:67452.got - 2010.06.27 23:14:04.
