data_PCOD8068690
_publ_section_title
;
Structure prediction by ZEFSAII (Michael W. Deem and Ramdas Pophale) SiO2 
 PCOD8068690
Probable space group: P 21/M
;
_chemical_formula_sum "Si O2"
_cell_formula_units_Z 28
_cell_length_a 21.479865
_cell_length_b 9.137192
_cell_length_c 11.193613
_cell_angle_alpha 90.000000
_cell_angle_beta 48.904598
_cell_angle_gamma 90.000000
_cell_volume 1655.635690
_symmetry_space_group_name_H-M "P 21/M"
_symmetry_group_IT_number 11
_symmetry_cell_setting 'monoclinic'
loop_
_space_group_symop_operation_xyz
x,y,z
-x,1/2+y,-z
-x,-y,-z
x,1/2-y,z
loop_
_atom_site_type_symbol
_atom_site_label
_atom_site_fract_x
_atom_site_fract_y
_atom_site_fract_z
Si Si1 0.272112 0.581108 0.953929
Si Si2 0.035415 0.580137 0.637300
Si Si3 0.236756 0.420754 0.758961
Si Si4 0.586545 0.912123 0.519101
Si Si5 0.069358 0.077759 0.834873
Si Si6 0.433005 0.086989 0.739610
Si Si7 0.109952 0.583886 0.292589
O O1 0.291795 0.750000 0.903517
O O2 0.232432 0.513135 0.885205
O O3 0.356612 0.504231 0.889445
O O4 0.206261 0.560023 0.143220
O O5 0.029640 0.750000 0.680962
O O6 0.071291 0.486802 0.700220
O O7 0.096789 0.552490 0.449111
O O8 0.943731 0.525951 0.719913
O O9 0.241445 0.250000 0.788865
O O10 0.318746 0.463169 0.578525
O O11 0.157754 0.458110 0.779996
O O12 0.571709 0.750000 0.589392
O O13 0.573323 0.912917 0.394248
O O14 0.521039 0.017596 0.666955
O O15 0.051334 0.250000 0.853717
O O16 0.000000 0.000000 0.000000
O O17 0.429305 0.250000 0.797230
O O18 0.082540 0.750000 0.296306
#
# Coordination Sequence:
#
# PCOD8068690 Si02
#       7
#     4   4   4   4   4   4   4
#     4  10  18  28  45  68  93 121 153 188 226 270
#     4  10  20  34  51  70  93 122 156 194 235 274
#     4   9  19  32  45  64  92 124 155 188 226 271
#     4   8  14  26  41  58  84 118 152 183 220 268
#     4  11  22  35  50  70  96 125 157 191 230 275
#     4   9  16  25  39  62  91 119 147 182 225 272
#     4   9  19  34  50  69  93 122 157 194 231 274
#
# _framework density 16.911933999999999
#
# number of rings (size 3 to 8) (size 9 to 14) (size 15 to 20)
#    0.000    2.571    0.000    3.429    0.000    8.571 
#    0.000    0.000    0.000    0.000    0.000    1.000 
#    0.000    0.000    0.000    0.000    0.000    0.000 
#
# Total GULP energy -347170.585641 kJ/mol
# GULP energy per Si atom -12398.949487 kJ/mol
# Density = 1.687344 g / cm^3
# Si number density = 16.911934 Si / 1000 Ang^3
#
#
#
# Elastic Constant Matrix: (Units=GPa)
#
#
# Indices 1 2 3 4 5 6 
#
# 1 85.0619 53.8576 58.1715 0.0000 -22.9539 0.0000
# 2 53.8576 110.8899 61.4909 0.0000 -16.2965 0.0000
# 3 58.1715 61.4909 102.2670 0.0000 -25.3915 0.0000
# 4 0.0000 0.0000 0.0000 26.6742 0.0000 -4.3913
# 5 -22.9539 -16.2965 -25.3915 0.0000 28.0287 0.0000
# 6 0.0000 0.0000 0.0000 -4.3913 0.0000 25.9734
#
#
#
# Elastic Compliance Matrix: (Units=1/GPa)
#
#
# Indices 1 2 3 4 5 6 
#
# 1 0.022719 -0.005683 -0.007363 0.000000 0.008631 0.000000
# 2 -0.005683 0.014959 -0.006139 0.000000 -0.001518 0.000000
# 3 -0.007363 -0.006139 0.019707 0.000000 0.008254 0.000000
# 4 0.000000 0.000000 0.000000 0.038563 0.000000 0.006520
# 5 0.008631 -0.001518 0.008254 0.000000 0.049341 0.000000
# 6 0.000000 0.000000 0.000000 0.006520 0.000000 0.039603
#
#
# Mechanical properties :
#
#
# Convention : Reuss Voigt Hill
#
# Bulk Modulus (GPa) = 52.58868 71.69544 62.14206
# Shear Modulus (GPa) = 21.77707 24.44850 23.11278
#
# Velocity S-wave (km/s) = 3.59231 3.80628 3.70084
# Velocity P-wave (km/s) = 6.95481 7.86145 7.42199
#
# Compressibility (1/GPa) = 0.01901550
#
# Stress axis : x y z
#
# Youngs Moduli (GPa) = 44.01680 66.84868 50.74343
#
# Poissons Ratio (x) = 0.37989 0.37362
# Poissons Ratio (y) = 0.25014 0.31151
# Poissons Ratio (z) = 0.32409 0.41038
#
# Static dielectric constant tensor:
#      x y z
#    x 3.027890 0.000000 -0.322390 
#    y 0.000000 3.379550 0.000000 
#    z -0.322390 0.000000 3.193890 
# 
# 
# High freq. dielectric constant tensor:
#      x y z
#    x 1.620170 0.000000 -0.032530 
#    y 0.000000 1.666450 0.000000 
#    z -0.032530 0.000000 1.642510 
# 
# From -- ./inp_files/42305.got.cif
#   From: 2010.06.25/outbox.cif.g09.slc.cpg/sg11_22_cif.got.tgz:42305.got - 2010.06.27 23:14:04.
