data_PCOD8068424
_publ_section_title
;
Structure prediction by ZEFSAII (Michael W. Deem and Ramdas Pophale) SiO2 
 PCOD8068424
Probable space group: P 21/M
;
_chemical_formula_sum "Si O2"
_cell_formula_units_Z 32
_cell_length_a 16.733815
_cell_length_b 15.917578
_cell_length_c 10.947767
_cell_angle_alpha 90.000000
_cell_angle_beta 147.648493
_cell_angle_gamma 90.000000
_cell_volume 1560.422423
_symmetry_space_group_name_H-M "P 21/M"
_symmetry_group_IT_number 11
_symmetry_cell_setting 'monoclinic'
loop_
_space_group_symop_operation_xyz
x,y,z
-x,1/2+y,-z
-x,-y,-z
x,1/2-y,z
loop_
_atom_site_type_symbol
_atom_site_label
_atom_site_fract_x
_atom_site_fract_y
_atom_site_fract_z
Si Si1 0.248685 0.155105 0.221116
Si Si2 0.162107 0.483849 0.656773
Si Si3 0.645214 0.343761 0.554179
Si Si4 0.240770 0.657814 0.827294
Si Si5 0.446453 0.889125 0.299790
Si Si6 0.030275 0.346568 0.334194
Si Si7 0.964046 0.404616 0.980189
Si Si8 0.351359 0.070143 0.123529
O O1 0.303106 0.250000 0.284480
O O2 0.372361 0.107688 0.464594
O O3 0.084377 0.151108 0.064603
O O4 0.244550 0.119979 0.078350
O O5 0.231649 0.578210 0.720482
O O6 0.153502 0.417750 0.532579
O O7 0.000000 0.500000 0.500000
O O8 0.266695 0.436471 0.887482
O O9 0.662460 0.250000 0.528267
O O10 0.611768 0.341307 0.655681
O O11 0.509639 0.385383 0.304726
O O12 0.797938 0.390419 0.716180
O O13 0.238125 0.750000 0.757661
O O14 0.102773 0.650748 0.741294
O O15 0.391299 0.653750 0.103097
O O16 0.380745 0.981747 0.225184
O O17 0.094177 0.250000 0.408906
O O18 0.965937 0.377250 0.123131
O O19 0.000000 0.500000 0.000000
#
# Coordination Sequence:
#
# PCOD8068424 Si02
#       8
#     4   4   4   4   4   4   4   4
#     4  11  22  33  51  86 121 147 180 238 302 354
#     4   9  20  34  58  85 119 147 197 245 290 334
#     4  11  20  34  56  81 114 155 196 242 294 363
#     4   9  16  30  56  84 111 148 194 241 289 344
#     4  10  17  31  54  82 115 149 191 236 290 351
#     4  10  20  36  58  83 111 155 202 240 284 354
#     4  12  24  37  58  81 118 154 198 240 302 359
#     4  10  20  35  57  88 116 148 191 240 299 349
#
# _framework density 20.507266999999999
#
# number of rings (size 3 to 8) (size 9 to 14) (size 15 to 20)
#    0.000    1.750    1.250    6.375    3.500    1.000 
#    0.000    0.000    0.000    6.750    0.000    0.000 
#    0.000    0.000    0.000    0.000    0.000    0.000 
#
# Total GULP energy -396588.736552 kJ/mol
# GULP energy per Si atom -12393.398017 kJ/mol
# Density = 2.046059 g / cm^3
# Si number density = 20.507267 Si / 1000 Ang^3
#
#
#
# Elastic Constant Matrix: (Units=GPa)
#
#
# Indices 1 2 3 4 5 6 
#
# 1 30.1447 4.8172 32.0876 0.0000 14.8315 0.0000
# 2 4.8172 -1.7361 123.4245 0.0000 20.6115 0.0000
# 3 32.0876 123.4245 72.8216 0.0000 -4.2626 0.0000
# 4 0.0000 0.0000 0.0000 28.7076 0.0000 1.1095
# 5 14.8315 20.6115 -4.2626 0.0000 18.6704 0.0000
# 6 0.0000 0.0000 0.0000 1.1095 0.0000 24.8284
#
#
#
# Elastic Compliance Matrix: (Units=1/GPa)
#
#
# Indices 1 2 3 4 5 6 
#
# 1 0.043526 -0.012872 0.001465 0.000000 -0.020032 0.000000
# 2 -0.012872 -0.000146 0.006616 0.000000 0.011897 0.000000
# 3 0.001465 0.006616 0.001397 0.000000 -0.008149 0.000000
# 4 0.000000 0.000000 0.000000 0.034894 0.000000 -0.001559
# 5 -0.020032 0.011897 -0.008149 0.000000 0.054479 0.000000
# 6 0.000000 0.000000 0.000000 -0.001559 0.000000 0.040346
#
#
# Mechanical properties :
#
#
# Convention : Reuss Voigt Hill
#
# Bulk Modulus (GPa) = 28.41344 46.87655 37.64499
# Shear Modulus (GPa) = 25.53489 10.50135 18.01812
#
# Velocity S-wave (km/s) = 3.53252 2.26537 2.96737
# Velocity P-wave (km/s) = 5.52482 5.45442 5.48973
#
# Compressibility (1/GPa) = 0.03519461
#
# Stress axis : x y z
#
# Youngs Moduli (GPa) = 22.97462 -6851.42952 715.98844
#
# Poissons Ratio (x) = -88.19316 -1.04917
# Poissons Ratio (y) = 0.29573 -4.73676
# Poissons Ratio (z) = -0.03367 45.32694
#
# Static dielectric constant tensor:
#      x y z
#    x 3.255660 0.000000 0.142690 
#    y 0.000000 4.406880 0.000000 
#    z 0.142690 0.000000 3.976970 
# 
# 
# High freq. dielectric constant tensor:
#      x y z
#    x 1.741620 0.000000 0.011680 
#    y 0.000000 1.828720 0.000000 
#    z 0.011680 0.000000 1.805220 
# 
# From -- ./inp_files/41742.got.cif
#   From: 2010.06.25/outbox.cif.g09.slc.cpg/sg11_21_cif.got.tgz:41742.got - 2010.06.27 23:14:04.
