data_PCOD8068374
_publ_section_title
;
Structure prediction by ZEFSAII (Michael W. Deem and Ramdas Pophale) SiO2 
 PCOD8068374
Probable space group: P 21/M
;
_chemical_formula_sum "Si O2"
_cell_formula_units_Z 24
_cell_length_a 4.957159
_cell_length_b 17.445194
_cell_length_c 15.311762
_cell_angle_alpha 90.000000
_cell_angle_beta 80.749694
_cell_angle_gamma 90.000000
_cell_volume 1306.919983
_symmetry_space_group_name_H-M "P 21/M"
_symmetry_group_IT_number 11
_symmetry_cell_setting 'monoclinic'
loop_
_space_group_symop_operation_xyz
x,y,z
-x,1/2+y,-z
-x,-y,-z
x,1/2-y,z
loop_
_atom_site_type_symbol
_atom_site_label
_atom_site_fract_x
_atom_site_fract_y
_atom_site_fract_z
Si Si1 0.368850 0.455429 0.404787
Si Si2 0.015700 0.661260 0.053777
Si Si3 0.443200 0.413205 0.029387
Si Si4 0.149391 0.071726 0.774656
Si Si5 0.135809 0.056852 0.586398
Si Si6 0.644767 0.533915 0.783727
O O1 0.678261 0.480347 0.408790
O O2 0.253108 0.402238 0.491200
O O3 0.354087 0.418339 0.308322
O O4 0.176418 0.531681 0.412077
O O5 0.955843 0.750000 0.042182
O O6 0.935325 0.639922 0.156851
O O7 0.848545 0.611145 0.993191
O O8 0.333158 0.643890 0.021511
O O9 0.437448 0.407697 0.135068
O O10 0.500000 0.500000 0.000000
O O11 0.158803 0.106286 0.674695
O O12 0.442106 0.038850 0.788065
O O13 0.941204 0.000381 0.790112
#
# Coordination Sequence:
#
# PCOD8068374 Si02
#       6
#     4   4   4   4   4   4
#     4   8  14  24  37  66  93 118 146 195 239 282
#     4  12  24  36  50  74 105 134 170 213 256 305
#     4  12  21  36  55  74  98 137 175 212 251 303
#     4  10  17  30  46  70  95 131 158 199 247 301
#     4   8  14  23  40  60  95 122 146 184 244 288
#     4  10  18  28  50  71  95 123 168 202 247 290
#
# _framework density 18.363786000000001
#
# number of rings (size 3 to 8) (size 9 to 14) (size 15 to 20)
#    0.000    2.000    3.333    2.000    0.000    0.000 
#    0.000    0.000    0.000    0.000    0.000    2.333 
#    0.000    0.000    0.000    0.000    0.000    0.333 
#
# Total GULP energy -297374.474174 kJ/mol
# GULP energy per Si atom -12390.603091 kJ/mol
# Density = 1.832199 g / cm^3
# Si number density = 18.363786 Si / 1000 Ang^3
#
#
#
# Elastic Constant Matrix: (Units=GPa)
#
#
# Indices 1 2 3 4 5 6 
#
# 1 69.3794 3.7923 8.4656 0.0000 1.2274 0.0000
# 2 3.7923 45.9668 27.2754 0.0000 1.7008 0.0000
# 3 8.4656 27.2754 187.2633 0.0000 -2.1813 0.0000
# 4 0.0000 0.0000 0.0000 11.3010 0.0000 0.3585
# 5 1.2274 1.7008 -2.1813 0.0000 29.6831 0.0000
# 6 0.0000 0.0000 0.0000 0.3585 0.0000 15.0186
#
#
#
# Elastic Compliance Matrix: (Units=1/GPa)
#
#
# Indices 1 2 3 4 5 6 
#
# 1 0.014537 -0.000857 -0.000539 0.000000 -0.000592 0.000000
# 2 -0.000857 0.023942 -0.003467 0.000000 -0.001591 0.000000
# 3 -0.000539 -0.003467 0.005877 0.000000 0.000653 0.000000
# 4 0.000000 0.000000 0.000000 0.088555 0.000000 -0.002114
# 5 -0.000592 -0.001591 0.000653 0.000000 0.033853 0.000000
# 6 0.000000 0.000000 0.000000 -0.002114 0.000000 0.066635
#
#
# Mechanical properties :
#
#
# Convention : Reuss Voigt Hill
#
# Bulk Modulus (GPa) = 28.87825 42.40847 35.64336
# Shear Modulus (GPa) = 19.63345 28.73895 24.18620
#
# Velocity S-wave (km/s) = 3.27332 3.96027 3.63307
# Velocity P-wave (km/s) = 5.48142 6.63742 6.08692
#
# Compressibility (1/GPa) = 0.03462813
#
# Stress axis : x y z
#
# Youngs Moduli (GPa) = 68.79176 41.76830 170.15429
#
# Poissons Ratio (x) = 0.03582 0.09174
# Poissons Ratio (y) = 0.05899 0.58991
# Poissons Ratio (z) = 0.03709 0.14481
#
# Static dielectric constant tensor:
#      x y z
#    x 3.568780 0.000000 -0.097610 
#    y 0.000000 2.550800 0.000000 
#    z -0.097610 0.000000 4.311820 
# 
# 
# High freq. dielectric constant tensor:
#      x y z
#    x 1.740060 0.000000 0.000010 
#    y 0.000000 1.599240 0.000000 
#    z 0.000010 0.000000 1.752690 
# 
# From -- ./inp_files/6471.got.cif
#   From: 2010.06.25/outbox.cif.g09.slc.cpg/sg11_4_cif.got.tgz:6471.got - 2010.06.27 23:14:04.
