data_PCOD8068188
_publ_section_title
;
Structure prediction by ZEFSAII (Michael W. Deem and Ramdas Pophale) SiO2 
 PCOD8068188
Probable space group: P 21/M
;
_chemical_formula_sum "Si O2"
_cell_formula_units_Z 24
_cell_length_a 9.473132
_cell_length_b 14.500541
_cell_length_c 14.531745
_cell_angle_alpha 90.000000
_cell_angle_beta 139.460799
_cell_angle_gamma 90.000000
_cell_volume 1297.441073
_symmetry_space_group_name_H-M "P 21/M"
_symmetry_group_IT_number 11
_symmetry_cell_setting 'monoclinic'
loop_
_space_group_symop_operation_xyz
x,y,z
-x,1/2+y,-z
-x,-y,-z
x,1/2-y,z
loop_
_atom_site_type_symbol
_atom_site_label
_atom_site_fract_x
_atom_site_fract_y
_atom_site_fract_z
Si Si1 0.698501 0.434086 0.611354
Si Si2 0.185714 0.049201 0.819424
Si Si3 0.681241 0.250000 0.507346
Si Si4 0.971863 0.250000 0.945770
Si Si5 0.524916 0.547904 0.869240
Si Si6 0.456279 0.250000 0.201410
Si Si7 0.794099 0.059383 0.870325
Si Si8 0.123700 0.250000 0.806271
O O1 0.500000 0.500000 0.500000
O O2 0.601231 0.339613 0.522750
O O3 0.761617 0.430034 0.747214
O O4 0.926817 0.463582 0.676323
O O5 0.259740 0.157437 0.854404
O O6 0.296467 0.988592 0.795019
O O7 0.277400 0.019174 0.964546
O O8 0.606368 0.250000 0.364955
O O9 0.940806 0.250000 0.636983
O O10 0.012037 0.250000 0.853745
O O11 0.839287 0.164382 0.922188
O O12 0.207546 0.250000 0.110620
O O13 0.502291 0.657539 0.838691
O O14 0.578429 0.488414 0.804658
O O15 0.000000 0.000000 0.000000
#
# Coordination Sequence:
#
# PCOD8068188 Si02
#       8
#     4   4   2   2   4   2   4   2
#     4  11  21  38  61  86 120 159 200 245 295 363
#     4  10  20  38  61  87 119 159 198 240 315 353
#     4  10  22  36  57  85 116 163 197 232 310 364
#     4  12  20  35  64  82 124 151 206 255 284 356
#     4  11  22  35  63  90 121 151 203 259 290 355
#     4  12  20  38  57  91 116 166 199 242 305 357
#     4  12  20  37  59  92 114 153 206 248 289 344
#     4  10  16  41  58  80 112 166 186 235 305 369
#
# _framework density 18.497952000000002
#
# number of rings (size 3 to 8) (size 9 to 14) (size 15 to 20)
#    0.000    1.000    8.333    1.000    0.000    0.667 
#    0.000    9.167    0.000    0.000    0.000    0.000 
#    0.000    0.000    0.000    0.000    0.000    0.000 
#
# Total GULP energy -297318.967351 kJ/mol
# GULP energy per Si atom -12388.290306 kJ/mol
# Density = 1.845585 g / cm^3
# Si number density = 18.497952 Si / 1000 Ang^3
#
#
#
# Elastic Constant Matrix: (Units=GPa)
#
#
# Indices 1 2 3 4 5 6 
#
# 1 89.2467 62.9383 21.8793 0.0000 8.9404 0.0000
# 2 62.9383 154.4614 16.7215 0.0000 16.6366 0.0000
# 3 21.8793 16.7215 79.2442 0.0000 5.1159 0.0000
# 4 0.0000 0.0000 0.0000 28.9337 0.0000 2.8562
# 5 8.9404 16.6366 5.1159 0.0000 27.5601 0.0000
# 6 0.0000 0.0000 0.0000 2.8562 0.0000 32.2345
#
#
#
# Elastic Compliance Matrix: (Units=1/GPa)
#
#
# Indices 1 2 3 4 5 6 
#
# 1 0.016507 -0.006278 -0.003170 0.000000 -0.000977 0.000000
# 2 -0.006278 0.009428 -0.000020 0.000000 -0.003651 0.000000
# 3 -0.003170 -0.000020 0.013594 0.000000 -0.001483 0.000000
# 4 0.000000 0.000000 0.000000 0.034867 0.000000 -0.003089
# 5 -0.000977 -0.003651 -0.001483 0.000000 0.039080 0.000000
# 6 0.000000 0.000000 0.000000 -0.003089 0.000000 0.031296
#
#
# Mechanical properties :
#
#
# Convention : Reuss Voigt Hill
#
# Bulk Modulus (GPa) = 48.55995 58.44783 53.50389
# Shear Modulus (GPa) = 29.31305 32.50655 30.90980
#
# Velocity S-wave (km/s) = 3.98510 4.19657 4.09220
# Velocity P-wave (km/s) = 6.89081 7.42611 7.16346
#
# Compressibility (1/GPa) = 0.02059310
#
# Stress axis : x y z
#
# Youngs Moduli (GPa) = 60.58022 106.07261 73.55948
#
# Poissons Ratio (x) = 0.66590 0.23317
# Poissons Ratio (y) = 0.38031 0.00150
# Poissons Ratio (z) = 0.19203 0.00216
#
# Static dielectric constant tensor:
#      x y z
#    x 3.233110 0.000000 -0.274740 
#    y 0.000000 4.044680 0.000000 
#    z -0.274740 0.000000 2.850400 
# 
# 
# High freq. dielectric constant tensor:
#      x y z
#    x 1.686690 0.000000 -0.005420 
#    y 0.000000 1.734090 0.000000 
#    z -0.005420 0.000000 1.717220 
# 
# From -- ./inp_files/47736.got.cif
#   From: 2010.06.25/outbox.cif.g09.slc.cpg/sg11_24_cif.got.tgz:47736.got - 2010.06.27 23:14:04.
