data_PCOD8068382
_publ_section_title
;
Structure prediction by ZEFSAII (Michael W. Deem and Ramdas Pophale) SiO2 
 PCOD8068382
Probable space group: P 21/M
;
_chemical_formula_sum "Si O2"
_cell_formula_units_Z 32
_cell_length_a 11.665397
_cell_length_b 13.862637
_cell_length_c 12.521356
_cell_angle_alpha 90.000000
_cell_angle_beta 60.514720
_cell_angle_gamma 90.000000
_cell_volume 1762.611589
_symmetry_space_group_name_H-M "P 21/M"
_symmetry_group_IT_number 11
_symmetry_cell_setting 'monoclinic'
loop_
_space_group_symop_operation_xyz
x,y,z
-x,1/2+y,-z
-x,-y,-z
x,1/2-y,z
loop_
_atom_site_type_symbol
_atom_site_label
_atom_site_fract_x
_atom_site_fract_y
_atom_site_fract_z
Si Si1 0.928424 0.362482 0.212652
Si Si2 0.559141 0.141388 0.229013
Si Si3 0.573516 0.642136 0.392583
Si Si4 0.186754 0.031499 0.106710
Si Si5 0.583718 0.500829 0.854811
Si Si6 0.846697 0.143057 0.014887
Si Si7 0.338023 0.556534 0.599692
Si Si8 0.394926 0.357762 0.866744
O O1 0.909183 0.250000 0.240161
O O2 0.916795 0.387849 0.092853
O O3 0.814021 0.414217 0.332715
O O4 0.070140 0.395381 0.190312
O O5 0.512910 0.250000 0.278101
O O6 0.447421 0.090141 0.209307
O O7 0.690006 0.144493 0.098421
O O8 0.587969 0.082981 0.323529
O O9 0.594308 0.750000 0.431501
O O10 0.417892 0.613150 0.470185
O O11 0.653279 0.559638 0.421423
O O12 0.630265 0.642350 0.247299
O O13 0.263218 0.006829 0.181726
O O14 0.282768 0.077854 0.973756
O O15 0.118607 0.934640 0.091753
O O16 0.541690 0.401048 0.817027
O O17 0.500000 0.500000 0.000000
O O18 0.896073 0.250000 0.957680
O O19 0.389407 0.250000 0.917020
#
# Coordination Sequence:
#
# PCOD8068382 Si02
#       8
#     4   4   4   4   4   4   4   4
#     4  10  20  33  50  72 102 137 172 206 252 305
#     4  10  17  30  49  70  99 132 170 212 257 299
#     4  10  19  32  56  83 104 131 167 212 266 302
#     4  11  20  33  48  72 106 139 171 207 248 308
#     4  10  19  31  45  70 103 135 171 211 253 298
#     4   9  17  29  46  67  95 133 167 204 251 302
#     4  10  19  35  55  79 107 129 168 217 255 302
#     4  10  19  32  49  74 105 133 168 212 261 306
#
# _framework density 18.154879999999999
#
# number of rings (size 3 to 8) (size 9 to 14) (size 15 to 20)
#    0.000    2.000    3.750    3.375    0.000    3.000 
#    0.000    1.875    0.000    0.750    0.000    0.000 
#    0.000    0.000    0.000    0.000    0.000    0.000 
#
# Total GULP energy -396607.746505 kJ/mol
# GULP energy per Si atom -12393.992078 kJ/mol
# Density = 1.811356 g / cm^3
# Si number density = 18.154880 Si / 1000 Ang^3
#
#
#
# Elastic Constant Matrix: (Units=GPa)
#
#
# Indices 1 2 3 4 5 6 
#
# 1 90.2871 25.0521 11.0874 0.0000 -14.3829 0.0000
# 2 25.0521 124.0561 10.6068 0.0000 -7.1892 0.0000
# 3 11.0874 10.6068 37.2633 0.0000 -11.3467 0.0000
# 4 0.0000 0.0000 0.0000 19.1332 0.0000 -0.4898
# 5 -14.3829 -7.1892 -11.3467 0.0000 16.0902 0.0000
# 6 0.0000 0.0000 0.0000 -0.4898 0.0000 23.2656
#
#
#
# Elastic Compliance Matrix: (Units=1/GPa)
#
#
# Indices 1 2 3 4 5 6 
#
# 1 0.013412 -0.002065 -0.000042 0.000000 0.011036 0.000000
# 2 -0.002065 0.008666 -0.001573 0.000000 0.000916 0.000000
# 3 -0.000042 -0.001573 0.034473 0.000000 0.023570 0.000000
# 4 0.000000 0.000000 0.000000 0.052293 0.000000 0.001101
# 5 0.011036 0.000916 0.023570 0.000000 0.089046 0.000000
# 6 0.000000 0.000000 0.000000 0.001101 0.000000 0.043005
#
#
# Mechanical properties :
#
#
# Convention : Reuss Voigt Hill
#
# Bulk Modulus (GPa) = 20.32935 38.34433 29.33684
# Shear Modulus (GPa) = 18.89268 25.35516 22.12392
#
# Velocity S-wave (km/s) = 3.22939 3.74117 3.49466
# Velocity P-wave (km/s) = 5.01272 6.31097 5.69893
#
# Compressibility (1/GPa) = 0.04918997
#
# Stress axis : x y z
#
# Youngs Moduli (GPa) = 74.55931 115.39961 29.00792
#
# Poissons Ratio (x) = 0.23833 0.00122
# Poissons Ratio (y) = 0.15399 0.04563
# Poissons Ratio (z) = 0.00315 0.18153
#
# Static dielectric constant tensor:
#      x y z
#    x 3.384620 0.000000 0.109150 
#    y 0.000000 3.776790 0.000000 
#    z 0.109150 0.000000 3.129070 
# 
# 
# High freq. dielectric constant tensor:
#      x y z
#    x 1.670120 0.000000 -0.001070 
#    y 0.000000 1.725180 0.000000 
#    z -0.001070 0.000000 1.667890 
# 
# From -- ./inp_files/35475.got.cif
#   From: 2010.06.25/outbox.cif.g09.slc.cpg/sg11_18_cif.got.tgz:35475.got - 2010.06.27 23:14:04.
