data_PCOD8068897
_publ_section_title
;
Structure prediction by ZEFSAII (Michael W. Deem and Ramdas Pophale) SiO2 
 PCOD8068897
Probable space group: P 21/M
;
_chemical_formula_sum "Si O2"
_cell_formula_units_Z 32
_cell_length_a 17.666588
_cell_length_b 8.886633
_cell_length_c 23.826285
_cell_angle_alpha 90.000000
_cell_angle_beta 149.499276
_cell_angle_gamma 90.000000
_cell_volume 1898.560536
_symmetry_space_group_name_H-M "P 21/M"
_symmetry_group_IT_number 11
_symmetry_cell_setting 'monoclinic'
loop_
_space_group_symop_operation_xyz
x,y,z
-x,1/2+y,-z
-x,-y,-z
x,1/2-y,z
loop_
_atom_site_type_symbol
_atom_site_label
_atom_site_fract_x
_atom_site_fract_y
_atom_site_fract_z
Si Si1 0.779255 0.075909 0.591817
Si Si2 0.043989 0.923139 0.970314
Si Si3 0.346877 0.927529 0.678490
Si Si4 0.383795 0.923060 0.201105
Si Si5 0.558240 0.927626 0.644131
Si Si6 0.887707 0.573715 0.555468
Si Si7 0.113755 0.923210 0.613060
Si Si8 0.819037 0.425376 0.745417
O O1 0.792542 0.250000 0.584022
O O2 0.609073 0.021290 0.476884
O O3 0.837584 0.044863 0.691374
O O4 0.884092 0.980567 0.617222
O O5 0.994948 0.750000 0.942459
O O6 0.219230 0.940288 0.070698
O O7 0.960230 0.000789 0.865470
O O8 0.000000 0.000000 0.000000
O O9 0.372768 0.750000 0.687050
O O10 0.280707 0.968399 0.698846
O O11 0.503373 0.013263 0.773540
O O12 0.235892 0.982895 0.558648
O O13 0.420905 0.750000 0.238632
O O14 0.396523 0.019497 0.265397
O O15 0.577976 0.750000 0.652673
O O16 0.664213 0.003646 0.666256
O O17 0.849892 0.750000 0.527337
O O18 0.057633 0.540897 0.640684
O O19 0.095652 0.750000 0.588582
O O20 0.000000 0.000000 0.500000
O O21 0.814952 0.250000 0.757609
#
# Coordination Sequence:
#
# PCOD8068897 Si02
#       8
#     4   4   4   4   4   4   4   4
#     4  10  22  36  50  73 104 137 170 207 249 297
#     4  11  23  38  56  74  97 129 169 215 259 301
#     4  10  18  30  48  71 103 135 166 204 248 300
#     4  11  22  34  51  76 102 131 169 211 252 296
#     4  11  21  34  53  74 101 136 171 205 249 300
#     4  10  18  29  48  72 101 136 170 203 243 294
#     4   8  16  28  43  68  99 132 166 200 241 292
#     4  11  23  38  54  73 100 132 172 215 252 297
#
# _framework density 16.854876000000001
#
# number of rings (size 3 to 8) (size 9 to 14) (size 15 to 20)
#    0.000    1.750    2.500    2.625    0.000    4.000 
#    0.000    0.000    0.000    0.000    0.000    0.875 
#    0.000    0.000    0.000    0.000    0.000    0.000 
#
# Total GULP energy -396672.799249 kJ/mol
# GULP energy per Si atom -12396.024977 kJ/mol
# Density = 1.681651 g / cm^3
# Si number density = 16.854876 Si / 1000 Ang^3
#
#
#
# Elastic Constant Matrix: (Units=GPa)
#
#
# Indices 1 2 3 4 5 6 
#
# 1 134.9252 54.4626 45.8678 0.0000 14.7922 0.0000
# 2 54.4626 79.2785 33.3470 0.0000 2.8197 0.0000
# 3 45.8678 33.3470 61.4798 0.0000 -5.7701 0.0000
# 4 0.0000 0.0000 0.0000 23.8111 0.0000 1.4682
# 5 14.7922 2.8197 -5.7701 0.0000 20.8958 0.0000
# 6 0.0000 0.0000 0.0000 1.4682 0.0000 27.5266
#
#
#
# Elastic Compliance Matrix: (Units=1/GPa)
#
#
# Indices 1 2 3 4 5 6 
#
# 1 0.013680 -0.005523 -0.008264 0.000000 -0.011221 0.000000
# 2 -0.005523 0.019050 -0.006249 0.000000 -0.000386 0.000000
# 3 -0.008264 -0.006249 0.027152 0.000000 0.014191 0.000000
# 4 0.000000 0.000000 0.000000 0.042136 0.000000 -0.002247
# 5 -0.011221 -0.000386 0.014191 0.000000 0.059770 0.000000
# 6 0.000000 0.000000 0.000000 -0.002247 0.000000 0.036448
#
#
# Mechanical properties :
#
#
# Convention : Reuss Voigt Hill
#
# Bulk Modulus (GPa) = 50.47575 60.33760 55.40667
# Shear Modulus (GPa) = 20.41553 23.91379 22.16466
#
# Velocity S-wave (km/s) = 3.48408 3.77079 3.63027
# Velocity P-wave (km/s) = 6.79687 7.40503 7.10746
#
# Compressibility (1/GPa) = 0.01981149
#
# Stress axis : x y z
#
# Youngs Moduli (GPa) = 73.09769 52.49338 36.82973
#
# Poissons Ratio (x) = 0.28992 0.30435
# Poissons Ratio (y) = 0.40372 0.23014
# Poissons Ratio (z) = 0.60407 0.32801
#
# Static dielectric constant tensor:
#      x y z
#    x 3.691340 0.000000 0.278020 
#    y 0.000000 3.320030 0.000000 
#    z 0.278020 0.000000 2.949690 
# 
# 
# High freq. dielectric constant tensor:
#      x y z
#    x 1.659290 0.000000 0.016400 
#    y 0.000000 1.667640 0.000000 
#    z 0.016400 0.000000 1.609910 
# 
# From -- ./inp_files/44536.got.cif
#   From: 2010.06.25/outbox.cif.g09.slc.cpg/sg11_23_cif.got.tgz:44536.got - 2010.06.27 23:14:04.
