data_PCOD8068734
_publ_section_title
;
Structure prediction by ZEFSAII (Michael W. Deem and Ramdas Pophale) SiO2 
 PCOD8068734
Probable space group: P 21/M
;
_chemical_formula_sum "Si O2"
_cell_formula_units_Z 32
_cell_length_a 12.487205
_cell_length_b 9.248780
_cell_length_c 26.797068
_cell_angle_alpha 90.000000
_cell_angle_beta 141.998038
_cell_angle_gamma 90.000000
_cell_volume 1905.451863
_symmetry_space_group_name_H-M "P 21/M"
_symmetry_group_IT_number 11
_symmetry_cell_setting 'monoclinic'
loop_
_space_group_symop_operation_xyz
x,y,z
-x,1/2+y,-z
-x,-y,-z
x,1/2-y,z
loop_
_atom_site_type_symbol
_atom_site_label
_atom_site_fract_x
_atom_site_fract_y
_atom_site_fract_z
Si Si1 0.399779 0.581141 0.506446
Si Si2 0.491492 0.412104 0.046671
Si Si3 0.903796 0.922450 0.643024
Si Si4 0.846656 0.913407 0.014394
Si Si5 0.614974 0.579048 0.839819
Si Si6 0.733512 0.917081 0.683199
Si Si7 0.173788 0.421804 0.174986
Si Si8 0.296074 0.577941 0.782647
O O1 0.500000 0.500000 0.500000
O O2 0.374336 0.750000 0.484452
O O3 0.213029 0.501770 0.442454
O O4 0.524076 0.561696 0.600493
O O5 0.550158 0.250000 0.055665
O O6 0.624855 0.479218 0.136175
O O7 0.500000 0.500000 0.000000
O O8 0.296630 0.415639 0.995203
O O9 0.882095 0.750000 0.629848
O O10 0.841491 0.977677 0.675156
O O11 0.099228 0.977567 0.704415
O O12 0.917072 0.750000 0.032719
O O13 0.763080 0.977305 0.932662
O O14 0.999717 0.016973 0.087621
O O15 0.611434 0.750000 0.845867
O O16 0.664549 0.533692 0.801732
O O17 0.421796 0.520682 0.783863
O O18 0.780274 0.750000 0.703514
O O19 0.791512 0.988764 0.757070
O O20 0.156758 0.250000 0.170752
O O21 0.295944 0.750000 0.783477
#
# Coordination Sequence:
#
# PCOD8068734 Si02
#       8
#     4   4   4   4   4   4   4   4
#     4   9  16  29  46  64  90 118 142 173 217 266
#     4   9  18  30  44  61  88 122 149 179 219 263
#     4   9  16  28  47  67  87 113 147 180 214 265
#     4   9  18  31  43  62  91 119 147 182 226 262
#     4   8  15  29  46  64  86 115 154 188 215 252
#     4   8  16  27  41  66  91 109 137 178 221 257
#     4  10  18  28  47  69  86 111 152 192 216 254
#     4   8  15  28  46  64  85 118 150 180 218 259
#
# _framework density 16.793915999999999
#
# number of rings (size 3 to 8) (size 9 to 14) (size 15 to 20)
#    0.000    3.250    0.000    3.000    1.750    0.500 
#    0.000    3.750    0.000    3.000    0.000    0.000 
#    0.000    0.000    0.000    0.000    0.000    0.500 
#
# Total GULP energy -396450.672434 kJ/mol
# GULP energy per Si atom -12389.083514 kJ/mol
# Density = 1.675569 g / cm^3
# Si number density = 16.793916 Si / 1000 Ang^3
#
#
#
# Elastic Constant Matrix: (Units=GPa)
#
#
# Indices 1 2 3 4 5 6 
#
# 1 70.6697 18.1547 54.0378 0.0000 6.9135 0.0000
# 2 18.1547 32.3491 21.0022 0.0000 4.1621 0.0000
# 3 54.0378 21.0022 103.4838 0.0000 21.6735 0.0000
# 4 0.0000 0.0000 0.0000 25.5146 0.0000 3.1114
# 5 6.9135 4.1621 21.6735 0.0000 25.3179 0.0000
# 6 0.0000 0.0000 0.0000 3.1114 0.0000 15.0020
#
#
#
# Elastic Compliance Matrix: (Units=1/GPa)
#
#
# Indices 1 2 3 4 5 6 
#
# 1 0.025186 -0.006401 -0.012956 0.000000 0.005265 0.000000
# 2 -0.006401 0.037234 -0.004019 0.000000 -0.000933 0.000000
# 3 -0.012956 -0.004019 0.019940 0.000000 -0.012871 0.000000
# 4 0.000000 0.000000 0.000000 0.040210 0.000000 -0.008339
# 5 0.005265 -0.000933 -0.012871 0.000000 0.049232 0.000000
# 6 0.000000 0.000000 0.000000 -0.008339 0.000000 0.068387
#
#
# Mechanical properties :
#
#
# Convention : Reuss Voigt Hill
#
# Bulk Modulus (GPa) = 28.08236 43.65466 35.86851
# Shear Modulus (GPa) = 16.73302 20.72076 18.72689
#
# Velocity S-wave (km/s) = 3.15996 3.51640 3.34293
# Velocity P-wave (km/s) = 5.48378 6.52208 6.02534
#
# Compressibility (1/GPa) = 0.03560954
#
# Stress axis : x y z
#
# Youngs Moduli (GPa) = 39.70448 26.85691 50.15068
#
# Poissons Ratio (x) = 0.17191 0.64973
# Poissons Ratio (y) = 0.25415 0.20155
# Poissons Ratio (z) = 0.51439 0.10793
#
# Static dielectric constant tensor:
#      x y z
#    x 3.355310 0.000000 0.161740 
#    y 0.000000 2.943300 0.000000 
#    z 0.161740 0.000000 3.579510 
# 
# 
# High freq. dielectric constant tensor:
#      x y z
#    x 1.635230 0.000000 0.008900 
#    y 0.000000 1.610050 0.000000 
#    z 0.008900 0.000000 1.645700 
# 
# From -- ./inp_files/49868.got.cif
#   From: 2010.06.25/outbox.cif.g09.slc.cpg/sg11_25_cif.got.tgz:49868.got - 2010.06.27 23:14:04.
