data_PCOD8068766
_publ_section_title
;
Structure prediction by ZEFSAII (Michael W. Deem and Ramdas Pophale) SiO2 
 PCOD8068766
Probable space group: P 21/M
;
_chemical_formula_sum "Si O2"
_cell_formula_units_Z 32
_cell_length_a 29.153742
_cell_length_b 8.978593
_cell_length_c 19.889783
_cell_angle_alpha 90.000000
_cell_angle_beta 156.794611
_cell_angle_gamma 90.000000
_cell_volume 2051.446121
_symmetry_space_group_name_H-M "P 21/M"
_symmetry_group_IT_number 11
_symmetry_cell_setting 'monoclinic'
loop_
_space_group_symop_operation_xyz
x,y,z
-x,1/2+y,-z
-x,-y,-z
x,1/2-y,z
loop_
_atom_site_type_symbol
_atom_site_label
_atom_site_fract_x
_atom_site_fract_y
_atom_site_fract_z
Si Si1 0.338452 0.079748 0.253555
Si Si2 0.551153 0.074544 0.724905
Si Si3 0.236034 0.923789 0.902967
Si Si4 0.063739 0.418217 0.893256
Si Si5 0.660280 0.074266 0.607425
Si Si6 0.103154 0.577078 0.601151
Si Si7 0.025011 0.425641 0.695775
Si Si8 0.073083 0.575482 0.040598
O O1 0.384315 0.250000 0.311935
O O2 0.385286 0.983758 0.255583
O O3 0.382277 0.002732 0.381015
O O4 0.200303 0.074932 0.064682
O O5 0.529389 0.250000 0.690256
O O6 0.426961 0.990740 0.567032
O O7 0.633063 0.032756 0.898955
O O8 0.215116 0.750000 0.887926
O O9 0.220650 0.963047 0.801702
O O10 0.141569 0.006512 0.821257
O O11 0.023490 0.250000 0.855505
O O12 0.003629 0.480340 0.743639
O O13 0.026713 0.520970 0.905734
O O14 0.646977 0.250000 0.596343
O O15 0.792246 0.029738 0.767374
O O16 0.078918 0.750000 0.573921
O O17 0.090726 0.532169 0.505205
O O18 0.000000 0.500000 0.500000
O O19 0.047218 0.250000 0.728466
O O20 0.054605 0.750000 0.019849
O O21 0.000000 0.500000 0.000000
#
# Coordination Sequence:
#
# PCOD8068766 Si02
#       8
#     4   4   4   4   4   4   4   4
#     4  10  18  29  43  59  84 115 146 180 214 246
#     4  11  20  28  40  59  86 118 150 181 211 246
#     4   9  17  26  37  56  84 118 151 182 214 246
#     4   9  17  28  44  66  88 113 145 178 212 253
#     4  10  21  34  46  62  82 107 141 175 212 255
#     4   8  14  24  37  54  79 112 148 182 213 245
#     4   9  15  25  41  60  83 113 149 183 213 247
#     4  10  21  36  53  68  84 107 134 172 218 264
#
# _framework density 15.598751999999999
#
# number of rings (size 3 to 8) (size 9 to 14) (size 15 to 20)
#    0.000    2.500    1.250    1.875    0.000    3.000 
#    0.000    0.000    0.000    0.000    0.000    0.000 
#    0.000    1.000    0.000    2.000    0.000    2.625 
#
# Total GULP energy -396459.919303 kJ/mol
# GULP energy per Si atom -12389.372478 kJ/mol
# Density = 1.556325 g / cm^3
# Si number density = 15.598752 Si / 1000 Ang^3
#
#
#
# Elastic Constant Matrix: (Units=GPa)
#
#
# Indices 1 2 3 4 5 6 
#
# 1 85.8520 29.9754 57.7552 0.0000 -21.8685 0.0000
# 2 29.9754 46.9955 33.3675 0.0000 -8.4289 0.0000
# 3 57.7552 33.3675 96.6983 0.0000 -33.5804 0.0000
# 4 0.0000 0.0000 0.0000 19.2758 0.0000 0.0316
# 5 -21.8685 -8.4289 -33.5804 0.0000 26.7781 0.0000
# 6 0.0000 0.0000 0.0000 0.0316 0.0000 19.8225
#
#
#
# Elastic Compliance Matrix: (Units=1/GPa)
#
#
# Indices 1 2 3 4 5 6 
#
# 1 0.020825 -0.006235 -0.008968 0.000000 0.003799 0.000000
# 2 -0.006235 0.030584 -0.009309 0.000000 -0.007138 0.000000
# 3 -0.008968 -0.009309 0.027190 0.000000 0.023843 0.000000
# 4 0.000000 0.000000 0.000000 0.051879 0.000000 -0.000083
# 5 0.003799 -0.007138 0.023843 0.000000 0.068099 0.000000
# 6 0.000000 0.000000 0.000000 -0.000083 0.000000 0.050448
#
#
# Mechanical properties :
#
#
# Convention : Reuss Voigt Hill
#
# Bulk Modulus (GPa) = 33.80980 52.41580 43.11280
# Shear Modulus (GPa) = 16.23870 20.40511 18.32191
#
# Velocity S-wave (km/s) = 3.22999 3.62072 3.43093
# Velocity P-wave (km/s) = 5.96927 7.15227 6.58738
#
# Compressibility (1/GPa) = 0.02957723
#
# Stress axis : x y z
#
# Youngs Moduli (GPa) = 48.01844 32.69651 36.77859
#
# Poissons Ratio (x) = 0.20385 0.32982
# Poissons Ratio (y) = 0.29937 0.34236
# Poissons Ratio (z) = 0.43062 0.30436
#
# Static dielectric constant tensor:
#      x y z
#    x 2.927330 0.000000 -0.572210 
#    y 0.000000 2.986740 0.000000 
#    z -0.572210 0.000000 3.434500 
# 
# 
# High freq. dielectric constant tensor:
#      x y z
#    x 1.558460 0.000000 -0.037870 
#    y 0.000000 1.608480 0.000000 
#    z -0.037870 0.000000 1.592140 
# 
# From -- ./inp_files/58689.got.cif
#   From: 2010.06.25/outbox.cif.g09.slc.cpg/sg11_30_cif.got.tgz:58689.got - 2010.06.27 23:14:04.
