data_PCOD8068323
_publ_section_title
;
Structure prediction by ZEFSAII (Michael W. Deem and Ramdas Pophale) SiO2 
 PCOD8068323
Probable space group: P 21/M
;
_chemical_formula_sum "Si O2"
_cell_formula_units_Z 32
_cell_length_a 16.266664
_cell_length_b 14.011757
_cell_length_c 22.270083
_cell_angle_alpha 90.000000
_cell_angle_beta 22.029802
_cell_angle_gamma 90.000000
_cell_volume 1903.912731
_symmetry_space_group_name_H-M "P 21/M"
_symmetry_group_IT_number 11
_symmetry_cell_setting 'monoclinic'
loop_
_space_group_symop_operation_xyz
x,y,z
-x,1/2+y,-z
-x,-y,-z
x,1/2-y,z
loop_
_atom_site_type_symbol
_atom_site_label
_atom_site_fract_x
_atom_site_fract_y
_atom_site_fract_z
Si Si1 0.663964 0.909105 0.028796
Si Si2 0.191899 0.973060 0.169722
Si Si3 0.147689 0.643489 0.718160
Si Si4 0.540457 0.854236 0.990033
Si Si5 0.734523 0.463314 0.244512
Si Si6 0.916944 0.857972 0.064516
Si Si7 0.281173 0.532583 0.513126
Si Si8 0.493643 0.359382 0.741719
O O1 0.522618 0.850878 0.074915
O O2 0.519690 0.918036 0.186596
O O3 0.885033 0.852785 0.896208
O O4 0.735258 0.010768 0.949825
O O5 0.305006 0.879172 0.119997
O O6 0.930388 0.964900 0.352514
O O7 0.276914 0.065943 0.150888
O O8 0.234193 0.750000 0.673256
O O9 0.243767 0.571152 0.702190
O O10 0.236880 0.612574 0.593095
O O11 0.610754 0.750000 0.918447
O O12 0.841301 0.569650 0.168283
O O13 0.480831 0.465031 0.397483
O O14 0.850998 0.390733 0.119572
O O15 0.935374 0.750000 0.077655
O O16 0.743190 0.863495 0.128602
O O17 0.327026 0.588253 0.420362
O O18 0.564351 0.250000 0.705478
#
# Coordination Sequence:
#
# PCOD8068323 Si02
#       8
#     4   4   4   4   4   4   4   4
#     4   9  17  29  52  77  97 121 164 208 248 293
#     4   8  19  33  50  78  98 126 163 203 249 300
#     4  11  19  31  51  75 103 132 170 213 248 294
#     4   9  16  32  57  76  94 125 165 205 247 296
#     4  10  19  31  49  73 101 140 169 203 251 298
#     4   9  18  32  49  72 100 132 173 212 246 289
#     4  10  21  32  45  73 110 135 159 205 257 291
#     4  10  17  28  48  76 100 126 162 208 256 291
#
# _framework density 16.807493999999998
#
# number of rings (size 3 to 8) (size 9 to 14) (size 15 to 20)
#    0.750    1.750    1.250    2.250    0.000    1.000 
#    0.000    1.875    0.000    3.000    0.000    0.000 
#    0.000    0.000    0.000    0.000    0.000    0.000 
#
# Total GULP energy -396546.539945 kJ/mol
# GULP energy per Si atom -12392.079373 kJ/mol
# Density = 1.676924 g / cm^3
# Si number density = 16.807494 Si / 1000 Ang^3
#
#
#
# Elastic Constant Matrix: (Units=GPa)
#
#
# Indices 1 2 3 4 5 6 
#
# 1 69.4460 24.2559 40.8217 0.0000 1.5301 0.0000
# 2 24.2559 67.9224 15.0480 0.0000 -2.9007 0.0000
# 3 40.8217 15.0480 78.9655 0.0000 2.5914 0.0000
# 4 0.0000 0.0000 0.0000 14.2827 0.0000 -0.2259
# 5 1.5301 -2.9007 2.5914 0.0000 26.5308 0.0000
# 6 0.0000 0.0000 0.0000 -0.2259 0.0000 11.0667
#
#
#
# Elastic Compliance Matrix: (Units=1/GPa)
#
#
# Indices 1 2 3 4 5 6 
#
# 1 0.022661 -0.005787 -0.010582 0.000000 -0.000906 0.000000
# 2 -0.005787 0.016953 -0.000312 0.000000 0.002218 0.000000
# 3 -0.010582 -0.000312 0.018233 0.000000 -0.001205 0.000000
# 4 0.000000 0.000000 0.000000 0.070037 0.000000 0.001430
# 5 -0.000906 0.002218 -0.001205 0.000000 0.038104 0.000000
# 6 0.000000 0.000000 0.000000 0.001430 0.000000 0.090390
#
#
# Mechanical properties :
#
#
# Convention : Reuss Voigt Hill
#
# Bulk Modulus (GPa) = 40.84051 41.84278 41.34165
# Shear Modulus (GPa) = 16.78395 19.45661 18.12028
#
# Velocity S-wave (km/s) = 3.16349 3.40607 3.28702
# Velocity P-wave (km/s) = 6.13965 6.35749 6.24952
#
# Compressibility (1/GPa) = 0.02448549
#
# Stress axis : x y z
#
# Youngs Moduli (GPa) = 44.12787 58.98649 54.84439
#
# Poissons Ratio (x) = 0.34135 0.58039
# Poissons Ratio (y) = 0.25536 0.01711
# Poissons Ratio (z) = 0.46698 0.01840
#
# Static dielectric constant tensor:
#      x y z
#    x 3.078280 0.000000 0.003560 
#    y 0.000000 3.014560 0.000000 
#    z 0.003560 0.000000 3.074560 
# 
# 
# High freq. dielectric constant tensor:
#      x y z
#    x 1.633680 0.000000 0.001200 
#    y 0.000000 1.628320 0.000000 
#    z 0.001200 0.000000 1.633900 
# 
# From -- ./inp_files/69679.got.cif
#   From: 2010.06.25/outbox.cif.g09.slc.cpg/sg11_35_cif.got.tgz:69679.got - 2010.06.27 23:14:04.
