data_PCOD8068377
_publ_section_title
;
Structure prediction by ZEFSAII (Michael W. Deem and Ramdas Pophale) SiO2 
 PCOD8068377
Probable space group: P 21/M
;
_chemical_formula_sum "Si O2"
_cell_formula_units_Z 32
_cell_length_a 14.374404
_cell_length_b 10.189952
_cell_length_c 28.896216
_cell_angle_alpha 90.000000
_cell_angle_beta 24.225557
_cell_angle_gamma 90.000000
_cell_volume 1736.745047
_symmetry_space_group_name_H-M "P 21/M"
_symmetry_group_IT_number 11
_symmetry_cell_setting 'monoclinic'
loop_
_space_group_symop_operation_xyz
x,y,z
-x,1/2+y,-z
-x,-y,-z
x,1/2-y,z
loop_
_atom_site_type_symbol
_atom_site_label
_atom_site_fract_x
_atom_site_fract_y
_atom_site_fract_z
Si Si1 0.886016 0.400068 0.295138
Si Si2 0.463230 0.605127 0.142033
Si Si3 0.033455 0.025204 0.643570
Si Si4 0.392683 0.904288 0.273152
Si Si5 0.027819 0.392589 0.419701
Si Si6 0.352997 0.404673 0.035395
Si Si7 0.508940 0.104494 0.673404
Si Si8 0.486532 0.897298 0.606837
O O1 0.874579 0.250000 0.316161
O O2 0.911111 0.483859 0.329711
O O3 0.656761 0.442659 0.372869
O O4 0.091605 0.424270 0.166485
O O5 0.560922 0.750000 0.099996
O O6 0.509731 0.543570 0.172065
O O7 0.194382 0.611076 0.252443
O O8 0.603385 0.539134 0.036523
O O9 0.248188 0.104195 0.525939
O O10 0.988521 0.904776 0.628931
O O11 0.325362 0.750000 0.298871
O O12 0.558790 0.925858 0.242059
O O13 0.165160 0.990386 0.381618
O O14 0.139367 0.250000 0.379394
O O15 0.779136 0.396101 0.553788
O O16 0.424835 0.250000 0.008180
O O17 0.500000 0.500000 0.000000
O O18 0.421024 0.250000 0.698229
O O19 0.418082 0.994835 0.679649
O O20 0.415641 0.750000 0.653903
#
# Coordination Sequence:
#
# PCOD8068377 Si02
#       8
#     4   4   4   4   4   4   4   4
#     4  10  20  33  50  71 100 135 168 201 245 293
#     4   9  17  29  48  74  99 124 160 201 244 290
#     4  10  17  30  48  69 102 132 161 196 243 291
#     4   9  17  29  46  68  95 126 161 202 246 292
#     4   9  17  26  41  68  97 126 159 194 240 295
#     4  10  19  34  53  74  99 130 163 202 244 292
#     4   9  18  32  47  65  93 130 166 202 245 291
#     4  10  21  34  49  72  99 132 170 207 242 286
#
# _framework density 18.425272
#
# number of rings (size 3 to 8) (size 9 to 14) (size 15 to 20)
#    0.000    2.500    1.250    1.500    0.000    4.000 
#    0.000    1.875    0.000    0.750    0.000    0.000 
#    0.000    0.000    0.000    0.000    0.000    0.000 
#
# Total GULP energy -396430.536859 kJ/mol
# GULP energy per Si atom -12388.454277 kJ/mol
# Density = 1.838334 g / cm^3
# Si number density = 18.425272 Si / 1000 Ang^3
#
#
#
# Elastic Constant Matrix: (Units=GPa)
#
#
# Indices 1 2 3 4 5 6 
#
# 1 104.7493 38.3219 18.8139 0.0000 28.4366 0.0000
# 2 38.3219 76.6943 4.6774 0.0000 9.1520 0.0000
# 3 18.8139 4.6774 43.1333 0.0000 13.7572 0.0000
# 4 0.0000 0.0000 0.0000 13.0095 0.0000 1.0859
# 5 28.4366 9.1520 13.7572 0.0000 28.7843 0.0000
# 6 0.0000 0.0000 0.0000 1.0859 0.0000 25.4537
#
#
#
# Elastic Compliance Matrix: (Units=1/GPa)
#
#
# Indices 1 2 3 4 5 6 
#
# 1 0.015546 -0.006160 -0.002170 0.000000 -0.012363 0.000000
# 2 -0.006160 0.015995 0.000747 0.000000 0.000643 0.000000
# 3 -0.002170 0.000747 0.027657 0.000000 -0.011313 0.000000
# 4 0.000000 0.000000 0.000000 0.077142 0.000000 -0.003291
# 5 -0.012363 0.000643 -0.011313 0.000000 0.052157 0.000000
# 6 0.000000 0.000000 0.000000 -0.003291 0.000000 0.039427
#
#
# Mechanical properties :
#
#
# Convention : Reuss Voigt Hill
#
# Bulk Modulus (GPa) = 22.71046 38.68925 30.69986
# Shear Modulus (GPa) = 19.39732 24.30040 21.84886
#
# Velocity S-wave (km/s) = 3.24814 3.63555 3.44729
# Velocity P-wave (km/s) = 5.14001 6.21824 5.70466
#
# Compressibility (1/GPa) = 0.04403256
#
# Stress axis : x y z
#
# Youngs Moduli (GPa) = 64.32437 62.52103 36.15661
#
# Poissons Ratio (x) = 0.38516 0.07846
# Poissons Ratio (y) = 0.39626 -0.02702
# Poissons Ratio (z) = 0.13958 -0.04673
#
# Static dielectric constant tensor:
#      x y z
#    x 3.472720 0.000000 0.360900 
#    y 0.000000 3.342720 0.000000 
#    z 0.360900 0.000000 3.350460 
# 
# 
# High freq. dielectric constant tensor:
#      x y z
#    x 1.714600 0.000000 0.031160 
#    y 0.000000 1.703500 0.000000 
#    z 0.031160 0.000000 1.686230 
# 
# From -- ./inp_files/68578.got.cif
#   From: 2010.06.25/outbox.cif.g09.slc.cpg/sg11_35_cif.got.tgz:68578.got - 2010.06.27 23:14:04.
