data_PCOD8068393
_publ_section_title
;
Structure prediction by ZEFSAII (Michael W. Deem and Ramdas Pophale) SiO2 
 PCOD8068393
Probable space group: P 21/M
;
_chemical_formula_sum "Si O2"
_cell_formula_units_Z 32
_cell_length_a 32.748267
_cell_length_b 9.027303
_cell_length_c 12.541305
_cell_angle_alpha 90.000000
_cell_angle_beta 26.918185
_cell_angle_gamma 90.000000
_cell_volume 1678.481573
_symmetry_space_group_name_H-M "P 21/M"
_symmetry_group_IT_number 11
_symmetry_cell_setting 'monoclinic'
loop_
_space_group_symop_operation_xyz
x,y,z
-x,1/2+y,-z
-x,-y,-z
x,1/2-y,z
loop_
_atom_site_type_symbol
_atom_site_label
_atom_site_fract_x
_atom_site_fract_y
_atom_site_fract_z
Si Si1 0.903903 0.924698 0.001243
Si Si2 0.285280 0.574511 0.028876
Si Si3 0.616505 0.426032 0.410322
Si Si4 0.429429 0.924856 0.868144
Si Si5 0.900567 0.424522 0.453273
Si Si6 0.339170 0.083671 0.260479
Si Si7 0.713085 0.924387 0.379566
Si Si8 0.863612 0.918063 0.326200
O O1 0.890228 0.750000 0.045396
O O2 0.818201 0.979721 0.131607
O O3 0.900211 0.987458 0.130286
O O4 0.001491 0.966475 0.722227
O O5 0.281850 0.750000 0.035958
O O6 0.183829 0.509031 0.283536
O O7 0.321066 0.516668 0.832234
O O8 0.350260 0.521973 0.973046
O O9 0.607642 0.250000 0.432190
O O10 0.519136 0.496100 0.618724
O O11 0.659266 0.480732 0.420130
O O12 0.444318 0.750000 0.831285
O O13 0.407214 0.973923 0.040958
O O14 0.890178 0.250000 0.471539
O O15 0.902002 0.481198 0.329867
O O16 0.378153 0.250000 0.161856
O O17 0.329688 0.037751 0.405970
O O18 0.244081 0.074496 0.422763
O O19 0.704664 0.750000 0.373662
O O20 0.896645 0.750000 0.267112
#
# Coordination Sequence:
#
# PCOD8068393 Si02
#       8
#     4   4   4   4   4   4   4   4
#     4   8  16  30  52  77 106 142 175 208 255 310
#     4   9  20  36  54  79 110 138 173 219 265 313
#     4  11  23  39  56  75 102 141 182 223 270 312
#     4  11  21  36  58  83 107 133 173 220 266 323
#     4  10  17  30  52  78 106 140 175 210 257 312
#     4   9  18  33  54  79 111 143 169 211 267 314
#     4   9  19  38  57  77 107 143 183 218 252 308
#     4   9  16  28  46  76 112 141 168 206 257 310
#
# _framework density 19.064851000000001
#
# number of rings (size 3 to 8) (size 9 to 14) (size 15 to 20)
#    0.000    2.500    1.250    3.000    0.000    1.000 
#    0.000    6.250    0.000    0.000    0.000    0.000 
#    0.000    0.000    0.000    0.000    0.000    0.000 
#
# Total GULP energy -396634.340157 kJ/mol
# GULP energy per Si atom -12394.823130 kJ/mol
# Density = 1.902146 g / cm^3
# Si number density = 19.064851 Si / 1000 Ang^3
#
#
#
# Elastic Constant Matrix: (Units=GPa)
#
#
# Indices 1 2 3 4 5 6 
#
# 1 55.7630 17.9211 20.9410 0.0000 8.7587 0.0000
# 2 17.9211 43.3252 27.3219 0.0000 3.5114 0.0000
# 3 20.9410 27.3219 111.2882 0.0000 -0.2134 0.0000
# 4 0.0000 0.0000 0.0000 19.1279 0.0000 2.1540
# 5 8.7587 3.5114 -0.2134 0.0000 16.8438 0.0000
# 6 0.0000 0.0000 0.0000 2.1540 0.0000 20.7854
#
#
#
# Elastic Compliance Matrix: (Units=1/GPa)
#
#
# Indices 1 2 3 4 5 6 
#
# 1 0.022778 -0.006935 -0.002604 0.000000 -0.010432 0.000000
# 2 -0.006935 0.029995 -0.006064 0.000000 -0.002724 0.000000
# 3 -0.002604 -0.006064 0.010970 0.000000 0.002757 0.000000
# 4 0.000000 0.000000 0.000000 0.052897 0.000000 -0.005482
# 5 -0.010432 -0.002724 0.002757 0.000000 0.065396 0.000000
# 6 0.000000 0.000000 0.000000 -0.005482 0.000000 0.048679
#
#
# Mechanical properties :
#
#
# Convention : Reuss Voigt Hill
#
# Bulk Modulus (GPa) = 30.73376 38.08270 34.40823
# Shear Modulus (GPa) = 18.33082 20.96425 19.64753
#
# Velocity S-wave (km/s) = 3.10417 3.31966 3.21372
# Velocity P-wave (km/s) = 5.38548 5.89171 5.64428
#
# Compressibility (1/GPa) = 0.03253751
#
# Stress axis : x y z
#
# Youngs Moduli (GPa) = 43.90215 33.33925 91.16023
#
# Poissons Ratio (x) = 0.23119 0.23735
# Poissons Ratio (y) = 0.30444 0.55282
# Poissons Ratio (z) = 0.11430 0.20218
#
# Static dielectric constant tensor:
#      x y z
#    x 3.338080 0.000000 -0.092260 
#    y 0.000000 3.183890 0.000000 
#    z -0.092260 0.000000 3.864630 
# 
# 
# High freq. dielectric constant tensor:
#      x y z
#    x 1.723670 0.000000 -0.008990 
#    y 0.000000 1.712890 0.000000 
#    z -0.008990 0.000000 1.755050 
# 
# From -- ./inp_files/45130.got.cif
#   From: 2010.06.25/outbox.cif.g09.slc.cpg/sg11_23_cif.got.tgz:45130.got - 2010.06.27 23:14:04.
