data_PCOD8068362
_publ_section_title
;
Structure prediction by ZEFSAII (Michael W. Deem and Ramdas Pophale) SiO2 
 PCOD8068362
Probable space group: P 21/M
;
_chemical_formula_sum "Si O2"
_cell_formula_units_Z 28
_cell_length_a 8.886427
_cell_length_b 16.707246
_cell_length_c 15.398149
_cell_angle_alpha 90.000000
_cell_angle_beta 138.581575
_cell_angle_gamma 90.000000
_cell_volume 1512.395019
_symmetry_space_group_name_H-M "P 21/M"
_symmetry_group_IT_number 11
_symmetry_cell_setting 'monoclinic'
loop_
_space_group_symop_operation_xyz
x,y,z
-x,1/2+y,-z
-x,-y,-z
x,1/2-y,z
loop_
_atom_site_type_symbol
_atom_site_label
_atom_site_fract_x
_atom_site_fract_y
_atom_site_fract_z
Si Si1 0.286422 0.661831 0.285214
Si Si2 0.364604 0.509832 0.213627
Si Si3 0.167616 0.004643 0.494540
Si Si4 0.241407 0.340878 0.425900
Si Si5 0.950212 0.917122 0.252439
Si Si6 0.023117 0.077351 0.176097
Si Si7 0.540847 0.055721 0.935078
O O1 0.296253 0.750000 0.247872
O O2 0.294863 0.600660 0.208369
O O3 0.489096 0.649020 0.442804
O O4 0.054344 0.654094 0.240179
O O5 0.576664 0.487367 0.365817
O O6 0.163832 0.446796 0.150088
O O7 0.427295 0.503276 0.139230
O O8 0.122857 0.093357 0.435765
O O9 0.000000 0.000000 0.500000
O O10 0.106612 0.932847 0.403460
O O11 0.163567 0.250000 0.415272
O O12 0.168973 0.359394 0.295005
O O13 0.693497 0.893345 0.171833
O O14 0.966701 0.997047 0.203109
O O15 0.769026 0.110799 0.042624
O O16 0.500000 0.000000 0.000000
#
# Coordination Sequence:
#
# PCOD8068362 Si02
#       7
#     4   4   4   4   4   4   4
#     4   9  18  33  52  73 101 129 163 212 260 305
#     4  10  18  31  52  78  99 131 175 214 255 298
#     4  10  17  29  52  78 104 129 166 218 260 307
#     4   9  18  33  52  74 101 134 167 205 258 313
#     4   9  17  31  49  76 102 128 167 207 257 297
#     4   9  18  31  51  73  98 134 172 207 240 298
#     4  10  19  31  49  76 104 132 168 215 252 296
#
# _framework density 18.513680000000001
#
# number of rings (size 3 to 8) (size 9 to 14) (size 15 to 20)
#    0.000    2.571    1.429    1.286    0.000    3.429 
#    0.000    2.857    0.000    0.857    0.000    0.000 
#    0.000    0.000    0.000    0.000    0.000    0.000 
#
# Total GULP energy -346883.399736 kJ/mol
# GULP energy per Si atom -12388.692848 kJ/mol
# Density = 1.847154 g / cm^3
# Si number density = 18.513680 Si / 1000 Ang^3
#
#
#
# Elastic Constant Matrix: (Units=GPa)
#
#
# Indices 1 2 3 4 5 6 
#
# 1 124.3986 26.0857 41.9110 0.0000 2.7281 0.0000
# 2 26.0857 58.8593 19.0619 0.0000 2.6560 0.0000
# 3 41.9110 19.0619 82.1032 0.0000 1.7062 0.0000
# 4 0.0000 0.0000 0.0000 11.4472 0.0000 -2.0374
# 5 2.7281 2.6560 1.7062 0.0000 34.4111 0.0000
# 6 0.0000 0.0000 0.0000 -2.0374 0.0000 16.0612
#
#
#
# Elastic Compliance Matrix: (Units=1/GPa)
#
#
# Indices 1 2 3 4 5 6 
#
# 1 0.010199 -0.003050 -0.004491 0.000000 -0.000351 0.000000
# 2 -0.003050 0.019333 -0.002909 0.000000 -0.001106 0.000000
# 3 -0.004491 -0.002909 0.015151 0.000000 -0.000171 0.000000
# 4 0.000000 0.000000 0.000000 0.089376 0.000000 0.011337
# 5 -0.000351 -0.001106 -0.000171 0.000000 0.029182 0.000000
# 6 0.000000 0.000000 0.000000 0.011337 0.000000 0.063700
#
#
# Mechanical properties :
#
#
# Convention : Reuss Voigt Hill
#
# Bulk Modulus (GPa) = 42.04445 48.83093 45.43769
# Shear Modulus (GPa) = 19.54897 24.27072 21.90985
#
# Velocity S-wave (km/s) = 3.25302 3.62465 3.44385
# Velocity P-wave (km/s) = 6.07196 6.62950 6.35685
#
# Compressibility (1/GPa) = 0.02378435
#
# Stress axis : x y z
#
# Youngs Moduli (GPa) = 98.04989 51.72437 66.00182
#
# Poissons Ratio (x) = 0.15775 0.29640
# Poissons Ratio (y) = 0.29903 0.19199
# Poissons Ratio (z) = 0.44033 0.15046
#
# Static dielectric constant tensor:
#      x y z
#    x 3.581700 0.000000 0.210020 
#    y 0.000000 3.036960 0.000000 
#    z 0.210020 0.000000 3.415660 
# 
# 
# High freq. dielectric constant tensor:
#      x y z
#    x 1.721500 0.000000 0.008950 
#    y 0.000000 1.665050 0.000000 
#    z 0.008950 0.000000 1.730780 
# 
# From -- ./inp_files/22795.got.cif
#   From: 2010.06.25/outbox.cif.g09.slc.cpg/sg11_12_cif.got.tgz:22795.got - 2010.06.27 23:14:04.
