data_PCOD8068394
_publ_section_title
;
Structure prediction by ZEFSAII (Michael W. Deem and Ramdas Pophale) SiO2 
 PCOD8068394
Probable space group: P 21/M
;
_chemical_formula_sum "Si O2"
_cell_formula_units_Z 32
_cell_length_a 21.566595
_cell_length_b 13.283573
_cell_length_c 11.516717
_cell_angle_alpha 90.000000
_cell_angle_beta 26.988872
_cell_angle_gamma 90.000000
_cell_volume 1497.291523
_symmetry_space_group_name_H-M "P 21/M"
_symmetry_group_IT_number 11
_symmetry_cell_setting 'monoclinic'
loop_
_space_group_symop_operation_xyz
x,y,z
-x,1/2+y,-z
-x,-y,-z
x,1/2-y,z
loop_
_atom_site_type_symbol
_atom_site_label
_atom_site_fract_x
_atom_site_fract_y
_atom_site_fract_z
Si Si1 0.172094 0.634845 0.743069
Si Si2 0.417369 0.004243 0.322221
Si Si3 0.047544 0.863587 0.184214
Si Si4 0.126083 0.483246 0.375617
Si Si5 0.284217 0.506407 0.895309
Si Si6 0.790643 0.362508 0.572592
Si Si7 0.525084 0.864272 0.971366
Si Si8 0.468960 0.130453 0.454543
O O1 0.230785 0.750000 0.646303
O O2 0.289272 0.556764 0.588421
O O3 0.129509 0.608896 0.681413
O O4 0.046722 0.625707 0.044243
O O5 0.528562 0.922170 0.089510
O O6 0.482852 0.077079 0.307279
O O7 0.375052 0.077485 0.284696
O O8 0.089026 0.750000 0.149286
O O9 0.902432 0.889401 0.488199
O O10 0.151642 0.945434 0.059647
O O11 0.151695 0.577447 0.415590
O O12 0.000000 0.500000 0.500000
O O13 0.256689 0.469347 0.073709
O O14 0.399670 0.593241 0.692763
O O15 0.331331 0.406310 0.748220
O O16 0.826217 0.250000 0.549020
O O17 0.629220 0.374648 0.820145
O O18 0.573983 0.750000 0.905121
O O19 0.467647 0.250000 0.442101
#
# Coordination Sequence:
#
# PCOD8068394 Si02
#       8
#     4   4   4   4   4   4   4   4
#     4   9  18  34  59  85 111 148 193 236 287 349
#     4  10  17  30  52  81 118 148 187 236 283 333
#     4  10  20  38  61  82 111 153 196 239 289 348
#     4  10  22  36  57  85 111 147 193 240 286 337
#     4  10  22  40  56  84 119 153 198 239 293 337
#     4   9  18  35  58  83 110 144 189 237 284 342
#     4   9  18  31  53  84 114 152 192 229 283 349
#     4  11  22  36  59  87 117 154 195 239 287 347
#
# _framework density 21.371922999999999
#
# number of rings (size 3 to 8) (size 9 to 14) (size 15 to 20)
#    0.000    2.250    1.250    2.625    0.000    4.500 
#    0.000    2.500    0.000   16.500    0.000    0.000 
#    0.000    0.000    0.000    0.000    0.000    0.000 
#
# Total GULP energy -396462.242131 kJ/mol
# GULP energy per Si atom -12389.445067 kJ/mol
# Density = 2.132328 g / cm^3
# Si number density = 21.371923 Si / 1000 Ang^3
#
#
#
# Elastic Constant Matrix: (Units=GPa)
#
#
# Indices 1 2 3 4 5 6 
#
# 1 64.1039 27.7351 17.2334 0.0000 21.8926 0.0000
# 2 27.7351 129.1771 37.6888 0.0000 15.6612 0.0000
# 3 17.2334 37.6888 101.2120 0.0000 36.1247 0.0000
# 4 0.0000 0.0000 0.0000 26.9744 0.0000 4.8173
# 5 21.8926 15.6612 36.1247 0.0000 32.7084 0.0000
# 6 0.0000 0.0000 0.0000 4.8173 0.0000 32.1917
#
#
#
# Elastic Compliance Matrix: (Units=1/GPa)
#
#
# Indices 1 2 3 4 5 6 
#
# 1 0.022059 -0.003756 0.003748 0.000000 -0.017106 0.000000
# 2 -0.003756 0.009343 -0.003533 0.000000 0.001942 0.000000
# 3 0.003748 -0.003533 0.017909 0.000000 -0.020597 0.000000
# 4 0.000000 0.000000 0.000000 0.038090 0.000000 -0.005700
# 5 -0.017106 0.001942 -0.020597 0.000000 0.063840 0.000000
# 6 0.000000 0.000000 0.000000 -0.005700 0.000000 0.031917
#
#
# Mechanical properties :
#
#
# Convention : Reuss Voigt Hill
#
# Bulk Modulus (GPa) = 23.68001 51.08974 37.38487
# Shear Modulus (GPa) = 24.47188 32.49728 28.48458
#
# Velocity S-wave (km/s) = 3.38753 3.90367 3.65472
# Velocity P-wave (km/s) = 5.13853 6.65395 5.94473
#
# Compressibility (1/GPa) = 0.04222971
#
# Stress axis : x y z
#
# Youngs Moduli (GPa) = 45.33301 107.03230 55.83802
#
# Poissons Ratio (x) = 0.40200 -0.20928
# Poissons Ratio (y) = 0.17026 0.19726
# Poissons Ratio (z) = -0.16991 0.37812
#
# Static dielectric constant tensor:
#      x y z
#    x 3.601340 0.000000 0.508250 
#    y 0.000000 3.930780 0.000000 
#    z 0.508250 0.000000 4.290860 
# 
# 
# High freq. dielectric constant tensor:
#      x y z
#    x 1.815110 0.000000 0.039930 
#    y 0.000000 1.839210 0.000000 
#    z 0.039930 0.000000 1.837260 
# 
# From -- ./inp_files/44201.got.cif
#   From: 2010.06.25/outbox.cif.g09.slc.cpg/sg11_23_cif.got.tgz:44201.got - 2010.06.27 23:14:04.
