data_PCOD8068706
_publ_section_title
;
Structure prediction by ZEFSAII (Michael W. Deem and Ramdas Pophale) SiO2 
 PCOD8068706
Probable space group: P 21/M
;
_chemical_formula_sum "Si O2"
_cell_formula_units_Z 28
_cell_length_a 16.907068
_cell_length_b 9.186722
_cell_length_c 19.749022
_cell_angle_alpha 90.000000
_cell_angle_beta 148.463737
_cell_angle_gamma 90.000000
_cell_volume 1604.382055
_symmetry_space_group_name_H-M "P 21/M"
_symmetry_group_IT_number 11
_symmetry_cell_setting 'monoclinic'
loop_
_space_group_symop_operation_xyz
x,y,z
-x,1/2+y,-z
-x,-y,-z
x,1/2-y,z
loop_
_atom_site_type_symbol
_atom_site_label
_atom_site_fract_x
_atom_site_fract_y
_atom_site_fract_z
Si Si1 0.871674 0.083833 0.368873
Si Si2 0.304795 0.579174 0.636830
Si Si3 0.964458 0.921149 0.638632
Si Si4 0.072885 0.422739 0.988922
Si Si5 0.432430 0.920417 0.514111
Si Si6 0.412849 0.422033 0.237112
Si Si7 0.082454 0.919660 0.263541
O O1 0.914161 0.250000 0.410248
O O2 0.716077 0.049917 0.296831
O O3 0.884527 0.047980 0.297958
O O4 0.000000 0.000000 0.500000
O O5 0.284132 0.750000 0.603795
O O6 0.183009 0.492541 0.503272
O O7 0.474189 0.527300 0.740811
O O8 0.934566 0.750000 0.625653
O O9 0.000728 0.991984 0.737571
O O10 0.067189 0.250000 0.996656
O O11 0.243878 0.482284 0.103461
O O12 0.000000 0.500000 0.000000
O O13 0.981884 0.469368 0.855731
O O14 0.455793 0.750000 0.520946
O O15 0.520096 0.980571 0.643471
O O16 0.257727 0.960225 0.394241
O O17 0.500000 0.000000 0.500000
O O18 0.405331 0.250000 0.233502
O O19 0.052047 0.750000 0.253540
#
# Coordination Sequence:
#
# PCOD8068706 Si02
#       7
#     4   4   4   4   4   4   4
#     4   8  15  25  42  69  98 127 156 191 236 285
#     4   9  15  29  50  70  98 131 159 193 241 289
#     4  10  18  28  45  74 103 125 159 201 239 281
#     4  10  21  36  53  72  95 125 164 202 239 289
#     4  10  19  31  47  68  92 118 152 193 239 284
#     4   9  17  31  51  71  93 123 160 197 233 284
#     4  10  20  34  50  69  96 130 163 194 236 292
#
# _framework density 17.452200999999999
#
# number of rings (size 3 to 8) (size 9 to 14) (size 15 to 20)
#    0.000    2.571    1.429    1.286    0.000    1.714 
#    0.000    0.714    0.000    0.857    0.000    0.000 
#    0.000    0.000    0.000    0.000    0.000    0.714 
#
# Total GULP energy -346927.031403 kJ/mol
# GULP energy per Si atom -12390.251122 kJ/mol
# Density = 1.741248 g / cm^3
# Si number density = 17.452201 Si / 1000 Ang^3
#
#
#
# Elastic Constant Matrix: (Units=GPa)
#
#
# Indices 1 2 3 4 5 6 
#
# 1 167.1295 50.8016 39.2659 0.0000 -2.7444 0.0000
# 2 50.8016 38.9655 23.6294 0.0000 -4.5469 0.0000
# 3 39.2659 23.6294 74.0825 0.0000 -3.5641 0.0000
# 4 0.0000 0.0000 0.0000 10.8550 0.0000 -4.0474
# 5 -2.7444 -4.5469 -3.5641 0.0000 24.9318 0.0000
# 6 0.0000 0.0000 0.0000 -4.0474 0.0000 29.6485
#
#
#
# Elastic Compliance Matrix: (Units=1/GPa)
#
#
# Indices 1 2 3 4 5 6 
#
# 1 0.010075 -0.012419 -0.001445 0.000000 -0.001362 0.000000
# 2 -0.012419 0.047608 -0.008308 0.000000 0.006128 0.000000
# 3 -0.001445 -0.008308 0.016950 0.000000 0.000749 0.000000
# 4 0.000000 0.000000 0.000000 0.097064 0.000000 0.013251
# 5 -0.001362 0.006128 0.000749 0.000000 0.041184 0.000000
# 6 0.000000 0.000000 0.000000 0.013251 0.000000 0.035537
#
#
# Mechanical properties :
#
#
# Convention : Reuss Voigt Hill
#
# Bulk Modulus (GPa) = 33.01346 56.39678 44.70512
# Shear Modulus (GPa) = 16.50940 24.18577 20.34758
#
# Velocity S-wave (km/s) = 3.07901 3.72671 3.41824
# Velocity P-wave (km/s) = 5.62121 7.13463 6.42265
#
# Compressibility (1/GPa) = 0.03029067
#
# Stress axis : x y z
#
# Youngs Moduli (GPa) = 99.25309 21.00500 58.99659
#
# Poissons Ratio (x) = 0.26085 0.08523
# Poissons Ratio (y) = 1.23258 0.49014
# Poissons Ratio (z) = 0.14339 0.17451
#
# Static dielectric constant tensor:
#      x y z
#    x 3.895240 0.000000 0.073950 
#    y 0.000000 3.064550 0.000000 
#    z 0.073950 0.000000 3.120840 
# 
# 
# High freq. dielectric constant tensor:
#      x y z
#    x 1.701720 0.000000 0.001850 
#    y 0.000000 1.658890 0.000000 
#    z 0.001850 0.000000 1.635480 
# 
# From -- ./inp_files/61253.got.cif
#   From: 2010.06.25/outbox.cif.g09.slc.cpg/sg11_31_cif.got.tgz:61253.got - 2010.06.27 23:14:04.
