data_PCOD8068008
_publ_section_title
;
Structure prediction by ZEFSAII (Michael W. Deem and Ramdas Pophale) SiO2 
 PCOD8068008
Probable space group: P 2/M
;
_chemical_formula_sum "Si O2"
_cell_formula_units_Z 28
_cell_length_a 23.788271
_cell_length_b 7.858426
_cell_length_c 19.555766
_cell_angle_alpha 90.000000
_cell_angle_beta 25.625597
_cell_angle_gamma 90.000000
_cell_volume 1581.058512
_symmetry_space_group_name_H-M "P 2/M"
_symmetry_group_IT_number 10
_symmetry_cell_setting 'monoclinic'
loop_
_space_group_symop_operation_xyz
x,y,z
-x,y,-z
-x,-y,-z
x,-y,z
loop_
_atom_site_type_symbol
_atom_site_label
_atom_site_fract_x
_atom_site_fract_y
_atom_site_fract_z
Si Si1 0.171686 0.000000 0.244934
Si Si2 0.076182 0.200264 0.734766
Si Si3 0.884706 0.311931 0.451949
Si Si4 0.781423 0.799378 0.039901
Si Si5 0.357793 0.202778 0.672617
Si Si6 0.190880 0.688322 0.135398
Si Si7 0.863351 0.000000 0.563525
Si Si8 0.867239 0.202455 0.177848
O O1 0.234915 0.831289 0.141523
O O2 0.207782 0.000000 0.285299
O O3 0.017538 0.000000 0.404096
O O4 0.149899 0.287435 0.590123
O O5 0.144931 0.258989 0.729602
O O6 0.085756 0.000000 0.712972
O O7 0.925847 0.256663 0.903736
O O8 0.838440 0.500000 0.526354
O O9 0.038363 0.291434 0.290469
O O10 0.817277 0.168637 0.573032
O O11 0.683412 0.736666 0.206410
O O12 0.775143 0.000000 0.036288
O O13 0.739226 0.714345 0.014475
O O14 0.500000 0.277252 0.500000
O O15 0.256087 0.275161 0.728346
O O16 0.357839 0.000000 0.669391
O O17 0.225361 0.500000 0.126031
O O18 0.871466 0.000000 0.167909
O O19 0.000000 0.276652 0.000000
#
# Coordination Sequence:
#
# PCOD8068008 Si02
#       8
#     2   4   4   4   4   4   2   4
#     4   9  16  26  38  56  80 111 146 181 215 265
#     4   9  14  22  39  56  77 107 148 190 221 262
#     4   9  16  25  37  56  81 110 144 181 222 266
#     4   9  14  23  39  55  77 110 145 185 228 267
#     4   9  16  24  36  59  88 115 148 192 238 277
#     4   9  16  25  38  57  79 107 146 186 221 259
#     4   9  16  26  38  54  82 114 144 174 221 271
#     4   9  14  22  36  59  81 110 153 192 230 271
#
# _framework density 17.709655000000001
#
# number of rings (size 3 to 8) (size 9 to 14) (size 15 to 20)
#    0.000    3.000    2.857    0.000    0.000    0.571 
#    0.000    2.857    0.000    1.714    0.000    0.000 
#    0.000    0.000    0.000    2.571    0.000    4.857 
#
# Total GULP energy -347026.298414 kJ/mol
# GULP energy per Si atom -12393.796372 kJ/mol
# Density = 1.766935 g / cm^3
# Si number density = 17.709655 Si / 1000 Ang^3
#
#
#
# Elastic Constant Matrix: (Units=GPa)
#
#
# Indices 1 2 3 4 5 6 
#
# 1 95.2933 45.7974 61.0123 0.0000 29.9854 0.0000
# 2 45.7974 87.9642 35.9160 0.0000 25.2429 0.0000
# 3 61.0123 35.9160 73.6210 0.0000 21.5018 0.0000
# 4 0.0000 0.0000 0.0000 4.5923 0.0000 2.6749
# 5 29.9854 25.2429 21.5018 0.0000 34.6901 0.0000
# 6 0.0000 0.0000 0.0000 2.6749 0.0000 5.4743
#
#
#
# Elastic Compliance Matrix: (Units=1/GPa)
#
#
# Indices 1 2 3 4 5 6 
#
# 1 0.026304 -0.004070 -0.017141 0.000000 -0.009151 0.000000
# 2 -0.004070 0.016558 -0.002703 0.000000 -0.006855 0.000000
# 3 -0.017141 -0.002703 0.029556 0.000000 -0.001536 0.000000
# 4 0.000000 0.000000 0.000000 0.304395 0.000000 -0.148739
# 5 -0.009151 -0.006855 -0.001536 0.000000 0.042677 0.000000
# 6 0.000000 0.000000 0.000000 -0.148739 0.000000 0.255352
#
#
# Mechanical properties :
#
#
# Convention : Reuss Voigt Hill
#
# Bulk Modulus (GPa) = 40.66638 60.25889 50.46263
# Shear Modulus (GPa) = 6.84120 16.56151 11.70135
#
# Velocity S-wave (km/s) = 1.96758 3.06137 2.57326
# Velocity P-wave (km/s) = 5.30797 6.82612 6.11434
#
# Compressibility (1/GPa) = 0.02459034
#
# Stress axis : x y z
#
# Youngs Moduli (GPa) = 38.01699 60.39324 33.83465
#
# Poissons Ratio (x) = 0.24582 0.57996
# Poissons Ratio (y) = 0.15474 0.09144
# Poissons Ratio (z) = 0.65165 0.16321
#
# Static dielectric constant tensor:
#      x y z
#    x 3.220730 0.000000 0.354410 
#    y 0.000000 3.150150 0.000000 
#    z 0.354410 0.000000 3.024120 
# 
# 
# High freq. dielectric constant tensor:
#      x y z
#    x 1.658020 0.000000 0.046280 
#    y 0.000000 1.674110 0.000000 
#    z 0.046280 0.000000 1.634470 
# 
# From -- ./inp_files/79861.got.cif
#   From: 2010.06.25/outbox.cif.g09.slc.cpg/sg10_40_cif.got.tgz:79861.got - 2010.06.27 22:07:45.
