data_PCOD8068720
_publ_section_title
;
Structure prediction by ZEFSAII (Michael W. Deem and Ramdas Pophale) SiO2 
 PCOD8068720
Probable space group: P 21/M
;
_chemical_formula_sum "Si O2"
_cell_formula_units_Z 32
_cell_length_a 10.896895
_cell_length_b 18.066570
_cell_length_c 12.601450
_cell_angle_alpha 90.000000
_cell_angle_beta 54.675059
_cell_angle_gamma 90.000000
_cell_volume 2024.083664
_symmetry_space_group_name_H-M "P 21/M"
_symmetry_group_IT_number 11
_symmetry_cell_setting 'monoclinic'
loop_
_space_group_symop_operation_xyz
x,y,z
-x,1/2+y,-z
-x,-y,-z
x,1/2-y,z
loop_
_atom_site_type_symbol
_atom_site_label
_atom_site_fract_x
_atom_site_fract_y
_atom_site_fract_z
Si Si1 0.323805 0.165960 0.866434
Si Si2 0.520424 0.946873 0.834195
Si Si3 0.323805 0.665960 0.809759
Si Si4 1.000000 0.990791 0.128717
Si Si5 0.696820 0.555756 0.944249
Si Si6 0.303180 0.555756 0.641067
Si Si7 0.000001 0.832543 0.074322
Si Si8 0.479575 0.946873 0.354619
O O1 0.377069 0.250000 0.846480
O O2 0.149149 0.158925 0.921893
O O3 0.437143 0.126465 0.728178
O O4 0.342705 0.130147 0.972394
O O5 0.437147 0.873535 0.834673
O O6 0.664211 0.927503 0.836206
O O7 0.576503 0.000001 0.711751
O O8 0.400007 0.987363 0.967061
O O9 0.377069 0.750000 0.776452
O O10 0.342701 0.630148 0.684900
O O11 0.149150 0.658925 0.928957
O O12 0.134596 0.031553 0.119208
O O13 0.865402 0.031551 0.253805
O O14 0.000001 0.902155 0.155670
O O15 0.000000 0.000000 0.000000
O O16 0.400012 0.487366 0.632930
O O17 0.335788 0.572496 0.500417
O O18 0.000002 0.750000 0.129044
#
# Coordination Sequence:
#
# PCOD8068720 Si02
#       8
#     4   4   4   4   4   4   4   4
#     4  10  18  29  46  70  98 123 152 200 250 289
#     4   9  18  32  46  65  97 127 161 200 233 285
#     4  10  18  29  46  70  98 123 152 200 250 289
#     4  12  16  30  51  70  95 126 155 206 259 277
#     4  10  18  29  49  71  90 126 165 196 240 292
#     4  10  18  29  49  71  90 126 165 196 240 292
#     4  10  18  28  46  72  98 118 151 198 247 293
#     4   9  18  32  46  65  97 127 161 200 233 285
#
# _framework density 15.809623999999999
#
# number of rings (size 3 to 8) (size 9 to 14) (size 15 to 20)
#    0.000    2.000    5.000    0.750    0.000    1.000 
#    0.000    0.625    0.000    0.000    0.000    0.000 
#    0.000    0.000    0.000    0.000    0.000    0.000 
#
# Total GULP energy -396545.291843 kJ/mol
# GULP energy per Si atom -12392.040370 kJ/mol
# Density = 1.577364 g / cm^3
# Si number density = 15.809624 Si / 1000 Ang^3
#
#
#
# Elastic Constant Matrix: (Units=GPa)
#
#
# Indices 1 2 3 4 5 6 
#
# 1 88.4494 43.5143 69.7071 0.0000 0.8226 0.0000
# 2 43.5143 135.1211 47.1853 0.0000 4.7605 0.0000
# 3 69.7071 47.1853 93.2730 0.0000 5.4286 0.0000
# 4 0.0000 0.0000 0.0000 13.3306 0.0000 -5.1031
# 5 0.8226 4.7605 5.4286 0.0000 15.6630 0.0000
# 6 0.0000 0.0000 0.0000 -5.1031 0.0000 17.2656
#
#
#
# Elastic Compliance Matrix: (Units=1/GPa)
#
#
# Indices 1 2 3 4 5 6 
#
# 1 0.028576 -0.002234 -0.020594 0.000000 0.006316 0.000000
# 2 -0.002234 0.009185 -0.002880 0.000000 -0.001676 0.000000
# 3 -0.020594 -0.002880 0.028020 0.000000 -0.007755 0.000000
# 4 0.000000 0.000000 0.000000 0.084586 0.000000 0.025000
# 5 0.006316 -0.001676 -0.007755 0.000000 0.066710 0.000000
# 6 0.000000 0.000000 0.000000 0.025000 0.000000 0.065308
#
#
# Mechanical properties :
#
#
# Convention : Reuss Voigt Hill
#
# Bulk Modulus (GPa) = 69.60514 70.85076 70.22795
# Shear Modulus (GPa) = 14.76724 19.68096 17.22410
#
# Velocity S-wave (km/s) = 3.05957 3.53210 3.30429
# Velocity P-wave (km/s) = 7.52356 7.84516 7.68604
#
# Compressibility (1/GPa) = 0.01436676
#
# Stress axis : x y z
#
# Youngs Moduli (GPa) = 34.99432 108.87677 35.68884
#
# Poissons Ratio (x) = 0.24319 0.73497
# Poissons Ratio (y) = 0.07816 0.10277
# Poissons Ratio (z) = 0.72067 0.31352
#
# Static dielectric constant tensor:
#      x y z
#    x 3.090720 0.000000 -0.032230 
#    y 0.000000 3.236910 0.000000 
#    z -0.032230 0.000000 3.065920 
# 
# 
# High freq. dielectric constant tensor:
#      x y z
#    x 1.592160 0.000000 -0.010070 
#    y 0.000000 1.616490 0.000000 
#    z -0.010070 0.000000 1.584400 
# 
# From -- ./inp_files/36004.got.cif
#   From: 2010.06.25/outbox.cif.g09.slc.cpg/sg11_19_cif.got.tgz:36004.got - 2010.06.27 23:14:04.
