data_PCOD8068340
_publ_section_title
;
Structure prediction by ZEFSAII (Michael W. Deem and Ramdas Pophale) SiO2 
 PCOD8068340
Probable space group: P 21/M
;
_chemical_formula_sum "Si O2"
_cell_formula_units_Z 32
_cell_length_a 20.192751
_cell_length_b 14.054551
_cell_length_c 13.312368
_cell_angle_alpha 90.000000
_cell_angle_beta 29.381768
_cell_angle_gamma 90.000000
_cell_volume 1853.611790
_symmetry_space_group_name_H-M "P 21/M"
_symmetry_group_IT_number 11
_symmetry_cell_setting 'monoclinic'
loop_
_space_group_symop_operation_xyz
x,y,z
-x,1/2+y,-z
-x,-y,-z
x,1/2-y,z
loop_
_atom_site_type_symbol
_atom_site_label
_atom_site_fract_x
_atom_site_fract_y
_atom_site_fract_z
Si Si1 0.371962 0.861061 0.185522
Si Si2 0.204650 0.856903 0.603214
Si Si3 0.881996 0.642472 0.369587
Si Si4 0.888490 0.858585 0.972827
Si Si5 0.806369 0.029105 0.724499
Si Si6 0.941929 0.001312 0.739846
Si Si7 0.325967 0.356814 0.183203
Si Si8 0.849218 0.532568 0.213644
O O1 0.372094 0.750000 0.166267
O O2 0.282810 0.889062 0.399743
O O3 0.312477 0.906243 0.162699
O O4 0.523722 0.898107 0.001944
O O5 0.248223 0.750000 0.580201
O O6 0.046859 0.859343 0.787971
O O7 0.237179 0.936187 0.646278
O O8 0.936755 0.750000 0.289945
O O9 0.746560 0.636887 0.613662
O O10 0.839792 0.607044 0.316342
O O11 0.002672 0.579430 0.255758
O O12 0.836587 0.750000 0.029232
O O13 0.865537 0.917288 0.900707
O O14 0.802889 0.911995 0.174068
O O15 0.837478 0.051750 0.800226
O O16 0.758474 0.919276 0.783823
O O17 0.939422 0.046699 0.482015
O O18 0.328400 0.250000 0.136991
O O19 0.000000 0.500000 0.000000
#
# Coordination Sequence:
#
# PCOD8068340 Si02
#       8
#     4   4   4   4   4   4   4   4
#     4  10  18  31  50  72  96 124 161 198 231 276
#     4   9  16  27  46  69  94 121 151 195 237 269
#     4  10  18  31  46  67  99 128 152 191 239 277
#     4  10  18  30  46  67  94 126 157 191 235 280
#     4  10  19  30  47  65  96 128 158 186 235 272
#     4  10  19  31  43  67  96 129 156 190 222 289
#     4   9  19  32  48  71  96 124 159 195 234 277
#     4  10  17  29  44  66  97 121 157 194 231 283
#
# _framework density 17.263593
#
# number of rings (size 3 to 8) (size 9 to 14) (size 15 to 20)
#    0.000    2.250    3.750    1.500    0.000    1.500 
#    0.000    2.500    0.000    0.000    0.000    3.500 
#    0.000    6.000    0.000    0.000    0.000    0.000 
#
# Total GULP energy -396635.525810 kJ/mol
# GULP energy per Si atom -12394.860182 kJ/mol
# Density = 1.722430 g / cm^3
# Si number density = 17.263593 Si / 1000 Ang^3
#
#
#
# Elastic Constant Matrix: (Units=GPa)
#
#
# Indices 1 2 3 4 5 6 
#
# 1 81.3500 41.4119 31.4122 0.0000 17.4278 0.0000
# 2 41.4119 104.4619 26.1605 0.0000 18.9256 0.0000
# 3 31.4122 26.1605 41.2624 0.0000 6.7565 0.0000
# 4 0.0000 0.0000 0.0000 22.2369 0.0000 4.5701
# 5 17.4278 18.9256 6.7565 0.0000 20.7684 0.0000
# 6 0.0000 0.0000 0.0000 4.5701 0.0000 17.1745
#
#
#
# Elastic Compliance Matrix: (Units=1/GPa)
#
#
# Indices 1 2 3 4 5 6 
#
# 1 0.020929 -0.003358 -0.012072 0.000000 -0.010575 0.000000
# 2 -0.003358 0.013530 -0.004716 0.000000 -0.007978 0.000000
# 3 -0.012072 -0.004716 0.035969 0.000000 0.002726 0.000000
# 4 0.000000 0.000000 0.000000 0.047572 0.000000 -0.012659
# 5 -0.010575 -0.007978 0.002726 0.000000 0.063408 0.000000
# 6 0.000000 0.000000 0.000000 -0.012659 0.000000 0.061594
#
#
# Mechanical properties :
#
#
# Convention : Reuss Voigt Hill
#
# Bulk Modulus (GPa) = 33.18214 47.22705 40.20459
# Shear Modulus (GPa) = 17.04511 20.57528 18.81019
#
# Velocity S-wave (km/s) = 3.14561 3.45604 3.30447
# Velocity P-wave (km/s) = 5.69700 6.58342 6.15618
#
# Compressibility (1/GPa) = 0.03013669
#
# Stress axis : x y z
#
# Youngs Moduli (GPa) = 47.78073 73.90811 27.80168
#
# Poissons Ratio (x) = 0.24815 0.33563
# Poissons Ratio (y) = 0.16043 0.13111
# Poissons Ratio (z) = 0.57683 0.34854
#
# Static dielectric constant tensor:
#      x y z
#    x 4.086100 0.000000 1.840880 
#    y 0.000000 3.677810 0.000000 
#    z 1.840880 0.000000 5.691880 
# 
# 
# High freq. dielectric constant tensor:
#      x y z
#    x 1.630550 0.000000 0.024400 
#    y 0.000000 1.683050 0.000000 
#    z 0.024400 0.000000 1.642720 
# 
# From -- ./inp_files/35518.got.cif
#   From: 2010.06.25/outbox.cif.g09.slc.cpg/sg11_18_cif.got.tgz:35518.got - 2010.06.27 23:14:04.
