data_PCOD8068153
_publ_section_title
;
Structure prediction by ZEFSAII (Michael W. Deem and Ramdas Pophale) SiO2 
 PCOD8068153
Probable space group: P 21/M
;
_chemical_formula_sum "Si O2"
_cell_formula_units_Z 28
_cell_length_a 10.953400
_cell_length_b 17.058392
_cell_length_c 21.392348
_cell_angle_alpha 90.000000
_cell_angle_beta 22.484614
_cell_angle_gamma 90.000000
_cell_volume 1528.633917
_symmetry_space_group_name_H-M "P 21/M"
_symmetry_group_IT_number 11
_symmetry_cell_setting 'monoclinic'
loop_
_space_group_symop_operation_xyz
x,y,z
-x,1/2+y,-z
-x,-y,-z
x,1/2-y,z
loop_
_atom_site_type_symbol
_atom_site_label
_atom_site_fract_x
_atom_site_fract_y
_atom_site_fract_z
Si Si1 0.399343 0.060814 0.641092
Si Si2 0.177331 0.469663 0.476023
Si Si3 0.697550 0.475262 0.805456
Si Si4 0.775123 0.662710 0.948031
Si Si5 0.191159 0.598818 0.856757
Si Si6 0.123878 0.565872 0.024168
Si Si7 0.845948 0.074458 0.324128
O O1 0.569704 0.105740 0.502480
O O2 0.090768 0.105052 0.817945
O O3 0.661243 0.047400 0.570883
O O4 0.305218 0.973648 0.661773
O O5 0.431844 0.401201 0.338757
O O6 0.000000 0.500000 0.500000
O O7 0.917106 0.436931 0.647884
O O8 0.907200 0.514467 0.760294
O O9 0.499036 0.402536 0.926232
O O10 0.473513 0.543923 0.883653
O O11 0.629092 0.750000 0.014057
O O12 0.989070 0.658229 0.909848
O O13 0.988367 0.649886 0.784890
O O14 0.066806 0.511665 0.904267
O O15 0.150354 0.620725 0.949972
#
# Coordination Sequence:
#
# PCOD8068153 Si02
#       7
#     4   4   4   4   4   4   4
#     4   9  18  28  50  79 103 130 165 222 267 298
#     4  10  16  27  49  83 108 126 162 222 265 302
#     4  10  19  29  53  83 105 132 179 227 261 299
#     4  11  22  36  52  74 109 146 173 212 275 330
#     4   9  17  30  48  75 105 133 166 206 261 317
#     4   9  15  28  49  79 101 124 164 219 264 299
#     4  10  18  33  51  77 107 136 178 225 259 308
#
# _framework density 18.31701
#
# number of rings (size 3 to 8) (size 9 to 14) (size 15 to 20)
#    0.000    2.286    5.714    0.429    2.000    0.000 
#    0.000    0.714    0.000    1.714    0.000    0.000 
#    0.000    0.000    0.000    0.000    0.000    0.000 
#
# Total GULP energy -346933.546749 kJ/mol
# GULP energy per Si atom -12390.483812 kJ/mol
# Density = 1.827532 g / cm^3
# Si number density = 18.317010 Si / 1000 Ang^3
#
#
#
# Elastic Constant Matrix: (Units=GPa)
#
#
# Indices 1 2 3 4 5 6 
#
# 1 94.0317 19.0856 38.0383 0.0000 9.8883 0.0000
# 2 19.0856 42.3881 11.0242 0.0000 3.6573 0.0000
# 3 38.0383 11.0242 123.1481 0.0000 23.5362 0.0000
# 4 0.0000 0.0000 0.0000 8.7156 0.0000 0.8963
# 5 9.8883 3.6573 23.5362 0.0000 41.4121 0.0000
# 6 0.0000 0.0000 0.0000 0.8963 0.0000 11.1281
#
#
#
# Elastic Compliance Matrix: (Units=1/GPa)
#
#
# Indices 1 2 3 4 5 6 
#
# 1 0.013118 -0.004941 -0.003471 0.000000 -0.000723 0.000000
# 2 -0.004941 0.026053 -0.000664 0.000000 -0.000744 0.000000
# 3 -0.003471 -0.000664 0.010189 0.000000 -0.004903 0.000000
# 4 0.000000 0.000000 0.000000 0.115695 0.000000 -0.009318
# 5 -0.000723 -0.000744 -0.004903 0.000000 0.027173 0.000000
# 6 0.000000 0.000000 0.000000 -0.009318 0.000000 0.090613
#
#
# Mechanical properties :
#
#
# Convention : Reuss Voigt Hill
#
# Bulk Modulus (GPa) = 32.04386 43.98489 38.01437
# Shear Modulus (GPa) = 16.05667 25.01246 20.53457
#
# Velocity S-wave (km/s) = 2.96395 3.69932 3.35186
# Velocity P-wave (km/s) = 5.40790 6.50476 5.98152
#
# Compressibility (1/GPa) = 0.03120723
#
# Stress axis : x y z
#
# Youngs Moduli (GPa) = 76.23161 38.38301 98.14388
#
# Poissons Ratio (x) = 0.18966 0.34069
# Poissons Ratio (y) = 0.37668 0.06516
# Poissons Ratio (z) = 0.26463 0.02548
#
# Static dielectric constant tensor:
#      x y z
#    x 3.673770 0.000000 0.273590 
#    y 0.000000 2.560980 0.000000 
#    z 0.273590 0.000000 4.018620 
# 
# 
# High freq. dielectric constant tensor:
#      x y z
#    x 1.731210 0.000000 0.010760 
#    y 0.000000 1.609190 0.000000 
#    z 0.010760 0.000000 1.736100 
# 
# From -- ./inp_files/68687.got.cif
#   From: 2010.06.25/outbox.cif.g09.slc.cpg/sg11_35_cif.got.tgz:68687.got - 2010.06.27 23:14:04.
