data_PCOD8068773
_publ_section_title
;
Structure prediction by ZEFSAII (Michael W. Deem and Ramdas Pophale) SiO2 
 PCOD8068773
Probable space group: P 21/M
;
_chemical_formula_sum "Si O2"
_cell_formula_units_Z 32
_cell_length_a 15.148471
_cell_length_b 9.243013
_cell_length_c 15.057149
_cell_angle_alpha 90.000000
_cell_angle_beta 100.682272
_cell_angle_gamma 90.000000
_cell_volume 2071.728767
_symmetry_space_group_name_H-M "P 21/M"
_symmetry_group_IT_number 11
_symmetry_cell_setting 'monoclinic'
loop_
_space_group_symop_operation_xyz
x,y,z
-x,1/2+y,-z
-x,-y,-z
x,1/2-y,z
loop_
_atom_site_type_symbol
_atom_site_label
_atom_site_fract_x
_atom_site_fract_y
_atom_site_fract_z
Si Si1 0.252128 0.920421 0.246462
Si Si2 0.384465 0.918152 0.414917
Si Si3 0.578506 0.918815 0.214202
Si Si4 0.886885 0.917665 0.050618
Si Si5 0.619624 0.079382 0.885086
Si Si6 0.441878 0.581321 0.616245
Si Si7 0.307925 0.418133 0.932561
Si Si8 0.918681 0.419571 0.877649
O O1 0.257294 0.750000 0.240526
O O2 0.291237 0.967357 0.349990
O O3 0.313877 0.982460 0.178334
O O4 0.148250 0.971877 0.214270
O O5 0.406534 0.750000 0.399209
O O6 0.377167 0.945542 0.518951
O O7 0.462016 0.011685 0.384860
O O8 0.582149 0.750000 0.238055
O O9 0.480855 0.964368 0.160833
O O10 0.652048 0.962838 0.154817
O O11 0.603709 0.006954 0.307499
O O12 0.889976 0.750000 0.024355
O O13 0.798584 0.953782 0.091363
O O14 0.977226 0.959588 0.123395
O O15 0.883624 0.007651 0.960383
O O16 0.629051 0.250000 0.899709
O O17 0.642089 0.006332 0.982287
O O18 0.455519 0.750000 0.637437
O O19 0.325613 0.250000 0.955352
O O20 0.907890 0.250000 0.891049
#
# Coordination Sequence:
#
# PCOD8068773 Si02
#       8
#     4   4   4   4   4   4   4   4
#     4   9  15  26  45  65  84 112 142 166 204 257
#     4   9  17  31  47  63  88 114 138 173 217 259
#     4  10  20  33  45  57  84 122 150 174 211 250
#     4   9  17  28  41  61  86 108 138 178 210 243
#     4  10  18  29  44  61  84 117 150 175 200 244
#     4  10  19  29  45  67  86 109 143 181 214 248
#     4  10  20  31  43  61  86 117 147 179 214 244
#     4   9  16  27  44  62  82 110 140 169 208 254
#
# _framework density 15.446037
#
# number of rings (size 3 to 8) (size 9 to 14) (size 15 to 20)
#    0.000    2.500    2.500    0.750    0.000    1.500 
#    0.000    0.625    0.000    0.000    0.000    0.875 
#    0.000    0.000    0.000    0.000    0.000    0.000 
#
# Total GULP energy -396619.006061 kJ/mol
# GULP energy per Si atom -12394.343939 kJ/mol
# Density = 1.541088 g / cm^3
# Si number density = 15.446037 Si / 1000 Ang^3
#
#
#
# Elastic Constant Matrix: (Units=GPa)
#
#
# Indices 1 2 3 4 5 6 
#
# 1 102.0171 27.8202 69.7239 0.0000 13.0292 0.0000
# 2 27.8202 37.0451 40.5207 0.0000 2.3182 0.0000
# 3 69.7239 40.5207 128.7155 0.0000 13.4534 0.0000
# 4 0.0000 0.0000 0.0000 24.2282 0.0000 -1.4866
# 5 13.0292 2.3182 13.4534 0.0000 25.2766 0.0000
# 6 0.0000 0.0000 0.0000 -1.4866 0.0000 13.6857
#
#
#
# Elastic Compliance Matrix: (Units=1/GPa)
#
#
# Indices 1 2 3 4 5 6 
#
# 1 0.016338 -0.004286 -0.007054 0.000000 -0.004274 0.000000
# 2 -0.004286 0.042558 -0.011541 0.000000 0.004449 0.000000
# 3 -0.007054 -0.011541 0.015601 0.000000 -0.003609 0.000000
# 4 0.000000 0.000000 0.000000 0.041551 0.000000 0.004513
# 5 -0.004274 0.004449 -0.003609 0.000000 0.043278 0.000000
# 6 0.000000 0.000000 0.000000 0.004513 0.000000 0.073559
#
#
# Mechanical properties :
#
#
# Convention : Reuss Voigt Hill
#
# Bulk Modulus (GPa) = 34.80140 60.43414 47.61777
# Shear Modulus (GPa) = 17.34749 21.28564 19.31657
#
# Velocity S-wave (km/s) = 3.35491 3.71626 3.54020
# Velocity P-wave (km/s) = 6.13083 7.59111 6.89971
#
# Compressibility (1/GPa) = 0.02873448
#
# Stress axis : x y z
#
# Youngs Moduli (GPa) = 61.20629 23.49723 64.10011
#
# Poissons Ratio (x) = 0.10071 0.45217
# Poissons Ratio (y) = 0.26234 0.73977
# Poissons Ratio (z) = 0.43176 0.27118
#
# Static dielectric constant tensor:
#      x y z
#    x 3.173450 0.000000 0.256410 
#    y 0.000000 2.902330 0.000000 
#    z 0.256410 0.000000 3.102690 
# 
# 
# High freq. dielectric constant tensor:
#      x y z
#    x 1.579130 0.000000 0.015920 
#    y 0.000000 1.584310 0.000000 
#    z 0.015920 0.000000 1.580110 
# 
# From -- ./inp_files/51339.got.cif
#   From: 2010.06.25/outbox.cif.g09.slc.cpg/sg11_26_cif.got.tgz:51339.got - 2010.06.27 23:14:04.
