data_PCOD8068021
_publ_section_title
;
Structure prediction by ZEFSAII (Michael W. Deem and Ramdas Pophale) SiO2 
 PCOD8068021
Probable space group: P 2/M
;
_chemical_formula_sum "Si O2"
_cell_formula_units_Z 28
_cell_length_a 9.128216
_cell_length_b 9.233647
_cell_length_c 29.219235
_cell_angle_alpha 90.000000
_cell_angle_beta 38.646790
_cell_angle_gamma 90.000000
_cell_volume 1538.057974
_symmetry_space_group_name_H-M "P 2/M"
_symmetry_group_IT_number 10
_symmetry_cell_setting 'monoclinic'
loop_
_space_group_symop_operation_xyz
x,y,z
-x,y,-z
-x,-y,-z
x,-y,z
loop_
_atom_site_type_symbol
_atom_site_label
_atom_site_fract_x
_atom_site_fract_y
_atom_site_fract_z
Si Si1 0.737162 0.327259 0.571401
Si Si2 0.551259 0.672423 0.713362
Si Si3 0.405830 0.672741 0.571401
Si Si4 0.118068 0.327577 0.286638
Si Si5 0.026204 0.331506 0.857882
Si Si6 0.684386 0.668494 0.857882
Si Si7 0.674245 0.836547 1.000000
O O1 0.736026 0.500000 0.571862
O O2 0.638806 0.266355 0.643347
O O3 0.573911 0.267834 0.570436
O O4 0.000000 0.268427 0.500000
O O5 0.554894 0.500000 0.711364
O O6 0.722339 0.732321 0.711064
O O7 0.288822 0.727460 0.787102
O O8 0.500000 0.731573 0.500000
O O9 0.404662 0.500000 0.571862
O O10 0.144460 0.733645 0.643347
O O11 0.111711 0.500000 0.288636
O O12 0.224333 0.272540 0.212898
O O13 0.021070 0.500000 0.872232
O O14 0.889225 0.302508 0.844310
O O15 0.912773 0.244880 0.927820
O O16 0.617769 0.500000 0.872232
O O17 0.448129 0.755120 0.927820
O O18 0.734448 0.000000 1.000000
O O19 0.500000 0.832366 0.000000
#
# Coordination Sequence:
#
# PCOD8068021 Si02
#       7
#     4   4   4   4   4   4   4
#     4   9  15  22  33  51  78 112 146 178 214 256
#     4   9  16  25  37  55  80 110 144 180 216 255
#     4   9  15  22  33  51  78 112 146 178 214 256
#     4   9  16  25  37  55  80 110 144 180 216 255
#     4   9  16  27  44  64  85 111 144 180 217 258
#     4   9  16  27  44  64  85 111 144 180 217 258
#     4   9  17  29  46  67  88 110 140 179 220 262
#
# _framework density 18.204775999999999
#
# number of rings (size 3 to 8) (size 9 to 14) (size 15 to 20)
#    0.000    3.000    0.000    2.143    0.000    8.571 
#    0.000    0.714    0.000    5.143    0.000    0.000 
#    0.000    1.143    0.000    3.143    0.000    5.714 
#
# Total GULP energy -347167.878825 kJ/mol
# GULP energy per Si atom -12398.852815 kJ/mol
# Density = 1.816334 g / cm^3
# Si number density = 18.204776 Si / 1000 Ang^3
#
#
#
# Elastic Constant Matrix: (Units=GPa)
#
#
# Indices 1 2 3 4 5 6 
#
# 1 127.7141 22.8379 94.2117 0.0000 -1.7585 0.0000
# 2 22.8379 32.6157 40.5559 0.0000 -0.9131 0.0000
# 3 94.2117 40.5559 216.4281 0.0000 -2.8135 0.0000
# 4 0.0000 0.0000 0.0000 1.4712 0.0000 0.1860
# 5 -1.7585 -0.9131 -2.8135 0.0000 33.8662 0.0000
# 6 0.0000 0.0000 0.0000 0.1860 0.0000 5.0804
#
#
#
# Elastic Compliance Matrix: (Units=1/GPa)
#
#
# Indices 1 2 3 4 5 6 
#
# 1 0.011679 -0.002418 -0.004629 0.000000 0.000157 0.000000
# 2 -0.002418 0.040482 -0.006528 0.000000 0.000424 0.000000
# 3 -0.004629 -0.006528 0.007862 0.000000 0.000237 0.000000
# 4 0.000000 0.000000 0.000000 0.682875 0.000000 -0.024999
# 5 0.000157 0.000424 0.000237 0.000000 0.029567 0.000000
# 6 0.000000 0.000000 0.000000 -0.024999 0.000000 0.197749
#
#
# Mechanical properties :
#
#
# Convention : Reuss Voigt Hill
#
# Bulk Modulus (GPa) = 30.41930 76.88544 53.65237
# Shear Modulus (GPa) = 4.95874 22.69373 13.82624
#
# Velocity S-wave (km/s) = 1.65221 3.53453 2.75886
# Velocity P-wave (km/s) = 4.51503 7.68001 6.29952
#
# Compressibility (1/GPa) = 0.03287387
#
# Stress axis : x y z
#
# Youngs Moduli (GPa) = 85.62324 24.70240 127.19842
#
# Poissons Ratio (x) = 0.05972 0.58878
# Poissons Ratio (y) = 0.20701 0.83033
# Poissons Ratio (z) = 0.39634 0.16125
#
# Static dielectric constant tensor:
#      x y z
#    x 3.355560 0.000000 -0.014320 
#    y 0.000000 2.715780 0.000000 
#    z -0.014320 0.000000 3.633470 
# 
# 
# High freq. dielectric constant tensor:
#      x y z
#    x 1.698060 0.000000 -0.001470 
#    y 0.000000 1.629170 0.000000 
#    z -0.001470 0.000000 1.726640 
# 
# From -- ./inp_files/78883.got.cif
#   From: 2010.06.25/outbox.cif.g09.slc.cpg/sg10_40_cif.got.tgz:78883.got - 2010.06.27 22:07:45.
