data_PCOD8068355
_publ_section_title
;
Structure prediction by ZEFSAII (Michael W. Deem and Ramdas Pophale) SiO2 
 PCOD8068355
Probable space group: P 21/M
;
_chemical_formula_sum "Si O2"
_cell_formula_units_Z 32
_cell_length_a 22.087283
_cell_length_b 14.029615
_cell_length_c 14.983591
_cell_angle_alpha 90.000000
_cell_angle_beta 21.597365
_cell_angle_gamma 90.000000
_cell_volume 1709.024521
_symmetry_space_group_name_H-M "P 21/M"
_symmetry_group_IT_number 11
_symmetry_cell_setting 'monoclinic'
loop_
_space_group_symop_operation_xyz
x,y,z
-x,1/2+y,-z
-x,-y,-z
x,1/2-y,z
loop_
_atom_site_type_symbol
_atom_site_label
_atom_site_fract_x
_atom_site_fract_y
_atom_site_fract_z
Si Si1 0.289783 0.639771 0.155323
Si Si2 0.951219 0.858325 0.519888
Si Si3 0.120288 0.523267 0.516854
Si Si4 0.971437 0.011125 0.893148
Si Si5 0.889078 0.863274 0.149669
Si Si6 0.806693 0.640358 0.901315
Si Si7 0.355958 0.511834 0.767290
Si Si8 0.483343 0.138786 0.312097
O O1 0.291268 0.750000 0.182073
O O2 0.284724 0.573569 0.251461
O O3 0.127692 0.614868 0.319746
O O4 0.449767 0.612598 0.878225
O O5 0.952223 0.750000 0.483128
O O6 0.809824 0.871622 0.789320
O O7 0.917611 0.925959 0.483157
O O8 0.129139 0.498579 0.610200
O O9 0.977479 0.601727 0.705301
O O10 0.947650 0.911222 0.977405
O O11 0.812035 0.036787 0.053099
O O12 0.999568 0.098322 0.922153
O O13 0.907995 0.750000 0.115803
O O14 0.702708 0.897586 0.423388
O O15 0.786973 0.750000 0.955871
O O16 0.658407 0.582864 0.151282
O O17 0.500000 0.500000 0.500000
O O18 0.397963 0.597742 0.775219
O O19 0.491623 0.250000 0.315987
#
# Coordination Sequence:
#
# PCOD8068355 Si02
#       8
#     4   4   4   4   4   4   4   4
#     4   9  16  27  47  76 105 135 173 213 262 321
#     4   9  16  27  45  74 109 143 173 210 268 328
#     4  10  17  29  50  78 105 136 174 226 267 313
#     4  10  22  37  56  81 106 136 188 222 266 323
#     4  10  22  41  58  72 103 149 183 218 266 322
#     4   9  18  30  47  74 112 149 175 209 270 333
#     4  11  20  33  54  84 110 136 175 235 272 310
#     4  10  20  35  56  80 109 144 178 216 269 324
#
# _framework density 18.724132000000001
#
# number of rings (size 3 to 8) (size 9 to 14) (size 15 to 20)
#    0.000    2.250    1.250    4.875    0.000    4.000 
#    0.000    0.625    0.000    0.000    0.000    0.000 
#    0.000    0.000    0.000    0.000    0.000    0.000 
#
# Total GULP energy -396682.178237 kJ/mol
# GULP energy per Si atom -12396.318070 kJ/mol
# Density = 1.868151 g / cm^3
# Si number density = 18.724132 Si / 1000 Ang^3
#
#
#
# Elastic Constant Matrix: (Units=GPa)
#
#
# Indices 1 2 3 4 5 6 
#
# 1 79.6466 40.4387 43.9338 0.0000 14.9681 0.0000
# 2 40.4387 76.3383 44.2925 0.0000 11.2248 0.0000
# 3 43.9338 44.2925 69.3885 0.0000 22.4053 0.0000
# 4 0.0000 0.0000 0.0000 25.4670 0.0000 4.9570
# 5 14.9681 11.2248 22.4053 0.0000 32.5605 0.0000
# 6 0.0000 0.0000 0.0000 4.9570 0.0000 14.4849
#
#
#
# Elastic Compliance Matrix: (Units=1/GPa)
#
#
# Indices 1 2 3 4 5 6 
#
# 1 0.020604 -0.005396 -0.009184 0.000000 -0.001292 0.000000
# 2 -0.005396 0.022381 -0.011802 0.000000 0.002886 0.000000
# 3 -0.009184 -0.011802 0.032248 0.000000 -0.013900 0.000000
# 4 0.000000 0.000000 0.000000 0.042069 0.000000 -0.014397
# 5 -0.001292 0.002886 -0.013900 0.000000 0.039876 0.000000
# 6 0.000000 0.000000 0.000000 -0.014397 0.000000 0.073964
#
#
# Mechanical properties :
#
#
# Convention : Reuss Voigt Hill
#
# Bulk Modulus (GPa) = 44.50437 53.63370 49.06903
# Shear Modulus (GPa) = 17.15882 20.94972 19.05427
#
# Velocity S-wave (km/s) = 3.03050 3.34857 3.19349
# Velocity P-wave (km/s) = 6.00544 6.60734 6.31356
#
# Compressibility (1/GPa) = 0.02246971
#
# Stress axis : x y z
#
# Youngs Moduli (GPa) = 48.53468 44.68032 31.00938
#
# Poissons Ratio (x) = 0.24109 0.28479
# Poissons Ratio (y) = 0.26188 0.36597
# Poissons Ratio (z) = 0.44574 0.52732
#
# Static dielectric constant tensor:
#      x y z
#    x 3.506750 0.000000 0.468490 
#    y 0.000000 3.551620 0.000000 
#    z 0.468490 0.000000 3.740770 
# 
# 
# High freq. dielectric constant tensor:
#      x y z
#    x 1.706080 0.000000 0.039770 
#    y 0.000000 1.732000 0.000000 
#    z 0.039770 0.000000 1.716790 
# 
# From -- ./inp_files/54978.got.cif
#   From: 2010.06.25/outbox.cif.g09.slc.cpg/sg11_28_cif.got.tgz:54978.got - 2010.06.27 23:14:04.
