data_PCOD8068922
_publ_section_title
;
Structure prediction by ZEFSAII (Michael W. Deem and Ramdas Pophale) SiO2 
 PCOD8068922
Probable space group: P 21/M
;
_chemical_formula_sum "Si O2"
_cell_formula_units_Z 32
_cell_length_a 14.566217
_cell_length_b 13.495966
_cell_length_c 13.573758
_cell_angle_alpha 90.000000
_cell_angle_beta 42.438919
_cell_angle_gamma 90.000000
_cell_volume 1800.646236
_symmetry_space_group_name_H-M "P 21/M"
_symmetry_group_IT_number 11
_symmetry_cell_setting 'monoclinic'
loop_
_space_group_symop_operation_xyz
x,y,z
-x,1/2+y,-z
-x,-y,-z
x,1/2-y,z
loop_
_atom_site_type_symbol
_atom_site_label
_atom_site_fract_x
_atom_site_fract_y
_atom_site_fract_z
Si Si1 0.748771 0.633919 0.589307
Si Si2 0.042013 0.858931 0.329638
Si Si3 0.957987 0.641069 0.170362
Si Si4 0.584384 0.363356 0.414043
Si Si5 0.584384 0.636644 0.914043
Si Si6 0.748771 0.366081 0.089307
Si Si7 0.689023 0.452624 0.928683
Si Si8 0.310976 0.047376 0.571317
O O1 0.741087 0.750000 0.566044
O O2 0.651821 0.608593 0.756444
O O3 0.697954 0.569819 0.537249
O O4 0.904999 0.605482 0.495030
O O5 0.086772 0.750000 0.331909
O O6 0.168987 0.932816 0.241195
O O7 0.000000 0.852271 0.250000
O O8 0.913228 0.750000 0.168092
O O9 0.831013 0.567184 0.258805
O O10 0.095001 0.605482 0.004969
O O11 0.612052 0.250000 0.421584
O O12 0.651821 0.391407 0.256444
O O13 0.650627 0.431978 0.445911
O O14 0.424099 0.383271 0.532521
O O15 0.612052 0.750000 0.921584
O O16 0.650627 0.568022 0.945911
O O17 0.424099 0.616729 0.032521
O O18 0.741087 0.250000 0.066044
O O19 0.697955 0.430181 0.037249
#
# Coordination Sequence:
#
# PCOD8068922 Si02
#       8
#     4   4   4   4   4   4   4   4
#     4   9  17  31  51  71  90 116 153 193 226 261
#     4   8  14  26  46  70  91 114 149 191 227 259
#     4   8  14  26  46  70  91 114 149 191 227 259
#     4  10  20  31  46  70  95 120 151 186 226 271
#     4  10  20  31  46  70  95 120 151 186 226 271
#     4   9  17  31  51  71  90 116 153 193 226 261
#     4  10  18  29  49  69  92 121 151 187 228 268
#     4  10  18  29  49  69  92 121 151 187 228 268
#
# _framework density 17.771397
#
# number of rings (size 3 to 8) (size 9 to 14) (size 15 to 20)
#    0.000    2.750    0.000    4.500    0.000    3.000 
#    0.000    0.000    0.000   21.750    0.000    0.000 
#    0.000    0.000    0.000    0.000    0.000    0.000 
#
# Total GULP energy -396646.940832 kJ/mol
# GULP energy per Si atom -12395.216901 kJ/mol
# Density = 1.773095 g / cm^3
# Si number density = 17.771397 Si / 1000 Ang^3
#
#
#
# Elastic Constant Matrix: (Units=GPa)
#
#
# Indices 1 2 3 4 5 6 
#
# 1 67.8556 48.5554 45.7064 0.0000 -16.4256 0.0000
# 2 48.5554 99.6372 44.4986 0.0000 -4.5571 0.0000
# 3 45.7064 44.4986 72.2700 0.0000 -20.5266 0.0000
# 4 0.0000 0.0000 0.0000 19.8807 0.0000 -0.7042
# 5 -16.4256 -4.5571 -20.5266 0.0000 30.6570 0.0000
# 6 0.0000 0.0000 0.0000 -0.7042 0.0000 27.1713
#
#
#
# Elastic Compliance Matrix: (Units=1/GPa)
#
#
# Indices 1 2 3 4 5 6 
#
# 1 0.031437 -0.009725 -0.011756 0.000000 0.007527 0.000000
# 2 -0.009725 0.017375 -0.006537 0.000000 -0.007005 0.000000
# 3 -0.011756 -0.006537 0.028688 0.000000 0.011937 0.000000
# 4 0.000000 0.000000 0.000000 0.050346 0.000000 0.001305
# 5 0.007527 -0.007005 0.011937 0.000000 0.043603 0.000000
# 6 0.000000 0.000000 0.000000 0.001305 0.000000 0.036837
#
#
# Mechanical properties :
#
#
# Convention : Reuss Voigt Hill
#
# Bulk Modulus (GPa) = 46.59297 57.47595 52.03446
# Shear Modulus (GPa) = 18.41774 22.27532 20.34653
#
# Velocity S-wave (km/s) = 3.22276 3.54423 3.38731
# Velocity P-wave (km/s) = 6.33428 7.01148 6.68146
#
# Compressibility (1/GPa) = 0.02146246
#
# Stress axis : x y z
#
# Youngs Moduli (GPa) = 31.80965 57.55419 34.85820
#
# Poissons Ratio (x) = 0.55974 0.40980
# Poissons Ratio (y) = 0.30936 0.22787
# Poissons Ratio (z) = 0.37396 0.37624
#
# Static dielectric constant tensor:
#      x y z
#    x 3.012660 0.000000 -0.412410 
#    y 0.000000 3.154150 0.000000 
#    z -0.412410 0.000000 3.724170 
# 
# 
# High freq. dielectric constant tensor:
#      x y z
#    x 1.654870 0.000000 -0.030990 
#    y 0.000000 1.669560 0.000000 
#    z -0.030990 0.000000 1.700910 
# 
# From -- ./inp_files/52278.got.cif
#   From: 2010.06.25/outbox.cif.g09.slc.cpg/sg11_27_cif.got.tgz:52278.got - 2010.06.27 23:14:04.
