data_PCOD8068429
_publ_section_title
;
Structure prediction by ZEFSAII (Michael W. Deem and Ramdas Pophale) SiO2 
 PCOD8068429
Probable space group: P 21/M
;
_chemical_formula_sum "Si O2"
_cell_formula_units_Z 32
_cell_length_a 11.388627
_cell_length_b 16.736508
_cell_length_c 12.974314
_cell_angle_alpha 90.000000
_cell_angle_beta 48.743161
_cell_angle_gamma 90.000000
_cell_volume 1859.090248
_symmetry_space_group_name_H-M "P 21/M"
_symmetry_group_IT_number 11
_symmetry_cell_setting 'monoclinic'
loop_
_space_group_symop_operation_xyz
x,y,z
-x,1/2+y,-z
-x,-y,-z
x,1/2-y,z
loop_
_atom_site_type_symbol
_atom_site_label
_atom_site_fract_x
_atom_site_fract_y
_atom_site_fract_z
Si Si1 0.408095 0.154231 0.801026
Si Si2 0.082941 0.896968 0.419349
Si Si3 0.411397 0.341424 0.139091
Si Si4 0.246286 0.050461 0.390165
Si Si5 0.837035 0.841152 0.896304
Si Si6 0.572244 0.450135 0.550050
Si Si7 0.857543 0.344055 0.382534
Si Si8 0.635760 0.340394 0.845033
O O1 0.411783 0.250000 0.775257
O O2 0.432866 0.100493 0.685186
O O3 0.551980 0.125771 0.790856
O O4 0.247086 0.126628 0.950921
O O5 0.102204 0.859778 0.521341
O O6 0.178176 0.847082 0.277349
O O7 0.902205 0.895401 0.488036
O O8 0.162980 0.984398 0.366143
O O9 0.428385 0.250000 0.168391
O O10 0.374345 0.397449 0.256638
O O11 0.273489 0.350446 0.137399
O O12 0.569460 0.375885 0.991439
O O13 0.337967 0.013817 0.431929
O O14 0.873363 0.750000 0.897230
O O15 0.003624 0.880460 0.770083
O O16 0.500000 0.500000 0.500000
O O17 0.699498 0.386337 0.436830
O O18 0.835562 0.250000 0.380699
O O19 0.576576 0.250000 0.886161
#
# Coordination Sequence:
#
# PCOD8068429 Si02
#       8
#     4   4   4   4   4   4   4   4
#     4   9  16  32  54  75  97 127 169 211 247 288
#     4  10  18  28  46  77 106 125 152 197 255 310
#     4   9  17  29  46  72 106 132 155 193 247 313
#     4  10  20  32  45  70 104 134 155 196 254 298
#     4   8  15  27  50  81 102 119 157 209 254 299
#     4  11  23  37  49  70 102 137 179 216 242 285
#     4  10  17  31  56  78  97 128 166 210 254 298
#     4   9  16  28  49  77 102 127 159 197 245 306
#
# _framework density 17.212719
#
# number of rings (size 3 to 8) (size 9 to 14) (size 15 to 20)
#    0.000    2.500    3.750    2.250    0.000    1.000 
#    0.000    1.875    0.000    0.000    0.000    3.500 
#    0.000    0.000    0.000    0.000    0.000    0.000 
#
# Total GULP energy -396433.928788 kJ/mol
# GULP energy per Si atom -12388.560275 kJ/mol
# Density = 1.717354 g / cm^3
# Si number density = 17.212719 Si / 1000 Ang^3
#
#
#
# Elastic Constant Matrix: (Units=GPa)
#
#
# Indices 1 2 3 4 5 6 
#
# 1 55.7436 32.9865 51.1898 0.0000 -7.3838 0.0000
# 2 32.9865 56.8051 48.7855 0.0000 0.3051 0.0000
# 3 51.1898 48.7855 156.6426 0.0000 -28.5754 0.0000
# 4 0.0000 0.0000 0.0000 22.7068 0.0000 3.3085
# 5 -7.3838 0.3051 -28.5754 0.0000 19.8647 0.0000
# 6 0.0000 0.0000 0.0000 3.3085 0.0000 20.0390
#
#
#
# Elastic Compliance Matrix: (Units=1/GPa)
#
#
# Indices 1 2 3 4 5 6 
#
# 1 0.031474 -0.013893 -0.005132 0.000000 0.004530 0.000000
# 2 -0.013893 0.034044 -0.009626 0.000000 -0.019534 0.000000
# 3 -0.005132 -0.009626 0.014558 0.000000 0.019183 0.000000
# 4 0.000000 0.000000 0.000000 0.045125 0.000000 -0.007450
# 5 0.004530 -0.019534 0.019183 0.000000 0.079919 0.000000
# 6 0.000000 0.000000 0.000000 -0.007450 0.000000 0.051133
#
#
# Mechanical properties :
#
#
# Convention : Reuss Voigt Hill
#
# Bulk Modulus (GPa) = 43.91166 59.45722 51.68444
# Shear Modulus (GPa) = 15.56922 21.60406 18.58664
#
# Velocity S-wave (km/s) = 3.01078 3.54661 3.28963
# Velocity P-wave (km/s) = 6.13620 7.16860 6.67240
#
# Compressibility (1/GPa) = 0.02277300
#
# Stress axis : x y z
#
# Youngs Moduli (GPa) = 31.77273 29.37382 68.68891
#
# Poissons Ratio (x) = 0.40810 0.35251
# Poissons Ratio (y) = 0.44143 0.66120
# Poissons Ratio (z) = 0.16306 0.28275
#
# Static dielectric constant tensor:
#      x y z
#    x 2.776460 0.000000 -0.422450 
#    y 0.000000 3.197450 0.000000 
#    z -0.422450 0.000000 3.644370 
# 
# 
# High freq. dielectric constant tensor:
#      x y z
#    x 1.600090 0.000000 -0.033840 
#    y 0.000000 1.654520 0.000000 
#    z -0.033840 0.000000 1.683670 
# 
# From -- ./inp_files/36017.got.cif
#   From: 2010.06.25/outbox.cif.g09.slc.cpg/sg11_19_cif.got.tgz:36017.got - 2010.06.27 23:14:04.
