data_PCOD8068093
_publ_section_title
;
Structure prediction by ZEFSAII (Michael W. Deem and Ramdas Pophale) SiO2 
 PCOD8068093
Probable space group: P 2/M
;
_chemical_formula_sum "Si O2"
_cell_formula_units_Z 28
_cell_length_a 21.000000
_cell_length_b 9.000000
_cell_length_c 15.000000
_cell_angle_alpha 90.000000
_cell_angle_beta 150.000000
_cell_angle_gamma 90.000000
_cell_volume 1417.500000
_symmetry_space_group_name_H-M "P 2/M"
_symmetry_group_IT_number 10
_symmetry_cell_setting 'monoclinic'
loop_
_space_group_symop_operation_xyz
x,y,z
-x,y,-z
-x,-y,-z
x,-y,z
loop_
_atom_site_type_symbol
_atom_site_label
_atom_site_fract_x
_atom_site_fract_y
_atom_site_fract_z
Si Si1 0.104526 0.169043 0.549473
Si Si2 0.359556 0.327341 0.079012
Si Si3 0.798451 0.175343 0.722860
Si Si4 0.037074 0.824895 0.914320
Si Si5 0.918343 0.329631 0.206763
Si Si6 0.606410 0.825148 0.056961
Si Si7 0.481645 0.175610 0.581067
O O1 0.248721 0.222796 0.743434
O O2 0.000000 0.184869 0.500000
O O3 0.050793 0.274506 0.408237
O O4 0.109280 0.000000 0.521095
O O5 0.392679 0.500000 0.120480
O O6 0.408788 0.254806 0.229716
O O7 0.207016 0.299936 0.885151
O O8 0.429170 0.253426 0.078885
O O9 0.654650 0.238379 0.547804
O O10 0.886207 0.218297 0.743462
O O11 0.786407 0.000000 0.717154
O O12 0.877179 0.237825 0.901778
O O13 0.102876 0.756669 0.909236
O O14 0.049121 0.000000 0.923297
O O15 0.934773 0.500000 0.204379
O O16 0.598751 0.000000 0.032396
O O17 0.500000 0.774317 0.000000
O O18 0.500000 0.218316 0.500000
O O19 0.494840 0.000000 0.610871
#
# Coordination Sequence:
#
# PCOD8068093 Si02
#       7
#     4   4   4   4   4   4   4
#     4  10  20  37  62  86 107 139 185 230 274 328
#     4  11  24  39  56  81 116 155 190 231 285 345
#     4   8  16  32  54  81 109 140 183 234 282 324
#     4   9  17  33  57  80 107 143 184 231 279 331
#     4  11  23  36  54  82 114 146 185 230 279 332
#     4  10  22  41  64  89 116 147 188 240 290 337
#     4  10  20  35  58  85 113 148 192 238 282 332
#
# _framework density 19.753086
#
# number of rings (size 3 to 8) (size 9 to 14) (size 15 to 20)
#    0.000    2.143    1.429    2.571    0.000    5.429 
#    0.000    8.571    0.000    0.000    0.000    0.000 
#    0.000    0.000    0.000    0.000    0.000    0.000 
#
# Total GULP energy -347008.234584 kJ/mol
# GULP energy per Si atom -12393.151235 kJ/mol
# Density = 1.970813 g / cm^3
# Si number density = 19.753086 Si / 1000 Ang^3
#
#
#
# Elastic Constant Matrix: (Units=GPa)
#
#
# Indices 1 2 3 4 5 6 
#
# 1 123.2541 51.1140 49.4804 0.0000 2.3802 0.0000
# 2 51.1140 44.4096 44.0715 0.0000 -5.2620 0.0000
# 3 49.4804 44.0715 113.7999 0.0000 9.1864 0.0000
# 4 0.0000 0.0000 0.0000 67.6390 0.0000 -37.0454
# 5 2.3802 -5.2620 9.1864 0.0000 34.7994 0.0000
# 6 0.0000 0.0000 0.0000 -37.0454 0.0000 49.9250
#
#
#
# Elastic Compliance Matrix: (Units=1/GPa)
#
#
# Indices 1 2 3 4 5 6 
#
# 1 0.016134 -0.020304 0.001211 0.000000 -0.004493 0.000000
# 2 -0.020304 0.065458 -0.017813 0.000000 0.015989 0.000000
# 3 0.001211 -0.017813 0.015718 0.000000 -0.006926 0.000000
# 4 0.000000 0.000000 0.000000 0.024906 0.000000 0.018481
# 5 -0.004493 0.015989 -0.006926 0.000000 0.033289 0.000000
# 6 0.000000 0.000000 0.000000 0.018481 0.000000 0.033743
#
#
# Mechanical properties :
#
#
# Convention : Reuss Voigt Hill
#
# Bulk Modulus (GPa) = 42.55478 63.42170 52.98824
# Shear Modulus (GPa) = 18.45741 39.59252 29.02497
#
# Velocity S-wave (km/s) = 3.06012 4.48188 3.83742
# Velocity P-wave (km/s) = 5.83746 7.67854 6.82040
#
# Compressibility (1/GPa) = 0.02349912
#
# Stress axis : x y z
#
# Youngs Moduli (GPa) = 61.98072 15.27697 63.61961
#
# Poissons Ratio (x) = 0.31018 -0.07702
# Poissons Ratio (y) = 1.25843 1.13324
# Poissons Ratio (z) = -0.07503 0.27212
#
# Static dielectric constant tensor:
#      x y z
#    x 3.703840 0.000000 0.284700 
#    y 0.000000 3.243640 0.000000 
#    z 0.284700 0.000000 3.695070 
# 
# 
# High freq. dielectric constant tensor:
#      x y z
#    x 1.774520 0.000000 0.016050 
#    y 0.000000 1.739340 0.000000 
#    z 0.016050 0.000000 1.771020 
# 
# From -- ./inp_files/63482.got.cif
#   From: 2010.06.25/outbox.ucp.g09.slc.cvg/sg10_32_cif.got.tgz:63482.got - 2010.06.28 13:37:52.
