data_PCOD8068914
_publ_section_title
;
Structure prediction by ZEFSAII (Michael W. Deem and Ramdas Pophale) SiO2 
 PCOD8068914
Probable space group: P 21/M
;
_chemical_formula_sum "Si O2"
_cell_formula_units_Z 28
_cell_length_a 19.520709
_cell_length_b 8.613259
_cell_length_c 10.169429
_cell_angle_alpha 90.000000
_cell_angle_beta 120.697648
_cell_angle_gamma 90.000000
_cell_volume 1470.259825
_symmetry_space_group_name_H-M "P 21/M"
_symmetry_group_IT_number 11
_symmetry_cell_setting 'monoclinic'
loop_
_space_group_symop_operation_xyz
x,y,z
-x,1/2+y,-z
-x,-y,-z
x,1/2-y,z
loop_
_atom_site_type_symbol
_atom_site_label
_atom_site_fract_x
_atom_site_fract_y
_atom_site_fract_z
Si Si1 0.831193 0.429135 0.085706
Si Si2 0.912823 0.568402 0.407803
Si Si3 0.659307 0.566985 0.313189
Si Si4 0.087059 0.931853 0.102352
Si Si5 0.502609 0.933690 0.856392
Si Si6 0.338320 0.929967 0.972285
Si Si7 0.817606 0.066512 0.552888
O O1 0.852891 0.250000 0.138006
O O2 0.879144 0.540868 0.229702
O O3 0.856632 0.476661 0.964270
O O4 0.736862 0.457275 0.006852
O O5 0.913322 0.750000 0.441455
O O6 0.857913 0.477892 0.455795
O O7 0.000000 0.500000 0.500000
O O8 0.651986 0.750000 0.308686
O O9 0.577566 0.494422 0.292890
O O10 0.730863 0.511558 0.476740
O O11 0.676429 0.514028 0.180874
O O12 0.076716 0.750000 0.105657
O O13 0.128697 0.997893 0.274685
O O14 0.000000 0.000000 0.000000
O O15 0.504908 0.750000 0.856952
O O16 0.584689 0.000367 0.875078
O O17 0.500000 0.000000 0.000000
O O18 0.352685 0.750000 0.955320
O O19 0.806606 0.250000 0.549904
#
# Coordination Sequence:
#
# PCOD8068914 Si02
#       7
#     4   4   4   4   4   4   4
#     4  10  21  38  59  82 112 146 185 231 282 335
#     4  12  24  37  56  82 111 143 183 230 283 335
#     4  11  20  32  52  81 114 146 187 229 276 332
#     4  10  23  41  60  82 109 147 190 232 280 338
#     4  10  18  29  48  76 113 149 183 224 274 330
#     4  10  18  31  53  80 113 147 182 227 280 332
#     4  11  22  38  58  82 113 147 186 232 282 333
#
# _framework density 19.044252
#
# number of rings (size 3 to 8) (size 9 to 14) (size 15 to 20)
#    0.000    1.429    1.429    7.286    0.000    4.571 
#    0.000    0.000    0.000    0.857    0.000    0.000 
#    0.000    0.000    0.000    0.000    0.000    0.000 
#
# Total GULP energy -347238.496214 kJ/mol
# GULP energy per Si atom -12401.374865 kJ/mol
# Density = 1.900091 g / cm^3
# Si number density = 19.044252 Si / 1000 Ang^3
#
#
#
# Elastic Constant Matrix: (Units=GPa)
#
#
# Indices 1 2 3 4 5 6 
#
# 1 102.0070 36.2087 45.7782 0.0000 28.4369 0.0000
# 2 36.2087 108.5479 32.8817 0.0000 15.6756 0.0000
# 3 45.7782 32.8817 101.0640 0.0000 25.8851 0.0000
# 4 0.0000 0.0000 0.0000 28.6134 0.0000 11.7728
# 5 28.4369 15.6756 25.8851 0.0000 40.3247 0.0000
# 6 0.0000 0.0000 0.0000 11.7728 0.0000 24.1462
#
#
#
# Elastic Compliance Matrix: (Units=1/GPa)
#
#
# Indices 1 2 3 4 5 6 
#
# 1 0.014343 -0.002639 -0.003962 0.000000 -0.006545 0.000000
# 2 -0.002639 0.010871 -0.002077 0.000000 -0.001031 0.000000
# 3 -0.003962 -0.002077 0.013694 0.000000 -0.005189 0.000000
# 4 0.000000 0.000000 0.000000 0.043719 0.000000 -0.021316
# 5 -0.006545 -0.001031 -0.005189 0.000000 0.033147 0.000000
# 6 0.000000 0.000000 0.000000 -0.021316 0.000000 0.051807
#
#
# Mechanical properties :
#
#
# Convention : Reuss Voigt Hill
#
# Bulk Modulus (GPa) = 46.39977 60.15068 53.27522
# Shear Modulus (GPa) = 26.02535 31.73355 28.87945
#
# Velocity S-wave (km/s) = 3.70073 4.08647 3.89837
# Velocity P-wave (km/s) = 6.53281 7.34295 6.94969
#
# Compressibility (1/GPa) = 0.02155183
#
# Stress axis : x y z
#
# Youngs Moduli (GPa) = 69.72264 91.98733 73.02385
#
# Poissons Ratio (x) = 0.24275 0.28929
# Poissons Ratio (y) = 0.18400 0.15170
# Poissons Ratio (z) = 0.27621 0.19110
#
# Static dielectric constant tensor:
#      x y z
#    x 3.792240 0.000000 0.374790 
#    y 0.000000 3.565490 0.000000 
#    z 0.374790 0.000000 3.704970 
# 
# 
# High freq. dielectric constant tensor:
#      x y z
#    x 1.739210 0.000000 0.035320 
#    y 0.000000 1.750520 0.000000 
#    z 0.035320 0.000000 1.724430 
# 
# From -- ./inp_files/42601.got.cif
#   From: 2010.06.25/outbox.cif.g09.slc.cpg/sg11_22_cif.got.tgz:42601.got - 2010.06.27 23:14:04.
