data_PCOD8068507
_publ_section_title
;
Structure prediction by ZEFSAII (Michael W. Deem and Ramdas Pophale) SiO2 
 PCOD8068507
Probable space group: P 21/M
;
_chemical_formula_sum "Si O2"
_cell_formula_units_Z 32
_cell_length_a 24.211753
_cell_length_b 9.023105
_cell_length_c 18.749895
_cell_angle_alpha 90.000000
_cell_angle_beta 150.761111
_cell_angle_gamma 90.000000
_cell_volume 2000.796915
_symmetry_space_group_name_H-M "P 21/M"
_symmetry_group_IT_number 11
_symmetry_cell_setting 'monoclinic'
loop_
_space_group_symop_operation_xyz
x,y,z
-x,1/2+y,-z
-x,-y,-z
x,1/2-y,z
loop_
_atom_site_type_symbol
_atom_site_label
_atom_site_fract_x
_atom_site_fract_y
_atom_site_fract_z
Si Si1 0.896488 0.075890 0.422324
Si Si2 0.083383 0.575186 0.038919
Si Si3 0.079293 0.075479 0.883270
Si Si4 0.975843 0.581756 0.639871
Si Si5 0.778692 0.085573 0.153487
Si Si6 0.683209 0.921608 0.921941
Si Si7 0.659046 0.421637 0.647097
Si Si8 0.528985 0.076390 0.642264
O O1 0.921338 0.250000 0.460264
O O2 0.786187 0.050682 0.247102
O O3 0.000000 0.000000 0.500000
O O4 0.882324 0.998719 0.483864
O O5 0.061422 0.750000 0.009082
O O6 0.209324 0.540442 0.208013
O O7 0.061820 0.503601 0.938355
O O8 0.000000 0.500000 0.000000
O O9 0.059351 0.250000 0.868535
O O10 0.985272 0.008406 0.724234
O O11 0.204361 0.038769 0.995619
O O12 0.937177 0.750000 0.611698
O O13 0.095261 0.577144 0.735013
O O14 0.729380 0.250000 0.085598
O O15 0.698115 0.971307 0.021121
O O16 0.655459 0.750000 0.889380
O O17 0.577057 0.006146 0.768666
O O18 0.634001 0.250000 0.605063
O O19 0.596099 0.514091 0.514583
O O20 0.612359 0.469279 0.671846
O O21 0.520960 0.250000 0.644281
#
# Coordination Sequence:
#
# PCOD8068507 Si02
#       8
#     4   4   4   4   4   4   4   4
#     4   9  15  23  34  50  73 104 140 177 213 254
#     4  11  22  36  51  67  89 116 147 185 227 270
#     4  10  19  30  44  62  83 110 146 184 220 264
#     4   9  16  25  38  54  75 105 139 179 218 255
#     4   8  15  24  34  50  76 108 141 174 211 253
#     4  10  18  26  40  61  85 112 144 181 218 259
#     4   9  19  33  47  65  87 112 142 180 223 265
#     4  10  18  29  47  66  87 113 143 181 222 265
#
# _framework density 15.993627
#
# number of rings (size 3 to 8) (size 9 to 14) (size 15 to 20)
#    0.000    2.500    1.250    3.000    0.000    6.000 
#    0.000    0.000    0.000    0.000    0.000    0.000 
#    0.000    0.000    0.000    1.125    0.000   15.125 
#
# Total GULP energy -396694.558909 kJ/mol
# GULP energy per Si atom -12396.704966 kJ/mol
# Density = 1.595722 g / cm^3
# Si number density = 15.993627 Si / 1000 Ang^3
#
#
#
# Elastic Constant Matrix: (Units=GPa)
#
#
# Indices 1 2 3 4 5 6 
#
# 1 46.7995 42.6865 50.2422 0.0000 -15.3126 0.0000
# 2 42.6865 102.3322 66.4962 0.0000 -21.7563 0.0000
# 3 50.2422 66.4962 114.1327 0.0000 -34.1729 0.0000
# 4 0.0000 0.0000 0.0000 32.0315 0.0000 -9.6731
# 5 -15.3126 -21.7563 -34.1729 0.0000 26.7760 0.0000
# 6 0.0000 0.0000 0.0000 -9.6731 0.0000 20.4608
#
#
#
# Elastic Compliance Matrix: (Units=1/GPa)
#
#
# Indices 1 2 3 4 5 6 
#
# 1 0.045763 -0.009663 -0.014615 0.000000 -0.000333 0.000000
# 2 -0.009663 0.017817 -0.005579 0.000000 0.001831 0.000000
# 3 -0.014615 -0.005579 0.023607 0.000000 0.017237 0.000000
# 4 0.000000 0.000000 0.000000 0.036419 0.000000 0.017217
# 5 -0.000333 0.001831 0.017237 0.000000 0.060643 0.000000
# 6 0.000000 0.000000 0.000000 0.017217 0.000000 0.057014
#
#
# Mechanical properties :
#
#
# Convention : Reuss Voigt Hill
#
# Bulk Modulus (GPa) = 36.39922 64.67935 50.53928
# Shear Modulus (GPa) = 16.12206 22.77627 19.44917
#
# Velocity S-wave (km/s) = 3.17839 3.77780 3.49098
# Velocity P-wave (km/s) = 6.02309 7.71735 6.92225
#
# Compressibility (1/GPa) = 0.02747312
#
# Stress axis : x y z
#
# Youngs Moduli (GPa) = 21.85177 56.12501 42.36093
#
# Poissons Ratio (x) = 0.54235 0.61910
# Poissons Ratio (y) = 0.21116 0.23632
# Poissons Ratio (z) = 0.31936 0.31310
#
# Static dielectric constant tensor:
#      x y z
#    x 2.634330 0.000000 -0.452200 
#    y 0.000000 3.190670 0.000000 
#    z -0.452200 0.000000 3.289050 
# 
# 
# High freq. dielectric constant tensor:
#      x y z
#    x 1.551820 0.000000 -0.045080 
#    y 0.000000 1.632550 0.000000 
#    z -0.045080 0.000000 1.611130 
# 
# From -- ./inp_files/42500.got.cif
#   From: 2010.06.25/outbox.cif.g09.slc.cpg/sg11_22_cif.got.tgz:42500.got - 2010.06.27 23:14:04.
