data_PCOD8068010
_publ_section_title
;
Structure prediction by ZEFSAII (Michael W. Deem and Ramdas Pophale) SiO2 
 PCOD8068010
Probable space group: P 2/M
;
_chemical_formula_sum "Si O2"
_cell_formula_units_Z 24
_cell_length_a 26.034959
_cell_length_b 13.722693
_cell_length_c 12.067278
_cell_angle_alpha 90.000000
_cell_angle_beta 22.026682
_cell_angle_gamma 90.000000
_cell_volume 1616.892780
_symmetry_space_group_name_H-M "P 2/M"
_symmetry_group_IT_number 10
_symmetry_cell_setting 'monoclinic'
loop_
_space_group_symop_operation_xyz
x,y,z
-x,y,-z
-x,-y,-z
x,-y,z
loop_
_atom_site_type_symbol
_atom_site_label
_atom_site_fract_x
_atom_site_fract_y
_atom_site_fract_z
Si Si1 0.841996 0.112025 0.943832
Si Si2 0.348409 0.269352 0.006117
Si Si3 0.651586 0.730649 0.399760
Si Si4 0.336931 0.607022 0.826140
Si Si5 0.841998 0.887975 0.688180
Si Si6 0.499998 0.614995 0.870395
O O1 0.799525 0.131512 0.900950
O O2 0.999999 0.138895 0.645792
O O3 0.815280 0.000000 0.027845
O O4 0.751569 0.176543 0.209704
O O5 0.248427 0.176543 0.215989
O O6 0.499997 0.231829 0.666670
O O7 0.283759 0.338326 0.041538
O O8 0.364879 0.333265 0.086545
O O9 0.716239 0.661677 0.176573
O O10 0.635116 0.666733 0.546067
O O11 0.500000 0.599267 0.500000
O O12 0.270849 0.500000 0.958301
O O13 0.815273 0.000000 0.711051
O O14 0.499995 0.500000 0.842458
O O15 0.500000 0.635028 0.000000
#
# Coordination Sequence:
#
# PCOD8068010 Si02
#       6
#     4   4   4   4   4   4
#     4   9  17  29  44  65  96 127 150 177 221 274
#     4   9  17  26  45  69  90 116 148 190 221 266
#     4   9  17  26  45  69  90 116 148 190 221 266
#     4   9  14  22  38  63  90 114 139 175 225 270
#     4   9  17  29  44  65  96 127 150 177 221 274
#     4   9  18  31  48  69  90 117 153 190 228 266
#
# _framework density 14.843285
#
# number of rings (size 3 to 8) (size 9 to 14) (size 15 to 20)
#    1.000    2.000    1.667    2.000    0.000    0.667 
#    0.000    1.667    0.000    8.000    0.000    4.667 
#    0.000    0.000    0.000    0.000    0.000    0.000 
#
# Total GULP energy -297321.916286 kJ/mol
# GULP energy per Si atom -12388.413179 kJ/mol
# Density = 1.480950 g / cm^3
# Si number density = 14.843285 Si / 1000 Ang^3
#
#
#
# Elastic Constant Matrix: (Units=GPa)
#
#
# Indices 1 2 3 4 5 6 
#
# 1 82.4783 50.4422 29.9405 0.0000 10.5564 0.0000
# 2 50.4422 110.3643 53.9086 0.0000 -1.0334 0.0000
# 3 29.9405 53.9086 50.8353 0.0000 -1.1402 0.0000
# 4 0.0000 0.0000 0.0000 9.1894 0.0000 3.1263
# 5 10.5564 -1.0334 -1.1402 0.0000 12.0138 0.0000
# 6 0.0000 0.0000 0.0000 3.1263 0.0000 19.6968
#
#
#
# Elastic Compliance Matrix: (Units=1/GPa)
#
#
# Indices 1 2 3 4 5 6 
#
# 1 0.020887 -0.007275 -0.005024 0.000000 -0.019456 0.000000
# 2 -0.007275 0.021333 -0.018192 0.000000 0.006501 0.000000
# 3 -0.005024 -0.018192 0.042075 0.000000 0.006843 0.000000
# 4 0.000000 0.000000 0.000000 0.115033 0.000000 -0.018258
# 5 -0.019456 0.006501 0.006843 0.000000 0.101542 0.000000
# 6 0.000000 0.000000 0.000000 -0.018258 0.000000 0.053668
#
#
# Mechanical properties :
#
#
# Convention : Reuss Voigt Hill
#
# Bulk Modulus (GPa) = 42.89184 56.91780 49.90482
# Shear Modulus (GPa) = 11.81221 15.47245 13.64233
#
# Velocity S-wave (km/s) = 2.82404 3.23210 3.03494
# Velocity P-wave (km/s) = 6.29228 7.23586 6.78051
#
# Compressibility (1/GPa) = 0.02331446
#
# Stress axis : x y z
#
# Youngs Moduli (GPa) = 47.87559 46.87594 23.76681
#
# Poissons Ratio (x) = 0.34102 0.11940
# Poissons Ratio (y) = 0.34829 0.43237
# Poissons Ratio (z) = 0.24051 0.85277
#
# Static dielectric constant tensor:
#      x y z
#    x 2.563710 0.000000 0.008440 
#    y 0.000000 2.937400 0.000000 
#    z 0.008440 0.000000 2.535310 
# 
# 
# High freq. dielectric constant tensor:
#      x y z
#    x 1.532570 0.000000 -0.000040 
#    y 0.000000 1.578800 0.000000 
#    z -0.000040 0.000000 1.532690 
# 
# From -- ./inp_files/45659.got.cif
#   From: 2010.06.25/outbox.cif.g09.slc.cpg/sg10_23_cif.got.tgz:45659.got - 2010.06.27 22:07:45.
