data_PCOD8068561
_publ_section_title
;
Structure prediction by ZEFSAII (Michael W. Deem and Ramdas Pophale) SiO2 
 PCOD8068561
Probable space group: P 21/M
;
_chemical_formula_sum "Si O2"
_cell_formula_units_Z 32
_cell_length_a 12.569719
_cell_length_b 9.243746
_cell_length_c 19.341544
_cell_angle_alpha 90.000000
_cell_angle_beta 63.484465
_cell_angle_gamma 90.000000
_cell_volume 2010.930987
_symmetry_space_group_name_H-M "P 21/M"
_symmetry_group_IT_number 11
_symmetry_cell_setting 'monoclinic'
loop_
_space_group_symop_operation_xyz
x,y,z
-x,1/2+y,-z
-x,-y,-z
x,1/2-y,z
loop_
_atom_site_type_symbol
_atom_site_label
_atom_site_fract_x
_atom_site_fract_y
_atom_site_fract_z
Si Si1 0.337716 0.418059 0.431394
Si Si2 0.274364 0.920726 0.584580
Si Si3 0.098496 0.420523 0.427109
Si Si4 0.771693 0.919997 0.170038
Si Si5 0.890712 0.915223 0.002842
Si Si6 0.008365 0.579463 0.681648
Si Si7 0.999464 0.919770 0.836373
Si Si8 0.402534 0.582343 0.688442
O O1 0.328580 0.250000 0.453487
O O2 0.340479 0.505802 0.501491
O O3 0.228822 0.467615 0.414298
O O4 0.457526 0.450850 0.354529
O O5 0.278796 0.750000 0.571541
O O6 0.342408 0.966111 0.634251
O O7 0.140076 0.982066 0.627980
O O8 0.078054 0.250000 0.441186
O O9 0.082981 0.470430 0.351583
O O10 0.000000 0.500000 0.500000
O O11 0.772338 0.750000 0.186263
O O12 0.776483 0.950070 0.084641
O O13 0.650766 0.989746 0.233126
O O14 0.884455 0.992583 0.174406
O O15 0.924571 0.750000 0.003869
O O16 0.886337 0.948693 0.921222
O O17 0.000000 0.000000 0.000000
O O18 0.019234 0.750000 0.678824
O O19 0.962205 0.527018 0.770373
O O20 0.034120 0.750000 0.825447
O O21 0.376603 0.750000 0.710642
#
# Coordination Sequence:
#
# PCOD8068561 Si02
#       8
#     4   4   4   4   4   4   4   4
#     4  10  21  33  46  64  86 113 148 186 218 252
#     4  10  18  30  47  64  86 115 147 178 212 258
#     4  10  19  32  47  64  85 110 143 183 220 253
#     4  10  18  27  41  66  93 115 142 178 215 253
#     4   8  15  25  40  62  88 115 142 171 208 256
#     4   9  16  27  46  67  85 112 146 176 209 255
#     4   9  15  28  46  63  88 120 146 171 211 261
#     4  10  20  33  45  61  87 120 151 175 210 261
#
# _framework density 15.913028000000001
#
# number of rings (size 3 to 8) (size 9 to 14) (size 15 to 20)
#    0.000    2.500    2.500    0.750    0.000    1.500 
#    0.000    0.625    0.000    0.000    0.000    0.875 
#    0.000    0.000    0.000    0.000    0.000    0.000 
#
# Total GULP energy -396508.905650 kJ/mol
# GULP energy per Si atom -12390.903302 kJ/mol
# Density = 1.587681 g / cm^3
# Si number density = 15.913028 Si / 1000 Ang^3
#
#
#
# Elastic Constant Matrix: (Units=GPa)
#
#
# Indices 1 2 3 4 5 6 
#
# 1 77.9801 21.6507 53.8119 0.0000 -4.9527 0.0000
# 2 21.6507 36.9059 43.8277 0.0000 -1.9068 0.0000
# 3 53.8119 43.8277 156.6308 0.0000 4.8356 0.0000
# 4 0.0000 0.0000 0.0000 24.3965 0.0000 -2.5325
# 5 -4.9527 -1.9068 4.8356 0.0000 17.9371 0.0000
# 6 0.0000 0.0000 0.0000 -2.5325 0.0000 12.2304
#
#
#
# Elastic Compliance Matrix: (Units=1/GPa)
#
#
# Indices 1 2 3 4 5 6 
#
# 1 0.017912 -0.004009 -0.005215 0.000000 0.005925 0.000000
# 2 -0.004009 0.042486 -0.010705 0.000000 0.006296 0.000000
# 3 -0.005215 -0.010705 0.011346 0.000000 -0.005637 0.000000
# 4 0.000000 0.000000 0.000000 0.041890 0.000000 0.008674
# 5 0.005925 0.006296 -0.005637 0.000000 0.059575 0.000000
# 6 0.000000 0.000000 0.000000 0.008674 0.000000 0.083560
#
#
# Mechanical properties :
#
#
# Convention : Reuss Voigt Hill
#
# Bulk Modulus (GPa) = 31.36226 56.67750 44.01988
# Shear Modulus (GPa) = 16.27313 21.06125 18.66719
#
# Velocity S-wave (km/s) = 3.20133 3.64197 3.42874
# Velocity P-wave (km/s) = 5.78066 7.30614 6.58770
#
# Compressibility (1/GPa) = 0.03188546
#
# Stress axis : x y z
#
# Youngs Moduli (GPa) = 55.82896 23.53707 88.13930
#
# Poissons Ratio (x) = 0.09435 0.45965
# Poissons Ratio (y) = 0.22380 0.94357
# Poissons Ratio (z) = 0.29115 0.25197
#
# Static dielectric constant tensor:
#      x y z
#    x 2.931320 0.000000 0.171810 
#    y 0.000000 2.846450 0.000000 
#    z 0.171810 0.000000 3.610430 
# 
# 
# High freq. dielectric constant tensor:
#      x y z
#    x 1.572420 0.000000 0.007000 
#    y 0.000000 1.602310 0.000000 
#    z 0.007000 0.000000 1.624640 
# 
# From -- ./inp_files/42485.got.cif
#   From: 2010.06.25/outbox.cif.g09.slc.cpg/sg11_22_cif.got.tgz:42485.got - 2010.06.27 23:14:04.
