data_PCOD8068774
_publ_section_title
;
Structure prediction by ZEFSAII (Michael W. Deem and Ramdas Pophale) SiO2 
 PCOD8068774
Probable space group: P 21/M
;
_chemical_formula_sum "Si O2"
_cell_formula_units_Z 28
_cell_length_a 17.726956
_cell_length_b 9.109369
_cell_length_c 16.057064
_cell_angle_alpha 90.000000
_cell_angle_beta 41.900033
_cell_angle_gamma 90.000000
_cell_volume 1731.635437
_symmetry_space_group_name_H-M "P 21/M"
_symmetry_group_IT_number 11
_symmetry_cell_setting 'monoclinic'
loop_
_space_group_symop_operation_xyz
x,y,z
-x,1/2+y,-z
-x,-y,-z
x,1/2-y,z
loop_
_atom_site_type_symbol
_atom_site_label
_atom_site_fract_x
_atom_site_fract_y
_atom_site_fract_z
Si Si1 0.213501 0.417978 0.584633
Si Si2 0.416933 0.577576 0.131436
Si Si3 0.162957 0.919310 0.334418
Si Si4 0.943564 0.578598 0.426579
Si Si5 0.671801 0.084933 0.372175
Si Si6 0.433657 0.420386 0.293215
Si Si7 0.446587 0.083723 0.665875
O O1 0.209165 0.250000 0.618252
O O2 0.098242 0.466799 0.631654
O O3 0.227605 0.516954 0.654952
O O4 0.314854 0.441280 0.436463
O O5 0.443475 0.750000 0.114478
O O6 0.290311 0.547800 0.201100
O O7 0.431909 0.508643 0.209400
O O8 0.500000 0.500000 0.000000
O O9 0.146887 0.750000 0.370300
O O10 0.075089 0.964787 0.332897
O O11 0.136565 0.005545 0.439716
O O12 0.922800 0.750000 0.454757
O O13 0.705230 0.250000 0.319571
O O14 0.557931 0.082887 0.518551
O O15 0.655606 0.989934 0.301821
O O16 0.460844 0.250000 0.254088
O O17 0.533234 0.488745 0.267804
O O18 0.412901 0.250000 0.717311
#
# Coordination Sequence:
#
# PCOD8068774 Si02
#       7
#     4   4   4   4   4   4   4
#     4   9  16  25  40  61  87 116 144 174 214 264
#     4  11  22  34  47  64  87 117 153 192 229 264
#     4   9  18  30  45  64  86 112 147 186 224 264
#     4   9  16  28  45  65  88 115 145 180 221 267
#     4   9  16  24  36  56  83 114 146 178 211 251
#     4  10  18  29  44  62  84 113 148 183 221 265
#     4   9  16  26  39  56  81 113 146 179 215 258
#
# _framework density 16.169684
#
# number of rings (size 3 to 8) (size 9 to 14) (size 15 to 20)
#    0.000    2.571    1.429    1.714    0.000    5.143 
#    0.000    0.000    0.000    0.000    0.000    0.000 
#    0.000    1.143    0.000    3.143    0.000    4.571 
#
# Total GULP energy -347094.140611 kJ/mol
# GULP energy per Si atom -12396.219308 kJ/mol
# Density = 1.613288 g / cm^3
# Si number density = 16.169684 Si / 1000 Ang^3
#
#
#
# Elastic Constant Matrix: (Units=GPa)
#
#
# Indices 1 2 3 4 5 6 
#
# 1 150.1288 65.9261 30.1583 0.0000 0.5766 0.0000
# 2 65.9261 102.0021 26.3479 0.0000 0.7538 0.0000
# 3 30.1583 26.3479 30.0972 0.0000 -5.3987 0.0000
# 4 0.0000 0.0000 0.0000 16.6683 0.0000 6.7616
# 5 0.5766 0.7538 -5.3987 0.0000 12.4828 0.0000
# 6 0.0000 0.0000 0.0000 6.7616 0.0000 30.4266
#
#
#
# Elastic Compliance Matrix: (Units=1/GPa)
#
#
# Indices 1 2 3 4 5 6 
#
# 1 0.010083 -0.004845 -0.006389 0.000000 -0.002936 0.000000
# 2 -0.004845 0.015429 -0.009518 0.000000 -0.004824 0.000000
# 3 -0.006389 -0.009518 0.052162 0.000000 0.023429 0.000000
# 4 0.000000 0.000000 0.000000 0.065938 0.000000 -0.014653
# 5 -0.002936 -0.004824 0.023429 0.000000 0.090670 0.000000
# 6 0.000000 0.000000 0.000000 -0.014653 0.000000 0.036122
#
#
# Mechanical properties :
#
#
# Convention : Reuss Voigt Hill
#
# Bulk Modulus (GPa) = 27.64609 58.56587 43.10598
# Shear Modulus (GPa) = 15.43372 22.56858 19.00115
#
# Velocity S-wave (km/s) = 3.09283 3.74001 3.43171
# Velocity P-wave (km/s) = 5.46706 7.41272 6.51295
#
# Compressibility (1/GPa) = 0.03617148
#
# Stress axis : x y z
#
# Youngs Moduli (GPa) = 99.17435 64.81175 19.17091
#
# Poissons Ratio (x) = 0.31401 0.12248
# Poissons Ratio (y) = 0.48050 0.18246
# Poissons Ratio (z) = 0.63362 0.61686
#
# Static dielectric constant tensor:
#      x y z
#    x 3.472470 0.000000 -0.015600 
#    y 0.000000 3.134030 0.000000 
#    z -0.015600 0.000000 2.642320 
# 
# 
# High freq. dielectric constant tensor:
#      x y z
#    x 1.641780 0.000000 0.006470 
#    y 0.000000 1.635880 0.000000 
#    z 0.006470 0.000000 1.543250 
# 
# From -- ./inp_files/42608.got.cif
#   From: 2010.06.25/outbox.cif.g09.slc.cpg/sg11_22_cif.got.tgz:42608.got - 2010.06.27 23:14:04.
