data_PCOD8068788
_publ_section_title
;
Structure prediction by ZEFSAII (Michael W. Deem and Ramdas Pophale) SiO2 
 PCOD8068788
Probable space group: P 21/M
;
_chemical_formula_sum "Si O2"
_cell_formula_units_Z 32
_cell_length_a 26.263200
_cell_length_b 12.712210
_cell_length_c 13.139590
_cell_angle_alpha 90.000000
_cell_angle_beta 26.224168
_cell_angle_gamma 90.000000
_cell_volume 1938.469947
_symmetry_space_group_name_H-M "P 21/M"
_symmetry_group_IT_number 11
_symmetry_cell_setting 'monoclinic'
loop_
_space_group_symop_operation_xyz
x,y,z
-x,1/2+y,-z
-x,-y,-z
x,1/2-y,z
loop_
_atom_site_type_symbol
_atom_site_label
_atom_site_fract_x
_atom_site_fract_y
_atom_site_fract_z
Si Si1 0.586531 0.129737 0.166811
Si Si2 0.725479 0.993510 0.065391
Si Si3 0.092809 0.461052 0.411284
Si Si4 0.795526 0.130651 0.653871
Si Si5 0.894818 0.128202 0.261895
Si Si6 0.673429 0.627857 0.358084
Si Si7 0.094436 0.868275 0.136784
Si Si8 0.875485 0.511281 0.105662
O O1 0.599512 0.250000 0.180861
O O2 0.620892 0.055406 0.199718
O O3 0.455224 0.106502 0.370365
O O4 0.665063 0.108718 0.926134
O O5 0.679808 0.913044 0.230866
O O6 0.810918 0.079096 0.960520
O O7 0.793056 0.927165 0.856021
O O8 0.116399 0.557778 0.444230
O O9 0.000000 0.500000 0.500000
O O10 0.033138 0.367788 0.582706
O O11 0.832510 0.250000 0.612324
O O12 0.807234 0.109354 0.512707
O O13 0.893687 0.250000 0.229625
O O14 0.848265 0.052837 0.256808
O O15 0.025776 0.098297 0.055920
O O16 0.705828 0.750000 0.299615
O O17 0.758927 0.568200 0.280232
O O18 0.133561 0.750000 0.045207
O O19 0.082370 0.928381 0.052780
#
# Coordination Sequence:
#
# PCOD8068788 Si02
#       8
#     4   4   4   4   4   4   4   4
#     4   9  17  31  51  73  98 129 165 198 234 280
#     4   9  18  30  47  69  98 128 168 198 232 276
#     4   9  17  28  41  68  97 126 157 195 231 279
#     4   9  17  31  51  72  94 124 161 198 235 282
#     4  10  19  33  54  73  94 123 158 200 245 293
#     4  10  20  33  49  71  98 130 164 200 240 284
#     4  10  18  29  44  67 100 131 158 193 239 286
#     4  10  20  33  48  73 100 121 158 198 248 291
#
# _framework density 16.507864999999999
#
# number of rings (size 3 to 8) (size 9 to 14) (size 15 to 20)
#    0.000    2.500    1.250    1.500    0.000    3.500 
#    0.000    0.625    0.000    0.750    0.000    0.000 
#    0.000    0.000    0.000    0.000    0.000    0.000 
#
# Total GULP energy -396662.561768 kJ/mol
# GULP energy per Si atom -12395.705055 kJ/mol
# Density = 1.647029 g / cm^3
# Si number density = 16.507865 Si / 1000 Ang^3
#
#
#
# Elastic Constant Matrix: (Units=GPa)
#
#
# Indices 1 2 3 4 5 6 
#
# 1 89.0667 41.7053 49.7234 0.0000 4.5293 0.0000
# 2 41.7053 81.5767 45.9770 0.0000 3.0727 0.0000
# 3 49.7234 45.9770 92.0721 0.0000 2.3685 0.0000
# 4 0.0000 0.0000 0.0000 23.5155 0.0000 0.2753
# 5 4.5293 3.0727 2.3685 0.0000 22.2371 0.0000
# 6 0.0000 0.0000 0.0000 0.2753 0.0000 19.4161
#
#
#
# Elastic Compliance Matrix: (Units=1/GPa)
#
#
# Indices 1 2 3 4 5 6 
#
# 1 0.017536 -0.004979 -0.006929 0.000000 -0.002146 0.000000
# 2 -0.004979 0.018521 -0.006537 0.000000 -0.000849 0.000000
# 3 -0.006929 -0.006537 0.017857 0.000000 0.000413 0.000000
# 4 0.000000 0.000000 0.000000 0.042532 0.000000 -0.000603
# 5 -0.002146 -0.000849 0.000413 0.000000 0.045480 0.000000
# 6 0.000000 0.000000 0.000000 -0.000603 0.000000 0.051512
#
#
# Mechanical properties :
#
#
# Convention : Reuss Voigt Hill
#
# Bulk Modulus (GPa) = 58.74569 59.72522 59.23546
# Shear Modulus (GPa) = 21.18606 21.38771 21.28689
#
# Velocity S-wave (km/s) = 3.58633 3.60336 3.59486
# Velocity P-wave (km/s) = 7.26724 7.31920 7.29327
#
# Compressibility (1/GPa) = 0.01702252
#
# Stress axis : x y z
#
# Youngs Moduli (GPa) = 57.02421 53.99398 56.00079
#
# Poissons Ratio (x) = 0.26886 0.38802
# Poissons Ratio (y) = 0.28395 0.36610
# Poissons Ratio (z) = 0.39511 0.35298
#
# Static dielectric constant tensor:
#      x y z
#    x 3.013690 0.000000 0.163300 
#    y 0.000000 3.036110 0.000000 
#    z 0.163300 0.000000 3.373820 
# 
# 
# High freq. dielectric constant tensor:
#      x y z
#    x 1.624190 0.000000 0.009920 
#    y 0.000000 1.628960 0.000000 
#    z 0.009920 0.000000 1.639310 
# 
# From -- ./inp_files/35469.got.cif
#   From: 2010.06.25/outbox.cif.g09.slc.cpg/sg11_18_cif.got.tgz:35469.got - 2010.06.27 23:14:04.
