data_PCOD8068850
_publ_section_title
;
Structure prediction by ZEFSAII (Michael W. Deem and Ramdas Pophale) SiO2 
 PCOD8068850
Probable space group: P 21/M
;
_chemical_formula_sum "Si O2"
_cell_formula_units_Z 28
_cell_length_a 10.237626
_cell_length_b 9.123754
_cell_length_c 24.242681
_cell_angle_alpha 90.000000
_cell_angle_beta 45.956407
_cell_angle_gamma 90.000000
_cell_volume 1627.677009
_symmetry_space_group_name_H-M "P 21/M"
_symmetry_group_IT_number 11
_symmetry_cell_setting 'monoclinic'
loop_
_space_group_symop_operation_xyz
x,y,z
-x,1/2+y,-z
-x,-y,-z
x,1/2-y,z
loop_
_atom_site_type_symbol
_atom_site_label
_atom_site_fract_x
_atom_site_fract_y
_atom_site_fract_z
Si Si1 0.096077 0.079429 0.313066
Si Si2 0.082982 0.584848 0.144016
Si Si3 0.827984 0.418930 0.292575
Si Si4 0.638739 0.578545 0.999425
Si Si5 0.061700 0.423853 0.537343
Si Si6 0.355481 0.587129 0.166255
Si Si7 0.538421 0.920274 0.545224
O O1 0.104755 0.250000 0.325852
O O2 0.937113 0.043135 0.316399
O O3 0.062065 0.984979 0.377291
O O4 0.290763 0.030532 0.230519
O O5 0.042472 0.750000 0.136765
O O6 0.227072 0.578303 0.150790
O O7 0.896046 0.513178 0.220560
O O8 0.163062 0.494936 0.067912
O O9 0.857594 0.250000 0.268604
O O10 0.617438 0.458209 0.364433
O O11 0.648736 0.750000 0.981576
O O12 0.562166 0.555594 0.084477
O O13 0.500000 0.500000 0.000000
O O14 0.037145 0.250000 0.540320
O O15 0.270372 0.469764 0.485764
O O16 0.000000 0.500000 0.500000
O O17 0.343179 0.750000 0.195742
O O18 0.536559 0.750000 0.531448
O O19 0.500000 0.000000 0.500000
#
# Coordination Sequence:
#
# PCOD8068850 Si02
#       7
#     4   4   4   4   4   4   4
#     4  10  18  29  47  68  92 122 159 200 243 290
#     4   9  16  24  36  57  86 120 155 191 235 283
#     4   9  17  29  45  67  93 121 157 198 241 288
#     4   9  15  23  35  53  81 118 156 192 233 281
#     4  11  23  37  53  72  99 131 164 204 250 296
#     4   8  15  25  37  56  84 118 156 193 233 282
#     4  10  20  34  53  75  97 126 163 206 249 294
#
# _framework density 17.202428999999999
#
# number of rings (size 3 to 8) (size 9 to 14) (size 15 to 20)
#    0.000    2.571    1.429    2.571    0.000    5.714 
#    0.000    0.000    0.000    0.000    0.000    0.000 
#    0.000    1.143    0.000    3.429    0.000    5.571 
#
# Total GULP energy -347077.809587 kJ/mol
# GULP energy per Si atom -12395.636057 kJ/mol
# Density = 1.716328 g / cm^3
# Si number density = 17.202429 Si / 1000 Ang^3
#
#
#
# Elastic Constant Matrix: (Units=GPa)
#
#
# Indices 1 2 3 4 5 6 
#
# 1 52.9998 36.4764 46.0687 0.0000 -5.2813 0.0000
# 2 36.4764 103.6859 68.9825 0.0000 -6.3599 0.0000
# 3 46.0687 68.9825 138.7302 0.0000 -20.6069 0.0000
# 4 0.0000 0.0000 0.0000 36.9912 0.0000 -1.5801
# 5 -5.2813 -6.3599 -20.6069 0.0000 13.2473 0.0000
# 6 0.0000 0.0000 0.0000 -1.5801 0.0000 14.4721
#
#
#
# Elastic Compliance Matrix: (Units=1/GPa)
#
#
# Indices 1 2 3 4 5 6 
#
# 1 0.028585 -0.005461 -0.007118 0.000000 -0.002299 0.000000
# 2 -0.005461 0.015771 -0.006798 0.000000 -0.005180 0.000000
# 3 -0.007118 -0.006798 0.015665 0.000000 0.018267 0.000000
# 4 0.000000 0.000000 0.000000 0.027160 0.000000 0.002965
# 5 -0.002299 -0.005180 0.018267 0.000000 0.100499 0.000000
# 6 0.000000 0.000000 0.000000 0.002965 0.000000 0.069422
#
#
# Mechanical properties :
#
#
# Convention : Reuss Voigt Hill
#
# Bulk Modulus (GPa) = 47.02200 66.49679 56.75939
# Shear Modulus (GPa) = 16.50460 22.53468 19.51964
#
# Velocity S-wave (km/s) = 3.10083 3.62328 3.37219
# Velocity P-wave (km/s) = 6.34146 7.49957 6.94470
#
# Compressibility (1/GPa) = 0.02126664
#
# Stress axis : x y z
#
# Youngs Moduli (GPa) = 34.98344 63.40932 63.83480
#
# Poissons Ratio (x) = 0.34630 0.45438
# Poissons Ratio (y) = 0.19106 0.43393
# Poissons Ratio (z) = 0.24902 0.43103
#
# Static dielectric constant tensor:
#      x y z
#    x 2.737640 0.000000 -0.374100 
#    y 0.000000 3.337690 0.000000 
#    z -0.374100 0.000000 3.676530 
# 
# 
# High freq. dielectric constant tensor:
#      x y z
#    x 1.589870 0.000000 -0.029100 
#    y 0.000000 1.676380 0.000000 
#    z -0.029100 0.000000 1.680670 
# 
# From -- ./inp_files/64144.got.cif
#   From: 2010.06.25/outbox.cif.g09.slc.cpg/sg11_33_cif.got.tgz:64144.got - 2010.06.27 23:14:04.
