data_PCOD8068196
_publ_section_title
;
Structure prediction by ZEFSAII (Michael W. Deem and Ramdas Pophale) SiO2 
 PCOD8068196
Probable space group: P 21/M
;
_chemical_formula_sum "Si O2"
_cell_formula_units_Z 32
_cell_length_a 21.449081
_cell_length_b 9.064815
_cell_length_c 25.139411
_cell_angle_alpha 90.000000
_cell_angle_beta 21.859329
_cell_angle_gamma 90.000000
_cell_volume 1819.909027
_symmetry_space_group_name_H-M "P 21/M"
_symmetry_group_IT_number 11
_symmetry_cell_setting 'monoclinic'
loop_
_space_group_symop_operation_xyz
x,y,z
-x,1/2+y,-z
-x,-y,-z
x,1/2-y,z
loop_
_atom_site_type_symbol
_atom_site_label
_atom_site_fract_x
_atom_site_fract_y
_atom_site_fract_z
Si Si1 0.500448 0.925141 0.442879
Si Si2 0.561432 0.087130 0.761420
Si Si3 0.255286 0.084984 0.301978
Si Si4 0.165555 0.082855 0.884411
Si Si5 0.123809 0.917582 0.566351
Si Si6 0.065877 0.583365 0.368229
Si Si7 0.393701 0.420262 0.793822
Si Si8 0.676963 0.575053 0.507606
O O1 0.473339 0.750000 0.468506
O O2 0.676197 0.966737 0.276073
O O3 0.500000 0.000000 0.500000
O O4 0.348355 0.996988 0.529546
O O5 0.551642 0.250000 0.794343
O O6 0.714550 0.077623 0.599153
O O7 0.395224 0.053537 0.856849
O O8 0.584163 0.975522 0.792418
O O9 0.296344 0.250000 0.251182
O O10 0.095463 0.079211 0.466486
O O11 0.222084 0.989007 0.275619
O O12 0.122751 0.250000 0.906332
O O13 0.211586 0.057757 0.910762
O O14 0.000000 0.000000 0.000000
O O15 0.073927 0.750000 0.619783
O O16 0.159629 0.007368 0.592385
O O17 0.969063 0.993567 0.658111
O O18 0.113892 0.750000 0.315241
O O19 0.454577 0.250000 0.733477
O O20 0.516494 0.538858 0.670560
O O21 0.698281 0.750000 0.483952
#
# Coordination Sequence:
#
# PCOD8068196 Si02
#       8
#     4   4   4   4   4   4   4   4
#     4  10  20  34  49  67  90 116 147 184 223 264
#     4   8  13  21  32  43  59  86 119 156 198 238
#     4   9  15  20  26  38  57  81 112 152 196 239
#     4   9  18  31  47  67  91 116 145 181 221 265
#     4   9  15  23  33  45  64  90 120 158 201 241
#     4   9  15  21  28  39  56  81 116 155 194 238
#     4   8  15  27  39  53  75 102 132 169 208 247
#     4  10  17  25  39  58  77 100 131 167 207 252
#
# _framework density 17.583296000000001
#
# number of rings (size 3 to 8) (size 9 to 14) (size 15 to 20)
#    0.000    3.000    0.000    4.125    0.000    8.500 
#    0.000    0.000    0.000    0.000    0.000    0.000 
#    0.000    0.000    0.000    0.000    0.000    1.250 
#
# Total GULP energy -396496.649242 kJ/mol
# GULP energy per Si atom -12390.520289 kJ/mol
# Density = 1.754328 g / cm^3
# Si number density = 17.583296 Si / 1000 Ang^3
#
#
#
# Elastic Constant Matrix: (Units=GPa)
#
#
# Indices 1 2 3 4 5 6 
#
# 1 167.8941 84.2154 33.9687 0.0000 -42.5824 0.0000
# 2 84.2154 138.7449 21.0533 0.0000 -19.2235 0.0000
# 3 33.9687 21.0533 22.1090 0.0000 -14.8815 0.0000
# 4 0.0000 0.0000 0.0000 13.6648 0.0000 -8.8388
# 5 -42.5824 -19.2235 -14.8815 0.0000 21.3278 0.0000
# 6 0.0000 0.0000 0.0000 -8.8388 0.0000 37.3319
#
#
#
# Elastic Compliance Matrix: (Units=1/GPa)
#
#
# Indices 1 2 3 4 5 6 
#
# 1 0.015289 -0.005654 -0.001867 0.000000 0.024127 0.000000
# 2 -0.005654 0.010679 -0.004906 0.000000 -0.005086 0.000000
# 3 -0.001867 -0.004906 0.089158 0.000000 0.054062 0.000000
# 4 0.000000 0.000000 0.000000 0.086414 0.000000 0.020460
# 5 0.024127 -0.005086 0.054062 0.000000 0.128196 0.000000
# 6 0.000000 0.000000 0.000000 0.020460 0.000000 0.031631
#
#
# Mechanical properties :
#
#
# Convention : Reuss Voigt Hill
#
# Bulk Modulus (GPa) = 11.07738 67.46921 39.27329
# Shear Modulus (GPa) = 12.01024 27.09894 19.55459
#
# Velocity S-wave (km/s) = 2.61635 3.93004 3.33845
# Velocity P-wave (km/s) = 3.92947 7.68428 6.10282
#
# Compressibility (1/GPa) = 0.09027409
#
# Stress axis : x y z
#
# Youngs Moduli (GPa) = 65.40587 93.64123 11.21600
#
# Poissons Ratio (x) = 0.52946 0.02094
# Poissons Ratio (y) = 0.36981 0.05502
# Poissons Ratio (z) = 0.12208 0.45936
#
# Static dielectric constant tensor:
#      x y z
#    x 3.668810 0.000000 -0.391150 
#    y 0.000000 3.367800 0.000000 
#    z -0.391150 0.000000 2.439710 
# 
# 
# High freq. dielectric constant tensor:
#      x y z
#    x 1.698640 0.000000 -0.042760 
#    y 0.000000 1.690540 0.000000 
#    z -0.042760 0.000000 1.581880 
# 
# From -- ./inp_files/44402.got.cif
#   From: 2010.06.25/outbox.cif.g09.slc.cpg/sg11_23_cif.got.tgz:44402.got - 2010.06.27 23:14:04.
