data_PCOD8068633
_publ_section_title
;
Structure prediction by ZEFSAII (Michael W. Deem and Ramdas Pophale) SiO2 
 PCOD8068633
Probable space group: P 21/M
;
_chemical_formula_sum "Si O2"
_cell_formula_units_Z 32
_cell_length_a 13.646117
_cell_length_b 9.076017
_cell_length_c 24.143906
_cell_angle_alpha 90.000000
_cell_angle_beta 136.720619
_cell_angle_gamma 90.000000
_cell_volume 2050.005922
_symmetry_space_group_name_H-M "P 21/M"
_symmetry_group_IT_number 11
_symmetry_cell_setting 'monoclinic'
loop_
_space_group_symop_operation_xyz
x,y,z
-x,1/2+y,-z
-x,-y,-z
x,1/2-y,z
loop_
_atom_site_type_symbol
_atom_site_label
_atom_site_fract_x
_atom_site_fract_y
_atom_site_fract_z
Si Si1 0.813755 0.420590 0.681057
Si Si2 0.327525 0.918706 0.175577
Si Si3 0.925742 0.077224 0.843878
Si Si4 0.197037 0.416587 0.430476
Si Si5 0.863471 0.926077 0.470565
Si Si6 0.099385 0.579622 0.997391
Si Si7 0.494046 0.917950 0.405050
Si Si8 0.574394 0.075803 0.329544
O O1 0.843384 0.250000 0.686511
O O2 0.896418 0.479258 0.769422
O O3 0.872053 0.494975 0.648993
O O4 0.645693 0.455647 0.617287
O O5 0.375317 0.750000 0.204068
O O6 0.211340 0.961521 0.174742
O O7 0.261543 0.940044 0.086529
O O8 0.465358 0.024081 0.236613
O O9 0.956432 0.250000 0.858269
O O10 0.068329 0.994108 0.924826
O O11 0.149787 0.250000 0.402108
O O12 0.138481 0.472522 0.465538
O O13 0.368498 0.435174 0.499287
O O14 0.864171 0.750000 0.463714
O O15 0.724640 0.992450 0.383150
O O16 0.000000 0.000000 0.500000
O O17 0.057112 0.750000 0.977355
O O18 0.000000 0.500000 0.000000
O O19 0.486055 0.750000 0.378123
O O20 0.502884 0.030858 0.358082
O O21 0.598979 0.250000 0.336646
#
# Coordination Sequence:
#
# PCOD8068633 Si02
#       8
#     4   4   4   4   4   4   4   4
#     4  10  18  28  43  61  88 123 155 187 221 262
#     4   9  16  29  43  57  86 121 152 188 229 264
#     4   9  17  28  41  58  85 122 157 189 226 260
#     4   9  19  31  45  65  87 113 145 185 226 264
#     4  10  21  38  55  69  90 116 144 184 232 276
#     4   9  17  27  40  57  81 116 154 191 228 264
#     4   9  17  31  43  56  87 123 152 186 226 258
#     4  11  20  28  45  71  91 115 153 189 224 269
#
# _framework density 15.60971
#
# number of rings (size 3 to 8) (size 9 to 14) (size 15 to 20)
#    0.000    2.500    1.250    3.750    0.000    6.000 
#    0.000    0.000    0.000    0.000    0.000    0.000 
#    0.000    1.000    0.000    3.250    0.000    4.750 
#
# Total GULP energy -396635.029484 kJ/mol
# GULP energy per Si atom -12394.844671 kJ/mol
# Density = 1.557418 g / cm^3
# Si number density = 15.609710 Si / 1000 Ang^3
#
#
#
# Elastic Constant Matrix: (Units=GPa)
#
#
# Indices 1 2 3 4 5 6 
#
# 1 55.4729 33.1505 47.4713 0.0000 -4.1575 0.0000
# 2 33.1505 79.4815 55.1638 0.0000 -1.2577 0.0000
# 3 47.4713 55.1638 118.7423 0.0000 -12.2531 0.0000
# 4 0.0000 0.0000 0.0000 30.5747 0.0000 -2.0467
# 5 -4.1575 -1.2577 -12.2531 0.0000 15.6860 0.0000
# 6 0.0000 0.0000 0.0000 -2.0467 0.0000 20.8079
#
#
#
# Elastic Compliance Matrix: (Units=1/GPa)
#
#
# Indices 1 2 3 4 5 6 
#
# 1 0.029235 -0.006054 -0.008838 0.000000 0.000359 0.000000
# 2 -0.006054 0.020305 -0.007625 0.000000 -0.005933 0.000000
# 3 -0.008838 -0.007625 0.016524 0.000000 0.009954 0.000000
# 4 0.000000 0.000000 0.000000 0.032924 0.000000 0.003238
# 5 0.000359 -0.005933 0.009954 0.000000 0.071146 0.000000
# 6 0.000000 0.000000 0.000000 0.003238 0.000000 0.048377
#
#
# Mechanical properties :
#
#
# Convention : Reuss Voigt Hill
#
# Bulk Modulus (GPa) = 47.55033 58.36309 52.95671
# Shear Modulus (GPa) = 18.48058 21.27446 19.87752
#
# Velocity S-wave (km/s) = 3.44454 3.69575 3.57235
# Velocity P-wave (km/s) = 6.80793 7.46201 7.14246
#
# Compressibility (1/GPa) = 0.02103035
#
# Stress axis : x y z
#
# Youngs Moduli (GPa) = 34.20593 49.25000 60.51636
#
# Poissons Ratio (x) = 0.29814 0.53486
# Poissons Ratio (y) = 0.20707 0.46143
# Poissons Ratio (z) = 0.30232 0.37553
#
# Static dielectric constant tensor:
#      x y z
#    x 2.536080 0.000000 0.040030 
#    y 0.000000 3.029350 0.000000 
#    z 0.040030 0.000000 2.817930 
# 
# 
# High freq. dielectric constant tensor:
#      x y z
#    x 1.538560 0.000000 -0.010210 
#    y 0.000000 1.603820 0.000000 
#    z -0.010210 0.000000 1.605010 
# 
# From -- ./inp_files/52920.got.cif
#   From: 2010.06.25/outbox.cif.g09.slc.cpg/sg11_27_cif.got.tgz:52920.got - 2010.06.27 23:14:04.
