data_PCOD8068130
_publ_section_title
;
Structure prediction by ZEFSAII (Michael W. Deem and Ramdas Pophale) SiO2 
 PCOD8068130
Probable space group: P 21/M
;
_chemical_formula_sum "Si O2"
_cell_formula_units_Z 28
_cell_length_a 18.945323
_cell_length_b 8.712441
_cell_length_c 17.968985
_cell_angle_alpha 90.000000
_cell_angle_beta 147.572097
_cell_angle_gamma 90.000000
_cell_volume 1590.460658
_symmetry_space_group_name_H-M "P 21/M"
_symmetry_group_IT_number 11
_symmetry_cell_setting 'monoclinic'
loop_
_space_group_symop_operation_xyz
x,y,z
-x,1/2+y,-z
-x,-y,-z
x,1/2-y,z
loop_
_atom_site_type_symbol
_atom_site_label
_atom_site_fract_x
_atom_site_fract_y
_atom_site_fract_z
Si Si1 0.883869 0.926465 0.244735
Si Si2 0.218220 0.074468 0.397018
Si Si3 0.836748 0.927631 0.490468
Si Si4 0.938880 0.926680 0.135085
Si Si5 0.853778 0.069365 0.362578
Si Si6 0.134932 0.428096 0.092519
Si Si7 0.640411 0.429843 0.608968
O O1 0.859341 0.750000 0.242416
O O2 0.846870 0.964512 0.125592
O O3 0.801624 0.024336 0.233171
O O4 0.037657 0.964702 0.386527
O O5 0.238910 0.250000 0.391333
O O6 0.253368 0.052157 0.516149
O O7 0.066877 0.033576 0.245762
O O8 0.315729 0.970484 0.435769
O O9 0.879306 0.750000 0.519062
O O10 0.767677 0.989838 0.352616
O O11 0.987680 0.750000 0.182977
O O12 0.851299 0.953904 0.983938
O O13 0.851507 0.250000 0.370565
O O14 0.000000 0.000000 0.500000
O O15 0.135722 0.250000 0.114510
O O16 0.256872 0.508968 0.239538
O O17 0.000000 0.500000 0.000000
O O18 0.500000 0.500000 0.500000
O O19 0.630942 0.250000 0.608922
#
# Coordination Sequence:
#
# PCOD8068130 Si02
#       7
#     4   4   4   4   4   4   4
#     4   9  15  24  37  56  85 121 157 196 239 286
#     4  10  19  31  49  71  96 126 165 209 253 302
#     4   9  16  25  38  58  84 118 157 197 239 290
#     4   9  18  30  47  70  97 129 166 205 248 298
#     4  10  16  22  33  52  81 119 157 194 237 288
#     4  11  21  35  55  80 105 134 172 213 257 307
#     4  12  25  40  56  75 102 136 172 215 263 310
#
# _framework density 17.604962
#
# number of rings (size 3 to 8) (size 9 to 14) (size 15 to 20)
#    0.000    2.000    1.429    6.000    0.000    2.857 
#    0.000    0.000    0.000    0.000    0.000    0.000 
#    0.000    1.143    0.000    3.429    0.000    7.714 
#
# Total GULP energy -346966.465845 kJ/mol
# GULP energy per Si atom -12391.659494 kJ/mol
# Density = 1.756489 g / cm^3
# Si number density = 17.604962 Si / 1000 Ang^3
#
#
#
# Elastic Constant Matrix: (Units=GPa)
#
#
# Indices 1 2 3 4 5 6 
#
# 1 123.9133 56.1368 64.0072 0.0000 -37.9593 0.0000
# 2 56.1368 123.3571 43.2565 0.0000 -12.8369 0.0000
# 3 64.0072 43.2565 68.4269 0.0000 -12.5198 0.0000
# 4 0.0000 0.0000 0.0000 19.7261 0.0000 -4.7879
# 5 -37.9593 -12.8369 -12.5198 0.0000 31.5646 0.0000
# 6 0.0000 0.0000 0.0000 -4.7879 0.0000 29.6934
#
#
#
# Elastic Compliance Matrix: (Units=1/GPa)
#
#
# Indices 1 2 3 4 5 6 
#
# 1 0.025528 -0.003020 -0.017875 0.000000 0.022381 0.000000
# 2 -0.003020 0.010863 -0.004204 0.000000 -0.000881 0.000000
# 3 -0.017875 -0.004204 0.032074 0.000000 -0.010484 0.000000
# 4 0.000000 0.000000 0.000000 0.052759 0.000000 0.008507
# 5 0.022381 -0.000881 -0.010484 0.000000 0.054080 0.000000
# 6 0.000000 0.000000 0.000000 0.008507 0.000000 0.035049
#
#
# Mechanical properties :
#
#
# Convention : Reuss Voigt Hill
#
# Bulk Modulus (GPa) = 54.74108 71.38870 63.06489
# Shear Modulus (GPa) = 18.75196 26.34993 22.55094
#
# Velocity S-wave (km/s) = 3.26721 3.87296 3.58291
# Velocity P-wave (km/s) = 6.73754 7.78705 7.28123
#
# Compressibility (1/GPa) = 0.01826782
#
# Stress axis : x y z
#
# Youngs Moduli (GPa) = 39.17300 92.05404 31.17837
#
# Poissons Ratio (x) = 0.27800 0.55731
# Poissons Ratio (y) = 0.11830 0.13106
# Poissons Ratio (z) = 0.70021 0.38695
#
# Static dielectric constant tensor:
#      x y z
#    x 3.740400 0.000000 -0.347940 
#    y 0.000000 3.408040 0.000000 
#    z -0.347940 0.000000 2.157870 
# 
# 
# High freq. dielectric constant tensor:
#      x y z
#    x 1.686390 0.000000 -0.059670 
#    y 0.000000 1.699970 0.000000 
#    z -0.059670 0.000000 1.616890 
# 
# From -- ./inp_files/61271.got.cif
#   From: 2010.06.25/outbox.cif.g09.slc.cpg/sg11_31_cif.got.tgz:61271.got - 2010.06.27 23:14:04.
