data_PCOD8068310
_publ_section_title
;
Structure prediction by ZEFSAII (Michael W. Deem and Ramdas Pophale) SiO2 
 PCOD8068310
Probable space group: P 21/M
;
_chemical_formula_sum "Si O2"
_cell_formula_units_Z 32
_cell_length_a 9.562277
_cell_length_b 8.929668
_cell_length_c 21.788418
_cell_angle_alpha 90.000000
_cell_angle_beta 70.806339
_cell_angle_gamma 90.000000
_cell_volume 1757.050210
_symmetry_space_group_name_H-M "P 21/M"
_symmetry_group_IT_number 11
_symmetry_cell_setting 'monoclinic'
loop_
_space_group_symop_operation_xyz
x,y,z
-x,1/2+y,-z
-x,-y,-z
x,1/2-y,z
loop_
_atom_site_type_symbol
_atom_site_label
_atom_site_fract_x
_atom_site_fract_y
_atom_site_fract_z
Si Si1 0.678754 0.425907 0.726524
Si Si2 0.534715 0.427633 0.930417
Si Si3 0.586765 0.075449 0.167415
Si Si4 0.342578 0.574511 0.512896
Si Si5 0.320705 0.924359 0.649653
Si Si6 0.161025 0.577511 0.174230
Si Si7 0.141281 0.922846 0.788408
Si Si8 0.658385 0.572280 0.606917
O O1 0.649168 0.250000 0.723095
O O2 0.526023 0.504467 0.767679
O O3 0.803683 0.456707 0.759637
O O4 0.736840 0.499822 0.655006
O O5 0.515058 0.250000 0.935698
O O6 0.420811 0.493234 0.896905
O O7 0.700536 0.474412 0.887123
O O8 0.500000 0.500000 0.000000
O O9 0.548410 0.250000 0.165318
O O10 0.751817 0.051419 0.169143
O O11 0.500000 0.500000 0.500000
O O12 0.360721 0.750000 0.496809
O O13 0.255639 0.548196 0.590137
O O14 0.263895 0.493537 0.466252
O O15 0.333440 0.750000 0.662823
O O16 0.213054 0.997412 0.716322
O O17 0.488249 0.985677 0.631550
O O18 0.130092 0.750000 0.167950
O O19 0.015816 0.493242 0.172926
O O20 0.112377 0.750000 0.780127
O O21 0.676919 0.750000 0.604939
#
# Coordination Sequence:
#
# PCOD8068310 Si02
#       8
#     4   4   4   4   4   4   4   4
#     4  10  19  32  50  74 103 136 177 221 267 313
#     4  10  21  39  61  84 110 139 175 212 253 302
#     4  10  19  33  55  82 110 138 173 215 257 302
#     4   9  16  26  41  64  97 133 170 215 268 317
#     4   8  15  28  44  67 100 133 166 212 262 306
#     4   9  21  37  52  77 110 137 167 214 259 304
#     4  10  19  33  53  78 107 140 175 211 256 312
#     4  10  17  28  46  69 100 131 171 224 271 314
#
# _framework density 18.212343000000001
#
# number of rings (size 3 to 8) (size 9 to 14) (size 15 to 20)
#    0.000    2.500    1.250    3.375    0.000    4.000 
#    0.000    1.875    0.000    0.750    0.000    0.000 
#    0.000    0.000    0.000    0.000    0.000    0.000 
#
# Total GULP energy -396659.094109 kJ/mol
# GULP energy per Si atom -12395.596691 kJ/mol
# Density = 1.817089 g / cm^3
# Si number density = 18.212343 Si / 1000 Ang^3
#
#
#
# Elastic Constant Matrix: (Units=GPa)
#
#
# Indices 1 2 3 4 5 6 
#
# 1 78.4179 42.2713 40.8382 0.0000 2.3968 0.0000
# 2 42.2713 92.0538 49.1793 0.0000 9.8633 0.0000
# 3 40.8382 49.1793 127.1219 0.0000 22.5855 0.0000
# 4 0.0000 0.0000 0.0000 31.5226 0.0000 5.3259
# 5 2.3968 9.8633 22.5855 0.0000 21.4631 0.0000
# 6 0.0000 0.0000 0.0000 5.3259 0.0000 26.8690
#
#
#
# Elastic Compliance Matrix: (Units=1/GPa)
#
#
# Indices 1 2 3 4 5 6 
#
# 1 0.018480 -0.006785 -0.004304 0.000000 0.005583 0.000000
# 2 -0.006785 0.016198 -0.003566 0.000000 -0.002934 0.000000
# 3 -0.004304 -0.003566 0.012609 0.000000 -0.011150 0.000000
# 4 0.000000 0.000000 0.000000 0.032822 0.000000 -0.006506
# 5 0.005583 -0.002934 -0.011150 0.000000 0.059049 0.000000
# 6 0.000000 0.000000 0.000000 -0.006506 0.000000 0.038507
#
#
# Mechanical properties :
#
#
# Convention : Reuss Voigt Hill
#
# Bulk Modulus (GPa) = 55.62062 62.46347 59.04204
# Shear Modulus (GPa) = 23.47756 26.99125 25.23441
#
# Velocity S-wave (km/s) = 3.59430 3.85389 3.72636
# Velocity P-wave (km/s) = 6.91605 7.36037 7.14167
#
# Compressibility (1/GPa) = 0.01797894
#
# Stress axis : x y z
#
# Youngs Moduli (GPa) = 54.11112 61.73523 79.30560
#
# Poissons Ratio (x) = 0.41888 0.34133
# Poissons Ratio (y) = 0.36715 0.28276
# Poissons Ratio (z) = 0.23289 0.22012
#
# Static dielectric constant tensor:
#      x y z
#    x 3.095800 0.000000 0.195530 
#    y 0.000000 3.343070 0.000000 
#    z 0.195530 0.000000 3.613780 
# 
# 
# High freq. dielectric constant tensor:
#      x y z
#    x 1.672000 0.000000 0.023220 
#    y 0.000000 1.705900 0.000000 
#    z 0.023220 0.000000 1.706760 
# 
# From -- ./inp_files/67778.got.cif
#   From: 2010.06.25/outbox.cif.g09.slc.cpg/sg11_34_cif.got.tgz:67778.got - 2010.06.27 23:14:04.
