data_PCOD8068961
_publ_section_title
;
Structure prediction by ZEFSAII (Michael W. Deem and Ramdas Pophale) SiO2 
 PCOD8068961
Probable space group: P 21/M
;
_chemical_formula_sum "Si O2"
_cell_formula_units_Z 32
_cell_length_a 11.979812
_cell_length_b 9.094892
_cell_length_c 21.222714
_cell_angle_alpha 90.000000
_cell_angle_beta 128.854381
_cell_angle_gamma 90.000000
_cell_volume 1800.704971
_symmetry_space_group_name_H-M "P 21/M"
_symmetry_group_IT_number 11
_symmetry_cell_setting 'monoclinic'
loop_
_space_group_symop_operation_xyz
x,y,z
-x,1/2+y,-z
-x,-y,-z
x,1/2-y,z
loop_
_atom_site_type_symbol
_atom_site_label
_atom_site_fract_x
_atom_site_fract_y
_atom_site_fract_z
Si Si1 0.221500 0.421045 0.146235
Si Si2 0.866193 0.923403 0.226944
Si Si3 0.580493 0.077215 0.159548
Si Si4 0.997013 0.079050 0.593423
Si Si5 0.708398 0.419976 0.953723
Si Si6 0.538349 0.081961 0.289096
Si Si7 0.782102 0.921417 0.436870
Si Si8 0.041826 0.581083 0.860662
O O1 0.211204 0.250000 0.123091
O O2 0.213370 0.515700 0.080023
O O3 0.369561 0.450953 0.235841
O O4 0.091949 0.470276 0.144641
O O5 0.838886 0.750000 0.214928
O O6 0.955939 0.968601 0.320367
O O7 0.714405 0.005360 0.171997
O O8 0.957456 0.976640 0.199705
O O9 0.577963 0.250000 0.144710
O O10 0.589188 0.042274 0.236675
O O11 0.436059 0.007016 0.080487
O O12 0.961394 0.250000 0.576415
O O13 0.124322 0.035885 0.590986
O O14 0.852805 0.992182 0.524032
O O15 0.672072 0.250000 0.928215
O O16 0.812225 0.440121 0.049466
O O17 0.574069 0.250000 0.317266
O O18 0.622610 0.983018 0.369275
O O19 0.771125 0.750000 0.444501
O O20 0.022592 0.750000 0.832713
#
# Coordination Sequence:
#
# PCOD8068961 Si02
#       8
#     4   4   4   4   4   4   4   4
#     4   9  19  36  56  78 104 136 176 219 262 308
#     4  11  22  36  54  76 106 140 175 216 258 309
#     4  10  20  34  53  76 105 141 175 210 261 316
#     4   9  19  33  48  73 107 137 166 206 253 304
#     4  10  20  34  55  80 105 133 171 223 269 305
#     4   9  17  30  51  77 104 134 166 209 260 305
#     4  10  18  29  50  78 106 134 166 206 252 304
#     4  10  22  38  54  75 104 140 179 216 260 314
#
# _framework density 17.770817999999998
#
# number of rings (size 3 to 8) (size 9 to 14) (size 15 to 20)
#    0.000    2.250    1.250    2.625    0.000    5.500 
#    0.000    0.000    0.000    0.750    0.000    0.000 
#    0.000    0.000    0.000    0.000    0.000    0.000 
#
# Total GULP energy -396914.161989 kJ/mol
# GULP energy per Si atom -12403.567562 kJ/mol
# Density = 1.773037 g / cm^3
# Si number density = 17.770818 Si / 1000 Ang^3
#
#
#
# Elastic Constant Matrix: (Units=GPa)
#
#
# Indices 1 2 3 4 5 6 
#
# 1 51.8217 27.0455 27.0872 0.0000 -9.0876 0.0000
# 2 27.0455 75.2684 43.9521 0.0000 -3.5809 0.0000
# 3 27.0872 43.9521 88.8069 0.0000 -2.5731 0.0000
# 4 0.0000 0.0000 0.0000 31.0423 0.0000 1.0197
# 5 -9.0876 -3.5809 -2.5731 0.0000 18.5420 0.0000
# 6 0.0000 0.0000 0.0000 1.0197 0.0000 28.1518
#
#
#
# Elastic Compliance Matrix: (Units=1/GPa)
#
#
# Indices 1 2 3 4 5 6 
#
# 1 0.027142 -0.006426 -0.004768 0.000000 0.011400 0.000000
# 2 -0.006426 0.020309 -0.008101 0.000000 -0.000352 0.000000
# 3 -0.004768 -0.008101 0.016678 0.000000 -0.001587 0.000000
# 4 0.000000 0.000000 0.000000 0.032252 0.000000 -0.001168
# 5 0.011400 -0.000352 -0.001587 0.000000 0.059231 0.000000
# 6 0.000000 0.000000 0.000000 -0.001168 0.000000 0.035564
#
#
# Mechanical properties :
#
#
# Convention : Reuss Voigt Hill
#
# Bulk Modulus (GPa) = 39.15704 45.78517 42.47111
# Shear Modulus (GPa) = 20.98374 23.40136 22.19255
#
# Velocity S-wave (km/s) = 3.44000 3.63277 3.53770
# Velocity P-wave (km/s) = 6.15308 6.58910 6.37482
#
# Compressibility (1/GPa) = 0.02553819
#
# Stress axis : x y z
#
# Youngs Moduli (GPa) = 36.84321 49.23978 59.95866
#
# Poissons Ratio (x) = 0.31642 0.28588
# Poissons Ratio (y) = 0.23676 0.48574
# Poissons Ratio (z) = 0.17567 0.39891
#
# Static dielectric constant tensor:
#      x y z
#    x 3.134300 0.000000 0.128000 
#    y 0.000000 3.296050 0.000000 
#    z 0.128000 0.000000 3.269700 
# 
# 
# High freq. dielectric constant tensor:
#      x y z
#    x 1.663670 0.000000 0.014310 
#    y 0.000000 1.694700 0.000000 
#    z 0.014310 0.000000 1.687090 
# 
# From -- ./inp_files/42904.got.cif
#   From: 2010.06.25/outbox.cif.g09.slc.cpg/sg11_22_cif.got.tgz:42904.got - 2010.06.27 23:14:04.
