data_PCOD8068020
_publ_section_title
;
Structure prediction by ZEFSAII (Michael W. Deem and Ramdas Pophale) SiO2 
 PCOD8068020
Probable space group: P 2/M
;
_chemical_formula_sum "Si O2"
_cell_formula_units_Z 32
_cell_length_a 9.173876
_cell_length_b 9.553415
_cell_length_c 20.715389
_cell_angle_alpha 90.000000
_cell_angle_beta 90.000000
_cell_angle_gamma 90.000000
_cell_volume 1815.534903
_symmetry_space_group_name_H-M "P 2/M"
_symmetry_group_IT_number 10
_symmetry_cell_setting 'monoclinic'
loop_
_space_group_symop_operation_xyz
x,y,z
-x,y,-z
-x,-y,-z
x,-y,z
loop_
_atom_site_type_symbol
_atom_site_label
_atom_site_fract_x
_atom_site_fract_y
_atom_site_fract_z
Si Si1 0.580342 0.837510 0.186045
Si Si2 0.080342 0.837510 0.813955
Si Si3 0.415041 0.166940 0.562703
Si Si4 0.084959 0.166940 0.562703
Si Si5 0.579710 0.660823 0.064031
Si Si6 0.414611 0.833393 0.312761
Si Si7 0.920290 0.660823 0.064031
Si Si8 0.085389 0.166607 0.312761
O O1 0.750000 0.810296 0.199915
O O2 0.524584 0.752115 0.124178
O O3 0.491765 0.780887 0.247559
O O4 0.548771 0.000000 0.172821
O O5 0.024584 0.752115 0.875822
O O6 0.991765 0.780887 0.752441
O O7 0.048771 0.000000 0.827179
O O8 0.500000 0.223446 0.500000
O O9 0.250000 0.224489 0.561716
O O10 0.496647 0.225716 0.625997
O O11 0.414325 0.000000 0.563156
O O12 0.000000 0.223446 0.500000
O O13 0.003353 0.225716 0.625997
O O14 0.085675 0.000000 0.563156
O O15 0.539398 0.500000 0.078189
O O16 0.750000 0.681916 0.052701
O O17 0.500000 0.715627 0.000000
O O18 0.250000 0.775242 0.315127
O O19 0.415240 0.000000 0.314851
O O20 0.960602 0.500000 0.078189
O O21 0.000000 0.715626 0.000000
O O22 0.084760 0.000000 0.314851
#
# Coordination Sequence:
#
# PCOD8068020 Si02
#       8
#     4   4   4   4   4   4   4   4
#     4   9  17  29  44  62  85 113 143 175 213 256
#     4   9  17  29  44  62  85 113 143 175 213 256
#     4   9  15  22  33  50  75 109 146 180 214 254
#     4   9  15  22  33  50  75 109 146 180 214 254
#     4   9  18  32  48  65  86 112 141 174 213 256
#     4   9  16  25  37  55  80 109 141 177 216 256
#     4   9  18  32  48  65  86 112 141 174 213 256
#     4   9  16  25  37  55  80 109 141 177 216 256
#
# _framework density 17.625658999999999
#
# number of rings (size 3 to 8) (size 9 to 14) (size 15 to 20)
#    0.000    3.000    0.000    1.500    0.000    7.500 
#    0.000    0.000    0.000    0.000    0.000    0.000 
#    0.000    1.000    0.000    2.750    0.000    5.000 
#
# Total GULP energy -396795.220251 kJ/mol
# GULP energy per Si atom -12399.850633 kJ/mol
# Density = 1.758554 g / cm^3
# Si number density = 17.625659 Si / 1000 Ang^3
#
#
#
# Elastic Constant Matrix: (Units=GPa)
#
#
# Indices 1 2 3 4 5 6 
#
# 1 121.8594 23.6997 96.8824 0.0000 0.0000 0.0000
# 2 23.6997 24.4884 42.5294 0.0000 0.0000 0.0000
# 3 96.8824 42.5294 205.6726 0.0000 0.0000 0.0000
# 4 0.0000 0.0000 0.0000 1.3509 0.0000 0.0000
# 5 0.0000 0.0000 0.0000 0.0000 41.5657 0.0000
# 6 0.0000 0.0000 0.0000 0.0000 0.0000 10.3215
#
#
#
# Elastic Compliance Matrix: (Units=1/GPa)
#
#
# Indices 1 2 3 4 5 6 
#
# 1 0.013269 -0.003100 -0.005609 0.000000 0.000000 0.000000
# 2 -0.003100 0.064443 -0.011866 0.000000 0.000000 0.000000
# 3 -0.005609 -0.011866 0.009958 0.000000 0.000000 0.000000
# 4 0.000000 0.000000 0.000000 0.740273 0.000000 0.000000
# 5 0.000000 0.000000 0.000000 0.000000 0.024058 0.000000
# 6 0.000000 0.000000 0.000000 0.000000 0.000000 0.096885
#
#
# Mechanical properties :
#
#
# Convention : Reuss Voigt Hill
#
# Bulk Modulus (GPa) = 21.49594 75.36036 48.42815
# Shear Modulus (GPa) = 4.97245 23.24154 14.10700
#
# Velocity S-wave (km/s) = 1.68145 3.63522 2.83214
# Velocity P-wave (km/s) = 3.99900 7.77616 6.18307
#
# Compressibility (1/GPa) = 0.04652041
#
# Stress axis : x y z
#
# Youngs Moduli (GPa) = 75.36637 15.51770 100.42266
#
# Poissons Ratio (x) = 0.04810 0.56329
# Poissons Ratio (y) = 0.23360 1.19157
# Poissons Ratio (z) = 0.42275 0.18413
#
# Static dielectric constant tensor:
#      x y z
#    x 3.378840 0.000000 0.000000 
#    y 0.000000 2.710200 0.000000 
#    z 0.000000 0.000000 3.494720 
# 
# 
# High freq. dielectric constant tensor:
#      x y z
#    x 1.688540 0.000000 0.000000 
#    y 0.000000 1.612160 0.000000 
#    z 0.000000 0.000000 1.697960 
# 
# From -- ./inp_files/32171.got.cif
#   From: 2010.06.25/outbox.cif.g09.slc.cpg/sg10_17_cif.got.tgz:32171.got - 2010.06.27 22:07:45.
