data_PCOD8068000
_publ_section_title
;
Structure prediction by ZEFSAII (Michael W. Deem and Ramdas Pophale) SiO2 
 PCOD8068000
Probable space group: P 2/M
;
_chemical_formula_sum "Si O2"
_cell_formula_units_Z 32
_cell_length_a 24.175458
_cell_length_b 9.623462
_cell_length_c 22.861576
_cell_angle_alpha 90.000000
_cell_angle_beta 160.176891
_cell_angle_gamma 90.000000
_cell_volume 1803.691488
_symmetry_space_group_name_H-M "P 2/M"
_symmetry_group_IT_number 10
_symmetry_cell_setting 'monoclinic'
loop_
_space_group_symop_operation_xyz
x,y,z
-x,y,-z
-x,-y,-z
x,-y,z
loop_
_atom_site_type_symbol
_atom_site_label
_atom_site_fract_x
_atom_site_fract_y
_atom_site_fract_z
Si Si1 0.930155 0.665140 0.490864
Si Si2 0.259809 0.336319 0.510889
Si Si3 0.648444 0.339089 0.526250
Si Si4 0.565211 0.334855 0.125776
Si Si5 0.938499 0.334732 0.256176
Si Si6 0.423833 0.334824 0.105743
Si Si7 0.811904 0.349443 0.807989
Si Si8 0.403453 0.156868 0.343218
O O1 0.930997 0.500000 0.487709
O O2 0.747213 0.720477 0.318331
O O3 0.000000 0.728643 0.500000
O O4 0.037931 0.713990 0.653226
O O5 0.258808 0.500000 0.521296
O O6 0.261776 0.298400 0.444382
O O7 0.426639 0.274907 0.706044
O O8 0.090389 0.274026 0.368884
O O9 0.592116 0.500000 0.468576
O O10 0.771128 0.305593 0.701120
O O11 0.492192 0.239759 0.379501
O O12 0.565407 0.500000 0.121877
O O13 0.451907 0.286259 0.066763
O O14 0.500000 0.271087 0.000000
O O15 0.942278 0.500000 0.255698
O O16 0.758020 0.281292 0.055625
O O17 0.426136 0.500000 0.112498
O O18 0.727447 0.500000 0.737108
O O19 0.763480 0.236462 0.808451
O O20 0.000000 0.367876 0.000000
O O21 0.500000 0.162576 0.500000
O O22 0.369465 0.000000 0.288746
#
# Coordination Sequence:
#
# PCOD8068000 Si02
#       8
#     4   4   4   4   4   4   4   4
#     4   9  14  19  27  40  59  85 121 169 217 256
#     4   9  16  27  38  52  76 105 138 175 216 261
#     4   9  17  30  47  66  90 119 150 186 226 270
#     4   9  14  19  27  40  59  84 122 170 214 257
#     4   9  15  23  33  45  66  94 129 174 216 256
#     4   9  15  23  33  46  65  94 131 173 217 257
#     4   9  17  30  47  70  98 123 150 187 230 271
#     4   9  17  30  49  70  91 119 152 184 224 271
#
# _framework density 17.741392999999999
#
# number of rings (size 3 to 8) (size 9 to 14) (size 15 to 20)
#    0.000    3.000    1.250    1.125    0.000    4.750 
#    2.250    0.000    0.000    0.000    0.000    0.000 
#    0.000    0.000    0.000    0.000    0.000    1.250 
#
# Total GULP energy -396444.687596 kJ/mol
# GULP energy per Si atom -12388.896487 kJ/mol
# Density = 1.770101 g / cm^3
# Si number density = 17.741393 Si / 1000 Ang^3
#
#
#
# Elastic Constant Matrix: (Units=GPa)
#
#
# Indices 1 2 3 4 5 6 
#
# 1 123.6281 28.3652 54.3886 0.0000 18.6640 0.0000
# 2 28.3652 36.2919 13.7297 0.0000 7.0653 0.0000
# 3 54.3886 13.7297 120.1684 0.0000 18.6423 0.0000
# 4 0.0000 0.0000 0.0000 3.9818 0.0000 -1.2475
# 5 18.6640 7.0653 18.6423 0.0000 25.8335 0.0000
# 6 0.0000 0.0000 0.0000 -1.2475 0.0000 0.6920
#
#
#
# Elastic Compliance Matrix: (Units=1/GPa)
#
#
# Indices 1 2 3 4 5 6 
#
# 1 0.012102 -0.007173 -0.004061 0.000000 -0.003852 0.000000
# 2 -0.007173 0.033959 0.000004 0.000000 -0.004108 0.000000
# 3 -0.004061 0.000004 0.010927 0.000000 -0.004953 0.000000
# 4 0.000000 0.000000 0.000000 0.577065 0.000000 1.040340
# 5 -0.003852 -0.004108 -0.004953 0.000000 0.046190 0.000000
# 6 0.000000 0.000000 0.000000 1.040340 0.000000 3.320724
#
#
# Mechanical properties :
#
#
# Convention : Reuss Voigt Hill
#
# Bulk Modulus (GPa) = 28.96077 52.56169 40.76123
# Shear Modulus (GPa) = 1.23918 18.34179 9.79048
#
# Velocity S-wave (km/s) = 0.83665 3.21883 2.35168
# Velocity P-wave (km/s) = 4.15844 6.59586 5.51353
#
# Compressibility (1/GPa) = 0.03452947
#
# Stress axis : x y z
#
# Youngs Moduli (GPa) = 82.62807 29.44725 91.51306
#
# Poissons Ratio (x) = 0.21123 0.37159
# Poissons Ratio (y) = 0.59270 -0.00036
# Poissons Ratio (z) = 0.33551 -0.00012
#
# Static dielectric constant tensor:
#      x y z
#    x 3.381030 0.000000 0.129550 
#    y 0.000000 2.696080 0.000000 
#    z 0.129550 0.000000 3.442480 
# 
# 
# High freq. dielectric constant tensor:
#      x y z
#    x 1.689210 0.000000 0.009970 
#    y 0.000000 1.598780 0.000000 
#    z 0.009970 0.000000 1.688780 
# 
# From -- ./inp_files/90643.got.cif
#   From: 2010.06.25/outbox.cif.g09.slc.cpg/sg10_46_cif.got.tgz:90643.got - 2010.06.27 22:07:45.
