data_PCOD8068491
_publ_section_title
;
Structure prediction by ZEFSAII (Michael W. Deem and Ramdas Pophale) SiO2 
 PCOD8068491
Probable space group: P 21/M
;
_chemical_formula_sum "Si O2"
_cell_formula_units_Z 28
_cell_length_a 16.534503
_cell_length_b 16.695093
_cell_length_c 9.517710
_cell_angle_alpha 90.000000
_cell_angle_beta 147.997679
_cell_angle_gamma 90.000000
_cell_volume 1392.356084
_symmetry_space_group_name_H-M "P 21/M"
_symmetry_group_IT_number 11
_symmetry_cell_setting 'monoclinic'
loop_
_space_group_symop_operation_xyz
x,y,z
-x,1/2+y,-z
-x,-y,-z
x,1/2-y,z
loop_
_atom_site_type_symbol
_atom_site_label
_atom_site_fract_x
_atom_site_fract_y
_atom_site_fract_z
Si Si1 0.750000 0.101850 0.250000
Si Si2 0.774685 0.579043 0.939675
Si Si3 0.274685 0.079043 0.439675
Si Si4 0.952164 0.969404 0.678765
Si Si5 0.547836 0.969404 0.821235
Si Si6 0.039274 0.160393 0.547204
Si Si7 0.460726 0.339607 0.952796
O O1 0.859311 0.156925 0.316326
O O2 0.852561 0.047159 0.500276
O O3 0.640689 0.156925 0.183674
O O4 0.647439 0.047159 0.999724
O O5 0.863592 0.640131 0.171009
O O6 0.870890 0.495997 0.060464
O O7 0.750000 0.618550 0.750000
O O8 0.606907 0.561720 0.757417
O O9 0.106907 0.061720 0.257417
O O10 0.363592 0.140132 0.671009
O O11 0.370890 0.995997 0.560464
O O12 0.919636 0.901870 0.514211
O O13 0.580364 0.901870 0.985789
O O14 0.079506 0.250000 0.555841
O O15 0.420494 0.250000 0.944159
#
# Coordination Sequence:
#
# PCOD8068491 Si02
#       7
#     4   4   4   4   4   4   4
#     4  10  17  38  61  84 110 148 204 230 269 338
#     4  11  22  36  59  87 117 152 192 235 285 341
#     4  11  22  36  59  87 117 152 192 235 285 341
#     4  11  19  39  61  85 112 151 200 235 272 340
#     4  11  19  39  61  85 112 151 200 235 272 340
#     4  11  22  36  61  88 118 149 188 242 289 335
#     4  11  22  36  61  88 118 149 188 242 289 335
#
# _framework density 20.109798999999999
#
# number of rings (size 3 to 8) (size 9 to 14) (size 15 to 20)
#    0.000    1.143    5.714    3.000    0.000    2.857 
#    0.000    0.000    0.000    0.857    0.000    0.000 
#    0.000    0.000    0.000    0.000    0.000    0.000 
#
# Total GULP energy -347129.020691 kJ/mol
# GULP energy per Si atom -12397.465025 kJ/mol
# Density = 2.006403 g / cm^3
# Si number density = 20.109799 Si / 1000 Ang^3
#
#
#
# Elastic Constant Matrix: (Units=GPa)
#
#
# Indices 1 2 3 4 5 6 
#
# 1 134.1690 23.4677 39.3416 0.0000 2.5301 0.0000
# 2 23.4677 93.8103 23.6416 0.0000 0.1204 0.0000
# 3 39.3416 23.6416 63.5219 0.0000 -6.6984 0.0000
# 4 0.0000 0.0000 0.0000 12.4504 0.0000 -0.7428
# 5 2.5301 0.1204 -6.6984 0.0000 36.5987 0.0000
# 6 0.0000 0.0000 0.0000 -0.7428 0.0000 8.2961
#
#
#
# Elastic Compliance Matrix: (Units=1/GPa)
#
#
# Indices 1 2 3 4 5 6 
#
# 1 0.009282 -0.000913 -0.005584 0.000000 -0.001661 0.000000
# 2 -0.000913 0.011879 -0.003929 0.000000 -0.000695 0.000000
# 3 -0.005584 -0.003929 0.021113 0.000000 0.004263 0.000000
# 4 0.000000 0.000000 0.000000 0.080750 0.000000 0.007230
# 5 -0.001661 -0.000695 0.004263 0.000000 0.028221 0.000000
# 6 0.000000 0.000000 0.000000 0.007230 0.000000 0.121186
#
#
# Mechanical properties :
#
#
# Convention : Reuss Voigt Hill
#
# Bulk Modulus (GPa) = 46.68076 51.60032 49.14054
# Shear Modulus (GPa) = 16.64319 25.13906 20.89112
#
# Velocity S-wave (km/s) = 2.87995 3.53950 3.22662
# Velocity P-wave (km/s) = 5.85851 6.51299 6.19440
#
# Compressibility (1/GPa) = 0.02142210
#
# Stress axis : x y z
#
# Youngs Moduli (GPa) = 107.74058 84.18049 47.36440
#
# Poissons Ratio (x) = 0.07682 0.26448
# Poissons Ratio (y) = 0.09832 0.18611
# Poissons Ratio (z) = 0.60161 0.33078
#
# Static dielectric constant tensor:
#      x y z
#    x 4.030920 0.000000 0.326500 
#    y 0.000000 3.350130 0.000000 
#    z 0.326500 0.000000 3.612550 
# 
# 
# High freq. dielectric constant tensor:
#      x y z
#    x 1.807080 0.000000 0.018430 
#    y 0.000000 1.753260 0.000000 
#    z 0.018430 0.000000 1.767710 
# 
# From -- ./inp_files/22782.got.cif
#   From: 2010.06.25/outbox.cif.g09.slc.cpg/sg11_12_cif.got.tgz:22782.got - 2010.06.27 23:14:04.
