data_PCOD8068607
_publ_section_title
;
Structure prediction by ZEFSAII (Michael W. Deem and Ramdas Pophale) SiO2 
 PCOD8068607
Probable space group: P 21/M
;
_chemical_formula_sum "Si O2"
_cell_formula_units_Z 32
_cell_length_a 16.606390
_cell_length_b 13.577245
_cell_length_c 10.534082
_cell_angle_alpha 90.000000
_cell_angle_beta 143.768559
_cell_angle_gamma 90.000000
_cell_volume 1403.804489
_symmetry_space_group_name_H-M "P 21/M"
_symmetry_group_IT_number 11
_symmetry_cell_setting 'monoclinic'
loop_
_space_group_symop_operation_xyz
x,y,z
-x,1/2+y,-z
-x,-y,-z
x,1/2-y,z
loop_
_atom_site_type_symbol
_atom_site_label
_atom_site_fract_x
_atom_site_fract_y
_atom_site_fract_z
Si Si1 0.211430 0.134205 0.853465
Si Si2 0.085824 0.633886 0.526232
Si Si3 0.405686 0.468037 0.594752
Si Si4 0.018635 0.638966 0.000001
Si Si5 0.503456 0.635115 0.865777
Si Si6 0.375922 0.635408 0.967326
Si Si7 0.259224 0.362149 0.196229
Si Si8 0.130944 0.504031 0.339273
O O1 0.209745 0.250000 0.867637
O O2 0.335717 0.103033 0.918960
O O3 0.236423 0.092464 0.027081
O O4 0.063036 0.103262 0.605679
O O5 0.089071 0.750000 0.493004
O O6 0.214152 0.610171 0.781561
O O7 0.105144 0.569477 0.427157
O O8 0.440408 0.583958 0.659322
O O9 0.369791 0.433121 0.406670
O O10 0.275949 0.447242 0.522115
O O11 0.538801 0.410556 0.811274
O O12 0.066295 0.750000 0.029372
O O13 0.884588 0.636967 0.916518
O O14 0.985468 0.580142 0.826975
O O15 0.134643 0.578850 0.222441
O O16 0.485427 0.750000 0.820568
O O17 0.427352 0.597115 0.895075
O O18 0.403053 0.750000 0.006791
O O19 0.316301 0.250000 0.266579
#
# Coordination Sequence:
#
# PCOD8068607 Si02
#       8
#     4   4   4   4   4   4   4   4
#     4   9  18  34  55  79 106 136 178 222 267 318
#     4  10  18  32  56  79 102 135 182 231 260 304
#     4  11  21  33  53  78 112 140 177 221 269 321
#     4   9  17  29  45  75 110 138 173 219 270 316
#     4  10  21  35  52  77 109 143 174 219 273 318
#     4  10  21  37  57  80 106 140 183 225 268 315
#     4   9  17  31  53  79 107 139 176 220 266 319
#     4  10  18  27  50  77 102 137 174 222 265 313
#
# _framework density 22.795197000000002
#
# number of rings (size 3 to 8) (size 9 to 14) (size 15 to 20)
#    0.000    2.250    2.500    1.125    0.000    1.500 
#    0.000    0.625    0.000    0.000    0.000    0.875 
#    0.000    0.000    0.000    0.000    0.000    0.000 
#
# Total GULP energy -396446.384131 kJ/mol
# GULP energy per Si atom -12388.949504 kJ/mol
# Density = 2.274331 g / cm^3
# Si number density = 22.795197 Si / 1000 Ang^3
#
#
#
# Elastic Constant Matrix: (Units=GPa)
#
#
# Indices 1 2 3 4 5 6 
#
# 1 37.6703 -10.1636 31.2009 0.0000 18.1128 0.0000
# 2 -10.1636 41.5541 24.9170 0.0000 3.3085 0.0000
# 3 31.2009 24.9170 130.4500 0.0000 13.1589 0.0000
# 4 0.0000 0.0000 0.0000 33.9826 0.0000 5.3750
# 5 18.1128 3.3085 13.1589 0.0000 25.6279 0.0000
# 6 0.0000 0.0000 0.0000 5.3750 0.0000 2.5416
#
#
#
# Elastic Compliance Matrix: (Units=1/GPa)
#
#
# Indices 1 2 3 4 5 6 
#
# 1 0.074155 0.033505 -0.019419 0.000000 -0.046765 0.000000
# 2 0.033505 0.042335 -0.013879 0.000000 -0.022019 0.000000
# 3 -0.019419 -0.013879 0.014128 0.000000 0.008262 0.000000
# 4 0.000000 0.000000 0.000000 0.044217 0.000000 -0.093510
# 5 -0.046765 -0.022019 0.008262 0.000000 0.070672 0.000000
# 6 0.000000 0.000000 0.000000 -0.093510 0.000000 0.591199
#
#
# Mechanical properties :
#
#
# Convention : Reuss Voigt Hill
#
# Bulk Modulus (GPa) = 7.63168 33.50922 20.57045
# Shear Modulus (GPa) = 5.68202 23.34510 14.51356
#
# Velocity S-wave (km/s) = 1.58052 3.20367 2.52602
# Velocity P-wave (km/s) = 2.58572 5.33073 4.18943
#
# Compressibility (1/GPa) = 0.13103277
#
# Stress axis : x y z
#
# Youngs Moduli (GPa) = 13.48521 23.62099 70.78189
#
# Poissons Ratio (x) = -0.79142 1.37450
# Poissons Ratio (y) = -0.45182 0.98238
# Poissons Ratio (z) = 0.26187 0.32783
#
# Static dielectric constant tensor:
#      x y z
#    x 3.774280 0.000000 0.388400 
#    y 0.000000 4.324240 0.000000 
#    z 0.388400 0.000000 4.515150 
# 
# 
# High freq. dielectric constant tensor:
#      x y z
#    x 1.849300 0.000000 0.017540 
#    y 0.000000 1.905820 0.000000 
#    z 0.017540 0.000000 1.909960 
# 
# From -- ./inp_files/41689.got.cif
#   From: 2010.06.25/outbox.cif.g09.slc.cpg/sg11_21_cif.got.tgz:41689.got - 2010.06.27 23:14:04.
