data_PCOD8068539
_publ_section_title
;
Structure prediction by ZEFSAII (Michael W. Deem and Ramdas Pophale) SiO2 
 PCOD8068539
Probable space group: P 21/M
;
_chemical_formula_sum "Si O2"
_cell_formula_units_Z 32
_cell_length_a 23.422769
_cell_length_b 8.737683
_cell_length_c 16.758776
_cell_angle_alpha 90.000000
_cell_angle_beta 30.462016
_cell_angle_gamma 90.000000
_cell_volume 1738.827657
_symmetry_space_group_name_H-M "P 21/M"
_symmetry_group_IT_number 11
_symmetry_cell_setting 'monoclinic'
loop_
_space_group_symop_operation_xyz
x,y,z
-x,1/2+y,-z
-x,-y,-z
x,1/2-y,z
loop_
_atom_site_type_symbol
_atom_site_label
_atom_site_fract_x
_atom_site_fract_y
_atom_site_fract_z
Si Si1 0.483348 0.917687 0.938512
Si Si2 0.958938 0.431740 0.131659
Si Si3 0.484265 0.571553 0.257663
Si Si4 0.223102 0.583537 0.241106
Si Si5 0.742207 0.569224 0.470182
Si Si6 0.069029 0.430502 0.158150
Si Si7 0.162683 0.567602 0.488425
Si Si8 0.736945 0.568826 0.966530
O O1 0.544371 0.750000 0.859828
O O2 0.530228 0.037389 0.818274
O O3 0.353929 0.887079 0.082461
O O4 0.500000 0.000000 0.000000
O O5 0.951314 0.250000 0.135598
O O6 0.048683 0.484264 0.091620
O O7 0.836408 0.494956 0.300533
O O8 0.000000 0.500000 0.000000
O O9 0.471360 0.750000 0.291823
O O10 0.378495 0.480765 0.423454
O O11 0.608318 0.508319 0.134862
O O12 0.162631 0.750000 0.304821
O O13 0.186946 0.507178 0.369206
O O14 0.199581 0.479156 0.192066
O O15 0.754037 0.750000 0.453014
O O16 0.754147 0.510465 0.547342
O O17 0.075972 0.250000 0.152830
O O18 0.964211 0.483863 0.338480
O O19 0.186157 0.495542 0.053280
O O20 0.180698 0.750000 0.472531
O O21 0.730563 0.750000 0.971951
#
# Coordination Sequence:
#
# PCOD8068539 Si02
#       8
#     4   4   4   4   4   4   4   4
#     4  10  18  27  40  60  89 126 171 219 263 303
#     4  10  20  37  61  86 111 132 155 192 243 301
#     4  10  19  31  47  67  95 132 172 212 252 296
#     4   9  18  29  41  62  94 132 172 215 259 296
#     4  11  21  33  52  78 105 131 166 209 255 304
#     4   8  16  32  53  75 100 132 165 202 249 299
#     4   9  17  31  49  69  99 136 172 213 263 307
#     4   9  18  32  49  69  96 135 179 212 245 294
#
# _framework density 18.403205
#
# number of rings (size 3 to 8) (size 9 to 14) (size 15 to 20)
#    0.000    2.500    0.000    3.750    0.000    3.000 
#    0.000    3.125    0.000    0.750    0.000    0.000 
#    0.000    0.000    0.000    0.000    0.000    0.000 
#
# Total GULP energy -396449.960932 kJ/mol
# GULP energy per Si atom -12389.061279 kJ/mol
# Density = 1.836132 g / cm^3
# Si number density = 18.403205 Si / 1000 Ang^3
#
#
#
# Elastic Constant Matrix: (Units=GPa)
#
#
# Indices 1 2 3 4 5 6 
#
# 1 104.2232 34.4351 75.0393 0.0000 -3.5307 0.0000
# 2 34.4351 65.1344 29.8187 0.0000 -1.5220 0.0000
# 3 75.0393 29.8187 110.5323 0.0000 2.0831 0.0000
# 4 0.0000 0.0000 0.0000 26.8984 0.0000 4.2054
# 5 -3.5307 -1.5220 2.0831 0.0000 27.4116 0.0000
# 6 0.0000 0.0000 0.0000 4.2054 0.0000 15.6075
#
#
#
# Elastic Compliance Matrix: (Units=1/GPa)
#
#
# Indices 1 2 3 4 5 6 
#
# 1 0.020394 -0.004949 -0.012573 0.000000 0.003307 0.000000
# 2 -0.004949 0.018766 -0.001713 0.000000 0.000535 0.000000
# 3 -0.012573 -0.001713 0.018103 0.000000 -0.003090 0.000000
# 4 0.000000 0.000000 0.000000 0.038812 0.000000 -0.010458
# 5 0.003307 0.000535 -0.003090 0.000000 0.037171 0.000000
# 6 0.000000 0.000000 0.000000 -0.010458 0.000000 0.066890
#
#
# Mechanical properties :
#
#
# Convention : Reuss Voigt Hill
#
# Bulk Modulus (GPa) = 53.20805 62.05289 57.63047
# Shear Modulus (GPa) = 20.41909 23.35662 21.88786
#
# Velocity S-wave (km/s) = 3.33459 3.56639 3.45244
# Velocity P-wave (km/s) = 6.61824 7.12395 6.87574
#
# Compressibility (1/GPa) = 0.01879415
#
# Stress axis : x y z
#
# Youngs Moduli (GPa) = 49.03413 53.28832 55.23991
#
# Poissons Ratio (x) = 0.26371 0.69451
# Poissons Ratio (y) = 0.24266 0.09462
# Poissons Ratio (z) = 0.61648 0.09128
#
# Static dielectric constant tensor:
#      x y z
#    x 3.490130 0.000000 -0.290110 
#    y 0.000000 3.409240 0.000000 
#    z -0.290110 0.000000 3.495890 
# 
# 
# High freq. dielectric constant tensor:
#      x y z
#    x 1.695750 0.000000 -0.017130 
#    y 0.000000 1.704680 0.000000 
#    z -0.017130 0.000000 1.702040 
# 
# From -- ./inp_files/55538.got.cif
#   From: 2010.06.25/outbox.cif.g09.slc.cpg/sg11_28_cif.got.tgz:55538.got - 2010.06.27 23:14:04.
