data_PCOD8068260
_publ_section_title
;
Structure prediction by ZEFSAII (Michael W. Deem and Ramdas Pophale) SiO2 
 PCOD8068260
Probable space group: P 21/M
;
_chemical_formula_sum "Si O2"
_cell_formula_units_Z 32
_cell_length_a 17.172762
_cell_length_b 8.827989
_cell_length_c 13.698194
_cell_angle_alpha 90.000000
_cell_angle_beta 77.013584
_cell_angle_gamma 90.000000
_cell_volume 2023.545333
_symmetry_space_group_name_H-M "P 21/M"
_symmetry_group_IT_number 11
_symmetry_cell_setting 'monoclinic'
loop_
_space_group_symop_operation_xyz
x,y,z
-x,1/2+y,-z
-x,-y,-z
x,1/2-y,z
loop_
_atom_site_type_symbol
_atom_site_label
_atom_site_fract_x
_atom_site_fract_y
_atom_site_fract_z
Si Si1 0.324655 0.575606 0.245409
Si Si2 0.562435 0.927635 0.258685
Si Si3 0.522836 0.929214 0.891388
Si Si4 0.591716 0.079617 0.578001
Si Si5 0.165520 0.072308 0.562497
Si Si6 0.833235 0.570411 0.660972
Si Si7 0.321624 0.071884 0.615669
Si Si8 0.991570 0.428162 0.607660
O O1 0.322523 0.750000 0.212398
O O2 0.390253 0.489828 0.162688
O O3 0.344744 0.559745 0.353370
O O4 0.238313 0.498798 0.254371
O O5 0.560469 0.750000 0.231236
O O6 0.495161 0.963755 0.357918
O O7 0.646077 0.979336 0.286254
O O8 0.545921 0.023353 0.166313
O O9 0.525949 0.750000 0.898324
O O10 0.500000 0.000000 0.000000
O O11 0.593539 0.250000 0.536758
O O12 0.613815 0.967915 0.484862
O O13 0.180064 0.250000 0.551149
O O14 0.172511 0.010642 0.449483
O O15 0.234789 0.999966 0.612426
O O16 0.077949 0.039038 0.634472
O O17 0.831335 0.750000 0.669565
O O18 0.917126 0.508544 0.683014
O O19 0.314999 0.250000 0.620599
O O20 0.975250 0.250000 0.604198
O O21 0.000000 0.500000 0.500000
#
# Coordination Sequence:
#
# PCOD8068260 Si02
#       8
#     4   4   4   4   4   4   4   4
#     4  10  19  31  47  69  93 118 151 188 228 271
#     4   9  19  32  45  64  89 116 150 186 225 269
#     4  11  22  37  55  70  89 115 145 185 231 276
#     4   9  17  27  38  59  89 118 149 186 221 260
#     4   8  15  25  38  58  85 119 158 192 224 261
#     4  10  17  27  42  62  88 118 157 194 227 269
#     4  10  17  27  43  61  87 122 155 189 222 261
#     4   9  16  26  38  55  82 118 158 196 232 267
#
# _framework density 15.813831
#
# number of rings (size 3 to 8) (size 9 to 14) (size 15 to 20)
#    0.000    2.500    1.250    4.125    0.000    2.500 
#    0.000    0.625    0.000    0.000    0.000    0.000 
#    0.000    1.000    0.000    2.750    0.000    4.000 
#
# Total GULP energy -396537.679973 kJ/mol
# GULP energy per Si atom -12391.802499 kJ/mol
# Density = 1.577784 g / cm^3
# Si number density = 15.813831 Si / 1000 Ang^3
#
#
#
# Elastic Constant Matrix: (Units=GPa)
#
#
# Indices 1 2 3 4 5 6 
#
# 1 117.3982 45.2803 50.0039 0.0000 -2.3503 0.0000
# 2 45.2803 76.7859 33.3221 0.0000 -2.1018 0.0000
# 3 50.0039 33.3221 65.3546 0.0000 0.4195 0.0000
# 4 0.0000 0.0000 0.0000 20.9437 0.0000 -4.0745
# 5 -2.3503 -2.1018 0.4195 0.0000 10.1609 0.0000
# 6 0.0000 0.0000 0.0000 -4.0745 0.0000 22.2108
#
#
#
# Elastic Compliance Matrix: (Units=1/GPa)
#
#
# Indices 1 2 3 4 5 6 
#
# 1 0.013844 -0.004479 -0.008325 0.000000 0.002619 0.000000
# 2 -0.004479 0.018322 -0.005934 0.000000 0.002999 0.000000
# 3 -0.008325 -0.005934 0.024723 0.000000 -0.004174 0.000000
# 4 0.000000 0.000000 0.000000 0.049514 0.000000 0.009083
# 5 0.002619 0.002999 -0.004174 0.000000 0.099815 0.000000
# 6 0.000000 0.000000 0.000000 0.009083 0.000000 0.046689
#
#
# Mechanical properties :
#
#
# Convention : Reuss Voigt Hill
#
# Bulk Modulus (GPa) = 51.51354 57.41680 54.46517
# Shear Modulus (GPa) = 16.84325 19.39191 18.11758
#
# Velocity S-wave (km/s) = 3.26712 3.50560 3.38846
# Velocity P-wave (km/s) = 6.84674 7.26446 7.05869
#
# Compressibility (1/GPa) = 0.01941237
#
# Stress axis : x y z
#
# Youngs Moduli (GPa) = 72.23259 54.58006 40.44775
#
# Poissons Ratio (x) = 0.24448 0.33674
# Poissons Ratio (y) = 0.32355 0.24001
# Poissons Ratio (z) = 0.60137 0.32386
#
# Static dielectric constant tensor:
#      x y z
#    x 3.752100 0.000000 0.001980 
#    y 0.000000 2.987900 0.000000 
#    z 0.001980 0.000000 2.608120 
# 
# 
# High freq. dielectric constant tensor:
#      x y z
#    x 1.618040 0.000000 -0.009480 
#    y 0.000000 1.607420 0.000000 
#    z -0.009480 0.000000 1.545680 
# 
# From -- ./inp_files/52935.got.cif
#   From: 2010.06.25/outbox.cif.g09.slc.cpg/sg11_27_cif.got.tgz:52935.got - 2010.06.27 23:14:04.
