data_PCOD8068043
_publ_section_title
;
Structure prediction by ZEFSAII (Michael W. Deem and Ramdas Pophale) SiO2 
 PCOD8068043
Probable space group: P 2/M
;
_chemical_formula_sum "Si O2"
_cell_formula_units_Z 28
_cell_length_a 14.895275
_cell_length_b 9.252928
_cell_length_c 18.839032
_cell_angle_alpha 90.000000
_cell_angle_beta 141.906356
_cell_angle_gamma 90.000000
_cell_volume 1601.899468
_symmetry_space_group_name_H-M "P 2/M"
_symmetry_group_IT_number 10
_symmetry_cell_setting 'monoclinic'
loop_
_space_group_symop_operation_xyz
x,y,z
-x,y,-z
-x,-y,-z
x,-y,z
loop_
_atom_site_type_symbol
_atom_site_label
_atom_site_fract_x
_atom_site_fract_y
_atom_site_fract_z
Si Si1 0.358464 0.169204 0.954781
Si Si2 0.500420 0.831463 0.658712
Si Si3 0.943568 0.662788 0.074034
Si Si4 0.775863 0.168004 0.744617
Si Si5 0.793473 0.168113 0.589301
Si Si6 0.925199 0.336807 0.231057
Si Si7 0.663218 0.167091 0.897030
O O1 0.221520 0.254512 0.837077
O O2 0.327038 0.000000 0.925742
O O3 0.500000 0.218981 0.000000
O O4 0.385748 0.209703 0.054175
O O5 0.630906 0.768821 0.691490
O O6 0.344227 0.766338 0.539555
O O7 0.530473 0.800181 0.760595
O O8 0.491550 0.000000 0.636196
O O9 0.947088 0.500000 0.046723
O O10 0.936638 0.666029 0.154084
O O11 0.087784 0.745211 0.137896
O O12 0.801368 0.742619 0.955730
O O13 0.761063 0.193547 0.651745
O O14 0.799815 0.000000 0.777688
O O15 0.934670 0.254966 0.650088
O O16 0.821909 0.000000 0.590806
O O17 0.920670 0.500000 0.257761
O O18 0.709426 0.000000 0.922427
#
# Coordination Sequence:
#
# PCOD8068043 Si02
#       7
#     4   4   4   4   4   4   4
#     4   9  17  30  50  73  91 108 136 176 219 262
#     4   9  17  28  44  65  87 115 150 184 216 252
#     4   9  17  29  43  61  88 118 148 182 217 255
#     4   9  16  27  44  64  85 113 151 188 217 247
#     4   9  16  28  46  65  87 116 150 184 213 245
#     4   9  17  29  46  68  91 115 144 177 214 256
#     4   9  17  30  46  64  88 115 142 175 219 266
#
# _framework density 17.479247999999998
#
# number of rings (size 3 to 8) (size 9 to 14) (size 15 to 20)
#    0.000    3.000    0.000    1.286    0.000    6.000 
#    0.000    5.000    0.000    4.286    0.000    6.000 
#    0.000    0.000    0.000    0.000    0.000    0.000 
#
# Total GULP energy -347146.920613 kJ/mol
# GULP energy per Si atom -12398.104308 kJ/mol
# Density = 1.743946 g / cm^3
# Si number density = 17.479248 Si / 1000 Ang^3
#
#
#
# Elastic Constant Matrix: (Units=GPa)
#
#
# Indices 1 2 3 4 5 6 
#
# 1 96.0542 42.2840 61.9157 0.0000 29.7681 0.0000
# 2 42.2840 74.0911 46.9191 0.0000 17.7173 0.0000
# 3 61.9157 46.9191 107.9476 0.0000 25.7496 0.0000
# 4 0.0000 0.0000 0.0000 8.5135 0.0000 -0.0795
# 5 29.7681 17.7173 25.7496 0.0000 27.2321 0.0000
# 6 0.0000 0.0000 0.0000 -0.0795 0.0000 8.9774
#
#
#
# Elastic Compliance Matrix: (Units=1/GPa)
#
#
# Indices 1 2 3 4 5 6 
#
# 1 0.020988 -0.004358 -0.006905 0.000000 -0.013578 0.000000
# 2 -0.004358 0.020255 -0.005548 0.000000 -0.003167 0.000000
# 3 -0.006905 -0.005548 0.016753 0.000000 -0.004683 0.000000
# 4 0.000000 0.000000 0.000000 0.117471 0.000000 0.001041
# 5 -0.013578 -0.003167 -0.004683 0.000000 0.058053 0.000000
# 6 0.000000 0.000000 0.000000 0.001041 0.000000 0.111400
#
#
# Mechanical properties :
#
#
# Convention : Reuss Voigt Hill
#
# Bulk Modulus (GPa) = 41.02951 64.48116 52.75534
# Shear Modulus (GPa) = 12.93098 17.40955 15.17026
#
# Velocity S-wave (km/s) = 2.72286 3.15939 2.94921
# Velocity P-wave (km/s) = 5.78010 7.09078 6.46872
#
# Compressibility (1/GPa) = 0.02437270
#
# Stress axis : x y z
#
# Youngs Moduli (GPa) = 47.64562 49.36966 59.69087
#
# Poissons Ratio (x) = 0.21518 0.41216
# Poissons Ratio (y) = 0.20766 0.33119
# Poissons Ratio (z) = 0.32899 0.27393
#
# Static dielectric constant tensor:
#      x y z
#    x 3.070830 0.000000 0.198210 
#    y 0.000000 3.187590 0.000000 
#    z 0.198210 0.000000 3.328190 
# 
# 
# High freq. dielectric constant tensor:
#      x y z
#    x 1.649310 0.000000 0.016310 
#    y 0.000000 1.657720 0.000000 
#    z 0.016310 0.000000 1.672110 
# 
# From -- ./inp_files/49344.got.cif
#   From: 2010.06.25/outbox.cif.g09.slc.cpg/sg10_25_cif.got.tgz:49344.got - 2010.06.27 22:07:45.
