data_PCOD8068413
_publ_section_title
;
Structure prediction by ZEFSAII (Michael W. Deem and Ramdas Pophale) SiO2 
 PCOD8068413
Probable space group: P 21/M
;
_chemical_formula_sum "Si O2"
_cell_formula_units_Z 28
_cell_length_a 9.797005
_cell_length_b 8.962040
_cell_length_c 31.852245
_cell_angle_alpha 90.000000
_cell_angle_beta 34.423357
_cell_angle_gamma 90.000000
_cell_volume 1580.963308
_symmetry_space_group_name_H-M "P 21/M"
_symmetry_group_IT_number 11
_symmetry_cell_setting 'monoclinic'
loop_
_space_group_symop_operation_xyz
x,y,z
-x,1/2+y,-z
-x,-y,-z
x,1/2-y,z
loop_
_atom_site_type_symbol
_atom_site_label
_atom_site_fract_x
_atom_site_fract_y
_atom_site_fract_z
Si Si1 0.057926 0.575742 0.048669
Si Si2 0.151341 0.427598 0.252175
Si Si3 0.290301 0.426258 0.306744
Si Si4 0.739223 0.426154 0.296684
Si Si5 0.796638 0.572710 0.579503
Si Si6 0.376477 0.075246 0.902960
Si Si7 0.830896 0.073993 0.180810
O O1 0.114296 0.750000 0.035447
O O2 0.814824 0.537934 0.084866
O O3 0.028104 0.513699 0.103365
O O4 0.283973 0.493027 0.970202
O O5 0.178903 0.250000 0.242163
O O6 0.145316 0.481861 0.302355
O O7 0.372258 0.499364 0.171709
O O8 0.903070 0.484073 0.293649
O O9 0.297269 0.250000 0.306961
O O10 0.166807 0.481842 0.381371
O O11 0.565790 0.481536 0.233669
O O12 0.720001 0.250000 0.302131
O O13 0.465310 0.486944 0.369840
O O14 0.864061 0.472728 0.221039
O O15 0.815534 0.750000 0.570974
O O16 0.000000 0.500000 0.500000
O O17 0.415431 0.250000 0.898760
O O18 0.865032 0.250000 0.165121
#
# Coordination Sequence:
#
# PCOD8068413 Si02
#       7
#     4   4   4   4   4   4   4
#     4  10  19  30  46  70  96 126 166 206 241 284
#     4  10  17  31  52  73  94 126 164 199 239 289
#     4   8  15  27  49  72  93 123 161 194 231 284
#     4   8  17  31  51  74  99 126 158 196 240 290
#     4   9  17  33  52  74  99 127 159 194 233 280
#     4  10  20  31  45  69 100 129 158 204 250 283
#     4   9  15  29  49  70  93 123 161 204 243 281
#
# _framework density 17.710720999999999
#
# number of rings (size 3 to 8) (size 9 to 14) (size 15 to 20)
#    0.000    2.857    1.429    2.571    0.000    1.143 
#    0.000    6.429    0.000    0.000    0.000    0.000 
#    0.000    0.000    0.000    0.000    0.000    0.000 
#
# Total GULP energy -347056.958261 kJ/mol
# GULP energy per Si atom -12394.891366 kJ/mol
# Density = 1.767041 g / cm^3
# Si number density = 17.710721 Si / 1000 Ang^3
#
#
#
# Elastic Constant Matrix: (Units=GPa)
#
#
# Indices 1 2 3 4 5 6 
#
# 1 135.5674 27.9934 71.6920 0.0000 8.9638 0.0000
# 2 27.9934 35.5842 33.0914 0.0000 1.3569 0.0000
# 3 71.6920 33.0914 144.6454 0.0000 14.7358 0.0000
# 4 0.0000 0.0000 0.0000 31.9345 0.0000 3.2461
# 5 8.9638 1.3569 14.7358 0.0000 23.0006 0.0000
# 6 0.0000 0.0000 0.0000 3.2461 0.0000 13.4137
#
#
#
# Elastic Compliance Matrix: (Units=1/GPa)
#
#
# Indices 1 2 3 4 5 6 
#
# 1 0.010532 -0.004447 -0.004078 0.000000 -0.001230 0.000000
# 2 -0.004447 0.037816 -0.006843 0.000000 0.003886 0.000000
# 3 -0.004078 -0.006843 0.011016 0.000000 -0.005065 0.000000
# 4 0.000000 0.000000 0.000000 0.032104 0.000000 -0.007769
# 5 -0.001230 0.003886 -0.005065 0.000000 0.046972 0.000000
# 6 0.000000 0.000000 0.000000 -0.007769 0.000000 0.076431
#
#
# Mechanical properties :
#
#
# Convention : Reuss Voigt Hill
#
# Bulk Modulus (GPa) = 34.92943 64.59453 49.76198
# Shear Modulus (GPa) = 19.59635 25.87112 22.73373
#
# Velocity S-wave (km/s) = 3.32997 3.82614 3.58664
# Velocity P-wave (km/s) = 5.87792 7.48801 6.73128
#
# Compressibility (1/GPa) = 0.02862915
#
# Stress axis : x y z
#
# Youngs Moduli (GPa) = 94.94611 26.44364 90.77634
#
# Poissons Ratio (x) = 0.11759 0.37015
# Poissons Ratio (y) = 0.42219 0.62122
# Poissons Ratio (z) = 0.38716 0.18097
#
# Static dielectric constant tensor:
#      x y z
#    x 3.687280 0.000000 0.147190 
#    y 0.000000 2.945490 0.000000 
#    z 0.147190 0.000000 3.276280 
# 
# 
# High freq. dielectric constant tensor:
#      x y z
#    x 1.675370 0.000000 0.015090 
#    y 0.000000 1.656030 0.000000 
#    z 0.015090 0.000000 1.679080 
# 
# From -- ./inp_files/28467.got.cif
#   From: 2010.06.25/outbox.cif.g09.slc.cpg/sg11_15_cif.got.tgz:28467.got - 2010.06.27 23:14:04.
