data_PCOD8068190
_publ_section_title
;
Structure prediction by ZEFSAII (Michael W. Deem and Ramdas Pophale) SiO2 
 PCOD8068190
Probable space group: P 21/M
;
_chemical_formula_sum "Si O2"
_cell_formula_units_Z 32
_cell_length_a 21.990119
_cell_length_b 9.169137
_cell_length_c 9.814520
_cell_angle_alpha 90.000000
_cell_angle_beta 112.134720
_cell_angle_gamma 90.000000
_cell_volume 1833.061320
_symmetry_space_group_name_H-M "P 21/M"
_symmetry_group_IT_number 11
_symmetry_cell_setting 'monoclinic'
loop_
_space_group_symop_operation_xyz
x,y,z
-x,1/2+y,-z
-x,-y,-z
x,1/2-y,z
loop_
_atom_site_type_symbol
_atom_site_label
_atom_site_fract_x
_atom_site_fract_y
_atom_site_fract_z
Si Si1 0.064773 0.911584 0.406657
Si Si2 0.344409 0.915147 0.723818
Si Si3 0.688615 0.420272 0.993989
Si Si4 0.581886 0.420069 0.684623
Si Si5 0.184243 0.077338 0.852044
Si Si6 0.942753 0.085623 0.274307
Si Si7 0.432571 0.079631 0.598084
Si Si8 0.200892 0.582882 0.590908
O O1 0.043852 0.750000 0.342409
O O2 0.063485 0.923777 0.568826
O O3 0.141529 0.944147 0.431898
O O4 0.014306 0.022157 0.292833
O O5 0.369976 0.750000 0.729075
O O6 0.336599 0.956111 0.875643
O O7 0.273480 0.934005 0.587745
O O8 0.397265 0.022374 0.703613
O O9 0.705090 0.250000 0.993702
O O10 0.754360 0.510615 0.012598
O O11 0.632304 0.470619 0.842834
O O12 0.588048 0.250000 0.657460
O O13 0.598953 0.504730 0.560910
O O14 0.509215 0.460075 0.675561
O O15 0.181536 0.250000 0.868635
O O16 0.115280 0.007983 0.845021
O O17 0.194446 0.035579 0.703789
O O18 0.938682 0.250000 0.216293
O O19 0.420577 0.250000 0.575577
O O20 0.194150 0.750000 0.644394
#
# Coordination Sequence:
#
# PCOD8068190 Si02
#       8
#     4   4   4   4   4   4   4   4
#     4   8  13  21  33  50  73 105 147 189 223 258
#     4   9  17  30  48  69  94 125 156 187 229 279
#     4   9  18  33  50  67  90 122 158 192 229 277
#     4   9  19  36  54  69  90 123 157 189 230 277
#     4  10  17  24  37  58  84 113 146 186 230 271
#     4   9  15  22  32  48  75 112 149 182 220 269
#     4  10  20  33  50  73  97 120 151 191 231 273
#     4   8  15  27  40  55  81 117 152 185 224 271
#
# _framework density 17.457136999999999
#
# number of rings (size 3 to 8) (size 9 to 14) (size 15 to 20)
#    0.000    3.000    0.000    3.375    0.000    6.500 
#    0.000    0.000    0.000    0.000    0.000    0.000 
#    0.000    1.000    0.000    3.000    0.000    8.750 
#
# Total GULP energy -396580.644781 kJ/mol
# GULP energy per Si atom -12393.145149 kJ/mol
# Density = 1.741740 g / cm^3
# Si number density = 17.457137 Si / 1000 Ang^3
#
#
#
# Elastic Constant Matrix: (Units=GPa)
#
#
# Indices 1 2 3 4 5 6 
#
# 1 69.5827 43.1192 50.7793 0.0000 36.0775 0.0000
# 2 43.1192 93.9946 40.6428 0.0000 22.2472 0.0000
# 3 50.7793 40.6428 65.9376 0.0000 24.4759 0.0000
# 4 0.0000 0.0000 0.0000 18.9775 0.0000 4.7213
# 5 36.0775 22.2472 24.4759 0.0000 21.9457 0.0000
# 6 0.0000 0.0000 0.0000 4.7213 0.0000 31.6259
#
#
#
# Elastic Compliance Matrix: (Units=1/GPa)
#
#
# Indices 1 2 3 4 5 6 
#
# 1 0.136599 -0.004683 -0.035351 0.000000 -0.180388 0.000000
# 2 -0.004683 0.015556 -0.005095 0.000000 -0.002388 0.000000
# 3 -0.035351 -0.005095 0.037613 0.000000 0.021331 0.000000
# 4 0.000000 0.000000 0.000000 0.054727 0.000000 -0.008170
# 5 -0.180388 -0.002388 0.021331 0.000000 0.320745 0.000000
# 6 0.000000 0.000000 0.000000 -0.008170 0.000000 0.032839
#
#
# Mechanical properties :
#
#
# Convention : Reuss Voigt Hill
#
# Bulk Modulus (GPa) = 10.04930 55.39974 32.72452
# Shear Modulus (GPa) = 6.92994 20.84139 13.88567
#
# Velocity S-wave (km/s) = 1.99457 3.45898 2.82337
# Velocity P-wave (km/s) = 3.32768 6.91059 5.42355
#
# Compressibility (1/GPa) = 0.09950943
#
# Stress axis : x y z
#
# Youngs Moduli (GPa) = 7.32068 64.28561 26.58689
#
# Poissons Ratio (x) = 0.30104 0.93986
# Poissons Ratio (y) = 0.03428 0.13547
# Poissons Ratio (z) = 0.25879 0.32756
#
# Static dielectric constant tensor:
#      x y z
#    x 3.491130 0.000000 0.451990 
#    y 0.000000 3.212160 0.000000 
#    z 0.451990 0.000000 2.877330 
# 
# 
# High freq. dielectric constant tensor:
#      x y z
#    x 1.676270 0.000000 0.040020 
#    y 0.000000 1.675080 0.000000 
#    z 0.040020 0.000000 1.618600 
# 
# From -- ./inp_files/27311.got.cif
#   From: 2010.06.25/outbox.cif.g09.slc.cpg/sg11_14_cif.got.tgz:27311.got - 2010.06.27 23:14:04.
