data_PCOD8068293
_publ_section_title
;
Structure prediction by ZEFSAII (Michael W. Deem and Ramdas Pophale) SiO2 
 PCOD8068293
Probable space group: P 21/M
;
_chemical_formula_sum "Si O2"
_cell_formula_units_Z 32
_cell_length_a 13.579777
_cell_length_b 8.895552
_cell_length_c 23.846577
_cell_angle_alpha 90.000000
_cell_angle_beta 135.363017
_cell_angle_gamma 90.000000
_cell_volume 2023.985804
_symmetry_space_group_name_H-M "P 21/M"
_symmetry_group_IT_number 11
_symmetry_cell_setting 'monoclinic'
loop_
_space_group_symop_operation_xyz
x,y,z
-x,1/2+y,-z
-x,-y,-z
x,1/2-y,z
loop_
_atom_site_type_symbol
_atom_site_label
_atom_site_fract_x
_atom_site_fract_y
_atom_site_fract_z
Si Si1 0.813739 0.422444 0.685844
Si Si2 0.326488 0.927442 0.174088
Si Si3 0.891501 0.926407 0.828460
Si Si4 0.207657 0.421700 0.433509
Si Si5 0.862655 0.927777 0.469613
Si Si6 0.105035 0.577339 0.001763
Si Si7 0.495959 0.920394 0.403533
Si Si8 0.578567 0.073384 0.326911
O O1 0.856747 0.250000 0.710228
O O2 0.893237 0.516796 0.765541
O O3 0.860594 0.478772 0.643374
O O4 0.647374 0.448327 0.622058
O O5 0.347697 0.750000 0.191435
O O6 0.262424 0.967431 0.085838
O O7 0.224456 0.985154 0.182412
O O8 0.476215 0.010252 0.236978
O O9 0.854854 0.750000 0.815812
O O10 0.051091 0.957826 0.916679
O O11 0.169594 0.250000 0.405213
O O12 0.144618 0.471826 0.467747
O O13 0.375479 0.446625 0.502003
O O14 0.864009 0.750000 0.461871
O O15 0.729054 0.994096 0.382805
O O16 0.000000 0.000000 0.500000
O O17 0.086783 0.750000 0.007510
O O18 0.000000 0.500000 0.000000
O O19 0.504703 0.750000 0.382670
O O20 0.504903 0.036609 0.356131
O O21 0.598739 0.250000 0.328005
#
# Coordination Sequence:
#
# PCOD8068293 Si02
#       8
#     4   4   4   4   4   4   4   4
#     4  11  20  28  42  63  90 123 156 190 225 264
#     4  10  17  28  43  61  88 119 154 195 231 265
#     4  10  18  28  41  60  86 121 160 192 227 269
#     4   9  19  33  47  64  87 116 149 186 225 267
#     4  10  21  38  56  72  92 117 146 186 233 277
#     4   8  16  27  40  57  81 116 155 192 228 265
#     4   9  18  31  43  59  88 121 153 190 228 261
#     4  11  20  29  46  70  92 121 156 188 226 273
#
# _framework density 15.810387
#
# number of rings (size 3 to 8) (size 9 to 14) (size 15 to 20)
#    0.000    2.250    1.250    3.750    0.000    4.000 
#    0.000    0.000    0.000    0.000    0.000    0.000 
#    0.000    1.000    0.000    3.000    0.000    4.000 
#
# Total GULP energy -396564.305022 kJ/mol
# GULP energy per Si atom -12392.634532 kJ/mol
# Density = 1.577440 g / cm^3
# Si number density = 15.810387 Si / 1000 Ang^3
#
#
#
# Elastic Constant Matrix: (Units=GPa)
#
#
# Indices 1 2 3 4 5 6 
#
# 1 53.7211 31.9247 47.2074 0.0000 2.8466 0.0000
# 2 31.9247 82.3871 52.6677 0.0000 2.1034 0.0000
# 3 47.2074 52.6677 130.8786 0.0000 -2.6671 0.0000
# 4 0.0000 0.0000 0.0000 24.3363 0.0000 -0.1742
# 5 2.8466 2.1034 -2.6671 0.0000 15.4658 0.0000
# 6 0.0000 0.0000 0.0000 -0.1742 0.0000 20.0529
#
#
#
# Elastic Compliance Matrix: (Units=1/GPa)
#
#
# Indices 1 2 3 4 5 6 
#
# 1 0.030015 -0.006020 -0.008529 0.000000 -0.006177 0.000000
# 2 -0.006020 0.017726 -0.005006 0.000000 -0.002166 0.000000
# 3 -0.008529 -0.005006 0.012823 0.000000 0.004462 0.000000
# 4 0.000000 0.000000 0.000000 0.041093 0.000000 0.000357
# 5 -0.006177 -0.002166 0.004462 0.000000 0.066860 0.000000
# 6 0.000000 0.000000 0.000000 0.000357 0.000000 0.049871
#
#
# Mechanical properties :
#
#
# Convention : Reuss Voigt Hill
#
# Bulk Modulus (GPa) = 46.61520 58.95403 52.78462
# Shear Modulus (GPa) = 18.89286 20.98345 19.93815
#
# Velocity S-wave (km/s) = 3.46058 3.64702 3.55502
# Velocity P-wave (km/s) = 6.74651 7.42317 7.09291
#
# Compressibility (1/GPa) = 0.02145223
#
# Stress axis : x y z
#
# Youngs Moduli (GPa) = 33.31678 56.41393 77.98735
#
# Poissons Ratio (x) = 0.33963 0.66519
# Poissons Ratio (y) = 0.20058 0.39040
# Poissons Ratio (z) = 0.28417 0.28240
#
# Static dielectric constant tensor:
#      x y z
#    x 2.543990 0.000000 -0.005570 
#    y 0.000000 3.077120 0.000000 
#    z -0.005570 0.000000 3.593290 
# 
# 
# High freq. dielectric constant tensor:
#      x y z
#    x 1.541100 0.000000 -0.004750 
#    y 0.000000 1.621570 0.000000 
#    z -0.004750 0.000000 1.619080 
# 
# From -- ./inp_files/42494.got.cif
#   From: 2010.06.25/outbox.cif.g09.slc.cpg/sg11_22_cif.got.tgz:42494.got - 2010.06.27 23:14:04.
