data_PCOD8068147
_publ_section_title
;
Structure prediction by ZEFSAII (Michael W. Deem and Ramdas Pophale) SiO2 
 PCOD8068147
Probable space group: P 21/M
;
_chemical_formula_sum "Si O2"
_cell_formula_units_Z 14
_cell_length_a 22.527544
_cell_length_b 5.273230
_cell_length_c 6.508564
_cell_angle_alpha 90.000000
_cell_angle_beta 133.939301
_cell_angle_gamma 90.000000
_cell_volume 556.741588
_symmetry_space_group_name_H-M "P 21/M"
_symmetry_group_IT_number 11
_symmetry_cell_setting 'monoclinic'
loop_
_space_group_symop_operation_xyz
x,y,z
-x,1/2+y,-z
-x,-y,-z
x,1/2-y,z
loop_
_atom_site_type_symbol
_atom_site_label
_atom_site_fract_x
_atom_site_fract_y
_atom_site_fract_z
Si Si1 0.229688 0.750000 0.108462
Si Si2 0.243980 0.250000 0.629319
Si Si3 0.698679 0.750000 0.781950
Si Si4 0.432436 0.250000 0.033900
Si Si5 0.487069 0.250000 0.703843
Si Si6 0.051676 0.750000 0.582017
Si Si7 0.174113 0.750000 0.538960
O O1 0.276882 0.495520 0.299480
O O2 0.131707 0.750000 0.925821
O O3 0.240549 0.750000 0.885133
O O4 0.335315 0.250000 0.755657
O O5 0.192377 0.502938 0.440305
O O6 0.245005 0.250000 0.880503
O O7 0.603073 0.750000 0.619042
O O8 0.477368 0.250000 0.924969
O O9 0.461550 0.497157 0.234079
O O10 0.081892 0.750000 0.415363
O O11 0.000000 0.500000 0.500000
#
# Coordination Sequence:
#
# PCOD8068147 Si02
#       7
#     2   2   2   2   2   2   2
#     4   8  17  27  42  67  93 123 143 185 222 272
#     4  10  17  31  47  64  93 124 149 192 230 270
#     4  10  17  31  47  64  93 124 149 192 230 270
#     4  10  21  34  47  66  91 120 159 202 233 265
#     4  10  21  34  47  66  91 120 159 202 233 265
#     4  10  16  26  44  68 100 126 142 176 232 276
#     4   8  17  27  42  67  93 123 143 185 222 272
#
# _framework density 25.146315999999999
#
# number of rings (size 3 to 8) (size 9 to 14) (size 15 to 20)
#    0.857    1.714    0.000    3.429    0.000    1.143 
#    0.000    0.000    0.000    0.000    0.000    0.000 
#    0.000   22.857    0.000    0.000    0.000    0.000 
#
# Total GULP energy -173527.049707 kJ/mol
# GULP energy per Si atom -12394.789265 kJ/mol
# Density = 2.508908 g / cm^3
# Si number density = 25.146316 Si / 1000 Ang^3
#
#
#
# Elastic Constant Matrix: (Units=GPa)
#
#
# Indices 1 2 3 4 5 6 
#
# 1 91.4941 49.2792 20.8678 0.0000 45.0389 0.0000
# 2 49.2792 309.8563 52.8619 0.0000 68.7886 0.0000
# 3 20.8678 52.8619 64.0066 0.0000 33.3775 0.0000
# 4 0.0000 0.0000 0.0000 25.3461 0.0000 41.1245
# 5 45.0389 68.7886 33.3775 0.0000 51.9066 0.0000
# 6 0.0000 0.0000 0.0000 41.1245 0.0000 16.2930
#
#
#
# Elastic Compliance Matrix: (Units=1/GPa)
#
#
# Indices 1 2 3 4 5 6 
#
# 1 0.019794 0.000800 0.003603 0.000000 -0.020552 0.000000
# 2 0.000800 0.004642 -0.000789 0.000000 -0.006338 0.000000
# 3 0.003603 -0.000789 0.024351 0.000000 -0.017739 0.000000
# 4 0.000000 0.000000 0.000000 -0.012746 0.000000 0.032172
# 5 -0.020552 -0.006338 -0.017739 0.000000 0.056904 0.000000
# 6 0.000000 0.000000 0.000000 0.032172 0.000000 -0.019829
#
#
# Mechanical properties :
#
#
# Convention : Reuss Voigt Hill
#
# Bulk Modulus (GPa) = 17.85253 79.04163 48.44708
# Shear Modulus (GPa) = 59.12996 41.53234 50.33115
#
# Velocity S-wave (km/s) = 4.85442 4.06843 4.47870
# Velocity P-wave (km/s) = 6.20769 7.31918 6.78623
#
# Compressibility (1/GPa) = 0.05601447
#
# Stress axis : x y z
#
# Youngs Moduli (GPa) = 50.52030 215.43437 41.06648
#
# Poissons Ratio (x) = -0.17232 -0.14798
# Poissons Ratio (y) = -0.04041 0.03241
# Poissons Ratio (z) = -0.18204 0.17004
#
# Static dielectric constant tensor:
#      x y z
#    x 4.149270 0.000000 0.032750 
#    y 0.000000 5.295330 0.000000 
#    z 0.032750 0.000000 3.873310 
# 
# 
# High freq. dielectric constant tensor:
#      x y z
#    x 2.005260 0.000000 -0.002930 
#    y 0.000000 2.029970 0.000000 
#    z -0.002930 0.000000 1.959300 
# 
# From -- ./inp_files/27179.got.cif
#   From: 2010.06.25/outbox.cif.g09.slc.cpg/sg11_14_cif.got.tgz:27179.got - 2010.06.27 23:14:04.
