data_PCOD8068104
_publ_section_title
;
Structure prediction by ZEFSAII (Michael W. Deem and Ramdas Pophale) SiO2 
 PCOD8068104
Probable space group: P 2/M
;
_chemical_formula_sum "Si O2"
_cell_formula_units_Z 32
_cell_length_a 15.000000
_cell_length_b 9.000000
_cell_length_c 24.000000
_cell_angle_alpha 90.000000
_cell_angle_beta 150.000000
_cell_angle_gamma 90.000000
_cell_volume 1620.000000
_symmetry_space_group_name_H-M "P 2/M"
_symmetry_group_IT_number 10
_symmetry_cell_setting 'monoclinic'
loop_
_space_group_symop_operation_xyz
x,y,z
-x,y,-z
-x,-y,-z
x,-y,z
loop_
_atom_site_type_symbol
_atom_site_label
_atom_site_fract_x
_atom_site_fract_y
_atom_site_fract_z
Si Si1 0.438290 0.329169 0.254167
Si Si2 0.433500 0.670460 0.796358
Si Si3 0.024228 0.826438 0.835343
Si Si4 0.689414 0.827281 0.577381
Si Si5 0.904185 0.823864 0.891846
Si Si6 0.372681 0.671453 0.982018
Si Si7 0.066504 0.825221 0.595828
Si Si8 0.779214 0.327061 0.511227
O O1 0.384413 0.500000 0.232777
O O2 0.445711 0.287428 0.192248
O O3 0.297480 0.233175 0.212766
O O4 0.629726 0.293916 0.384165
O O5 0.367308 0.500000 0.754367
O O6 0.271151 0.782745 0.712355
O O7 0.539476 0.694583 0.910444
O O8 0.839773 0.791318 0.704405
O O9 0.001277 0.767026 0.887247
O O10 0.181944 0.752045 0.884376
O O11 0.067157 0.000000 0.859952
O O12 0.500000 0.777987 0.500000
O O13 0.722546 0.734647 0.539984
O O14 0.688632 0.000000 0.560823
O O15 0.897994 0.000000 0.886700
O O16 0.000000 0.764982 0.000000
O O17 0.333516 0.500000 0.947895
O O18 0.500000 0.733151 0.000000
O O19 0.000000 0.766889 0.500000
O O20 0.959830 0.749561 0.588317
O O21 0.042339 0.000000 0.588527
O O22 0.817589 0.500000 0.538594
#
# Coordination Sequence:
#
# PCOD8068104 Si02
#       8
#     4   4   4   4   4   4   4   4
#     4  10  21  36  57  86 116 152 193 236 293 355
#     4  10  21  39  60  83 120 160 197 245 301 354
#     4  10  22  40  61  88 121 158 199 248 304 355
#     4  10  22  41  63  88 123 164 203 248 302 361
#     4  10  21  37  60  88 117 150 192 240 294 353
#     4  10  23  41  61  87 117 156 205 250 298 355
#     4  11  23  38  59  90 122 156 198 244 299 361
#     4  11  23  38  59  86 119 156 198 246 298 356
#
# _framework density 19.753086
#
# number of rings (size 3 to 8) (size 9 to 14) (size 15 to 20)
#    0.000    1.750    1.250    2.250    1.750    5.250 
#    0.000    0.000    0.000    0.000    0.000    0.000 
#    0.000    0.000    0.000    0.000    0.000    0.000 
#
# Total GULP energy -396835.158079 kJ/mol
# GULP energy per Si atom -12401.098690 kJ/mol
# Density = 1.970813 g / cm^3
# Si number density = 19.753086 Si / 1000 Ang^3
#
#
#
# Elastic Constant Matrix: (Units=GPa)
#
#
# Indices 1 2 3 4 5 6 
#
# 1 182.4917 47.0553 50.3697 0.0000 6.3465 0.0000
# 2 47.0553 52.7505 33.1606 0.0000 3.2066 0.0000
# 3 50.3697 33.1606 83.2880 0.0000 5.3079 0.0000
# 4 0.0000 0.0000 0.0000 29.4784 0.0000 4.5734
# 5 6.3465 3.2066 5.3079 0.0000 42.5039 0.0000
# 6 0.0000 0.0000 0.0000 4.5734 0.0000 39.4678
#
#
#
# Elastic Compliance Matrix: (Units=1/GPa)
#
#
# Indices 1 2 3 4 5 6 
#
# 1 0.007493 -0.005104 -0.002472 0.000000 -0.000425 0.000000
# 2 -0.005104 0.028781 -0.008349 0.000000 -0.000367 0.000000
# 3 -0.002472 -0.008349 0.016897 0.000000 -0.001111 0.000000
# 4 0.000000 0.000000 0.000000 0.034544 0.000000 -0.004003
# 5 -0.000425 -0.000367 -0.001111 0.000000 0.023757 0.000000
# 6 0.000000 0.000000 0.000000 -0.004003 0.000000 0.025801
#
#
# Mechanical properties :
#
#
# Convention : Reuss Voigt Hill
#
# Bulk Modulus (GPa) = 46.90416 64.41126 55.65771
# Shear Modulus (GPa) = 28.37217 34.81966 31.59592
#
# Velocity S-wave (km/s) = 3.79402 4.20306 4.00377
# Velocity P-wave (km/s) = 6.55664 7.49889 7.04354
#
# Compressibility (1/GPa) = 0.02132007
#
# Stress axis : x y z
#
# Youngs Moduli (GPa) = 133.45963 34.74551 59.18382
#
# Poissons Ratio (x) = 0.17734 0.14632
# Poissons Ratio (y) = 0.68117 0.49411
# Poissons Ratio (z) = 0.32995 0.29008
#
# Static dielectric constant tensor:
#      x y z
#    x 3.953560 0.000000 -0.114450 
#    y 0.000000 3.481800 0.000000 
#    z -0.114450 0.000000 3.623410 
# 
# 
# High freq. dielectric constant tensor:
#      x y z
#    x 1.801650 0.000000 -0.002290 
#    y 0.000000 1.761230 0.000000 
#    z -0.002290 0.000000 1.773440 
# 
# From -- ./inp_files/71482.got.cif
#   From: 2010.06.25/outbox.ucp.g09.slc.cvg/sg10_36_cif.got.tgz:71482.got - 2010.06.28 13:37:52.
