data_PCOD8068420
_publ_section_title
;
Structure prediction by ZEFSAII (Michael W. Deem and Ramdas Pophale) SiO2 
 PCOD8068420
Probable space group: P 21/M
;
_chemical_formula_sum "Si O2"
_cell_formula_units_Z 32
_cell_length_a 10.049931
_cell_length_b 18.080339
_cell_length_c 16.408624
_cell_angle_alpha 90.000000
_cell_angle_beta 142.726687
_cell_angle_gamma 90.000000
_cell_volume 1805.678635
_symmetry_space_group_name_H-M "P 21/M"
_symmetry_group_IT_number 11
_symmetry_cell_setting 'monoclinic'
loop_
_space_group_symop_operation_xyz
x,y,z
-x,1/2+y,-z
-x,-y,-z
x,1/2-y,z
loop_
_atom_site_type_symbol
_atom_site_label
_atom_site_fract_x
_atom_site_fract_y
_atom_site_fract_z
Si Si1 0.187533 0.165223 0.911919
Si Si2 0.588371 0.662036 0.311728
Si Si3 0.938435 0.161933 0.182947
Si Si4 0.846591 0.086840 0.850248
Si Si5 0.829686 0.586282 0.846126
Si Si6 0.021670 0.837775 0.614047
Si Si7 0.463688 0.337758 0.896964
Si Si8 0.513535 0.165144 0.218394
O O1 0.107841 0.250000 0.867918
O O2 0.274511 0.135342 0.867122
O O3 0.981659 0.115569 0.838046
O O4 0.389136 0.157578 0.072243
O O5 0.566837 0.750000 0.304877
O O6 0.385320 0.627748 0.261248
O O7 0.592786 0.633323 0.220764
O O8 0.809916 0.633245 0.462315
O O9 0.951948 0.250000 0.182459
O O10 0.985989 0.133131 0.297150
O O11 0.123189 0.126723 0.215584
O O12 0.700673 0.131314 0.039390
O O13 0.809756 0.000376 0.822101
O O14 0.977628 0.106703 0.996455
O O15 0.597642 0.615410 0.766479
O O16 0.030012 0.750000 0.620232
O O17 0.240503 0.865832 0.674790
O O18 0.473361 0.250000 0.905037
O O19 0.512380 0.250000 0.247613
#
# Coordination Sequence:
#
# PCOD8068420 Si02
#       8
#     4   4   4   4   4   4   4   4
#     4   9  16  29  51  75  98 127 164 207 250 295
#     4  10  19  33  53  76 102 132 162 202 256 304
#     4  10  17  31  53  77  99 126 169 210 245 293
#     4  10  20  33  47  73 107 135 166 207 252 296
#     4  10  20  32  49  74 103 134 171 211 244 289
#     4   9  18  32  52  77 102 126 163 211 252 295
#     4   9  16  28  50  77  99 122 163 207 245 294
#     4   9  16  30  51  74  98 128 165 206 251 293
#
# _framework density 17.721869000000002
#
# number of rings (size 3 to 8) (size 9 to 14) (size 15 to 20)
#    0.000    2.500    2.500    0.750    0.000    1.000 
#    0.000    4.375    0.000    4.500    0.000    0.000 
#    0.000    0.000    0.000    0.000    0.000    0.000 
#
# Total GULP energy -396827.135549 kJ/mol
# GULP energy per Si atom -12400.847986 kJ/mol
# Density = 1.768153 g / cm^3
# Si number density = 17.721869 Si / 1000 Ang^3
#
#
#
# Elastic Constant Matrix: (Units=GPa)
#
#
# Indices 1 2 3 4 5 6 
#
# 1 160.1252 37.3345 76.5203 0.0000 8.8566 0.0000
# 2 37.3345 40.6283 29.3599 0.0000 5.4273 0.0000
# 3 76.5203 29.3599 115.4218 0.0000 5.7618 0.0000
# 4 0.0000 0.0000 0.0000 11.3831 0.0000 -0.8978
# 5 8.8566 5.4273 5.7618 0.0000 28.8209 0.0000
# 6 0.0000 0.0000 0.0000 -0.8978 0.0000 4.6195
#
#
#
# Elastic Compliance Matrix: (Units=1/GPa)
#
#
# Indices 1 2 3 4 5 6 
#
# 1 0.010054 -0.005294 -0.005267 0.000000 -0.001040 0.000000
# 2 -0.005294 0.033453 -0.004815 0.000000 -0.003710 0.000000
# 3 -0.005267 -0.004815 0.013388 0.000000 -0.000151 0.000000
# 4 0.000000 0.000000 0.000000 0.089217 0.000000 0.017339
# 5 -0.001040 -0.003710 -0.000151 0.000000 0.035746 0.000000
# 6 0.000000 0.000000 0.000000 0.017339 0.000000 0.219843
#
#
# Mechanical properties :
#
#
# Convention : Reuss Voigt Hill
#
# Bulk Modulus (GPa) = 38.24957 66.95609 52.60283
# Shear Modulus (GPa) = 11.33363 20.49541 15.91452
#
# Velocity S-wave (km/s) = 2.53163 3.40443 2.99994
# Velocity P-wave (km/s) = 5.49324 7.30186 6.46115
#
# Compressibility (1/GPa) = 0.02614409
#
# Stress axis : x y z
#
# Youngs Moduli (GPa) = 99.46483 29.89272 74.69480
#
# Poissons Ratio (x) = 0.15825 0.39340
# Poissons Ratio (y) = 0.52655 0.35963
# Poissons Ratio (z) = 0.52386 0.14392
#
# Static dielectric constant tensor:
#      x y z
#    x 3.436650 0.000000 0.002630 
#    y 0.000000 2.991620 0.000000 
#    z 0.002630 0.000000 3.215650 
# 
# 
# High freq. dielectric constant tensor:
#      x y z
#    x 1.702130 0.000000 0.005360 
#    y 0.000000 1.652540 0.000000 
#    z 0.005360 0.000000 1.660780 
# 
# From -- ./inp_files/19206.got.cif
#   From: 2010.06.25/outbox.cif.g09.slc.cpg/sg11_10_cif.got.tgz:19206.got - 2010.06.27 23:14:04.
