data_PCOD8068588
_publ_section_title
;
Structure prediction by ZEFSAII (Michael W. Deem and Ramdas Pophale) SiO2 
 PCOD8068588
Probable space group: P 21/M
;
_chemical_formula_sum "Si O2"
_cell_formula_units_Z 32
_cell_length_a 18.710463
_cell_length_b 18.245389
_cell_length_c 11.222813
_cell_angle_alpha 90.000000
_cell_angle_beta 33.530587
_cell_angle_gamma 90.000000
_cell_volume 2116.308433
_symmetry_space_group_name_H-M "P 21/M"
_symmetry_group_IT_number 11
_symmetry_cell_setting 'monoclinic'
loop_
_space_group_symop_operation_xyz
x,y,z
-x,1/2+y,-z
-x,-y,-z
x,1/2-y,z
loop_
_atom_site_type_symbol
_atom_site_label
_atom_site_fract_x
_atom_site_fract_y
_atom_site_fract_z
Si Si1 0.837120 0.553109 0.312557
Si Si2 0.378550 0.333631 0.442785
Si Si3 0.128145 0.940750 0.943889
Si Si4 0.678664 0.166369 0.442786
Si Si5 0.469335 0.385392 0.561329
Si Si6 0.678522 0.014298 0.142955
Si Si7 0.350323 0.553109 0.312556
Si Si8 0.572034 0.440750 0.056110
O O1 0.754276 0.625750 0.405393
O O2 0.845927 0.509908 0.176661
O O3 0.772885 0.499999 0.499999
O O4 0.977061 0.577584 0.165447
O O5 0.364864 0.250000 0.421145
O O6 0.405167 0.336285 0.547405
O O7 0.496110 0.369023 0.205423
O O8 0.201533 0.869023 0.794575
O O9 0.181674 0.964449 0.998719
O O10 0.713989 0.250000 0.421147
O O11 0.547430 0.163714 0.547400
O O12 0.659666 0.125750 0.594610
O O13 0.355297 0.428711 0.789405
O O14 0.567332 0.441764 0.365331
O O15 0.680394 0.035550 0.001277
O O16 0.477412 0.509907 0.176660
O O17 0.357491 0.577585 0.165448
#
# Coordination Sequence:
#
# PCOD8068588 Si02
#       8
#     4   4   4   4   4   4   4   4
#     4   9  17  30  45  63  88 118 151 184 216 258
#     4  10  18  27  43  67  93 115 140 182 227 272
#     4   9  17  29  46  64  87 118 151 181 221 263
#     4  10  18  27  43  67  93 115 140 182 227 272
#     4   9  15  26  42  66  91 111 142 177 228 273
#     4   9  14  26  47  64  85 115 146 187 220 256
#     4   9  17  30  45  63  88 118 151 184 216 258
#     4   9  17  29  46  64  87 118 151 181 221 263
#
# _framework density 15.12067
#
# number of rings (size 3 to 8) (size 9 to 14) (size 15 to 20)
#    0.000    2.750    2.500    0.375    0.000    1.000 
#    0.000    0.625    0.000    0.000    0.000    0.000 
#    0.000    0.000    0.000    0.000    0.000    0.000 
#
# Total GULP energy -396741.416758 kJ/mol
# GULP energy per Si atom -12398.169274 kJ/mol
# Density = 1.508625 g / cm^3
# Si number density = 15.120670 Si / 1000 Ang^3
#
#
#
# Elastic Constant Matrix: (Units=GPa)
#
#
# Indices 1 2 3 4 5 6 
#
# 1 117.8551 44.9499 61.7717 0.0000 -1.2245 0.0000
# 2 44.9499 100.9029 37.0272 0.0000 -0.9342 0.0000
# 3 61.7717 37.0272 75.2755 0.0000 -3.7974 0.0000
# 4 0.0000 0.0000 0.0000 11.7158 0.0000 -0.0967
# 5 -1.2245 -0.9342 -3.7974 0.0000 22.5441 0.0000
# 6 0.0000 0.0000 0.0000 -0.0967 0.0000 12.5367
#
#
#
# Elastic Compliance Matrix: (Units=1/GPa)
#
#
# Indices 1 2 3 4 5 6 
#
# 1 0.015512 -0.002719 -0.011453 0.000000 -0.001199 0.000000
# 2 -0.002719 0.012576 -0.003970 0.000000 -0.000295 0.000000
# 3 -0.011453 -0.003970 0.024806 0.000000 0.003392 0.000000
# 4 0.000000 0.000000 0.000000 0.085360 0.000000 0.000659
# 5 -0.001199 -0.000295 0.003392 0.000000 0.044852 0.000000
# 6 0.000000 0.000000 0.000000 0.000659 0.000000 0.079771
#
#
# Mechanical properties :
#
#
# Convention : Reuss Voigt Hill
#
# Bulk Modulus (GPa) = 60.19694 64.61457 62.40576
# Shear Modulus (GPa) = 16.40979 19.37829 17.89404
#
# Velocity S-wave (km/s) = 3.29790 3.58379 3.44381
# Velocity P-wave (km/s) = 7.37556 7.74275 7.56139
#
# Compressibility (1/GPa) = 0.01661214
#
# Stress axis : x y z
#
# Youngs Moduli (GPa) = 64.46559 79.51879 40.31229
#
# Poissons Ratio (x) = 0.21620 0.46168
# Poissons Ratio (y) = 0.17527 0.16003
# Poissons Ratio (z) = 0.73830 0.31566
#
# Static dielectric constant tensor:
#      x y z
#    x 3.029120 0.000000 -0.032670 
#    y 0.000000 2.714070 0.000000 
#    z -0.032670 0.000000 2.752110 
# 
# 
# High freq. dielectric constant tensor:
#      x y z
#    x 1.581170 0.000000 -0.003690 
#    y 0.000000 1.567370 0.000000 
#    z -0.003690 0.000000 1.549850 
# 
# From -- ./inp_files/35874.got.cif
#   From: 2010.06.25/outbox.cif.g09.slc.cpg/sg11_18_cif.got.tgz:35874.got - 2010.06.27 23:14:04.
