data_PCOD8068691
_publ_section_title
;
Structure prediction by ZEFSAII (Michael W. Deem and Ramdas Pophale) SiO2 
 PCOD8068691
Probable space group: P 21/M
;
_chemical_formula_sum "Si O2"
_cell_formula_units_Z 32
_cell_length_a 14.366811
_cell_length_b 9.289188
_cell_length_c 28.148476
_cell_angle_alpha 90.000000
_cell_angle_beta 151.038197
_cell_angle_gamma 90.000000
_cell_volume 1819.036916
_symmetry_space_group_name_H-M "P 21/M"
_symmetry_group_IT_number 11
_symmetry_cell_setting 'monoclinic'
loop_
_space_group_symop_operation_xyz
x,y,z
-x,1/2+y,-z
-x,-y,-z
x,1/2-y,z
loop_
_atom_site_type_symbol
_atom_site_label
_atom_site_fract_x
_atom_site_fract_y
_atom_site_fract_z
Si Si1 0.092268 0.918030 0.609970
Si Si2 0.416733 0.581564 0.320091
Si Si3 0.716801 0.080583 0.209470
Si Si4 0.046894 0.088783 0.292916
Si Si5 0.425966 0.090087 0.510302
Si Si6 0.037228 0.917823 0.197802
Si Si7 0.398849 0.420185 0.998724
Si Si8 0.266379 0.582137 0.586184
O O1 0.039791 0.750000 0.592459
O O2 0.223467 0.979929 0.712070
O O3 0.218500 0.944447 0.619672
O O4 0.892612 0.005105 0.517953
O O5 0.454438 0.750000 0.327024
O O6 0.514386 0.526604 0.412493
O O7 0.186251 0.549172 0.220970
O O8 0.521766 0.487697 0.326621
O O9 0.746709 0.250000 0.225857
O O10 0.502809 0.041228 0.095559
O O11 0.854296 0.020323 0.229068
O O12 0.012485 0.250000 0.257838
O O13 0.195747 0.091454 0.403141
O O14 0.120469 0.992938 0.282086
O O15 0.513707 0.250000 0.545350
O O16 0.500000 0.000000 0.500000
O O17 0.036417 0.750000 0.208010
O O18 0.820666 0.972819 0.091180
O O19 0.411118 0.250000 0.993984
O O20 0.500000 0.500000 0.000000
O O21 0.271452 0.750000 0.575461
#
# Coordination Sequence:
#
# PCOD8068691 Si02
#       8
#     4   4   4   4   4   4   4   4
#     4   9  18  35  56  76 102 132 162 202 253 306
#     4  10  20  34  49  66  98 141 170 197 247 301
#     4   9  17  31  52  73  96 130 165 198 246 305
#     4  10  18  28  45  68  93 126 164 197 236 288
#     4  10  19  29  43  64  92 128 166 198 235 287
#     4  10  20  32  47  69  97 130 167 202 239 284
#     4  10  19  32  51  74  99 129 168 208 246 292
#     4  10  20  33  53  80 102 126 166 211 250 293
#
# _framework density 17.591726000000001
#
# number of rings (size 3 to 8) (size 9 to 14) (size 15 to 20)
#    0.000    2.250    2.500    1.125    0.000    3.500 
#    0.000    2.500    0.000    0.750    0.000    0.000 
#    0.000    0.000    0.000    0.000    0.000    0.375 
#
# Total GULP energy -396587.604228 kJ/mol
# GULP energy per Si atom -12393.362632 kJ/mol
# Density = 1.755169 g / cm^3
# Si number density = 17.591726 Si / 1000 Ang^3
#
#
#
# Elastic Constant Matrix: (Units=GPa)
#
#
# Indices 1 2 3 4 5 6 
#
# 1 81.8961 36.2441 44.1426 0.0000 15.9657 0.0000
# 2 36.2441 49.5971 27.2761 0.0000 8.6066 0.0000
# 3 44.1426 27.2761 101.0033 0.0000 12.3636 0.0000
# 4 0.0000 0.0000 0.0000 18.2400 0.0000 3.9008
# 5 15.9657 8.6066 12.3636 0.0000 31.2479 0.0000
# 6 0.0000 0.0000 0.0000 3.9008 0.0000 27.5808
#
#
#
# Elastic Compliance Matrix: (Units=1/GPa)
#
#
# Indices 1 2 3 4 5 6 
#
# 1 0.021438 -0.011655 -0.005542 0.000000 -0.005550 0.000000
# 2 -0.011655 0.030551 -0.003001 0.000000 -0.001272 0.000000
# 3 -0.005542 -0.003001 0.013331 0.000000 -0.001616 0.000000
# 4 0.000000 0.000000 0.000000 0.056535 0.000000 -0.007996
# 5 -0.005550 -0.001272 -0.001616 0.000000 0.035828 0.000000
# 6 0.000000 0.000000 0.000000 -0.007996 0.000000 0.037388
#
#
# Mechanical properties :
#
#
# Convention : Reuss Voigt Hill
#
# Bulk Modulus (GPa) = 40.12296 49.75801 44.94048
# Shear Modulus (GPa) = 20.51068 23.73597 22.12332
#
# Velocity S-wave (km/s) = 3.41827 3.67722 3.55011
# Velocity P-wave (km/s) = 6.19974 6.80996 6.51200
#
# Compressibility (1/GPa) = 0.02492339
#
# Stress axis : x y z
#
# Youngs Moduli (GPa) = 46.64560 32.73237 75.01216
#
# Poissons Ratio (x) = 0.38150 0.41575
# Poissons Ratio (y) = 0.54366 0.22509
# Poissons Ratio (z) = 0.25853 0.09822
#
# Static dielectric constant tensor:
#      x y z
#    x 3.217070 0.000000 0.147690 
#    y 0.000000 3.223580 0.000000 
#    z 0.147690 0.000000 3.567960 
# 
# 
# High freq. dielectric constant tensor:
#      x y z
#    x 1.665170 0.000000 0.015560 
#    y 0.000000 1.663510 0.000000 
#    z 0.015560 0.000000 1.676930 
# 
# From -- ./inp_files/73323.got.cif
#   From: 2010.06.25/outbox.cif.g09.slc.cpg/sg11_37_cif.got.tgz:73323.got - 2010.06.27 23:14:04.
