data_PCOD8068568
_publ_section_title
;
Structure prediction by ZEFSAII (Michael W. Deem and Ramdas Pophale) SiO2 
 PCOD8068568
Probable space group: P 21/M
;
_chemical_formula_sum "Si O2"
_cell_formula_units_Z 28
_cell_length_a 12.122606
_cell_length_b 8.891968
_cell_length_c 25.757173
_cell_angle_alpha 90.000000
_cell_angle_beta 37.394696
_cell_angle_gamma 90.000000
_cell_volume 1686.153078
_symmetry_space_group_name_H-M "P 21/M"
_symmetry_group_IT_number 11
_symmetry_cell_setting 'monoclinic'
loop_
_space_group_symop_operation_xyz
x,y,z
-x,1/2+y,-z
-x,-y,-z
x,1/2-y,z
loop_
_atom_site_type_symbol
_atom_site_label
_atom_site_fract_x
_atom_site_fract_y
_atom_site_fract_z
Si Si1 0.327769 0.426593 0.538039
Si Si2 0.554068 0.921156 0.061417
Si Si3 0.995073 0.580770 0.712530
Si Si4 0.742357 0.922538 0.893204
Si Si5 0.814608 0.424274 0.506885
Si Si6 0.802573 0.075686 0.628970
Si Si7 0.370020 0.421487 0.216595
O O1 0.500000 0.500000 0.500000
O O2 0.354496 0.250000 0.526586
O O3 0.148128 0.464700 0.638151
O O4 0.314244 0.486638 0.484275
O O5 0.538153 0.750000 0.086055
O O6 0.390475 0.957625 0.083425
O O7 0.541692 0.023227 0.117722
O O8 0.737921 0.947073 0.957791
O O9 0.068490 0.750000 0.676186
O O10 0.942919 0.554338 0.792969
O O11 0.813243 0.553619 0.747415
O O12 0.679227 0.750000 0.903990
O O13 0.812471 0.250000 0.492463
O O14 0.742083 0.452138 0.592205
O O15 0.020004 0.479946 0.423847
O O16 0.846777 0.250000 0.622285
O O17 0.640853 0.019032 0.726597
O O18 0.403065 0.250000 0.219753
#
# Coordination Sequence:
#
# PCOD8068568 Si02
#       7
#     4   4   4   4   4   4   4
#     4  12  24  36  51  68  90 121 159 198 237 277
#     4   9  15  23  37  58  85 116 152 185 218 267
#     4   9  17  30  45  62  87 118 154 192 232 273
#     4   8  15  26  39  56  82 117 149 184 226 267
#     4  10  20  34  49  68  93 119 151 193 236 276
#     4  10  19  30  48  70  92 121 156 190 227 276
#     4  10  18  27  42  63  93 125 152 187 228 269
#
# _framework density 16.605847000000001
#
# number of rings (size 3 to 8) (size 9 to 14) (size 15 to 20)
#    0.000    2.286    1.429    3.857    0.000    4.571 
#    0.000    0.000    0.000    0.000    0.000    0.000 
#    0.000    1.143    0.000    3.429    0.000    4.857 
#
# Total GULP energy -347029.169099 kJ/mol
# GULP energy per Si atom -12393.898896 kJ/mol
# Density = 1.656805 g / cm^3
# Si number density = 16.605847 Si / 1000 Ang^3
#
#
#
# Elastic Constant Matrix: (Units=GPa)
#
#
# Indices 1 2 3 4 5 6 
#
# 1 64.1420 40.1591 37.1969 0.0000 14.0640 0.0000
# 2 40.1591 104.8998 39.7733 0.0000 12.8679 0.0000
# 3 37.1969 39.7733 95.4751 0.0000 37.4354 0.0000
# 4 0.0000 0.0000 0.0000 26.4932 0.0000 5.2958
# 5 14.0640 12.8679 37.4354 0.0000 25.6609 0.0000
# 6 0.0000 0.0000 0.0000 5.2958 0.0000 20.5711
#
#
#
# Elastic Compliance Matrix: (Units=1/GPa)
#
#
# Indices 1 2 3 4 5 6 
#
# 1 0.023387 -0.006546 -0.006182 0.000000 -0.000516 0.000000
# 2 -0.006546 0.013241 -0.004133 0.000000 0.002977 0.000000
# 3 -0.006182 -0.004133 0.029120 0.000000 -0.037021 0.000000
# 4 0.000000 0.000000 0.000000 0.039793 0.000000 -0.010244
# 5 -0.000516 0.002977 -0.037021 0.000000 0.091768 0.000000
# 6 0.000000 0.000000 0.000000 -0.010244 0.000000 0.051249
#
#
# Mechanical properties :
#
#
# Convention : Reuss Voigt Hill
#
# Bulk Modulus (GPa) = 31.22500 55.41951 43.32226
# Shear Modulus (GPa) = 17.06743 24.37090 20.71917
#
# Velocity S-wave (km/s) = 3.20940 3.83510 3.53612
# Velocity P-wave (km/s) = 5.70773 7.28399 6.54350
#
# Compressibility (1/GPa) = 0.03202562
#
# Stress axis : x y z
#
# Youngs Moduli (GPa) = 42.75840 75.52447 34.34069
#
# Poissons Ratio (x) = 0.49439 0.21230
# Poissons Ratio (y) = 0.27990 0.14193
# Poissons Ratio (z) = 0.26434 0.31214
#
# Static dielectric constant tensor:
#      x y z
#    x 2.765860 0.000000 0.479700 
#    y 0.000000 3.233420 0.000000 
#    z 0.479700 0.000000 3.517490 
# 
# 
# High freq. dielectric constant tensor:
#      x y z
#    x 1.574490 0.000000 0.048540 
#    y 0.000000 1.655130 0.000000 
#    z 0.048540 0.000000 1.643000 
# 
# From -- ./inp_files/69383.got.cif
#   From: 2010.06.25/outbox.cif.g09.slc.cpg/sg11_35_cif.got.tgz:69383.got - 2010.06.27 23:14:04.
