data_PCOD8068797
_publ_section_title
;
Structure prediction by ZEFSAII (Michael W. Deem and Ramdas Pophale) SiO2 
 PCOD8068797
Probable space group: P 21/M
;
_chemical_formula_sum "Si O2"
_cell_formula_units_Z 28
_cell_length_a 16.100703
_cell_length_b 8.823268
_cell_length_c 13.551041
_cell_angle_alpha 90.000000
_cell_angle_beta 65.418188
_cell_angle_gamma 90.000000
_cell_volume 1750.599241
_symmetry_space_group_name_H-M "P 21/M"
_symmetry_group_IT_number 11
_symmetry_cell_setting 'monoclinic'
loop_
_space_group_symop_operation_xyz
x,y,z
-x,1/2+y,-z
-x,-y,-z
x,1/2-y,z
loop_
_atom_site_type_symbol
_atom_site_label
_atom_site_fract_x
_atom_site_fract_y
_atom_site_fract_z
Si Si1 0.506884 0.072963 0.102777
Si Si2 0.958351 0.573190 0.162973
Si Si3 0.858631 0.073308 0.037960
Si Si4 0.686836 0.570802 0.025080
Si Si5 0.307150 0.426872 0.201062
Si Si6 0.863243 0.573476 0.595460
Si Si7 0.956050 0.424929 0.372542
O O1 0.526469 0.250000 0.083737
O O2 0.406980 0.043179 0.201342
O O3 0.500000 0.000000 0.000000
O O4 0.591636 0.994971 0.117752
O O5 0.937921 0.750000 0.159099
O O6 0.944687 0.526555 0.282028
O O7 0.061242 0.533462 0.078819
O O8 0.886972 0.479249 0.132888
O O9 0.835927 0.250000 0.050672
O O10 0.769210 0.982242 0.051994
O O11 0.680241 0.750000 0.029874
O O12 0.699421 0.506532 0.907095
O O13 0.287101 0.250000 0.201150
O O14 0.228917 0.495132 0.310233
O O15 0.854934 0.750000 0.570990
O O16 0.880422 0.477794 0.488415
O O17 0.943563 0.547086 0.634050
O O18 0.940082 0.250000 0.353729
#
# Coordination Sequence:
#
# PCOD8068797 Si02
#       7
#     4   4   4   4   4   4   4
#     4   9  16  27  42  63  90 119 152 187 226 269
#     4  10  20  33  48  66  90 120 151 184 223 266
#     4  10  20  32  47  68  91 117 151 187 222 262
#     4  10  18  29  45  66  93 123 152 183 224 270
#     4   8  15  27  44  64  88 120 153 185 221 262
#     4   9  17  30  46  64  88 120 155 186 221 264
#     4  10  19  30  45  66  92 120 150 187 225 261
#
# _framework density 15.994522999999999
#
# number of rings (size 3 to 8) (size 9 to 14) (size 15 to 20)
#    0.000    2.571    0.000    3.857    0.000    3.429 
#    0.000    4.286    0.000    0.000    0.000    1.000 
#    0.000    0.000    0.000    0.000    0.000    0.000 
#
# Total GULP energy -347117.233326 kJ/mol
# GULP energy per Si atom -12397.044047 kJ/mol
# Density = 1.595812 g / cm^3
# Si number density = 15.994523 Si / 1000 Ang^3
#
#
#
# Elastic Constant Matrix: (Units=GPa)
#
#
# Indices 1 2 3 4 5 6 
#
# 1 105.9607 35.9489 42.0135 0.0000 -16.3958 0.0000
# 2 35.9489 59.6692 22.2361 0.0000 -5.8913 0.0000
# 3 42.0135 22.2361 77.1976 0.0000 -9.6764 0.0000
# 4 0.0000 0.0000 0.0000 22.2783 0.0000 1.8049
# 5 -16.3958 -5.8913 -9.6764 0.0000 24.3093 0.0000
# 6 0.0000 0.0000 0.0000 1.8049 0.0000 27.6794
#
#
#
# Elastic Compliance Matrix: (Units=1/GPa)
#
#
# Indices 1 2 3 4 5 6 
#
# 1 0.014646 -0.006194 -0.005406 0.000000 0.006225 0.000000
# 2 -0.006194 0.021542 -0.002845 0.000000 -0.000090 0.000000
# 3 -0.005406 -0.002845 0.017021 0.000000 0.002440 0.000000
# 4 0.000000 0.000000 0.000000 0.045125 0.000000 -0.002943
# 5 0.006225 -0.000090 0.002440 0.000000 0.046284 0.000000
# 6 0.000000 0.000000 0.000000 -0.002943 0.000000 0.036320
#
#
# Mechanical properties :
#
#
# Convention : Reuss Voigt Hill
#
# Bulk Modulus (GPa) = 41.12176 49.24717 45.18447
# Shear Modulus (GPa) = 22.94247 24.36199 23.65223
#
# Velocity S-wave (km/s) = 3.79145 3.90698 3.84965
# Velocity P-wave (km/s) = 6.70317 7.15609 6.93333
#
# Compressibility (1/GPa) = 0.02431802
#
# Stress axis : x y z
#
# Youngs Moduli (GPa) = 68.27896 46.42009 58.74982
#
# Poissons Ratio (x) = 0.28754 0.31761
# Poissons Ratio (y) = 0.42295 0.16715
# Poissons Ratio (z) = 0.36913 0.13207
#
# Static dielectric constant tensor:
#      x y z
#    x 3.241470 0.000000 -0.269880 
#    y 0.000000 3.083890 0.000000 
#    z -0.269880 0.000000 2.952340 
# 
# 
# High freq. dielectric constant tensor:
#      x y z
#    x 1.611270 0.000000 -0.012770 
#    y 0.000000 1.619150 0.000000 
#    z -0.012770 0.000000 1.584820 
# 
# From -- ./inp_files/37469.got.cif
#   From: 2010.06.25/outbox.cif.g09.slc.cpg/sg11_19_cif.got.tgz:37469.got - 2010.06.27 23:14:04.
