data_PCOD8068972
_publ_section_title
;
Structure prediction by ZEFSAII (Michael W. Deem and Ramdas Pophale) SiO2 
 PCOD8068972
Probable space group: P 21/M
;
_chemical_formula_sum "Si O2"
_cell_formula_units_Z 32
_cell_length_a 12.020175
_cell_length_b 20.753039
_cell_length_c 12.439829
_cell_angle_alpha 90.000000
_cell_angle_beta 144.876897
_cell_angle_gamma 90.000000
_cell_volume 1785.368119
_symmetry_space_group_name_H-M "P 21/M"
_symmetry_group_IT_number 11
_symmetry_cell_setting 'monoclinic'
loop_
_space_group_symop_operation_xyz
x,y,z
-x,1/2+y,-z
-x,-y,-z
x,1/2-y,z
loop_
_atom_site_type_symbol
_atom_site_label
_atom_site_fract_x
_atom_site_fract_y
_atom_site_fract_z
Si Si1 0.712774 0.544675 0.243139
Si Si2 0.447637 0.394143 0.257680
Si Si3 0.816291 0.174402 0.466865
Si Si4 0.546301 0.458215 0.771060
Si Si5 0.890259 0.082402 0.337964
Si Si6 0.862815 0.598539 0.159761
Si Si7 0.377795 0.436257 0.426781
Si Si8 0.958446 0.458830 0.168844
O O1 0.530945 0.564225 0.173629
O O2 0.712762 0.468723 0.211497
O O3 0.705046 0.588933 0.130439
O O4 0.909156 0.554517 0.462218
O O5 0.608174 0.343574 0.349348
O O6 0.518424 0.467218 0.292725
O O7 0.411404 0.385108 0.357433
O O8 0.249723 0.378829 0.036006
O O9 0.835745 0.250000 0.471664
O O10 0.839831 0.146418 0.364873
O O11 0.978178 0.150201 0.678790
O O12 0.452400 0.413369 0.603404
O O13 0.777223 0.452747 0.944924
O O14 0.926579 0.093710 0.239172
O O15 0.971335 0.530318 0.229734
O O16 0.500000 0.500000 0.500000
O O17 0.148499 0.447572 0.249269
#
# Coordination Sequence:
#
# PCOD8068972 Si02
#       8
#     4   4   4   4   4   4   4   4
#     4   9  15  28  51  78 110 135 158 207 261 324
#     4  10  21  33  51  73 109 141 172 207 253 313
#     4  11  22  36  53  74 101 137 179 224 264 300
#     4  10  18  29  51  82 112 139 166 199 262 323
#     4   9  17  30  52  74 107 134 171 207 264 314
#     4   9  20  32  51  79 107 138 169 210 263 316
#     4  10  20  32  48  75 115 140 165 200 244 313
#     4  10  19  30  53  83 108 142 166 206 268 326
#
# _framework density 17.923473999999999
#
# number of rings (size 3 to 8) (size 9 to 14) (size 15 to 20)
#    0.000    2.250    2.500    2.250    1.750    7.500 
#    0.000    0.000    0.000    0.750    0.000    0.875 
#    0.000    0.000    0.000    0.000    0.000    0.000 
#
# Total GULP energy -396614.582731 kJ/mol
# GULP energy per Si atom -12394.205710 kJ/mol
# Density = 1.788268 g / cm^3
# Si number density = 17.923474 Si / 1000 Ang^3
#
#
#
# Elastic Constant Matrix: (Units=GPa)
#
#
# Indices 1 2 3 4 5 6 
#
# 1 103.9424 24.0917 34.6048 0.0000 9.8528 0.0000
# 2 24.0917 64.1639 31.4478 0.0000 0.7636 0.0000
# 3 34.6048 31.4478 82.3134 0.0000 0.6267 0.0000
# 4 0.0000 0.0000 0.0000 12.7531 0.0000 0.7955
# 5 9.8528 0.7636 0.6267 0.0000 29.8284 0.0000
# 6 0.0000 0.0000 0.0000 0.7955 0.0000 13.7689
#
#
#
# Elastic Compliance Matrix: (Units=1/GPa)
#
#
# Indices 1 2 3 4 5 6 
#
# 1 0.011889 -0.002440 -0.004037 0.000000 -0.003780 0.000000
# 2 -0.002440 0.019680 -0.006496 0.000000 0.000439 0.000000
# 3 -0.004037 -0.006496 0.016319 0.000000 0.001157 0.000000
# 4 0.000000 0.000000 0.000000 0.078696 0.000000 -0.004547
# 5 -0.003780 0.000439 0.001157 0.000000 0.034738 0.000000
# 6 0.000000 0.000000 0.000000 -0.004547 0.000000 0.072890
#
#
# Mechanical properties :
#
#
# Convention : Reuss Voigt Hill
#
# Bulk Modulus (GPa) = 45.57736 47.85650 46.71693
# Shear Modulus (GPa) = 18.69353 21.95510 20.32432
#
# Velocity S-wave (km/s) = 3.23300 3.50371 3.37107
# Velocity P-wave (km/s) = 6.27857 6.56707 6.42444
#
# Compressibility (1/GPa) = 0.02194072
#
# Stress axis : x y z
#
# Youngs Moduli (GPa) = 84.11431 50.81296 61.27876
#
# Poissons Ratio (x) = 0.12400 0.24738
# Poissons Ratio (y) = 0.20526 0.39808
# Poissons Ratio (z) = 0.33956 0.33009
#
# Static dielectric constant tensor:
#      x y z
#    x 3.575140 0.000000 -0.275390 
#    y 0.000000 2.686260 0.000000 
#    z -0.275390 0.000000 3.565410 
# 
# 
# High freq. dielectric constant tensor:
#      x y z
#    x 1.704260 0.000000 -0.002650 
#    y 0.000000 1.607050 0.000000 
#    z -0.002650 0.000000 1.714020 
# 
# From -- ./inp_files/36379.got.cif
#   From: 2010.06.25/outbox.cif.g09.slc.cpg/sg11_19_cif.got.tgz:36379.got - 2010.06.27 23:14:04.
