data_PCOD8068241
_publ_section_title
;
Structure prediction by ZEFSAII (Michael W. Deem and Ramdas Pophale) SiO2 
 PCOD8068241
Probable space group: P 21/M
;
_chemical_formula_sum "Si O2"
_cell_formula_units_Z 32
_cell_length_a 9.526919
_cell_length_b 14.157942
_cell_length_c 14.714867
_cell_angle_alpha 90.000000
_cell_angle_beta 121.535752
_cell_angle_gamma 90.000000
_cell_volume 1691.642341
_symmetry_space_group_name_H-M "P 21/M"
_symmetry_group_IT_number 11
_symmetry_cell_setting 'monoclinic'
loop_
_space_group_symop_operation_xyz
x,y,z
-x,1/2+y,-z
-x,-y,-z
x,1/2-y,z
loop_
_atom_site_type_symbol
_atom_site_label
_atom_site_fract_x
_atom_site_fract_y
_atom_site_fract_z
Si Si1 0.606097 0.961234 0.362767
Si Si2 0.698448 0.356039 0.476033
Si Si3 0.193874 0.489122 0.053560
Si Si4 0.253854 0.483735 0.267728
Si Si5 0.935286 0.144286 0.716922
Si Si6 0.727940 0.855426 0.087335
Si Si7 0.653808 0.856053 0.551691
Si Si8 0.531095 0.360916 0.853822
O O1 0.698917 0.896438 0.467605
O O2 0.591626 0.912867 0.259462
O O3 0.689880 0.066621 0.391226
O O4 0.427207 0.968599 0.346550
O O5 0.708567 0.250000 0.437856
O O6 0.860040 0.378301 0.592066
O O7 0.538111 0.365997 0.485688
O O8 0.252305 0.437722 0.166409
O O9 0.288886 0.590317 0.081050
O O10 0.245433 0.428041 0.984987
O O11 0.000000 0.500000 0.000000
O O12 0.122202 0.568333 0.228013
O O13 0.224830 0.404714 0.333946
O O14 0.877765 0.250000 0.726314
O O15 0.133267 0.136600 0.786469
O O16 0.731709 0.750000 0.046621
O O17 0.553321 0.873930 0.076497
O O18 0.712696 0.750000 0.569617
O O19 0.551449 0.250000 0.835531
#
# Coordination Sequence:
#
# PCOD8068241 Si02
#       8
#     4   4   4   4   4   4   4   4
#     4  10  17  30  51  78 109 146 184 226 273 337
#     4   9  16  27  48  79 112 145 180 230 281 329
#     4  11  22  36  61  86 109 140 185 244 290 335
#     4  10  18  30  47  78 111 133 177 229 285 329
#     4  10  17  29  53  77 106 142 182 225 273 327
#     4  10  22  40  58  80 112 152 190 232 283 343
#     4  10  17  26  44  72 111 147 174 216 281 337
#     4  10  23  40  58  81 113 150 191 229 279 343
#
# _framework density 18.916528
#
# number of rings (size 3 to 8) (size 9 to 14) (size 15 to 20)
#    0.000    2.000    3.750    1.500    0.000    3.000 
#    0.000    2.500    0.000    0.750    0.000    0.000 
#    0.000    0.000    0.000    0.000    0.000    0.000 
#
# Total GULP energy -396465.068916 kJ/mol
# GULP energy per Si atom -12389.533404 kJ/mol
# Density = 1.887347 g / cm^3
# Si number density = 18.916528 Si / 1000 Ang^3
#
#
#
# Elastic Constant Matrix: (Units=GPa)
#
#
# Indices 1 2 3 4 5 6 
#
# 1 58.0306 40.1600 36.2972 0.0000 -1.0900 0.0000
# 2 40.1600 130.2960 68.7310 0.0000 -10.0493 0.0000
# 3 36.2972 68.7310 98.2240 0.0000 -5.6793 0.0000
# 4 0.0000 0.0000 0.0000 29.9191 0.0000 -1.8296
# 5 -1.0900 -10.0493 -5.6793 0.0000 21.7137 0.0000
# 6 0.0000 0.0000 0.0000 -1.8296 0.0000 21.0802
#
#
#
# Elastic Compliance Matrix: (Units=1/GPa)
#
#
# Indices 1 2 3 4 5 6 
#
# 1 0.023949 -0.004478 -0.005855 0.000000 -0.002402 0.000000
# 2 -0.004478 0.013263 -0.007396 0.000000 0.003979 0.000000
# 3 -0.005855 -0.007396 0.017571 0.000000 0.000879 0.000000
# 4 0.000000 0.000000 0.000000 0.033602 0.000000 0.002916
# 5 -0.002402 0.003979 0.000879 0.000000 0.048005 0.000000
# 6 0.000000 0.000000 0.000000 0.002916 0.000000 0.047691
#
#
# Mechanical properties :
#
#
# Convention : Reuss Voigt Hill
#
# Bulk Modulus (GPa) = 51.74933 64.10302 57.92618
# Shear Modulus (GPa) = 22.12587 23.96677 23.04632
#
# Velocity S-wave (km/s) = 3.42374 3.56332 3.49423
# Velocity P-wave (km/s) = 6.56090 7.13376 6.85332
#
# Compressibility (1/GPa) = 0.01932392
#
# Stress axis : x y z
#
# Youngs Moduli (GPa) = 41.75614 75.39576 56.91327
#
# Poissons Ratio (x) = 0.33763 0.33324
# Poissons Ratio (y) = 0.18699 0.42093
# Poissons Ratio (z) = 0.24449 0.55763
#
# Static dielectric constant tensor:
#      x y z
#    x 3.086810 0.000000 0.107300 
#    y 0.000000 3.678000 0.000000 
#    z 0.107300 0.000000 3.577400 
# 
# 
# High freq. dielectric constant tensor:
#      x y z
#    x 1.693680 0.000000 0.004390 
#    y 0.000000 1.739770 0.000000 
#    z 0.004390 0.000000 1.733580 
# 
# From -- ./inp_files/47641.got.cif
#   From: 2010.06.25/outbox.cif.g09.slc.cpg/sg11_24_cif.got.tgz:47641.got - 2010.06.27 23:14:04.
