data_PCOD8068238
_publ_section_title
;
Structure prediction by ZEFSAII (Michael W. Deem and Ramdas Pophale) SiO2 
 PCOD8068238
Probable space group: P 21/M
;
_chemical_formula_sum "Si O2"
_cell_formula_units_Z 24
_cell_length_a 22.526023
_cell_length_b 8.893257
_cell_length_c 12.128370
_cell_angle_alpha 90.000000
_cell_angle_beta 138.805210
_cell_angle_gamma 90.000000
_cell_volume 1600.233667
_symmetry_space_group_name_H-M "P 21/M"
_symmetry_group_IT_number 11
_symmetry_cell_setting 'monoclinic'
loop_
_space_group_symop_operation_xyz
x,y,z
-x,1/2+y,-z
-x,-y,-z
x,1/2-y,z
loop_
_atom_site_type_symbol
_atom_site_label
_atom_site_fract_x
_atom_site_fract_y
_atom_site_fract_z
Si Si1 0.238154 0.919169 0.684220
Si Si2 0.714008 0.081678 0.485668
Si Si3 0.989596 0.424076 0.151581
Si Si4 0.859468 0.575842 0.816176
Si Si5 0.058451 0.072090 0.486512
Si Si6 0.595236 0.571453 0.159069
O O1 0.246963 0.750000 0.744877
O O2 0.217776 0.912532 0.524166
O O3 0.158976 0.006419 0.635884
O O4 0.332798 0.009618 0.831418
O O5 0.682892 0.250000 0.474904
O O6 0.764955 0.007009 0.660026
O O7 0.626934 0.983236 0.325984
O O8 0.964024 0.250000 0.109940
O O9 0.073687 0.459865 0.190831
O O10 0.013298 0.474453 0.307982
O O11 0.902127 0.516382 0.989586
O O12 0.838266 0.750000 0.798659
O O13 0.063748 0.250000 0.507791
O O14 0.000000 0.000000 0.500000
O O15 0.590008 0.750000 0.147083
O O16 0.500000 0.500000 0.000000
#
# Coordination Sequence:
#
# PCOD8068238 Si02
#       6
#     4   4   4   4   4   4
#     4   9  18  30  44  62  86 117 150 183 223 266
#     4   9  17  27  41  60  86 115 142 174 217 264
#     4   9  18  29  40  58  83 112 147 184 223 265
#     4  10  17  26  43  62  83 111 144 183 224 268
#     4  11  21  33  47  63  88 122 159 194 226 263
#     4  10  17  27  43  64  90 118 147 180 222 272
#
# _framework density 14.997809
#
# number of rings (size 3 to 8) (size 9 to 14) (size 15 to 20)
#    1.000    1.333    1.667    3.000    0.000    2.000 
#    0.000    0.000    0.000    0.000    0.000    0.000 
#    0.000    1.333    0.000    5.000    0.000    7.833 
#
# Total GULP energy -297415.237291 kJ/mol
# GULP energy per Si atom -12392.301554 kJ/mol
# Density = 1.496367 g / cm^3
# Si number density = 14.997809 Si / 1000 Ang^3
#
#
#
# Elastic Constant Matrix: (Units=GPa)
#
#
# Indices 1 2 3 4 5 6 
#
# 1 59.9714 35.5972 41.0655 0.0000 9.7545 0.0000
# 2 35.5972 123.1850 65.3257 0.0000 16.3519 0.0000
# 3 41.0655 65.3257 104.5045 0.0000 20.1562 0.0000
# 4 0.0000 0.0000 0.0000 29.9233 0.0000 4.4429
# 5 9.7545 16.3519 20.1562 0.0000 22.3470 0.0000
# 6 0.0000 0.0000 0.0000 4.4429 0.0000 20.4922
#
#
#
# Elastic Compliance Matrix: (Units=1/GPa)
#
#
# Indices 1 2 3 4 5 6 
#
# 1 0.023511 -0.002753 -0.007175 0.000000 -0.001776 0.000000
# 2 -0.002753 0.012579 -0.006341 0.000000 -0.002283 0.000000
# 3 -0.007175 -0.006341 0.017981 0.000000 -0.008447 0.000000
# 4 0.000000 0.000000 0.000000 0.034530 0.000000 -0.007487
# 5 -0.001776 -0.002283 -0.008447 0.000000 0.054814 0.000000
# 6 0.000000 0.000000 0.000000 -0.007487 0.000000 0.050422
#
#
# Mechanical properties :
#
#
# Convention : Reuss Voigt Hill
#
# Bulk Modulus (GPa) = 46.44053 63.51528 54.97790
# Shear Modulus (GPa) = 21.40833 24.26399 22.83616
#
# Velocity S-wave (km/s) = 3.78223 4.02660 3.90633
# Velocity P-wave (km/s) = 7.07855 8.00372 7.55531
#
# Compressibility (1/GPa) = 0.02153292
#
# Stress axis : x y z
#
# Youngs Moduli (GPa) = 42.53340 79.49597 55.61327
#
# Poissons Ratio (x) = 0.21888 0.39903
# Poissons Ratio (y) = 0.11711 0.35264
# Poissons Ratio (z) = 0.30518 0.50408
#
# Static dielectric constant tensor:
#      x y z
#    x 2.412590 0.000000 -0.041300 
#    y 0.000000 3.006880 0.000000 
#    z -0.041300 0.000000 2.662360 
# 
# 
# High freq. dielectric constant tensor:
#      x y z
#    x 1.513930 0.000000 0.012720 
#    y 0.000000 1.595130 0.000000 
#    z 0.012720 0.000000 1.566960 
# 
# From -- ./inp_files/43686.got.cif
#   From: 2010.06.25/outbox.cif.g09.slc.cpg/sg11_22_cif.got.tgz:43686.got - 2010.06.27 23:14:04.
