data_PCOD8068464
_publ_section_title
;
Structure prediction by ZEFSAII (Michael W. Deem and Ramdas Pophale) SiO2 
 PCOD8068464
Probable space group: P 21/M
;
_chemical_formula_sum "Si O2"
_cell_formula_units_Z 32
_cell_length_a 27.128671
_cell_length_b 8.920024
_cell_length_c 21.136931
_cell_angle_alpha 90.000000
_cell_angle_beta 160.456251
_cell_angle_gamma 90.000000
_cell_volume 1711.067080
_symmetry_space_group_name_H-M "P 21/M"
_symmetry_group_IT_number 11
_symmetry_cell_setting 'monoclinic'
loop_
_space_group_symop_operation_xyz
x,y,z
-x,1/2+y,-z
-x,-y,-z
x,1/2-y,z
loop_
_atom_site_type_symbol
_atom_site_label
_atom_site_fract_x
_atom_site_fract_y
_atom_site_fract_z
Si Si1 0.668922 0.072846 0.374934
Si Si2 0.000889 0.072643 0.774903
Si Si3 0.782331 0.572680 0.072035
Si Si4 0.945701 0.073651 0.029333
Si Si5 0.449784 0.072738 0.003903
Si Si6 0.225610 0.073813 0.285134
Si Si7 0.458818 0.571976 0.648251
Si Si8 0.851131 0.572622 0.295309
O O1 0.653318 0.250000 0.355782
O O2 0.558373 0.006887 0.188938
O O3 0.624009 0.013252 0.389336
O O4 0.834270 0.020626 0.559863
O O5 0.011845 0.250000 0.799540
O O6 0.091428 0.019530 0.823245
O O7 0.065479 0.991001 0.914041
O O8 0.775031 0.750000 0.068778
O O9 0.815266 0.508551 0.181820
O O10 0.626721 0.515480 0.856566
O O11 0.921319 0.250000 0.001223
O O12 0.814986 0.999963 0.830808
O O13 0.102743 0.030168 0.188671
O O14 0.465988 0.250000 0.017617
O O15 0.282552 0.028030 0.819555
O O16 0.500000 0.000000 0.000000
O O17 0.238236 0.250000 0.290789
O O18 0.382454 0.007495 0.496267
O O19 0.447020 0.750000 0.625448
O O20 0.872596 0.750000 0.318998
O O21 0.000000 0.500000 0.500000
#
# Coordination Sequence:
#
# PCOD8068464 Si02
#       8
#     4   4   4   4   4   4   4   4
#     4   9  17  31  55  79 103 138 182 224 266 318
#     4  10  19  33  55  82 107 137 178 223 269 320
#     4   9  19  35  57  81 107 141 182 224 267 323
#     4  10  20  34  52  79 112 143 175 218 268 317
#     4  10  21  37  56  83 114 145 185 233 279 329
#     4  10  20  33  53  81 110 140 177 221 266 316
#     4  10  17  33  57  79 103 138 180 222 268 317
#     4  10  21  38  57  80 112 149 189 229 274 332
#
# _framework density 18.701778999999998
#
# number of rings (size 3 to 8) (size 9 to 14) (size 15 to 20)
#    0.000    2.250    2.500    0.750    1.750    1.500 
#    0.000    3.750    0.000    0.000    0.000    0.000 
#    0.000    0.000    0.000    0.000    0.000    0.000 
#
# Total GULP energy -396827.559085 kJ/mol
# GULP energy per Si atom -12400.861221 kJ/mol
# Density = 1.865921 g / cm^3
# Si number density = 18.701779 Si / 1000 Ang^3
#
#
#
# Elastic Constant Matrix: (Units=GPa)
#
#
# Indices 1 2 3 4 5 6 
#
# 1 111.2423 34.7590 70.6195 0.0000 3.0636 0.0000
# 2 34.7590 42.1235 40.0875 0.0000 -2.6769 0.0000
# 3 70.6195 40.0875 174.5366 0.0000 -4.4236 0.0000
# 4 0.0000 0.0000 0.0000 28.1035 0.0000 -6.7135
# 5 3.0636 -2.6769 -4.4236 0.0000 35.9645 0.0000
# 6 0.0000 0.0000 0.0000 -6.7135 0.0000 23.4106
#
#
#
# Elastic Compliance Matrix: (Units=1/GPa)
#
#
# Indices 1 2 3 4 5 6 
#
# 1 0.014027 -0.008015 -0.003892 0.000000 -0.002270 0.000000
# 2 -0.008015 0.035031 -0.004734 0.000000 0.002708 0.000000
# 3 -0.003892 -0.004734 0.008417 0.000000 0.001015 0.000000
# 4 0.000000 0.000000 0.000000 0.038200 0.000000 0.010955
# 5 -0.002270 0.002708 0.001015 0.000000 0.028325 0.000000
# 6 0.000000 0.000000 0.000000 0.010955 0.000000 0.045857
#
#
# Mechanical properties :
#
#
# Convention : Reuss Voigt Hill
#
# Bulk Modulus (GPa) = 41.33511 68.75940 55.04726
# Shear Modulus (GPa) = 23.67375 29.65814 26.66595
#
# Velocity S-wave (km/s) = 3.56175 3.98659 3.78014
# Velocity P-wave (km/s) = 6.25019 7.61817 6.96784
#
# Compressibility (1/GPa) = 0.02419251
#
# Stress axis : x y z
#
# Youngs Moduli (GPa) = 71.29040 28.54622 118.80170
#
# Poissons Ratio (x) = 0.22880 0.46240
# Poissons Ratio (y) = 0.57139 0.56245
# Poissons Ratio (z) = 0.27748 0.13515
#
# Static dielectric constant tensor:
#      x y z
#    x 3.471300 0.000000 -0.055730 
#    y 0.000000 3.054520 0.000000 
#    z -0.055730 0.000000 3.645440 
# 
# 
# High freq. dielectric constant tensor:
#      x y z
#    x 1.722560 0.000000 -0.008380 
#    y 0.000000 1.694260 0.000000 
#    z -0.008380 0.000000 1.738630 
# 
# From -- ./inp_files/67220.got.cif
#   From: 2010.06.25/outbox.cif.g09.slc.cpg/sg11_34_cif.got.tgz:67220.got - 2010.06.27 23:14:04.
