data_PCOD8068969
_publ_section_title
;
Structure prediction by ZEFSAII (Michael W. Deem and Ramdas Pophale) SiO2 
 PCOD8068969
Probable space group: P 21/M
;
_chemical_formula_sum "Si O2"
_cell_formula_units_Z 22
_cell_length_a 9.711172
_cell_length_b 11.572100
_cell_length_c 14.688371
_cell_angle_alpha 90.000000
_cell_angle_beta 129.278611
_cell_angle_gamma 90.000000
_cell_volume 1277.736785
_symmetry_space_group_name_H-M "P 21/M"
_symmetry_group_IT_number 11
_symmetry_cell_setting 'monoclinic'
loop_
_space_group_symop_operation_xyz
x,y,z
-x,1/2+y,-z
-x,-y,-z
x,1/2-y,z
loop_
_atom_site_type_symbol
_atom_site_label
_atom_site_fract_x
_atom_site_fract_y
_atom_site_fract_z
Si Si1 0.726822 0.750000 0.712506
Si Si2 0.896972 0.250000 0.070803
Si Si3 0.862465 0.034332 0.366167
Si Si4 0.289968 0.384015 0.852520
Si Si5 0.323945 0.536117 0.034583
Si Si6 0.014411 0.750000 0.695270
Si Si7 0.514029 0.878269 0.749438
O O1 0.606522 0.863475 0.687688
O O2 0.890730 0.750000 0.854149
O O3 0.805664 0.750000 0.643126
O O4 0.854433 0.250000 0.162448
O O5 0.814363 0.134668 0.992356
O O6 0.951522 0.137590 0.348694
O O7 0.682691 0.070924 0.342543
O O8 0.822140 0.929131 0.280862
O O9 0.000000 0.000000 0.500000
O O10 0.243357 0.250000 0.847566
O O11 0.499720 0.399541 0.926129
O O12 0.235939 0.457402 0.918927
O O13 0.362634 0.458543 0.137921
O O14 0.500697 0.750000 0.789696
#
# Coordination Sequence:
#
# PCOD8068969 Si02
#       7
#     2   2   4   4   4   2   4
#     4   8  19  35  58  76 105 157 174 213 264 335
#     4  10  18  32  51  78 109 144 184 202 258 326
#     4  11  22  35  58  81 103 140 181 243 267 314
#     4  10  19  29  47  80 110 134 176 218 283 313
#     4  10  18  29  51  78 113 143 170 219 264 322
#     4  10  19  39  55  78 110 139 186 209 274 327
#     4   9  19  36  54  81 110 141 179 218 274 320
#
# _framework density 17.217943999999999
#
# number of rings (size 3 to 8) (size 9 to 14) (size 15 to 20)
#    1.091    1.091    3.636    0.545    1.273    0.727 
#    0.000    0.909    0.000    0.000    0.000    0.000 
#    0.000    0.000    0.000    0.000    0.000    0.000 
#
# Total GULP energy -272604.317210 kJ/mol
# GULP energy per Si atom -12391.105328 kJ/mol
# Density = 1.717876 g / cm^3
# Si number density = 17.217944 Si / 1000 Ang^3
#
#
#
# Elastic Constant Matrix: (Units=GPa)
#
#
# Indices 1 2 3 4 5 6 
#
# 1 77.3479 24.8923 27.6337 0.0000 9.8216 0.0000
# 2 24.8923 119.2625 44.9926 0.0000 6.9114 0.0000
# 3 27.6337 44.9926 100.0044 0.0000 8.1528 0.0000
# 4 0.0000 0.0000 0.0000 14.5405 0.0000 5.5857
# 5 9.8216 6.9114 8.1528 0.0000 13.4825 0.0000
# 6 0.0000 0.0000 0.0000 5.5857 0.0000 11.3582
#
#
#
# Elastic Compliance Matrix: (Units=1/GPa)
#
#
# Indices 1 2 3 4 5 6 
#
# 1 0.015598 -0.001675 -0.002840 0.000000 -0.008787 0.000000
# 2 -0.001675 0.010363 -0.004067 0.000000 -0.001633 0.000000
# 3 -0.002840 -0.004067 0.012912 0.000000 -0.003654 0.000000
# 4 0.000000 0.000000 0.000000 0.084792 0.000000 -0.041699
# 5 -0.008787 -0.001633 -0.003654 0.000000 0.083618 0.000000
# 6 0.000000 0.000000 0.000000 -0.041699 0.000000 0.108549
#
#
# Mechanical properties :
#
#
# Convention : Reuss Voigt Hill
#
# Bulk Modulus (GPa) = 46.06215 54.62801 50.34508
# Shear Modulus (GPa) = 14.69587 21.14932 17.92260
#
# Velocity S-wave (km/s) = 2.92468 3.50856 3.22984
# Velocity P-wave (km/s) = 6.18187 6.94331 6.57362
#
# Compressibility (1/GPa) = 0.02170980
#
# Stress axis : x y z
#
# Youngs Moduli (GPa) = 64.11049 96.49509 77.44832
#
# Poissons Ratio (x) = 0.16162 0.21997
# Poissons Ratio (y) = 0.10738 0.31494
# Poissons Ratio (z) = 0.18209 0.39240
#
# Static dielectric constant tensor:
#      x y z
#    x 3.050280 0.000000 0.072430 
#    y 0.000000 3.202120 0.000000 
#    z 0.072430 0.000000 3.030200 
# 
# 
# High freq. dielectric constant tensor:
#      x y z
#    x 1.647600 0.000000 0.010130 
#    y 0.000000 1.670780 0.000000 
#    z 0.010130 0.000000 1.640110 
# 
# From -- ./inp_files/44807.got.cif
#   From: 2010.06.25/outbox.cif.g09.slc.cpg/sg11_23_cif.got.tgz:44807.got - 2010.06.27 23:14:04.
