data_PCOD8068101
_publ_section_title
;
Structure prediction by ZEFSAII (Michael W. Deem and Ramdas Pophale) SiO2 
 PCOD8068101
Probable space group: P 2/M
;
_chemical_formula_sum "Si O2"
_cell_formula_units_Z 32
_cell_length_a 12.000000
_cell_length_b 9.000000
_cell_length_c 30.000000
_cell_angle_alpha 90.000000
_cell_angle_beta 30.000000
_cell_angle_gamma 90.000000
_cell_volume 1620.000000
_symmetry_space_group_name_H-M "P 2/M"
_symmetry_group_IT_number 10
_symmetry_cell_setting 'monoclinic'
loop_
_space_group_symop_operation_xyz
x,y,z
-x,y,-z
-x,-y,-z
x,-y,z
loop_
_atom_site_type_symbol
_atom_site_label
_atom_site_fract_x
_atom_site_fract_y
_atom_site_fract_z
Si Si1 0.103469 0.669953 0.204817
Si Si2 0.967498 0.172015 0.860783
Si Si3 0.379349 0.678082 0.478006
Si Si4 0.193555 0.821462 0.625961
Si Si5 0.592209 0.172930 0.236152
Si Si6 0.256612 0.326724 0.419330
Si Si7 0.615448 0.332343 0.041360
Si Si8 0.254018 0.326247 0.905756
O O1 0.021266 0.500000 0.239571
O O2 0.367296 0.678030 0.109137
O O3 0.000266 0.733762 0.195183
O O4 0.032967 0.770206 0.271568
O O5 0.180839 0.203567 0.816697
O O6 0.941441 0.000000 0.856865
O O7 0.755454 0.220495 0.962913
O O8 0.385932 0.500000 0.482112
O O9 0.198434 0.750270 0.574629
O O10 0.612897 0.752717 0.410087
O O11 0.321930 0.722252 0.447043
O O12 0.213460 0.000000 0.616385
O O13 0.393687 0.241675 0.333951
O O14 0.614857 0.243832 0.179245
O O15 0.542068 0.000000 0.247264
O O16 0.304082 0.500000 0.396520
O O17 0.000000 0.287359 0.500000
O O18 0.710177 0.500000 0.002716
O O19 0.619530 0.288883 0.092048
O O20 0.257235 0.500000 0.893077
O O21 0.000000 0.269587 0.000000
#
# Coordination Sequence:
#
# PCOD8068101 Si02
#       8
#     4   4   4   4   4   4   4   4
#     4  11  23  38  57  83 118 154 195 241 288 348
#     4  11  23  38  58  85 119 154 193 240 292 350
#     4  10  20  38  64  88 114 151 195 240 290 347
#     4  11  22  37  59  87 119 152 191 240 293 350
#     4  11  24  39  60  90 121 156 195 242 297 352
#     4  10  23  42  63  88 118 154 197 245 293 347
#     4  10  22  39  59  85 114 152 197 243 292 343
#     4  10  20  38  64  87 113 152 200 247 289 342
#
# _framework density 19.753086
#
# number of rings (size 3 to 8) (size 9 to 14) (size 15 to 20)
#    0.000    1.500    1.250    4.500    0.000    9.000 
#    0.000    5.000    0.000    0.000    0.000    0.000 
#    0.000    0.000    0.000    0.000    0.000    0.000 
#
# Total GULP energy -396887.177432 kJ/mol
# GULP energy per Si atom -12402.724295 kJ/mol
# Density = 1.970813 g / cm^3
# Si number density = 19.753086 Si / 1000 Ang^3
#
#
#
# Elastic Constant Matrix: (Units=GPa)
#
#
# Indices 1 2 3 4 5 6 
#
# 1 71.3529 26.0068 21.6006 0.0000 23.9973 0.0000
# 2 26.0068 112.8604 45.8163 0.0000 11.8905 0.0000
# 3 21.6006 45.8163 112.2937 0.0000 28.0881 0.0000
# 4 0.0000 0.0000 0.0000 37.8684 0.0000 6.1502
# 5 23.9973 11.8905 28.0881 0.0000 34.6878 0.0000
# 6 0.0000 0.0000 0.0000 6.1502 0.0000 26.4046
#
#
#
# Elastic Compliance Matrix: (Units=1/GPa)
#
#
# Indices 1 2 3 4 5 6 
#
# 1 0.019356 -0.003475 0.000935 0.000000 -0.012957 0.000000
# 2 -0.003475 0.011244 -0.004460 0.000000 0.002161 0.000000
# 3 0.000935 -0.004460 0.012947 0.000000 -0.009602 0.000000
# 4 0.000000 0.000000 0.000000 0.027445 0.000000 -0.006393
# 5 -0.012957 0.002161 -0.009602 0.000000 0.044826 0.000000
# 6 0.000000 0.000000 0.000000 -0.006393 0.000000 0.039361
#
#
# Mechanical properties :
#
#
# Convention : Reuss Voigt Hill
#
# Bulk Modulus (GPa) = 33.84315 53.70605 43.77460
# Shear Modulus (GPa) = 27.92873 33.33105 30.62989
#
# Velocity S-wave (km/s) = 3.76425 4.11223 3.94209
# Velocity P-wave (km/s) = 6.00526 7.05656 6.55203
#
# Compressibility (1/GPa) = 0.02954808
#
# Stress axis : x y z
#
# Youngs Moduli (GPa) = 51.66404 88.93620 77.24069
#
# Poissons Ratio (x) = 0.30904 -0.07225
# Poissons Ratio (y) = 0.17953 0.34447
# Poissons Ratio (z) = -0.04833 0.39663
#
# Static dielectric constant tensor:
#      x y z
#    x 3.712910 0.000000 0.171030 
#    y 0.000000 3.733940 0.000000 
#    z 0.171030 0.000000 3.682380 
# 
# 
# High freq. dielectric constant tensor:
#      x y z
#    x 1.780340 0.000000 0.016670 
#    y 0.000000 1.780210 0.000000 
#    z 0.016670 0.000000 1.781570 
# 
# From -- ./inp_files/95001.got.cif
#   From: 2010.06.25/outbox.ucp.g09.slc.cvg/sg10_48_cif.got.tgz:95001.got - 2010.06.28 13:37:52.
