data_PCOD8068492
_publ_section_title
;
Structure prediction by ZEFSAII (Michael W. Deem and Ramdas Pophale) SiO2 
 PCOD8068492
Probable space group: P 21/M
;
_chemical_formula_sum "Si O2"
_cell_formula_units_Z 14
_cell_length_a 8.126702
_cell_length_b 8.079177
_cell_length_c 10.766149
_cell_angle_alpha 90.000000
_cell_angle_beta 46.132736
_cell_angle_gamma 90.000000
_cell_volume 509.618617
_symmetry_space_group_name_H-M "P 21/M"
_symmetry_group_IT_number 11
_symmetry_cell_setting 'monoclinic'
loop_
_space_group_symop_operation_xyz
x,y,z
-x,1/2+y,-z
-x,-y,-z
x,1/2-y,z
loop_
_atom_site_type_symbol
_atom_site_label
_atom_site_fract_x
_atom_site_fract_y
_atom_site_fract_z
Si Si1 0.412861 0.566793 0.397324
Si Si2 0.830710 0.750000 0.790220
Si Si3 0.880571 0.428634 0.180431
Si Si4 0.121419 0.250000 0.528621
Si Si5 0.603752 0.250000 0.829768
O O1 0.321096 0.750000 0.496653
O O2 0.655993 0.532363 0.338072
O O3 0.239621 0.417930 0.512983
O O4 0.451288 0.587901 0.228137
O O5 0.889502 0.750000 0.615011
O O6 0.942427 0.913691 0.796564
O O7 0.557768 0.750000 0.964195
O O8 0.789233 0.250000 0.184779
O O9 0.000000 0.500000 0.000000
O O10 0.871553 0.250000 0.722557
#
# Coordination Sequence:
#
# PCOD8068492 Si02
#       5
#     4   2   4   2   2
#     4  10  21  40  68  93 128 177 219 258 330 392
#     4  10  23  37  71  99 125 172 222 262 338 382
#     4  10  17  38  65  91 126 171 214 264 320 383
#     4  12  23  43  67  95 137 170 208 282 322 376
#     4  10  22  42  62  98 132 168 218 262 324 396
#
# _framework density 27.471523000000001
#
# number of rings (size 3 to 8) (size 9 to 14) (size 15 to 20)
#    1.714    0.000    4.286    1.714    0.000    1.143 
#    0.000    4.286    0.000    3.429    0.000    0.000 
#    0.000    0.000    0.000    0.000    0.000    0.000 
#
# Total GULP energy -173436.125401 kJ/mol
# GULP energy per Si atom -12388.294672 kJ/mol
# Density = 2.740900 g / cm^3
# Si number density = 27.471523 Si / 1000 Ang^3
#
#
#
# Elastic Constant Matrix: (Units=GPa)
#
#
# Indices 1 2 3 4 5 6 
#
# 1 112.3229 46.2410 68.4050 0.0000 -24.0922 0.0000
# 2 46.2410 178.1879 49.6061 0.0000 -23.0561 0.0000
# 3 68.4050 49.6061 201.1620 0.0000 -25.7135 0.0000
# 4 0.0000 0.0000 0.0000 25.2880 0.0000 -17.5513
# 5 -24.0922 -23.0561 -25.7135 0.0000 55.1149 0.0000
# 6 0.0000 0.0000 0.0000 -17.5513 0.0000 30.9080
#
#
#
# Elastic Compliance Matrix: (Units=1/GPa)
#
#
# Indices 1 2 3 4 5 6 
#
# 1 0.012376 -0.001882 -0.003353 0.000000 0.003058 0.000000
# 2 -0.001882 0.006514 -0.000769 0.000000 0.001544 0.000000
# 3 -0.003353 -0.000769 0.006458 0.000000 0.001225 0.000000
# 4 0.000000 0.000000 0.000000 0.065268 0.000000 0.037063
# 5 0.003058 0.001544 0.001225 0.000000 0.020698 0.000000
# 6 0.000000 0.000000 0.000000 0.037063 0.000000 0.053401
#
#
# Mechanical properties :
#
#
# Convention : Reuss Voigt Hill
#
# Bulk Modulus (GPa) = 74.97148 91.13077 83.05112
# Shear Modulus (GPa) = 27.59833 44.09024 35.84429
#
# Velocity S-wave (km/s) = 3.17301 4.01052 3.61609
# Velocity P-wave (km/s) = 6.38544 7.39530 6.90885
#
# Compressibility (1/GPa) = 0.01333841
#
# Stress axis : x y z
#
# Youngs Moduli (GPa) = 80.80185 153.50704 154.85437
#
# Poissons Ratio (x) = 0.28897 0.51928
# Poissons Ratio (y) = 0.15210 0.11908
# Poissons Ratio (z) = 0.27096 0.11805
#
# Static dielectric constant tensor:
#      x y z
#    x 4.807570 0.000000 -0.240300 
#    y 0.000000 4.718420 0.000000 
#    z -0.240300 0.000000 4.702710 
# 
# 
# High freq. dielectric constant tensor:
#      x y z
#    x 2.108260 0.000000 0.002380 
#    y 0.000000 2.102130 0.000000 
#    z 0.002380 0.000000 2.123730 
# 
# From -- ./inp_files/48582.got.cif
#   From: 2010.06.25/outbox.cif.g09.slc.cpg/sg11_25_cif.got.tgz:48582.got - 2010.06.27 23:14:04.
