data_PCOD8068202
_publ_section_title
;
Structure prediction by ZEFSAII (Michael W. Deem and Ramdas Pophale) SiO2 
 PCOD8068202
Probable space group: P 21/M
;
_chemical_formula_sum "Si O2"
_cell_formula_units_Z 32
_cell_length_a 23.387465
_cell_length_b 8.920969
_cell_length_c 14.234369
_cell_angle_alpha 90.000000
_cell_angle_beta 135.310115
_cell_angle_gamma 90.000000
_cell_volume 2088.598698
_symmetry_space_group_name_H-M "P 21/M"
_symmetry_group_IT_number 11
_symmetry_cell_setting 'monoclinic'
loop_
_space_group_symop_operation_xyz
x,y,z
-x,1/2+y,-z
-x,-y,-z
x,1/2-y,z
loop_
_atom_site_type_symbol
_atom_site_label
_atom_site_fract_x
_atom_site_fract_y
_atom_site_fract_z
Si Si1 0.437985 0.573536 0.498640
Si Si2 0.319862 0.426084 0.689187
Si Si3 0.196727 0.572886 0.423401
Si Si4 0.461657 0.923698 0.739323
Si Si5 0.041427 0.083642 0.184670
Si Si6 0.268686 0.428526 0.323102
Si Si7 0.104802 0.084217 0.047469
Si Si8 0.569814 0.577868 0.025488
O O1 0.500000 0.500000 0.500000
O O2 0.431117 0.750000 0.472348
O O3 0.470607 0.536535 0.640809
O O4 0.350948 0.497832 0.379321
O O5 0.302428 0.250000 0.656209
O O6 0.238700 0.518596 0.569050
O O7 0.393024 0.472482 0.705028
O O8 0.343595 0.469228 0.826154
O O9 0.200210 0.750000 0.417102
O O10 0.102971 0.520686 0.315005
O O11 0.248227 0.499610 0.399656
O O12 0.435355 0.750000 0.721767
O O13 0.551082 0.953068 0.892936
O O14 0.042694 0.250000 0.229629
O O15 0.068695 0.086891 0.109373
O O16 0.949006 0.021968 0.082426
O O17 0.275010 0.250000 0.343134
O O18 0.198187 0.470542 0.165121
O O19 0.101037 0.250000 0.999140
O O20 0.559648 0.750000 0.037348
O O21 0.500000 0.500000 0.000000
#
# Coordination Sequence:
#
# PCOD8068202 Si02
#       8
#     4   4   4   4   4   4   4   4
#     4  11  22  33  46  62  82 108 140 178 217 251
#     4  10  17  25  40  60  81 106 135 169 204 243
#     4  11  19  26  38  56  82 112 139 168 202 242
#     4   9  17  30  44  58  77 103 135 171 210 250
#     4   9  16  25  37  55  77 103 135 168 197 234
#     4  10  19  31  45  59  77 102 137 175 211 249
#     4   8  15  26  39  55  75 100 129 165 204 243
#     4   8  15  26  40  58  78 100 130 166 204 244
#
# _framework density 15.321278
#
# number of rings (size 3 to 8) (size 9 to 14) (size 15 to 20)
#    0.000    2.500    1.250    3.375    0.000    4.500 
#    0.000    0.000    0.000    0.000    0.000    0.000 
#    0.000    0.000    0.000    1.125    0.000   12.250 
#
# Total GULP energy -396466.217420 kJ/mol
# GULP energy per Si atom -12389.569294 kJ/mol
# Density = 1.528641 g / cm^3
# Si number density = 15.321278 Si / 1000 Ang^3
#
#
#
# Elastic Constant Matrix: (Units=GPa)
#
#
# Indices 1 2 3 4 5 6 
#
# 1 40.7714 25.0815 43.1037 0.0000 10.2658 0.0000
# 2 25.0815 88.8753 56.3910 0.0000 12.5436 0.0000
# 3 43.1037 56.3910 138.0026 0.0000 21.8168 0.0000
# 4 0.0000 0.0000 0.0000 25.8378 0.0000 6.2898
# 5 10.2658 12.5436 21.8168 0.0000 17.5237 0.0000
# 6 0.0000 0.0000 0.0000 6.2898 0.0000 15.0719
#
#
#
# Elastic Compliance Matrix: (Units=1/GPa)
#
#
# Indices 1 2 3 4 5 6 
#
# 1 0.038767 -0.003930 -0.009160 0.000000 -0.008494 0.000000
# 2 -0.003930 0.015807 -0.004740 0.000000 -0.003112 0.000000
# 3 -0.009160 -0.004740 0.013271 0.000000 -0.007764 0.000000
# 4 0.000000 0.000000 0.000000 0.043080 0.000000 -0.017978
# 5 -0.008494 -0.003112 -0.007764 0.000000 0.073935 0.000000
# 6 0.000000 0.000000 0.000000 -0.017978 0.000000 0.073851
#
#
# Mechanical properties :
#
#
# Convention : Reuss Voigt Hill
#
# Bulk Modulus (GPa) = 31.06866 57.42240 44.24553
# Shear Modulus (GPa) = 16.38810 21.22488 18.80649
#
# Velocity S-wave (km/s) = 3.27407 3.72603 3.50734
# Velocity P-wave (km/s) = 5.88344 7.48807 6.73372
#
# Compressibility (1/GPa) = 0.03218677
#
# Stress axis : x y z
#
# Youngs Moduli (GPa) = 25.79511 63.26170 75.34956
#
# Poissons Ratio (x) = 0.24860 0.69020
# Poissons Ratio (y) = 0.10137 0.35715
# Poissons Ratio (z) = 0.23628 0.29985
#
# Static dielectric constant tensor:
#      x y z
#    x 2.394980 0.000000 0.128620 
#    y 0.000000 3.090620 0.000000 
#    z 0.128620 0.000000 3.591080 
# 
# 
# High freq. dielectric constant tensor:
#      x y z
#    x 1.502230 0.000000 0.020460 
#    y 0.000000 1.602950 0.000000 
#    z 0.020460 0.000000 1.607580 
# 
# From -- ./inp_files/56036.got.cif
#   From: 2010.06.25/outbox.cif.g09.slc.cpg/sg11_29_cif.got.tgz:56036.got - 2010.06.27 23:14:04.
