data_PCOD8068183
_publ_section_title
;
Structure prediction by ZEFSAII (Michael W. Deem and Ramdas Pophale) SiO2 
 PCOD8068183
Probable space group: P 21/M
;
_chemical_formula_sum "Si O2"
_cell_formula_units_Z 24
_cell_length_a 8.451455
_cell_length_b 16.467864
_cell_length_c 11.811307
_cell_angle_alpha 90.000000
_cell_angle_beta 47.242822
_cell_angle_gamma 90.000000
_cell_volume 1206.988836
_symmetry_space_group_name_H-M "P 21/M"
_symmetry_group_IT_number 11
_symmetry_cell_setting 'monoclinic'
loop_
_space_group_symop_operation_xyz
x,y,z
-x,1/2+y,-z
-x,-y,-z
x,1/2-y,z
loop_
_atom_site_type_symbol
_atom_site_label
_atom_site_fract_x
_atom_site_fract_y
_atom_site_fract_z
Si Si1 0.138380 0.004404 0.211924
Si Si2 0.633320 0.660304 0.293907
Si Si3 0.331881 0.065522 0.339695
Si Si4 0.930721 0.840982 0.364384
Si Si5 0.690713 0.052057 0.462514
Si Si6 0.246170 0.011488 0.912158
O O1 0.249492 0.061371 0.251363
O O2 0.909840 0.046567 0.283790
O O3 0.282846 0.007668 0.029353
O O4 0.112870 0.911367 0.270874
O O5 0.622238 0.750000 0.247173
O O6 0.817304 0.653141 0.298151
O O7 0.402297 0.641409 0.466923
O O8 0.676412 0.598654 0.170885
O O9 0.242651 0.144937 0.449160
O O10 0.236227 0.988461 0.454082
O O11 0.595261 0.058807 0.215738
O O12 0.028552 0.750000 0.333361
O O13 0.500000 0.000000 0.500000
O O14 0.000000 0.000000 0.000000
#
# Coordination Sequence:
#
# PCOD8068183 Si02
#       6
#     4   4   4   4   4   4
#     4  11  20  36  58  84 112 150 184 225 276 337
#     4  10  20  35  56  84 110 142 186 240 278 314
#     4  10  21  35  55  83 111 146 185 222 276 337
#     4  10  19  35  57  84 111 141 188 236 276 321
#     4  10  16  33  57  80 105 139 184 222 262 325
#     4  11  21  37  59  80 111 148 190 224 271 337
#
# _framework density 19.884194999999998
#
# number of rings (size 3 to 8) (size 9 to 14) (size 15 to 20)
#    0.000    1.667    5.000    3.500    0.000    0.000 
#    0.000   10.833    0.000    0.000    0.000    0.000 
#    0.000    0.000    0.000    0.000    0.000    0.000 
#
# Total GULP energy -297329.094781 kJ/mol
# GULP energy per Si atom -12388.712283 kJ/mol
# Density = 1.983894 g / cm^3
# Si number density = 19.884195 Si / 1000 Ang^3
#
#
#
# Elastic Constant Matrix: (Units=GPa)
#
#
# Indices 1 2 3 4 5 6 
#
# 1 53.4176 19.9042 9.7682 0.0000 8.0935 0.0000
# 2 19.9042 106.8460 41.7952 0.0000 -0.7406 0.0000
# 3 9.7682 41.7952 101.1054 0.0000 11.5008 0.0000
# 4 0.0000 0.0000 0.0000 24.5744 0.0000 0.4977
# 5 8.0935 -0.7406 11.5008 0.0000 33.3641 0.0000
# 6 0.0000 0.0000 0.0000 0.4977 0.0000 17.8162
#
#
#
# Elastic Compliance Matrix: (Units=1/GPa)
#
#
# Indices 1 2 3 4 5 6 
#
# 1 0.020978 -0.004039 0.000241 0.000000 -0.005262 0.000000
# 2 -0.004039 0.012061 -0.004931 0.000000 0.002947 0.000000
# 3 0.000241 -0.004931 0.012411 0.000000 -0.004446 0.000000
# 4 0.000000 0.000000 0.000000 0.040716 0.000000 -0.001137
# 5 -0.005262 0.002947 -0.004446 0.000000 0.032847 0.000000
# 6 0.000000 0.000000 0.000000 -0.001137 0.000000 0.056160
#
#
# Mechanical properties :
#
#
# Convention : Reuss Voigt Hill
#
# Bulk Modulus (GPa) = 35.72184 44.92267 40.32226
# Shear Modulus (GPa) = 24.75715 27.81105 26.28410
#
# Velocity S-wave (km/s) = 3.53238 3.74391 3.63968
# Velocity P-wave (km/s) = 5.88565 6.42887 6.16325
#
# Compressibility (1/GPa) = 0.02799408
#
# Stress axis : x y z
#
# Youngs Moduli (GPa) = 47.66785 82.91268 80.57099
#
# Poissons Ratio (x) = 0.33488 -0.01945
# Poissons Ratio (y) = 0.19253 0.39728
# Poissons Ratio (z) = -0.01150 0.40882
#
# Static dielectric constant tensor:
#      x y z
#    x 3.497500 0.000000 0.056270 
#    y 0.000000 3.568380 0.000000 
#    z 0.056270 0.000000 4.112130 
# 
# 
# High freq. dielectric constant tensor:
#      x y z
#    x 1.774590 0.000000 0.007380 
#    y 0.000000 1.733280 0.000000 
#    z 0.007380 0.000000 1.781170 
# 
# From -- ./inp_files/18521.got.cif
#   From: 2010.06.25/outbox.cif.g09.slc.cpg/sg11_10_cif.got.tgz:18521.got - 2010.06.27 23:14:04.
