data_PCOD8068387
_publ_section_title
;
Structure prediction by ZEFSAII (Michael W. Deem and Ramdas Pophale) SiO2 
 PCOD8068387
Probable space group: P 21/M
;
_chemical_formula_sum "Si O2"
_cell_formula_units_Z 32
_cell_length_a 16.786492
_cell_length_b 18.295495
_cell_length_c 10.852755
_cell_angle_alpha 90.000000
_cell_angle_beta 147.802524
_cell_angle_gamma 90.000000
_cell_volume 1775.988359
_symmetry_space_group_name_H-M "P 21/M"
_symmetry_group_IT_number 11
_symmetry_cell_setting 'monoclinic'
loop_
_space_group_symop_operation_xyz
x,y,z
-x,1/2+y,-z
-x,-y,-z
x,1/2-y,z
loop_
_atom_site_type_symbol
_atom_site_label
_atom_site_fract_x
_atom_site_fract_y
_atom_site_fract_z
Si Si1 0.924485 0.168962 0.644192
Si Si2 0.099544 0.041835 0.944179
Si Si3 0.618972 0.104925 0.208636
Si Si4 0.468286 0.664881 0.651422
Si Si5 0.145370 0.670375 0.160215
Si Si6 0.576336 0.553295 0.256012
Si Si7 0.407799 0.017669 0.259123
Si Si8 0.115381 0.070206 0.245261
O O1 0.963861 0.250000 0.644530
O O2 0.781022 0.137012 0.383896
O O3 0.892891 0.172765 0.747112
O O4 0.065751 0.114448 0.818231
O O5 0.232339 0.998615 0.048785
O O6 0.156483 0.055213 0.157594
O O7 0.940932 0.000220 0.751509
O O8 0.550921 0.155611 0.226909
O O9 0.632097 0.020693 0.264809
O O10 0.512171 0.108107 0.949420
O O11 0.512860 0.750000 0.683277
O O12 0.316309 0.642147 0.378399
O O13 0.587862 0.605545 0.761127
O O14 0.136720 0.750000 0.089043
O O15 0.025645 0.624264 0.926623
O O16 0.469559 0.531805 0.229600
O O17 0.727338 0.597043 0.492253
O O18 0.500000 0.000000 0.500000
#
# Coordination Sequence:
#
# PCOD8068387 Si02
#       8
#     4   4   4   4   4   4   4   4
#     4   9  16  29  49  70  94 128 173 219 254 295
#     4  10  19  29  49  77 104 132 176 212 267 307
#     4   9  17  32  51  73 100 131 177 218 253 308
#     4   9  18  33  54  76 103 143 182 214 258 315
#     4   8  15  27  46  72  96 125 168 212 254 304
#     4  10  19  31  51  74 108 132 171 217 269 313
#     4  11  20  32  50  82 114 140 168 219 275 326
#     4  10  17  30  50  74 104 137 168 218 257 315
#
# _framework density 18.018135999999998
#
# number of rings (size 3 to 8) (size 9 to 14) (size 15 to 20)
#    0.000    2.500    2.500    1.875    3.500    0.500 
#    0.000    1.875    0.000    1.500    0.000    0.000 
#    0.000    0.000    0.000    0.000    0.000    0.000 
#
# Total GULP energy -396440.875882 kJ/mol
# GULP energy per Si atom -12388.777371 kJ/mol
# Density = 1.797713 g / cm^3
# Si number density = 18.018136 Si / 1000 Ang^3
#
#
#
# Elastic Constant Matrix: (Units=GPa)
#
#
# Indices 1 2 3 4 5 6 
#
# 1 46.6120 16.5180 44.6250 0.0000 1.1342 0.0000
# 2 16.5180 64.3531 37.4107 0.0000 -5.1321 0.0000
# 3 44.6250 37.4107 130.0908 0.0000 4.4405 0.0000
# 4 0.0000 0.0000 0.0000 28.4946 0.0000 2.3052
# 5 1.1342 -5.1321 4.4405 0.0000 17.5864 0.0000
# 6 0.0000 0.0000 0.0000 2.3052 0.0000 13.4045
#
#
#
# Elastic Compliance Matrix: (Units=1/GPa)
#
#
# Indices 1 2 3 4 5 6 
#
# 1 0.032205 -0.002226 -0.010404 0.000000 -0.000100 0.000000
# 2 -0.002226 0.019670 -0.005138 0.000000 0.007181 0.000000
# 3 -0.010404 -0.005138 0.012873 0.000000 -0.004079 0.000000
# 4 0.000000 0.000000 0.000000 0.035590 0.000000 -0.006120
# 5 -0.000100 0.007181 -0.004079 0.000000 0.059994 0.000000
# 6 0.000000 0.000000 0.000000 -0.006120 0.000000 0.075654
#
#
# Mechanical properties :
#
#
# Convention : Reuss Voigt Hill
#
# Bulk Modulus (GPa) = 34.23264 48.68483 41.45873
# Shear Modulus (GPa) = 17.77717 21.39723 19.58720
#
# Velocity S-wave (km/s) = 3.14447 3.44981 3.30067
# Velocity P-wave (km/s) = 5.67660 6.55338 6.13068
#
# Compressibility (1/GPa) = 0.02921189
#
# Stress axis : x y z
#
# Youngs Moduli (GPa) = 31.05081 50.83793 77.68475
#
# Poissons Ratio (x) = 0.11318 0.80821
# Poissons Ratio (y) = 0.06913 0.39915
# Poissons Ratio (z) = 0.32304 0.26121
#
# Static dielectric constant tensor:
#      x y z
#    x 3.022920 0.000000 0.114580 
#    y 0.000000 3.581560 0.000000 
#    z 0.114580 0.000000 3.436220 
# 
# 
# High freq. dielectric constant tensor:
#      x y z
#    x 1.655050 0.000000 0.015940 
#    y 0.000000 1.685380 0.000000 
#    z 0.015940 0.000000 1.698460 
# 
# From -- ./inp_files/41855.got.cif
#   From: 2010.06.25/outbox.cif.g09.slc.cpg/sg11_21_cif.got.tgz:41855.got - 2010.06.27 23:14:04.
