data_PCOD8068821
_publ_section_title
;
Structure prediction by ZEFSAII (Michael W. Deem and Ramdas Pophale) SiO2 
 PCOD8068821
Probable space group: P 21/M
;
_chemical_formula_sum "Si O2"
_cell_formula_units_Z 32
_cell_length_a 14.929769
_cell_length_b 9.224178
_cell_length_c 30.525780
_cell_angle_alpha 90.000000
_cell_angle_beta 151.113073
_cell_angle_gamma 90.000000
_cell_volume 2030.808371
_symmetry_space_group_name_H-M "P 21/M"
_symmetry_group_IT_number 11
_symmetry_cell_setting 'monoclinic'
loop_
_space_group_symop_operation_xyz
x,y,z
-x,1/2+y,-z
-x,-y,-z
x,1/2-y,z
loop_
_atom_site_type_symbol
_atom_site_label
_atom_site_fract_x
_atom_site_fract_y
_atom_site_fract_z
Si Si1 0.351281 0.581124 0.619941
Si Si2 0.322357 0.919243 0.371565
Si Si3 0.277544 0.918403 0.111670
Si Si4 0.266218 0.418100 0.261093
Si Si5 0.681638 0.581160 0.303922
Si Si6 0.058391 0.580595 0.420546
Si Si7 0.253458 0.080544 0.428542
Si Si8 0.054754 0.082813 0.087258
O O1 0.349581 0.750000 0.630033
O O2 0.548947 0.533094 0.685262
O O3 0.305733 0.499440 0.644843
O O4 0.194242 0.538045 0.518087
O O5 0.276479 0.750000 0.355467
O O6 0.541744 0.949352 0.465038
O O7 0.234977 0.983155 0.289974
O O8 0.226562 0.001191 0.370795
O O9 0.255458 0.750000 0.112015
O O10 0.492786 0.959447 0.196844
O O11 0.205228 0.997398 0.123737
O O12 0.155141 0.962544 0.016475
O O13 0.281255 0.250000 0.281847
O O14 0.089973 0.446608 0.153760
O O15 0.691781 0.750000 0.319529
O O16 0.850722 0.536558 0.345138
O O17 0.077717 0.750000 0.417021
O O18 0.105468 0.486228 0.398330
O O19 0.215125 0.250000 0.405718
O O20 0.091775 0.250000 0.092508
#
# Coordination Sequence:
#
# PCOD8068821 Si02
#       8
#     4   4   4   4   4   4   4   4
#     4  10  19  30  44  63  92 127 159 189 220 263
#     4  10  20  32  49  70  93 119 148 186 230 273
#     4   9  17  29  44  64  89 118 154 193 228 266
#     4  10  18  29  46  68  93 123 153 184 226 274
#     4  10  20  31  45  65  91 124 160 195 227 262
#     4  10  20  33  46  63  91 126 159 190 226 265
#     4  10  20  33  49  69  91 119 153 188 225 269
#     4   9  17  29  45  64  89 120 152 187 230 272
#
# _framework density 15.757273
#
# number of rings (size 3 to 8) (size 9 to 14) (size 15 to 20)
#    0.000    2.250    2.500    1.125    0.000    3.000 
#    0.000    0.000    0.000    0.000    0.000    0.875 
#    0.000    0.000    0.000    0.000    0.000    0.000 
#
# Total GULP energy -396802.663205 kJ/mol
# GULP energy per Si atom -12400.083225 kJ/mol
# Density = 1.572141 g / cm^3
# Si number density = 15.757273 Si / 1000 Ang^3
#
#
#
# Elastic Constant Matrix: (Units=GPa)
#
#
# Indices 1 2 3 4 5 6 
#
# 1 117.5439 57.2121 62.2591 0.0000 -7.3962 0.0000
# 2 57.2121 62.9613 39.5713 0.0000 -7.6295 0.0000
# 3 62.2591 39.5713 101.3583 0.0000 -5.0922 0.0000
# 4 0.0000 0.0000 0.0000 17.2934 0.0000 -5.4590
# 5 -7.3962 -7.6295 -5.0922 0.0000 20.3634 0.0000
# 6 0.0000 0.0000 0.0000 -5.4590 0.0000 30.8274
#
#
#
# Elastic Compliance Matrix: (Units=1/GPa)
#
#
# Indices 1 2 3 4 5 6 
#
# 1 0.017697 -0.012218 -0.006084 0.000000 0.000329 0.000000
# 2 -0.012218 0.030207 -0.003993 0.000000 0.005881 0.000000
# 3 -0.006084 -0.003993 0.015166 0.000000 0.000087 0.000000
# 4 0.000000 0.000000 0.000000 0.061249 0.000000 0.010846
# 5 0.000329 0.005881 0.000087 0.000000 0.051452 0.000000
# 6 0.000000 0.000000 0.000000 0.010846 0.000000 0.034359
#
#
# Mechanical properties :
#
#
# Convention : Reuss Voigt Hill
#
# Bulk Modulus (GPa) = 54.10878 66.66094 60.38486
# Shear Modulus (GPa) = 19.16575 21.88492 20.52533
#
# Velocity S-wave (km/s) = 3.49135 3.73081 3.61306
# Velocity P-wave (km/s) = 7.11802 7.80739 7.47066
#
# Compressibility (1/GPa) = 0.01848129
#
# Stress axis : x y z
#
# Youngs Moduli (GPa) = 56.50546 33.10487 65.93502
#
# Poissons Ratio (x) = 0.40446 0.40116
# Poissons Ratio (y) = 0.69036 0.26328
# Poissons Ratio (z) = 0.34379 0.13219
#
# Static dielectric constant tensor:
#      x y z
#    x 2.834770 0.000000 -0.002080 
#    y 0.000000 2.941400 0.000000 
#    z -0.002080 0.000000 3.200680 
# 
# 
# High freq. dielectric constant tensor:
#      x y z
#    x 1.583100 0.000000 -0.009180 
#    y 0.000000 1.609410 0.000000 
#    z -0.009180 0.000000 1.597880 
# 
# From -- ./inp_files/51226.got.cif
#   From: 2010.06.25/outbox.cif.g09.slc.cpg/sg11_26_cif.got.tgz:51226.got - 2010.06.27 23:14:04.
