data_PCOD8068682
_publ_section_title
;
Structure prediction by ZEFSAII (Michael W. Deem and Ramdas Pophale) SiO2 
 PCOD8068682
Probable space group: P 21/M
;
_chemical_formula_sum "Si O2"
_cell_formula_units_Z 32
_cell_length_a 17.747223
_cell_length_b 8.945693
_cell_length_c 23.893966
_cell_angle_alpha 90.000000
_cell_angle_beta 30.749447
_cell_angle_gamma 90.000000
_cell_volume 1939.525581
_symmetry_space_group_name_H-M "P 21/M"
_symmetry_group_IT_number 11
_symmetry_cell_setting 'monoclinic'
loop_
_space_group_symop_operation_xyz
x,y,z
-x,1/2+y,-z
-x,-y,-z
x,1/2-y,z
loop_
_atom_site_type_symbol
_atom_site_label
_atom_site_fract_x
_atom_site_fract_y
_atom_site_fract_z
Si Si1 0.377059 0.572459 0.310462
Si Si2 0.449542 0.572406 0.139465
Si Si3 0.823872 0.075453 0.756690
Si Si4 0.652941 0.425989 0.180955
Si Si5 0.772169 0.925414 0.902874
Si Si6 0.888940 0.078477 0.111145
Si Si7 0.931085 0.574126 0.489519
Si Si8 0.880882 0.924242 0.952286
O O1 0.361185 0.750000 0.323699
O O2 0.419975 0.515316 0.221138
O O3 0.501202 0.516502 0.274245
O O4 0.224922 0.497545 0.425771
O O5 0.447199 0.750000 0.142024
O O6 0.322147 0.509334 0.180244
O O7 0.606592 0.511780 0.017836
O O8 0.803943 0.250000 0.778766
O O9 0.965159 0.038811 0.629218
O O10 0.847081 0.000295 0.801753
O O11 0.622138 0.250000 0.193716
O O12 0.722375 0.465801 0.198688
O O13 0.764988 0.477822 0.060969
O O14 0.767310 0.750000 0.895768
O O15 0.871408 0.967815 0.893264
O O16 0.906849 0.250000 0.085511
O O17 0.948305 0.045726 0.136487
O O18 0.000000 0.000000 0.000000
O O19 0.916379 0.750000 0.509708
O O20 0.000000 0.500000 0.500000
O O21 0.836626 0.750000 0.988602
#
# Coordination Sequence:
#
# PCOD8068682 Si02
#       8
#     4   4   4   4   4   4   4   4
#     4  11  20  34  53  72  98 131 166 204 248 292
#     4   9  17  32  49  68  95 128 160 195 237 282
#     4  10  21  36  50  67  97 130 162 202 247 287
#     4  10  18  28  44  72 102 127 163 203 240 293
#     4  10  19  31  49  72  98 129 169 202 232 287
#     4   8  15  26  42  65  96 130 161 194 237 289
#     4  11  22  37  55  74  96 126 165 208 250 292
#     4   9  16  29  47  67  97 136 165 195 242 289
#
# _framework density 16.498878999999999
#
# number of rings (size 3 to 8) (size 9 to 14) (size 15 to 20)
#    0.000    2.250    2.500    1.500    0.000    2.000 
#    0.000    0.000    0.000    0.000    0.000    0.875 
#    0.000    0.000    0.000    0.000    0.000    0.000 
#
# Total GULP energy -396586.676431 kJ/mol
# GULP energy per Si atom -12393.333638 kJ/mol
# Density = 1.646133 g / cm^3
# Si number density = 16.498879 Si / 1000 Ang^3
#
#
#
# Elastic Constant Matrix: (Units=GPa)
#
#
# Indices 1 2 3 4 5 6 
#
# 1 152.4201 43.1394 70.5677 0.0000 -16.6373 0.0000
# 2 43.1394 49.4760 42.4867 0.0000 -1.2759 0.0000
# 3 70.5677 42.4867 89.3142 0.0000 -5.3042 0.0000
# 4 0.0000 0.0000 0.0000 24.2609 0.0000 -0.6815
# 5 -16.6373 -1.2759 -5.3042 0.0000 21.8039 0.0000
# 6 0.0000 0.0000 0.0000 -0.6815 0.0000 23.8389
#
#
#
# Elastic Compliance Matrix: (Units=1/GPa)
#
#
# Indices 1 2 3 4 5 6 
#
# 1 0.011651 -0.004108 -0.006837 0.000000 0.006987 0.000000
# 2 -0.004108 0.035704 -0.014003 0.000000 -0.004452 0.000000
# 3 -0.006837 -0.014003 0.023236 0.000000 -0.000383 0.000000
# 4 0.000000 0.000000 0.000000 0.041252 0.000000 0.001179
# 5 0.006987 -0.004452 -0.000383 0.000000 0.050841 0.000000
# 6 0.000000 0.000000 0.000000 0.001179 0.000000 0.041982
#
#
# Mechanical properties :
#
#
# Convention : Reuss Voigt Hill
#
# Bulk Modulus (GPa) = 48.31753 67.06645 57.69199
# Shear Modulus (GPa) = 19.12338 22.98184 21.05261
#
# Velocity S-wave (km/s) = 3.40821 3.73625 3.57599
# Velocity P-wave (km/s) = 6.69603 7.70390 7.21758
#
# Compressibility (1/GPa) = 0.02069642
#
# Stress axis : x y z
#
# Youngs Moduli (GPa) = 85.82613 28.00841 43.03580
#
# Poissons Ratio (x) = 0.11506 0.29422
# Poissons Ratio (y) = 0.35258 0.60262
# Poissons Ratio (z) = 0.58677 0.39219
#
# Static dielectric constant tensor:
#      x y z
#    x 3.655460 0.000000 -0.268600 
#    y 0.000000 3.053220 0.000000 
#    z -0.268600 0.000000 2.962310 
# 
# 
# High freq. dielectric constant tensor:
#      x y z
#    x 1.646740 0.000000 -0.017760 
#    y 0.000000 1.631740 0.000000 
#    z -0.017760 0.000000 1.598350 
# 
# From -- ./inp_files/43785.got.cif
#   From: 2010.06.25/outbox.cif.g09.slc.cpg/sg11_22_cif.got.tgz:43785.got - 2010.06.27 23:14:04.
