data_PCOD8068098
_publ_section_title
;
Structure prediction by ZEFSAII (Michael W. Deem and Ramdas Pophale) SiO2 
 PCOD8068098
Probable space group: P 2/M
;
_chemical_formula_sum "Si O2"
_cell_formula_units_Z 32
_cell_length_a 12.000000
_cell_length_b 9.000000
_cell_length_c 30.000000
_cell_angle_alpha 90.000000
_cell_angle_beta 150.000000
_cell_angle_gamma 90.000000
_cell_volume 1620.000000
_symmetry_space_group_name_H-M "P 2/M"
_symmetry_group_IT_number 10
_symmetry_cell_setting 'monoclinic'
loop_
_space_group_symop_operation_xyz
x,y,z
-x,y,-z
-x,-y,-z
x,-y,z
loop_
_atom_site_type_symbol
_atom_site_label
_atom_site_fract_x
_atom_site_fract_y
_atom_site_fract_z
Si Si1 0.802279 0.170298 0.494207
Si Si2 0.641366 0.325120 0.818038
Si Si3 0.707584 0.170548 0.358370
Si Si4 0.251043 0.823665 0.913691
Si Si5 0.459787 0.173281 0.839456
Si Si6 0.907950 0.172709 0.047015
Si Si7 0.032542 0.175574 0.748525
Si Si8 0.562464 0.331610 0.572668
O O1 0.724875 0.188037 0.416957
O O2 0.641984 0.265025 0.470057
O O3 0.062447 0.221760 0.586600
O O4 0.784192 0.000000 0.503522
O O5 0.663381 0.500000 0.825678
O O6 0.504855 0.270638 0.727746
O O7 0.490679 0.271150 0.806627
O O8 0.891721 0.260272 0.907295
O O9 0.658907 0.000000 0.328625
O O10 0.108783 0.776653 0.907514
O O11 0.116528 0.762877 0.824974
O O12 0.275106 0.000000 0.919732
O O13 0.500000 0.754549 0.000000
O O14 0.222998 0.219985 0.778804
O O15 0.458215 0.000000 0.826362
O O16 0.666631 0.209747 0.943278
O O17 0.965104 0.000000 0.061528
O O18 0.794255 0.246085 0.657242
O O19 0.000351 0.000000 0.738052
O O20 0.500000 0.322645 0.500000
O O21 0.597159 0.500000 0.600738
#
# Coordination Sequence:
#
# PCOD8068098 Si02
#       8
#     4   4   4   4   4   4   4   4
#     4   9  20  41  68  91 113 145 194 252 300 348
#     4  12  26  38  55  85 123 161 199 240 292 358
#     4   9  20  41  66  91 114 144 193 252 305 349
#     4   9  16  33  62  94 120 146 190 249 304 350
#     4  10  21  39  62  87 116 155 204 253 298 345
#     4  10  20  37  62  88 119 155 197 248 297 347
#     4  10  21  38  64  94 118 151 203 253 297 351
#     4  11  26  43  59  86 129 168 197 237 295 362
#
# _framework density 19.753086
#
# number of rings (size 3 to 8) (size 9 to 14) (size 15 to 20)
#    0.000    2.000    1.250    2.625    3.500    4.500 
#    0.000    1.250    0.000    0.750    0.000    0.000 
#    0.000    0.000    0.000    0.000    0.000    0.000 
#
# Total GULP energy -396751.669280 kJ/mol
# GULP energy per Si atom -12398.489665 kJ/mol
# Density = 1.970813 g / cm^3
# Si number density = 19.753086 Si / 1000 Ang^3
#
#
#
# Elastic Constant Matrix: (Units=GPa)
#
#
# Indices 1 2 3 4 5 6 
#
# 1 99.8975 34.1466 21.1813 0.0000 20.9944 0.0000
# 2 34.1466 66.5177 28.9721 0.0000 10.3334 0.0000
# 3 21.1813 28.9721 78.4289 0.0000 18.6807 0.0000
# 4 0.0000 0.0000 0.0000 7.6803 0.0000 6.0594
# 5 20.9944 10.3334 18.6807 0.0000 35.9979 0.0000
# 6 0.0000 0.0000 0.0000 6.0594 0.0000 -3.1823
#
#
#
# Elastic Compliance Matrix: (Units=1/GPa)
#
#
# Indices 1 2 3 4 5 6 
#
# 1 0.013296 -0.005896 0.000036 0.000000 -0.006080 0.000000
# 2 -0.005896 0.020652 -0.006211 0.000000 0.000734 0.000000
# 3 0.000036 -0.006211 0.016677 0.000000 -0.006892 0.000000
# 4 0.000000 0.000000 0.000000 0.052034 0.000000 0.099079
# 5 -0.006080 0.000734 -0.006892 0.000000 0.034691 0.000000
# 6 0.000000 0.000000 0.000000 0.099079 0.000000 -0.125583
#
#
# Mechanical properties :
#
#
# Convention : Reuss Voigt Hill
#
# Bulk Modulus (GPa) = 37.76368 45.93825 41.85097
# Shear Modulus (GPa) = 111.76001 18.80213 65.28107
#
# Velocity S-wave (km/s) = 7.53003 3.08857 5.75502
# Velocity P-wave (km/s) = 9.73453 6.00214 8.08662
#
# Compressibility (1/GPa) = 0.02648047
#
# Stress axis : x y z
#
# Youngs Moduli (GPa) = 75.21044 48.42191 59.96331
#
# Poissons Ratio (x) = 0.28551 -0.00213
# Poissons Ratio (y) = 0.44347 0.37245
# Poissons Ratio (z) = -0.00267 0.30076
#
# Static dielectric constant tensor:
#      x y z
#    x -0.747480 0.000000 -6.272680 
#    y 0.000000 3.352730 0.000000 
#    z -6.272680 0.000000 -5.099680 
# 
# 
# High freq. dielectric constant tensor:
#      x y z
#    x 1.785730 0.000000 0.010830 
#    y 0.000000 1.738330 0.000000 
#    z 0.010830 0.000000 1.784950 
# 
# From -- ./inp_files/95057.got.cif
#   From: 2010.06.25/outbox.ucp.g09.slc.cvg/sg10_48_cif.got.tgz:95057.got - 2010.06.28 13:37:52.
