data_PCOD8068883
_publ_section_title
;
Structure prediction by ZEFSAII (Michael W. Deem and Ramdas Pophale) SiO2 
 PCOD8068883
Probable space group: P 21/M
;
_chemical_formula_sum "Si O2"
_cell_formula_units_Z 32
_cell_length_a 17.617284
_cell_length_b 9.083670
_cell_length_c 23.652244
_cell_angle_alpha 90.000000
_cell_angle_beta 149.275036
_cell_angle_gamma 90.000000
_cell_volume 1933.852926
_symmetry_space_group_name_H-M "P 21/M"
_symmetry_group_IT_number 11
_symmetry_cell_setting 'monoclinic'
loop_
_space_group_symop_operation_xyz
x,y,z
-x,1/2+y,-z
-x,-y,-z
x,1/2-y,z
loop_
_atom_site_type_symbol
_atom_site_label
_atom_site_fract_x
_atom_site_fract_y
_atom_site_fract_z
Si Si1 0.269123 0.920255 0.086928
Si Si2 0.161861 0.577453 0.827245
Si Si3 0.606616 0.081699 0.109610
Si Si4 0.449253 0.922613 0.524430
Si Si5 0.667805 0.080880 0.744438
Si Si6 0.385899 0.423392 0.057138
Si Si7 0.890389 0.080050 0.695687
Si Si8 0.964916 0.078884 0.871964
O O1 0.261371 0.750000 0.065115
O O2 0.339542 0.942827 0.193437
O O3 0.377719 0.004363 0.113361
O O4 0.103870 0.983441 0.980011
O O5 0.164420 0.750000 0.843451
O O6 0.224671 0.547522 0.803064
O O7 0.994646 0.517339 0.721835
O O8 0.259090 0.492392 0.936156
O O9 0.570972 0.250000 0.075994
O O10 0.553453 0.043368 0.139675
O O11 0.500000 0.000000 0.000000
O O12 0.473577 0.750000 0.531866
O O13 0.278107 0.959975 0.427260
O O14 0.500000 0.000000 0.500000
O O15 0.542006 0.979343 0.636997
O O16 0.637759 0.250000 0.707954
O O17 0.828973 0.033049 0.825008
O O18 0.353728 0.250000 0.041604
O O19 0.924879 0.250000 0.705946
O O20 0.920801 0.039320 0.780018
O O21 0.005490 0.250000 0.904602
#
# Coordination Sequence:
#
# PCOD8068883 Si02
#       8
#     4   4   4   4   4   4   4   4
#     4  11  22  33  49  74 102 130 167 208 242 285
#     4  10  18  29  47  72  99 126 164 203 239 288
#     4   8  16  28  43  66  95 128 161 195 235 286
#     4  11  22  37  56  74  96 127 167 209 249 295
#     4  10  22  39  53  70  98 130 167 212 251 285
#     4  10  18  30  47  67  99 136 163 193 241 293
#     4  10  20  33  50  73 100 130 162 200 247 292
#     4  10  19  34  52  69  99 134 164 199 244 295
#
# _framework density 16.547277999999999
#
# number of rings (size 3 to 8) (size 9 to 14) (size 15 to 20)
#    0.000    2.000    2.500    1.875    0.000    3.500 
#    0.000    0.000    0.000    0.000    0.000    0.875 
#    0.000    0.000    0.000    0.000    0.000    0.000 
#
# Total GULP energy -396661.067701 kJ/mol
# GULP energy per Si atom -12395.658366 kJ/mol
# Density = 1.650962 g / cm^3
# Si number density = 16.547278 Si / 1000 Ang^3
#
#
#
# Elastic Constant Matrix: (Units=GPa)
#
#
# Indices 1 2 3 4 5 6 
#
# 1 139.7903 60.5523 53.7356 0.0000 21.7939 0.0000
# 2 60.5523 86.4675 50.2038 0.0000 10.5901 0.0000
# 3 53.7356 50.2038 72.1224 0.0000 0.9950 0.0000
# 4 0.0000 0.0000 0.0000 25.8584 0.0000 1.3063
# 5 21.7939 10.5901 0.9950 0.0000 15.6079 0.0000
# 6 0.0000 0.0000 0.0000 1.3063 0.0000 25.4407
#
#
#
# Elastic Compliance Matrix: (Units=1/GPa)
#
#
# Indices 1 2 3 4 5 6 
#
# 1 0.014448 -0.003125 -0.008347 0.000000 -0.017521 0.000000
# 2 -0.003125 0.022781 -0.013388 0.000000 -0.010240 0.000000
# 3 -0.008347 -0.013388 0.029143 0.000000 0.018882 0.000000
# 4 0.000000 0.000000 0.000000 0.038773 0.000000 -0.001991
# 5 -0.017521 -0.010240 0.018882 0.000000 0.094280 0.000000
# 6 0.000000 0.000000 0.000000 -0.001991 0.000000 0.039409
#
#
# Mechanical properties :
#
#
# Convention : Reuss Voigt Hill
#
# Bulk Modulus (GPa) = 60.05589 69.70707 64.88148
# Shear Modulus (GPa) = 17.00076 22.30727 19.65402
#
# Velocity S-wave (km/s) = 3.20879 3.67562 3.45011
# Velocity P-wave (km/s) = 7.07819 7.76087 7.42738
#
# Compressibility (1/GPa) = 0.01665115
#
# Stress axis : x y z
#
# Youngs Moduli (GPa) = 69.21566 43.89672 34.31328
#
# Poissons Ratio (x) = 0.13718 0.28642
# Poissons Ratio (y) = 0.21631 0.45938
# Poissons Ratio (z) = 0.57776 0.58768
#
# Static dielectric constant tensor:
#      x y z
#    x 3.638110 0.000000 0.239310 
#    y 0.000000 3.209300 0.000000 
#    z 0.239310 0.000000 2.881750 
# 
# 
# High freq. dielectric constant tensor:
#      x y z
#    x 1.648860 0.000000 0.015930 
#    y 0.000000 1.649310 0.000000 
#    z 0.015930 0.000000 1.596450 
# 
# From -- ./inp_files/43812.got.cif
#   From: 2010.06.25/outbox.cif.g09.slc.cpg/sg11_22_cif.got.tgz:43812.got - 2010.06.27 23:14:04.
