data_PCOD8068816
_publ_section_title
;
Structure prediction by ZEFSAII (Michael W. Deem and Ramdas Pophale) SiO2 
 PCOD8068816
Probable space group: P 21/M
;
_chemical_formula_sum "Si O2"
_cell_formula_units_Z 32
_cell_length_a 9.992180
_cell_length_b 9.460852
_cell_length_c 20.508615
_cell_angle_alpha 90.000000
_cell_angle_beta 101.696581
_cell_angle_gamma 90.000000
_cell_volume 1898.513622
_symmetry_space_group_name_H-M "P 21/M"
_symmetry_group_IT_number 11
_symmetry_cell_setting 'monoclinic'
loop_
_space_group_symop_operation_xyz
x,y,z
-x,1/2+y,-z
-x,-y,-z
x,1/2-y,z
loop_
_atom_site_type_symbol
_atom_site_label
_atom_site_fract_x
_atom_site_fract_y
_atom_site_fract_z
Si Si1 0.876655 0.087062 0.958661
Si Si2 0.880659 0.591834 0.696305
Si Si3 0.795880 0.409595 0.286277
Si Si4 0.365760 0.582965 0.966804
Si Si5 0.230999 0.085464 0.837275
Si Si6 0.149471 0.408969 0.448689
Si Si7 0.173989 0.908112 0.567403
Si Si8 0.908945 0.410460 0.817484
O O1 0.922360 0.250000 0.964945
O O2 0.739874 0.059895 0.985071
O O3 0.849468 0.040024 0.881303
O O4 0.000000 0.000000 0.000000
O O5 0.826622 0.750000 0.703037
O O6 0.819449 0.533156 0.621559
O O7 0.834469 0.498352 0.753152
O O8 0.042833 0.591807 0.707523
O O9 0.740148 0.250000 0.268346
O O10 0.730048 0.522240 0.229946
O O11 0.762396 0.459196 0.357121
O O12 0.392884 0.750000 0.957426
O O13 0.500000 0.500000 0.000000
O O14 0.310368 0.510200 0.896448
O O15 0.276022 0.250000 0.845393
O O16 0.071304 0.067709 0.835425
O O17 0.203915 0.250000 0.459995
O O18 0.227090 0.498349 0.512028
O O19 0.988514 0.414123 0.444471
O O20 0.223602 0.750000 0.558099
O O21 0.870948 0.250000 0.798755
#
# Coordination Sequence:
#
# PCOD8068816 Si02
#       8
#     4   4   4   4   4   4   4   4
#     4  10  20  34  52  73  95 121 153 193 238 280
#     4   8  14  23  34  51  76 108 143 178 221 268
#     4   8  14  24  36  52  77 107 143 183 223 268
#     4  11  23  37  53  71  95 126 156 191 238 285
#     4  10  18  29  46  66  89 115 148 190 231 276
#     4   8  13  20  29  43  68 101 138 178 215 258
#     4   8  13  20  30  45  67 100 140 179 216 259
#     4   9  17  28  43  65  89 111 144 189 228 269
#
# _framework density 16.855291999999999
#
# number of rings (size 3 to 8) (size 9 to 14) (size 15 to 20)
#    0.000    3.000    1.250    2.250    0.000    2.500 
#    0.000    5.000    0.000    0.000    0.000    0.000 
#    0.000    0.000    0.000    1.125    0.000   14.750 
#
# Total GULP energy -396539.464602 kJ/mol
# GULP energy per Si atom -12391.858269 kJ/mol
# Density = 1.681693 g / cm^3
# Si number density = 16.855292 Si / 1000 Ang^3
#
#
#
# Elastic Constant Matrix: (Units=GPa)
#
#
# Indices 1 2 3 4 5 6 
#
# 1 30.7378 30.7262 35.9605 0.0000 -9.3472 0.0000
# 2 30.7262 106.9920 90.4945 0.0000 -17.2339 0.0000
# 3 35.9605 90.4945 171.3248 0.0000 -36.1580 0.0000
# 4 0.0000 0.0000 0.0000 39.6505 0.0000 -3.3043
# 5 -9.3472 -17.2339 -36.1580 0.0000 12.1147 0.0000
# 6 0.0000 0.0000 0.0000 -3.3043 0.0000 12.7116
#
#
#
# Elastic Compliance Matrix: (Units=1/GPa)
#
#
# Indices 1 2 3 4 5 6 
#
# 1 0.050399 -0.010752 0.000215 0.000000 0.024231 0.000000
# 2 -0.010752 0.019412 -0.010591 0.000000 -0.012290 0.000000
# 3 0.000215 -0.010591 0.022268 0.000000 0.051561 0.000000
# 4 0.000000 0.000000 0.000000 0.025779 0.000000 0.006701
# 5 0.024231 -0.012290 0.051561 0.000000 0.237647 0.000000
# 6 0.000000 0.000000 0.000000 0.006701 0.000000 0.080410
#
#
# Mechanical properties :
#
#
# Convention : Reuss Voigt Hill
#
# Bulk Modulus (GPa) = 20.07125 69.26854 44.66990
# Shear Modulus (GPa) = 10.10555 23.02025 16.56290
#
# Velocity S-wave (km/s) = 2.45122 3.69963 3.13813
# Velocity P-wave (km/s) = 4.46600 7.70940 6.30000
#
# Compressibility (1/GPa) = 0.04982250
#
# Stress axis : x y z
#
# Youngs Moduli (GPa) = 19.84182 51.51382 44.90837
#
# Poissons Ratio (x) = 0.55389 -0.00964
# Poissons Ratio (y) = 0.21334 0.47560
# Poissons Ratio (z) = -0.00426 0.54556
#
# Static dielectric constant tensor:
#      x y z
#    x 2.613520 0.000000 -0.321020 
#    y 0.000000 3.354020 0.000000 
#    z -0.321020 0.000000 3.566910 
# 
# 
# High freq. dielectric constant tensor:
#      x y z
#    x 1.574910 0.000000 -0.026000 
#    y 0.000000 1.653780 0.000000 
#    z -0.026000 0.000000 1.666440 
# 
# From -- ./inp_files/64254.got.cif
#   From: 2010.06.25/outbox.cif.g09.slc.cpg/sg11_33_cif.got.tgz:64254.got - 2010.06.27 23:14:04.
