data_PCOD8068048
_publ_section_title
;
Structure prediction by ZEFSAII (Michael W. Deem and Ramdas Pophale) SiO2 
 PCOD8068048
Probable space group: P 2/M
;
_chemical_formula_sum "Si O2"
_cell_formula_units_Z 28
_cell_length_a 14.600723
_cell_length_b 9.385594
_cell_length_c 11.387717
_cell_angle_alpha 90.000000
_cell_angle_beta 77.011714
_cell_angle_gamma 90.000000
_cell_volume 1520.607798
_symmetry_space_group_name_H-M "P 2/M"
_symmetry_group_IT_number 10
_symmetry_cell_setting 'monoclinic'
loop_
_space_group_symop_operation_xyz
x,y,z
-x,y,-z
-x,-y,-z
x,-y,z
loop_
_atom_site_type_symbol
_atom_site_label
_atom_site_fract_x
_atom_site_fract_y
_atom_site_fract_z
Si Si1 0.103511 0.164821 0.456193
Si Si2 0.379582 0.837724 0.740873
Si Si3 0.455795 0.339081 0.384523
Si Si4 0.289003 0.833030 0.519890
Si Si5 0.102972 0.836622 0.194328
Si Si6 0.206352 0.836548 0.933496
Si Si7 0.945518 0.340981 0.137152
O O1 0.183111 0.224508 0.522589
O O2 0.143439 0.188275 0.312729
O O3 0.000000 0.238174 0.500000
O O4 0.090378 0.000000 0.490005
O O5 0.469826 0.735943 0.724259
O O6 0.313770 0.801637 0.647771
O O7 0.317118 0.814373 0.876196
O O8 0.415721 0.000000 0.720551
O O9 0.500000 0.336561 0.500000
O O10 0.437271 0.500000 0.346516
O O11 0.359132 0.251617 0.413221
O O12 0.297821 0.000000 0.486791
O O13 0.008916 0.742901 0.212097
O O14 0.072527 0.000000 0.184191
O O15 0.181968 0.793218 0.075004
O O16 0.151674 0.740678 0.855035
O O17 0.177643 0.000000 0.917859
O O18 0.925020 0.500000 0.190098
O O19 0.000000 0.345579 0.000000
#
# Coordination Sequence:
#
# PCOD8068048 Si02
#       7
#     4   4   4   4   4   4   4
#     4   9  18  30  48  71  94 125 163 198 228 268
#     4   9  17  28  47  73  97 118 149 192 236 284
#     4   9  17  30  48  70  96 122 149 187 238 285
#     4   9  17  30  48  69  93 123 157 191 230 276
#     4   9  17  30  47  65  91 123 159 197 232 274
#     4   9  17  28  45  70  94 120 152 193 241 279
#     4   9  17  28  42  62  89 122 157 191 231 277
#
# _framework density 18.413689999999999
#
# number of rings (size 3 to 8) (size 9 to 14) (size 15 to 20)
#    0.000    3.000    0.000    0.857    2.000    4.000 
#    0.000    0.714    0.000    1.714    0.000    6.000 
#    0.000    0.000    0.000    0.000    0.000    0.000 
#
# Total GULP energy -347039.031101 kJ/mol
# GULP energy per Si atom -12394.251111 kJ/mol
# Density = 1.837178 g / cm^3
# Si number density = 18.413690 Si / 1000 Ang^3
#
#
#
# Elastic Constant Matrix: (Units=GPa)
#
#
# Indices 1 2 3 4 5 6 
#
# 1 90.3648 26.3642 29.1975 0.0000 -19.3189 0.0000
# 2 26.3642 67.5784 18.9609 0.0000 -12.1434 0.0000
# 3 29.1975 18.9609 61.8297 0.0000 -18.2797 0.0000
# 4 0.0000 0.0000 0.0000 10.9420 0.0000 -2.9144
# 5 -19.3189 -12.1434 -18.2797 0.0000 27.2067 0.0000
# 6 0.0000 0.0000 0.0000 -2.9144 0.0000 10.5505
#
#
#
# Elastic Compliance Matrix: (Units=1/GPa)
#
#
# Indices 1 2 3 4 5 6 
#
# 1 0.014714 -0.003495 -0.004054 0.000000 0.006164 0.000000
# 2 -0.003495 0.017552 -0.002682 0.000000 0.003550 0.000000
# 3 -0.004054 -0.002682 0.022094 0.000000 0.010769 0.000000
# 4 0.000000 0.000000 0.000000 0.098649 0.000000 0.027250
# 5 0.006164 0.003550 0.010769 0.000000 0.049952 0.000000
# 6 0.000000 0.000000 0.000000 0.027250 0.000000 0.102310
#
#
# Mechanical properties :
#
#
# Convention : Reuss Voigt Hill
#
# Bulk Modulus (GPa) = 29.50159 40.97978 35.24069
# Shear Modulus (GPa) = 14.83537 19.42320 17.12929
#
# Velocity S-wave (km/s) = 2.84151 3.25133 3.05330
# Velocity P-wave (km/s) = 5.17899 6.03309 5.62228
#
# Compressibility (1/GPa) = 0.03389648
#
# Stress axis : x y z
#
# Youngs Moduli (GPa) = 67.96427 56.97456 45.26080
#
# Poissons Ratio (x) = 0.19913 0.18348
# Poissons Ratio (y) = 0.23754 0.12141
# Poissons Ratio (z) = 0.27552 0.15283
#
# Static dielectric constant tensor:
#      x y z
#    x 3.313250 0.000000 -0.200040 
#    y 0.000000 3.402120 0.000000 
#    z -0.200040 0.000000 3.274930 
# 
# 
# High freq. dielectric constant tensor:
#      x y z
#    x 1.691790 0.000000 -0.022420 
#    y 0.000000 1.694760 0.000000 
#    z -0.022420 0.000000 1.696690 
# 
# From -- ./inp_files/49206.got.cif
#   From: 2010.06.25/outbox.cif.g09.slc.cpg/sg10_25_cif.got.tgz:49206.got - 2010.06.27 22:07:45.
