data_PCOD8068663
_publ_section_title
;
Structure prediction by ZEFSAII (Michael W. Deem and Ramdas Pophale) SiO2 
 PCOD8068663
Probable space group: P 21/M
;
_chemical_formula_sum "Si O2"
_cell_formula_units_Z 28
_cell_length_a 16.342394
_cell_length_b 9.290769
_cell_length_c 18.118782
_cell_angle_alpha 90.000000
_cell_angle_beta 38.406973
_cell_angle_gamma 90.000000
_cell_volume 1709.062533
_symmetry_space_group_name_H-M "P 21/M"
_symmetry_group_IT_number 11
_symmetry_cell_setting 'monoclinic'
loop_
_space_group_symop_operation_xyz
x,y,z
-x,1/2+y,-z
-x,-y,-z
x,1/2-y,z
loop_
_atom_site_type_symbol
_atom_site_label
_atom_site_fract_x
_atom_site_fract_y
_atom_site_fract_z
Si Si1 0.901449 0.589108 0.666600
Si Si2 0.987814 0.580933 0.281428
Si Si3 0.523291 0.918458 0.408172
Si Si4 0.269055 0.918087 0.494338
Si Si5 0.800129 0.918435 0.149708
Si Si6 0.046032 0.584171 0.073242
Si Si7 0.189786 0.908991 0.394177
O O1 0.853215 0.750000 0.720771
O O2 0.910908 0.492799 0.733349
O O3 0.796421 0.518689 0.683955
O O4 0.041721 0.594272 0.528593
O O5 0.976835 0.750000 0.306865
O O6 0.045633 0.551048 0.159958
O O7 0.842843 0.512887 0.387899
O O8 0.530836 0.750000 0.420591
O O9 0.407352 0.955615 0.433364
O O10 0.658413 0.974368 0.276579
O O11 0.500000 0.000000 0.500000
O O12 0.230455 0.750000 0.530562
O O13 0.281167 0.956885 0.398568
O O14 0.796734 0.750000 0.136520
O O15 0.905198 0.960812 0.138492
O O16 0.836856 0.994296 0.046841
O O17 0.074339 0.750000 0.036811
O O18 0.229853 0.750000 0.337802
#
# Coordination Sequence:
#
# PCOD8068663 Si02
#       7
#     4   4   4   4   4   4   4
#     4   9  16  25  39  61  88 116 146 180 219 264
#     4  10  18  28  44  66  92 119 148 183 222 264
#     4  10  20  33  48  68  93 120 150 183 220 262
#     4   9  18  30  44  64  91 121 151 182 218 264
#     4   9  18  32  48  65  87 116 149 183 219 259
#     4   9  18  31  46  65  88 115 148 184 220 259
#     4   8  14  25  39  57  84 117 148 177 214 261
#
# _framework density 16.383251999999999
#
# number of rings (size 3 to 8) (size 9 to 14) (size 15 to 20)
#    0.000    2.857    0.000    2.571    0.000    6.857 
#    0.000    2.857    0.000    0.000    0.000    1.000 
#    0.000    0.000    0.000    0.000    0.000    0.000 
#
# Total GULP energy -347155.910421 kJ/mol
# GULP energy per Si atom -12398.425372 kJ/mol
# Density = 1.634596 g / cm^3
# Si number density = 16.383252 Si / 1000 Ang^3
#
#
#
# Elastic Constant Matrix: (Units=GPa)
#
#
# Indices 1 2 3 4 5 6 
#
# 1 128.5530 59.6972 58.6009 0.0000 11.8970 0.0000
# 2 59.6972 84.7582 51.2999 0.0000 11.8051 0.0000
# 3 58.6009 51.2999 92.6561 0.0000 7.6142 0.0000
# 4 0.0000 0.0000 0.0000 23.6078 0.0000 6.5052
# 5 11.8970 11.8051 7.6142 0.0000 18.2740 0.0000
# 6 0.0000 0.0000 0.0000 6.5052 0.0000 27.2628
#
#
#
# Elastic Compliance Matrix: (Units=1/GPa)
#
#
# Indices 1 2 3 4 5 6 
#
# 1 0.012885 -0.005875 -0.004679 0.000000 -0.002644 0.000000
# 2 -0.005875 0.021514 -0.007629 0.000000 -0.006895 0.000000
# 3 -0.004679 -0.007629 0.017935 0.000000 0.000502 0.000000
# 4 0.000000 0.000000 0.000000 0.045340 0.000000 -0.010819
# 5 -0.002644 -0.006895 0.000502 0.000000 0.060689 0.000000
# 6 0.000000 0.000000 0.000000 -0.010819 0.000000 0.039261
#
#
# Mechanical properties :
#
#
# Convention : Reuss Voigt Hill
#
# Bulk Modulus (GPa) = 62.62931 71.68481 67.15706
# Shear Modulus (GPa) = 20.89326 22.92020 21.90673
#
# Velocity S-wave (km/s) = 3.57498 3.74438 3.66066
# Velocity P-wave (km/s) = 7.43985 7.90846 7.67773
#
# Compressibility (1/GPa) = 0.01596696
#
# Stress axis : x y z
#
# Youngs Moduli (GPa) = 77.61198 46.48171 55.75779
#
# Poissons Ratio (x) = 0.27307 0.26090
# Poissons Ratio (y) = 0.45595 0.42539
# Poissons Ratio (z) = 0.36316 0.35462
#
# Static dielectric constant tensor:
#      x y z
#    x 3.323500 0.000000 0.107770 
#    y 0.000000 3.219030 0.000000 
#    z 0.107770 0.000000 2.778500 
# 
# 
# High freq. dielectric constant tensor:
#      x y z
#    x 1.635440 0.000000 0.017390 
#    y 0.000000 1.636530 0.000000 
#    z 0.017390 0.000000 1.586080 
# 
# From -- ./inp_files/52820.got.cif
#   From: 2010.06.25/outbox.cif.g09.slc.cpg/sg11_27_cif.got.tgz:52820.got - 2010.06.27 23:14:04.
