data_PCOD8068760
_publ_section_title
;
Structure prediction by ZEFSAII (Michael W. Deem and Ramdas Pophale) SiO2 
 PCOD8068760
Probable space group: P 21/M
;
_chemical_formula_sum "Si O2"
_cell_formula_units_Z 32
_cell_length_a 21.140608
_cell_length_b 9.006633
_cell_length_c 27.735491
_cell_angle_alpha 90.000000
_cell_angle_beta 19.034790
_cell_angle_gamma 90.000000
_cell_volume 1722.355565
_symmetry_space_group_name_H-M "P 21/M"
_symmetry_group_IT_number 11
_symmetry_cell_setting 'monoclinic'
loop_
_space_group_symop_operation_xyz
x,y,z
-x,1/2+y,-z
-x,-y,-z
x,1/2-y,z
loop_
_atom_site_type_symbol
_atom_site_label
_atom_site_fract_x
_atom_site_fract_y
_atom_site_fract_z
Si Si1 0.643553 0.418459 0.178444
Si Si2 0.044990 0.581481 0.117258
Si Si3 0.344614 0.575403 0.577932
Si Si4 0.592825 0.422972 0.075649
Si Si5 0.348443 0.923625 0.325623
Si Si6 0.655433 0.074129 0.922111
Si Si7 0.080920 0.422954 0.587126
Si Si8 0.605925 0.918496 0.556778
O O1 0.576014 0.250000 0.212123
O O2 0.517915 0.539307 0.241118
O O3 0.602061 0.438431 0.265516
O O4 0.867311 0.438459 0.000457
O O5 0.970986 0.750000 0.178294
O O6 0.869174 0.469937 0.251044
O O7 0.211156 0.542193 0.036101
O O8 0.500000 0.500000 0.500000
O O9 0.366158 0.750000 0.567160
O O10 0.385299 0.530127 0.493747
O O11 0.545550 0.250000 0.111373
O O12 0.620263 0.480889 0.001796
O O13 0.407681 0.507903 0.231338
O O14 0.321671 0.750000 0.338965
O O15 0.148903 0.992062 0.489889
O O16 0.638416 0.250000 0.930638
O O17 0.867916 0.019091 0.753539
O O18 0.500000 0.000000 0.000000
O O19 0.082038 0.250000 0.574431
O O20 0.221131 0.457696 0.531153
O O21 0.628242 0.750000 0.521507
#
# Coordination Sequence:
#
# PCOD8068760 Si02
#       8
#     4   4   4   4   4   4   4   4
#     4   8  16  32  55  80 107 138 168 204 258 318
#     4   9  17  34  59  82 103 132 173 215 255 307
#     4  12  25  38  52  74 106 142 177 214 258 306
#     4   9  18  35  57  78 104 140 175 208 258 320
#     4  10  18  28  49  82 111 132 166 218 262 298
#     4  10  21  36  54  76 104 140 179 218 262 312
#     4   9  18  35  57  78 104 140 175 208 258 320
#     4   9  17  34  59  82 103 132 173 215 255 307
#
# _framework density 18.579208000000001
#
# number of rings (size 3 to 8) (size 9 to 14) (size 15 to 20)
#    0.000    2.500    0.000    4.500    0.000    7.000 
#    0.000    2.500    0.000    0.000    0.000    0.000 
#    0.000    0.000    0.000    0.000    0.000    0.000 
#
# Total GULP energy -396687.352552 kJ/mol
# GULP energy per Si atom -12396.479767 kJ/mol
# Density = 1.853692 g / cm^3
# Si number density = 18.579208 Si / 1000 Ang^3
#
#
#
# Elastic Constant Matrix: (Units=GPa)
#
#
# Indices 1 2 3 4 5 6 
#
# 1 76.2614 50.2809 89.0480 0.0000 8.5541 0.0000
# 2 50.2809 96.0887 68.4578 0.0000 11.7592 0.0000
# 3 89.0480 68.4578 150.0128 0.0000 39.5820 0.0000
# 4 0.0000 0.0000 0.0000 28.8906 0.0000 0.8658
# 5 8.5541 11.7592 39.5820 0.0000 22.1177 0.0000
# 6 0.0000 0.0000 0.0000 0.8658 0.0000 27.5060
#
#
#
# Elastic Compliance Matrix: (Units=1/GPa)
#
#
# Indices 1 2 3 4 5 6 
#
# 1 0.236034 -0.006052 -0.216201 0.000000 0.298847 0.000000
# 2 -0.006052 0.016430 -0.004202 0.000000 0.001126 0.000000
# 3 -0.216201 -0.004202 0.216501 0.000000 -0.301602 0.000000
# 4 0.000000 0.000000 0.000000 0.034646 0.000000 -0.001091
# 5 0.298847 0.001126 -0.301602 0.000000 0.468783 0.000000
# 6 0.000000 0.000000 0.000000 -0.001091 0.000000 0.036390
#
#
# Mechanical properties :
#
#
# Convention : Reuss Voigt Hill
#
# Bulk Modulus (GPa) = 62.29064 81.99292 72.14178
# Shear Modulus (GPa) = 3.40821 23.34127 13.37474
#
# Velocity S-wave (km/s) = 1.35588 3.54829 2.68596
# Velocity P-wave (km/s) = 6.00425 7.81118 6.96655
#
# Compressibility (1/GPa) = 0.01605378
#
# Stress axis : x y z
#
# Youngs Moduli (GPa) = 4.23668 60.86378 4.61891
#
# Poissons Ratio (x) = 0.36835 0.99861
# Poissons Ratio (y) = 0.02564 0.01941
# Poissons Ratio (z) = 0.91598 0.25577
#
# Static dielectric constant tensor:
#      x y z
#    x 3.256970 0.000000 0.341610 
#    y 0.000000 3.247240 0.000000 
#    z 0.341610 0.000000 3.749480 
# 
# 
# High freq. dielectric constant tensor:
#      x y z
#    x 1.691980 0.000000 0.029220 
#    y 0.000000 1.710200 0.000000 
#    z 0.029220 0.000000 1.734190 
# 
# From -- ./inp_files/72078.got.cif
#   From: 2010.06.25/outbox.cif.g09.slc.cpg/sg11_37_cif.got.tgz:72078.got - 2010.06.27 23:14:04.
