data_PCOD8068952
_publ_section_title
;
Structure prediction by ZEFSAII (Michael W. Deem and Ramdas Pophale) SiO2 
 PCOD8068952
Probable space group: P 21/M
;
_chemical_formula_sum "Si O2"
_cell_formula_units_Z 28
_cell_length_a 10.049122
_cell_length_b 8.418978
_cell_length_c 30.420319
_cell_angle_alpha 90.000000
_cell_angle_beta 147.097647
_cell_angle_gamma 90.000000
_cell_volume 1398.035369
_symmetry_space_group_name_H-M "P 21/M"
_symmetry_group_IT_number 11
_symmetry_cell_setting 'monoclinic'
loop_
_space_group_symop_operation_xyz
x,y,z
-x,1/2+y,-z
-x,-y,-z
x,1/2-y,z
loop_
_atom_site_type_symbol
_atom_site_label
_atom_site_fract_x
_atom_site_fract_y
_atom_site_fract_z
Si Si1 0.038434 0.065723 0.824674
Si Si2 0.465208 0.432333 0.070760
Si Si3 0.977620 0.934568 0.900613
Si Si4 0.078765 0.935120 0.671843
Si Si5 0.754749 0.434296 0.659263
Si Si6 0.339036 0.562073 0.495444
Si Si7 0.447516 0.565906 0.161023
O O1 0.111008 0.250000 0.846009
O O2 0.835483 0.031662 0.731314
O O3 0.281162 0.964681 0.883443
O O4 0.920315 0.011342 0.837589
O O5 0.391325 0.250000 0.042962
O O6 0.495879 0.466015 0.130653
O O7 0.259189 0.542699 0.992092
O O8 0.911343 0.750000 0.881251
O O9 0.813829 0.022224 0.891385
O O10 0.128521 0.750000 0.680952
O O11 0.338107 0.025277 0.745022
O O12 0.928216 0.968156 0.674557
O O13 0.935130 0.996530 0.588446
O O14 0.779885 0.250000 0.653640
O O15 0.471291 0.491830 0.575727
O O16 0.500000 0.500000 0.500000
O O17 0.335019 0.750000 0.496505
O O18 0.452530 0.750000 0.149833
#
# Coordination Sequence:
#
# PCOD8068952 Si02
#       7
#     4   4   4   4   4   4   4
#     4  11  23  40  62  88 120 157 197 243 293 347
#     4  12  24  41  64  89 117 152 197 245 295 347
#     4  12  26  43  61  85 118 156 198 243 295 351
#     4  11  20  33  55  84 117 151 193 237 290 345
#     4  10  19  33  55  83 117 152 192 238 289 342
#     4  10  18  29  49  79 116 151 189 236 289 339
#     4  12  24  41  62  87 119 154 196 243 295 351
#
# _framework density 20.028106000000001
#
# number of rings (size 3 to 8) (size 9 to 14) (size 15 to 20)
#    0.000    0.857    1.429    9.857    0.000    1.714 
#    0.000    0.000    0.000    0.857    0.000    0.000 
#    0.000    0.000    0.000    0.000    0.000    0.000 
#
# Total GULP energy -347339.207066 kJ/mol
# GULP energy per Si atom -12404.971681 kJ/mol
# Density = 1.998252 g / cm^3
# Si number density = 20.028106 Si / 1000 Ang^3
#
#
#
# Elastic Constant Matrix: (Units=GPa)
#
#
# Indices 1 2 3 4 5 6 
#
# 1 45.8551 10.7706 6.8027 0.0000 -3.7124 0.0000
# 2 10.7706 102.5309 22.3661 0.0000 -2.5891 0.0000
# 3 6.8027 22.3661 115.3625 0.0000 -6.3707 0.0000
# 4 0.0000 0.0000 0.0000 36.6488 0.0000 3.1743
# 5 -3.7124 -2.5891 -6.3707 0.0000 8.5366 0.0000
# 6 0.0000 0.0000 0.0000 3.1743 0.0000 24.2556
#
#
#
# Elastic Compliance Matrix: (Units=1/GPa)
#
#
# Indices 1 2 3 4 5 6 
#
# 1 0.023103 -0.002099 -0.000454 0.000000 0.009071 0.000000
# 2 -0.002099 0.010398 -0.001844 0.000000 0.000865 0.000000
# 3 -0.000454 -0.001844 0.009398 0.000000 0.006257 0.000000
# 4 0.000000 0.000000 0.000000 0.027599 0.000000 -0.003612
# 5 0.009071 0.000865 0.006257 0.000000 0.126018 0.000000
# 6 0.000000 0.000000 0.000000 -0.003612 0.000000 0.041700
#
#
# Mechanical properties :
#
#
# Convention : Reuss Voigt Hill
#
# Bulk Modulus (GPa) = 29.32250 38.18081 33.75165
# Shear Modulus (GPa) = 19.35143 28.80882 24.08013
#
# Velocity S-wave (km/s) = 3.11177 3.79676 3.47121
# Velocity P-wave (km/s) = 5.25198 6.19076 5.74059
#
# Compressibility (1/GPa) = 0.03410350
#
# Stress axis : x y z
#
# Youngs Moduli (GPa) = 43.28520 96.17437 106.40295
#
# Poissons Ratio (x) = 0.20184 0.04836
# Poissons Ratio (y) = 0.09084 0.19625
# Poissons Ratio (z) = 0.01967 0.17738
#
# Static dielectric constant tensor:
#      x y z
#    x 3.250990 0.000000 -0.028510 
#    y 0.000000 3.722570 0.000000 
#    z -0.028510 0.000000 4.321460 
# 
# 
# High freq. dielectric constant tensor:
#      x y z
#    x 1.735080 0.000000 -0.001290 
#    y 0.000000 1.800680 0.000000 
#    z -0.001290 0.000000 1.804180 
# 
# From -- ./inp_files/70886.got.cif
#   From: 2010.06.25/outbox.cif.g09.slc.cpg/sg11_36_cif.got.tgz:70886.got - 2010.06.27 23:14:04.
