data_PCOD8068344
_publ_section_title
;
Structure prediction by ZEFSAII (Michael W. Deem and Ramdas Pophale) SiO2 
 PCOD8068344
Probable space group: P 21/M
;
_chemical_formula_sum "Si O2"
_cell_formula_units_Z 32
_cell_length_a 12.620297
_cell_length_b 8.750665
_cell_length_c 23.731935
_cell_angle_alpha 90.000000
_cell_angle_beta 46.422235
_cell_angle_gamma 90.000000
_cell_volume 1898.654156
_symmetry_space_group_name_H-M "P 21/M"
_symmetry_group_IT_number 11
_symmetry_cell_setting 'monoclinic'
loop_
_space_group_symop_operation_xyz
x,y,z
-x,1/2+y,-z
-x,-y,-z
x,1/2-y,z
loop_
_atom_site_type_symbol
_atom_site_label
_atom_site_fract_x
_atom_site_fract_y
_atom_site_fract_z
Si Si1 0.561289 0.430567 0.420343
Si Si2 0.392654 0.931534 0.992577
Si Si3 0.389272 0.929999 0.161395
Si Si4 0.662987 0.428796 0.579600
Si Si5 0.950689 0.430543 0.410410
Si Si6 0.823017 0.569300 0.852405
Si Si7 0.112715 0.569512 0.689763
Si Si8 0.748231 0.073290 0.671364
O O1 0.500000 0.500000 0.500000
O O2 0.555423 0.250000 0.428448
O O3 0.470822 0.482532 0.399395
O O4 0.727714 0.489499 0.350270
O O5 0.398114 0.750000 0.988963
O O6 0.449606 0.000985 0.912372
O O7 0.500000 0.000000 0.000000
O O8 0.230675 0.989181 0.069692
O O9 0.386958 0.750000 0.149947
O O10 0.356636 0.969974 0.238157
O O11 0.267203 0.011299 0.168317
O O12 0.642099 0.250000 0.575283
O O13 0.815450 0.488147 0.497708
O O14 0.660753 0.467697 0.646672
O O15 0.953223 0.250000 0.407474
O O16 0.931634 0.500664 0.354728
O O17 0.100529 0.483619 0.383265
O O18 0.801418 0.750000 0.865547
O O19 0.992233 0.522399 0.780638
O O20 0.115272 0.750000 0.682031
O O21 0.790896 0.250000 0.657175
#
# Coordination Sequence:
#
# PCOD8068344 Si02
#       8
#     4   4   4   4   4   4   4   4
#     4  11  21  36  54  73  96 127 168 209 249 292
#     4  10  18  28  43  66  95 126 157 192 233 284
#     4  10  18  29  44  67  97 129 160 192 234 286
#     4  10  21  37  51  69  99 133 167 208 250 285
#     4  10  18  32  51  69  98 133 165 201 244 293
#     4  10  17  29  47  67  94 127 158 193 239 288
#     4   9  18  31  49  72  97 128 161 200 246 288
#     4  10  21  33  48  72 102 131 166 207 242 286
#
# _framework density 16.854043000000001
#
# number of rings (size 3 to 8) (size 9 to 14) (size 15 to 20)
#    0.000    2.000    2.500    4.125    0.000    1.500 
#    0.000    2.500    0.000    0.000    0.000    0.875 
#    0.000    0.000    0.000    0.000    0.000    0.000 
#
# Total GULP energy -396717.505769 kJ/mol
# GULP energy per Si atom -12397.422055 kJ/mol
# Density = 1.681568 g / cm^3
# Si number density = 16.854043 Si / 1000 Ang^3
#
#
#
# Elastic Constant Matrix: (Units=GPa)
#
#
# Indices 1 2 3 4 5 6 
#
# 1 88.3394 25.5070 58.5312 0.0000 -5.6469 0.0000
# 2 25.5070 60.6600 41.8459 0.0000 -5.4334 0.0000
# 3 58.5312 41.8459 151.5917 0.0000 -13.2703 0.0000
# 4 0.0000 0.0000 0.0000 22.6301 0.0000 -1.1434
# 5 -5.6469 -5.4334 -13.2703 0.0000 20.4686 0.0000
# 6 0.0000 0.0000 0.0000 -1.1434 0.0000 22.4009
#
#
#
# Elastic Compliance Matrix: (Units=1/GPa)
#
#
# Indices 1 2 3 4 5 6 
#
# 1 0.015635 -0.002971 -0.005204 0.000000 0.000151 0.000000
# 2 -0.002971 0.020995 -0.004487 0.000000 0.001845 0.000000
# 3 -0.005204 -0.004487 0.010193 0.000000 0.003982 0.000000
# 4 0.000000 0.000000 0.000000 0.044303 0.000000 0.002261
# 5 0.000151 0.001845 0.003982 0.000000 0.051968 0.000000
# 6 0.000000 0.000000 0.000000 0.002261 0.000000 0.044756
#
#
# Mechanical properties :
#
#
# Convention : Reuss Voigt Hill
#
# Bulk Modulus (GPa) = 46.51163 61.37326 53.94244
# Shear Modulus (GPa) = 22.69208 24.74705 23.71956
#
# Velocity S-wave (km/s) = 3.67330 3.83602 3.75554
# Velocity P-wave (km/s) = 6.75629 7.49090 7.13306
#
# Compressibility (1/GPa) = 0.02150000
#
# Stress axis : x y z
#
# Youngs Moduli (GPa) = 63.95786 47.62992 98.10733
#
# Poissons Ratio (x) = 0.14153 0.51050
# Poissons Ratio (y) = 0.19004 0.44019
# Poissons Ratio (z) = 0.33280 0.21371
#
# Static dielectric constant tensor:
#      x y z
#    x 2.797210 0.000000 0.077790 
#    y 0.000000 3.108730 0.000000 
#    z 0.077790 0.000000 3.690810 
# 
# 
# High freq. dielectric constant tensor:
#      x y z
#    x 1.607720 0.000000 -0.005570 
#    y 0.000000 1.648210 0.000000 
#    z -0.005570 0.000000 1.664640 
# 
# From -- ./inp_files/68297.got.cif
#   From: 2010.06.25/outbox.cif.g09.slc.cpg/sg11_35_cif.got.tgz:68297.got - 2010.06.27 23:14:04.
