data_PCOD8068073
_publ_section_title
;
Structure prediction by ZEFSAII (Michael W. Deem and Ramdas Pophale) SiO2 
 PCOD8068073
Probable space group: P 2/M
;
_chemical_formula_sum "Si O2"
_cell_formula_units_Z 28
_cell_length_a 30.000000
_cell_length_b 9.000000
_cell_length_c 30.000000
_cell_angle_alpha 90.000000
_cell_angle_beta 170.000000
_cell_angle_gamma 90.000000
_cell_volume 1406.550239
_symmetry_space_group_name_H-M "P 2/M"
_symmetry_group_IT_number 10
_symmetry_cell_setting 'monoclinic'
loop_
_space_group_symop_operation_xyz
x,y,z
-x,y,-z
-x,-y,-z
x,-y,z
loop_
_atom_site_type_symbol
_atom_site_label
_atom_site_fract_x
_atom_site_fract_y
_atom_site_fract_z
Si Si1 0.693763 0.175039 0.812616
Si Si2 0.548772 0.824975 0.951480
Si Si3 0.877738 0.667829 0.622272
Si Si4 0.735590 0.332216 0.764040
Si Si5 0.405959 0.332254 0.093711
Si Si6 0.170686 0.824874 0.335674
Si Si7 0.974830 0.822650 0.524952
O O1 0.716553 0.212899 0.783775
O O2 0.433203 0.246010 0.575516
O O3 0.691187 0.000000 0.816444
O O4 0.933646 0.246014 0.075136
O O5 0.574211 0.786886 0.925323
O O6 0.286451 0.756152 0.712199
O O7 0.545777 0.000000 0.954624
O O8 0.788269 0.756112 0.213951
O O9 0.868792 0.500000 0.632295
O O10 0.641798 0.699653 0.357950
O O11 0.858272 0.786974 0.641662
O O12 0.141877 0.700234 0.858028
O O13 0.500000 0.300397 0.500000
O O14 0.724856 0.500000 0.772394
O O15 0.000000 0.301617 0.000000
O O16 0.414840 0.500000 0.083638
O O17 0.174447 0.000000 0.333175
O O18 0.000000 0.762383 0.500000
O O19 0.974132 0.000000 0.525904
#
# Coordination Sequence:
#
# PCOD8068073 Si02
#       7
#     4   4   4   4   4   4   4
#     4  10  21  36  54  78 106 136 169 205 253 306
#     4  10  19  31  51  76  98 128 169 205 245 298
#     4  10  21  36  54  75  99 133 172 204 246 303
#     4  10  21  36  54  78 106 136 173 214 252 292
#     4  10  21  36  52  73 103 134 165 206 252 297
#     4  10  21  36  54  78 106 133 166 211 255 296
#     4   9  17  30  49  74 102 129 162 207 251 292
#
# _framework density 19.906860999999999
#
# number of rings (size 3 to 8) (size 9 to 14) (size 15 to 20)
#    0.000    2.143    0.000    3.000    0.000    4.571 
#    0.000    0.000    0.000    2.571    0.000    0.000 
#    0.000    0.000    0.000    0.000    0.000    0.000 
#
# Total GULP energy -347239.197117 kJ/mol
# GULP energy per Si atom -12401.399897 kJ/mol
# Density = 1.986155 g / cm^3
# Si number density = 19.906861 Si / 1000 Ang^3
#
#
#
# Elastic Constant Matrix: (Units=GPa)
#
#
# Indices 1 2 3 4 5 6 
#
# 1 101.0240 14.3951 80.0752 0.0000 -6.9386 0.0000
# 2 14.3951 -2.4015 26.5178 0.0000 1.1042 0.0000
# 3 80.0752 26.5178 209.8440 0.0000 15.6574 0.0000
# 4 0.0000 0.0000 0.0000 -1.2077 0.0000 1.8999
# 5 -6.9386 1.1042 15.6574 0.0000 -25.4549 0.0000
# 6 0.0000 0.0000 0.0000 1.8999 0.0000 -22.6954
#
#
#
# Elastic Compliance Matrix: (Units=1/GPa)
#
#
# Indices 1 2 3 4 5 6 
#
# 1 0.012408 0.010189 -0.005549 0.000000 -0.006353 0.000000
# 2 0.010189 -0.166340 0.017093 0.000000 0.000521 0.000000
# 3 -0.005549 0.017093 0.004355 0.000000 0.004932 0.000000
# 4 0.000000 0.000000 0.000000 -0.953611 0.000000 -0.079828
# 5 -0.006353 0.000521 0.004932 0.000000 -0.034497 0.000000
# 6 0.000000 0.000000 0.000000 -0.079828 0.000000 -0.050744
#
#
# Mechanical properties :
#
#
# Convention : Reuss Voigt Hill
#
# Bulk Modulus (GPa) = -9.42424 61.16029 25.86803
# Shear Modulus (GPa) = -3.94550 2.62696 -0.65927
#
# Velocity S-wave (km/s) = -1.40935 1.15000 -0.57610
# Velocity P-wave (km/s) = 2.71897 5.70555 3.54686
#
# Compressibility (1/GPa) = -0.10610939
#
# Stress axis : x y z
#
# Youngs Moduli (GPa) = 80.59102 -6.01177 229.64048
#
# Poissons Ratio (x) = 0.06126 1.27416
# Poissons Ratio (y) = -0.82117 -3.92530
# Poissons Ratio (z) = 0.44716 0.10276
#
# Static dielectric constant tensor:
#      x y z
#    x 3.323020 0.000000 0.145120 
#    y 0.000000 3.207050 0.000000 
#    z 0.145120 0.000000 4.958300 
# 
# 
# High freq. dielectric constant tensor:
#      x y z
#    x 1.766110 0.000000 0.003110 
#    y 0.000000 1.737180 0.000000 
#    z 0.003110 0.000000 1.801390 
# 
# From -- ./inp_files/13436.got.cif
#   From: 2010.06.25/outbox.ucp.g09.slc.cvg/sg10_7_cif.got.tgz:13436.got - 2010.06.28 13:37:52.
