data_PCOD8068520
_publ_section_title
;
Structure prediction by ZEFSAII (Michael W. Deem and Ramdas Pophale) SiO2 
 PCOD8068520
Probable space group: P 21/M
;
_chemical_formula_sum "Si O2"
_cell_formula_units_Z 32
_cell_length_a 16.744481
_cell_length_b 9.189112
_cell_length_c 21.533187
_cell_angle_alpha 90.000000
_cell_angle_beta 145.208903
_cell_angle_gamma 90.000000
_cell_volume 1890.491081
_symmetry_space_group_name_H-M "P 21/M"
_symmetry_group_IT_number 11
_symmetry_cell_setting 'monoclinic'
loop_
_space_group_symop_operation_xyz
x,y,z
-x,1/2+y,-z
-x,-y,-z
x,1/2-y,z
loop_
_atom_site_type_symbol
_atom_site_label
_atom_site_fract_x
_atom_site_fract_y
_atom_site_fract_z
Si Si1 0.031195 0.585318 0.231106
Si Si2 0.054477 0.581980 0.390710
Si Si3 0.646708 0.422366 0.373438
Si Si4 0.225751 0.922881 0.780304
Si Si5 0.554965 0.077786 0.183146
Si Si6 0.469994 0.581367 0.572977
Si Si7 0.716097 0.918187 0.644222
Si Si8 0.276537 0.078144 0.939378
O O1 0.054975 0.750000 0.224813
O O2 0.075000 0.563257 0.330402
O O3 0.129106 0.485910 0.250066
O O4 0.868860 0.540593 0.118658
O O5 0.022019 0.750000 0.386027
O O6 0.194710 0.524064 0.513497
O O7 0.927552 0.483426 0.333996
O O8 0.649043 0.250000 0.369962
O O9 0.588366 0.490911 0.272149
O O10 0.545327 0.469976 0.365423
O O11 0.219219 0.750000 0.783807
O O12 0.327164 0.972939 0.789720
O O13 0.287263 0.992357 0.881947
O O14 0.553979 0.250000 0.187307
O O15 0.402511 0.024212 0.063513
O O16 0.426492 0.750000 0.537796
O O17 0.364058 0.490667 0.463886
O O18 0.629828 0.555838 0.652916
O O19 0.732056 0.750000 0.638909
O O20 0.283631 0.250000 0.928556
#
# Coordination Sequence:
#
# PCOD8068520 Si02
#       8
#     4   4   4   4   4   4   4   4
#     4   9  16  28  46  67  92 121 152 188 227 271
#     4   9  17  30  48  68  92 126 158 184 225 279
#     4   9  16  30  50  67  91 125 158 190 222 269
#     4  10  19  30  47  72  97 117 147 198 244 272
#     4   9  18  31  49  71  90 117 160 200 230 266
#     4   9  17  30  46  67  94 124 152 180 221 274
#     4  10  18  26  44  72  97 118 147 187 228 269
#     4   9  18  33  51  69  89 119 160 197 229 271
#
# _framework density 16.926818999999998
#
# number of rings (size 3 to 8) (size 9 to 14) (size 15 to 20)
#    0.000    2.750    1.250    1.875    0.000    3.000 
#    0.000    0.625    0.000    4.500    0.000    0.000 
#    0.000    0.000    0.000    0.000    0.000    0.625 
#
# Total GULP energy -396708.411058 kJ/mol
# GULP energy per Si atom -12397.137846 kJ/mol
# Density = 1.688829 g / cm^3
# Si number density = 16.926819 Si / 1000 Ang^3
#
#
#
# Elastic Constant Matrix: (Units=GPa)
#
#
# Indices 1 2 3 4 5 6 
#
# 1 123.9890 44.0167 88.0061 0.0000 17.9299 0.0000
# 2 44.0167 52.5387 35.0702 0.0000 9.9292 0.0000
# 3 88.0061 35.0702 133.0114 0.0000 6.2268 0.0000
# 4 0.0000 0.0000 0.0000 18.3227 0.0000 7.1078
# 5 17.9299 9.9292 6.2268 0.0000 23.2963 0.0000
# 6 0.0000 0.0000 0.0000 7.1078 0.0000 22.6852
#
#
#
# Elastic Compliance Matrix: (Units=1/GPa)
#
#
# Indices 1 2 3 4 5 6 
#
# 1 0.019513 -0.007667 -0.010470 0.000000 -0.008952 0.000000
# 2 -0.007667 0.027823 -0.002009 0.000000 -0.005420 0.000000
# 3 -0.010470 -0.002009 0.014743 0.000000 0.004974 0.000000
# 4 0.000000 0.000000 0.000000 0.062128 0.000000 -0.019466
# 5 -0.008952 -0.005420 0.004974 0.000000 0.050796 0.000000
# 6 0.000000 0.000000 0.000000 -0.019466 0.000000 0.050181
#
#
# Mechanical properties :
#
#
# Convention : Reuss Voigt Hill
#
# Bulk Modulus (GPa) = 45.90232 71.52499 58.71366
# Shear Modulus (GPa) = 18.33258 22.35727 20.34492
#
# Velocity S-wave (km/s) = 3.29454 3.63825 3.47065
# Velocity P-wave (km/s) = 6.45360 7.74573 7.12900
#
# Compressibility (1/GPa) = 0.02178539
#
# Stress axis : x y z
#
# Youngs Moduli (GPa) = 51.24691 35.94188 67.83098
#
# Poissons Ratio (x) = 0.27558 0.71020
# Poissons Ratio (y) = 0.39293 0.13627
# Poissons Ratio (z) = 0.53657 0.07221
#
# Static dielectric constant tensor:
#      x y z
#    x 3.315060 0.000000 0.124220 
#    y 0.000000 2.982520 0.000000 
#    z 0.124220 0.000000 3.288410 
# 
# 
# High freq. dielectric constant tensor:
#      x y z
#    x 1.648830 0.000000 0.021900 
#    y 0.000000 1.630540 0.000000 
#    z 0.021900 0.000000 1.640820 
# 
# From -- ./inp_files/42412.got.cif
#   From: 2010.06.25/outbox.cif.g09.slc.cpg/sg11_22_cif.got.tgz:42412.got - 2010.06.27 23:14:04.
