data_PCOD8068170
_publ_section_title
;
Structure prediction by ZEFSAII (Michael W. Deem and Ramdas Pophale) SiO2 
 PCOD8068170
Probable space group: P 21/M
;
_chemical_formula_sum "Si O2"
_cell_formula_units_Z 28
_cell_length_a 11.324456
_cell_length_b 20.182404
_cell_length_c 16.976964
_cell_angle_alpha 90.000000
_cell_angle_beta 157.737490
_cell_angle_gamma 90.000000
_cell_volume 1470.003457
_symmetry_space_group_name_H-M "P 21/M"
_symmetry_group_IT_number 11
_symmetry_cell_setting 'monoclinic'
loop_
_space_group_symop_operation_xyz
x,y,z
-x,1/2+y,-z
-x,-y,-z
x,1/2-y,z
loop_
_atom_site_type_symbol
_atom_site_label
_atom_site_fract_x
_atom_site_fract_y
_atom_site_fract_z
Si Si1 0.165942 0.010352 0.929131
Si Si2 0.071047 0.949604 0.374069
Si Si3 0.707032 0.900363 0.702792
Si Si4 0.625489 0.603210 0.220136
Si Si5 0.263713 0.407559 0.536815
Si Si6 0.963128 0.425502 0.945339
Si Si7 0.961472 0.326459 0.215921
O O1 0.182930 0.032414 0.849171
O O2 0.142133 0.074834 0.971725
O O3 0.860093 0.964821 0.755393
O O4 0.479033 0.969997 0.140706
O O5 0.347176 0.913059 0.497843
O O6 0.917802 0.899105 0.341503
O O7 0.177974 0.014962 0.486366
O O8 0.759522 0.839910 0.674465
O O9 0.873367 0.879932 0.887979
O O10 0.744920 0.623985 0.380682
O O11 0.366775 0.652956 0.026092
O O12 0.610803 0.401561 0.715567
O O13 0.022111 0.367462 0.333386
O O14 0.000000 0.500000 0.000000
O O15 0.952984 0.250000 0.233259
#
# Coordination Sequence:
#
# PCOD8068170 Si02
#       7
#     4   4   4   4   4   4   4
#     4  10  17  31  53  83 128 152 177 224 286 360
#     4  12  20  32  60  96 123 149 177 240 310 362
#     4  10  18  36  57  85 119 151 189 241 289 337
#     4  11  23  37  55  91 124 153 185 238 295 356
#     4  12  20  36  60  90 124 150 193 234 297 354
#     4  10  16  30  56  87 120 153 182 233 296 349
#     4  11  25  43  62  80 108 160 214 241 270 335
#
# _framework density 19.047574999999998
#
# number of rings (size 3 to 8) (size 9 to 14) (size 15 to 20)
#    0.000    1.143   10.000    2.143    0.000    0.571 
#    0.000    0.714    0.000    0.000    0.000    0.000 
#    0.000    0.000    0.000    0.000    0.000    0.000 
#
# Total GULP energy -347100.191032 kJ/mol
# GULP energy per Si atom -12396.435394 kJ/mol
# Density = 1.900422 g / cm^3
# Si number density = 19.047575 Si / 1000 Ang^3
#
#
#
# Elastic Constant Matrix: (Units=GPa)
#
#
# Indices 1 2 3 4 5 6 
#
# 1 100.5940 18.3452 35.4452 0.0000 -3.6031 0.0000
# 2 18.3452 49.7452 21.1192 0.0000 1.2515 0.0000
# 3 35.4452 21.1192 64.4162 0.0000 -12.2498 0.0000
# 4 0.0000 0.0000 0.0000 11.4467 0.0000 -0.1584
# 5 -3.6031 1.2515 -12.2498 0.0000 42.1748 0.0000
# 6 0.0000 0.0000 0.0000 -0.1584 0.0000 8.7791
#
#
#
# Elastic Compliance Matrix: (Units=1/GPa)
#
#
# Indices 1 2 3 4 5 6 
#
# 1 0.012516 -0.001875 -0.006413 0.000000 -0.000738 0.000000
# 2 -0.001875 0.024020 -0.007419 0.000000 -0.003028 0.000000
# 3 -0.006413 -0.007419 0.022675 0.000000 0.006258 0.000000
# 4 0.000000 0.000000 0.000000 0.087383 0.000000 0.001577
# 5 -0.000738 -0.003028 0.006258 0.000000 0.025555 0.000000
# 6 0.000000 0.000000 0.000000 0.001577 0.000000 0.113935
#
#
# Mechanical properties :
#
#
# Convention : Reuss Voigt Hill
#
# Bulk Modulus (GPa) = 35.97401 40.50829 38.24115
# Shear Modulus (GPa) = 15.30156 21.80317 18.55236
#
# Velocity S-wave (km/s) = 2.83739 3.38697 3.12429
# Velocity P-wave (km/s) = 5.44626 6.05049 5.75631
#
# Compressibility (1/GPa) = 0.02779784
#
# Stress axis : x y z
#
# Youngs Moduli (GPa) = 79.89807 41.63235 44.10111
#
# Poissons Ratio (x) = 0.07805 0.28280
# Poissons Ratio (y) = 0.14978 0.32720
# Poissons Ratio (z) = 0.51235 0.30888
#
# Static dielectric constant tensor:
#      x y z
#    x 3.947140 0.000000 -0.296480 
#    y 0.000000 2.932350 0.000000 
#    z -0.296480 0.000000 3.551450 
# 
# 
# High freq. dielectric constant tensor:
#      x y z
#    x 1.755960 0.000000 -0.018320 
#    y 0.000000 1.660470 0.000000 
#    z -0.018320 0.000000 1.744270 
# 
# From -- ./inp_files/41984.got.cif
#   From: 2010.06.25/outbox.cif.g09.slc.cpg/sg11_21_cif.got.tgz:41984.got - 2010.06.27 23:14:04.
