data_PCOD8068780
_publ_section_title
;
Structure prediction by ZEFSAII (Michael W. Deem and Ramdas Pophale) SiO2 
 PCOD8068780
Probable space group: P 21/M
;
_chemical_formula_sum "Si O2"
_cell_formula_units_Z 32
_cell_length_a 17.699641
_cell_length_b 8.772209
_cell_length_c 25.518343
_cell_angle_alpha 90.000000
_cell_angle_beta 26.124385
_cell_angle_gamma 90.000000
_cell_volume 1744.599011
_symmetry_space_group_name_H-M "P 21/M"
_symmetry_group_IT_number 11
_symmetry_cell_setting 'monoclinic'
loop_
_space_group_symop_operation_xyz
x,y,z
-x,1/2+y,-z
-x,-y,-z
x,1/2-y,z
loop_
_atom_site_type_symbol
_atom_site_label
_atom_site_fract_x
_atom_site_fract_y
_atom_site_fract_z
Si Si1 0.475947 0.573915 0.795156
Si Si2 0.027423 0.928505 0.732048
Si Si3 0.152421 0.570154 0.060924
Si Si4 0.147196 0.413935 0.820704
Si Si5 0.326259 0.416094 0.601947
Si Si6 0.550836 0.568865 0.298338
Si Si7 0.142083 0.074099 0.447135
Si Si8 0.187503 0.068829 0.536463
O O1 0.459296 0.750000 0.787596
O O2 0.430730 0.469011 0.774147
O O3 0.669130 0.540653 0.694531
O O4 0.347756 0.536305 0.922809
O O5 0.996638 0.750000 0.745191
O O6 0.209394 0.966085 0.643709
O O7 0.037856 0.004794 0.667895
O O8 0.878743 0.995765 0.862567
O O9 0.113135 0.750000 0.090940
O O10 0.026433 0.502067 0.092942
O O11 0.092724 0.250000 0.879346
O O12 0.260569 0.383170 0.699952
O O13 0.273839 0.498638 0.783320
O O14 0.500000 0.500000 0.500000
O O15 0.339913 0.250000 0.564434
O O16 0.540174 0.750000 0.313786
O O17 0.378940 0.494457 0.430400
O O18 0.099318 0.250000 0.474333
O O19 0.136443 0.011633 0.510122
O O20 0.000000 0.000000 0.500000
O O21 0.194126 0.250000 0.535738
#
# Coordination Sequence:
#
# PCOD8068780 Si02
#       8
#     4   4   4   4   4   4   4   4
#     4   9  19  35  53  74 101 135 172 205 249 311
#     4  11  21  32  48  73 102 132 171 216 259 304
#     4   9  18  35  53  67  95 141 182 214 250 296
#     4   8  16  28  42  63  92 129 172 212 249 289
#     4  10  18  29  44  63  92 132 176 220 264 306
#     4  10  18  29  47  73 103 132 169 219 265 299
#     4   9  19  35  57  84 107 127 156 198 250 310
#     4  10  20  35  53  75 103 135 171 206 251 310
#
# _framework density 18.342323
#
# number of rings (size 3 to 8) (size 9 to 14) (size 15 to 20)
#    0.000    2.500    0.000    4.500    0.000    4.500 
#    0.000    5.625    0.000    0.750    0.000    0.000 
#    0.000    0.000    0.000    0.000    0.000    0.000 
#
# Total GULP energy -396423.040109 kJ/mol
# GULP energy per Si atom -12388.220003 kJ/mol
# Density = 1.830057 g / cm^3
# Si number density = 18.342323 Si / 1000 Ang^3
#
#
#
# Elastic Constant Matrix: (Units=GPa)
#
#
# Indices 1 2 3 4 5 6 
#
# 1 86.2237 23.7369 61.4095 0.0000 -5.1859 0.0000
# 2 23.7369 67.3715 38.5484 0.0000 2.8815 0.0000
# 3 61.4095 38.5484 122.8596 0.0000 3.9008 0.0000
# 4 0.0000 0.0000 0.0000 23.6952 0.0000 4.6231
# 5 -5.1859 2.8815 3.9008 0.0000 21.6098 0.0000
# 6 0.0000 0.0000 0.0000 4.6231 0.0000 18.8116
#
#
#
# Elastic Compliance Matrix: (Units=1/GPa)
#
#
# Indices 1 2 3 4 5 6 
#
# 1 0.018974 -0.001727 -0.009147 0.000000 0.006435 0.000000
# 2 -0.001727 0.018290 -0.004812 0.000000 -0.001985 0.000000
# 3 -0.009147 -0.004812 0.014353 0.000000 -0.004144 0.000000
# 4 0.000000 0.000000 0.000000 0.044328 0.000000 -0.010894
# 5 0.006435 -0.001985 -0.004144 0.000000 0.048832 0.000000
# 6 0.000000 0.000000 0.000000 -0.010894 0.000000 0.055836
#
#
# Mechanical properties :
#
#
# Convention : Reuss Voigt Hill
#
# Bulk Modulus (GPa) = 49.39461 58.20494 53.79978
# Shear Modulus (GPa) = 20.94382 23.00731 21.97557
#
# Velocity S-wave (km/s) = 3.38276 3.54549 3.46508
# Velocity P-wave (km/s) = 6.49963 6.96866 6.73823
#
# Compressibility (1/GPa) = 0.02024512
#
# Stress axis : x y z
#
# Youngs Moduli (GPa) = 52.70240 54.67474 69.67358
#
# Poissons Ratio (x) = 0.09443 0.63727
# Poissons Ratio (y) = 0.09102 0.33530
# Poissons Ratio (z) = 0.48204 0.26312
#
# Static dielectric constant tensor:
#      x y z
#    x 3.328590 0.000000 0.095390 
#    y 0.000000 3.211370 0.000000 
#    z 0.095390 0.000000 3.425550 
# 
# 
# High freq. dielectric constant tensor:
#      x y z
#    x 1.684940 0.000000 0.008910 
#    y 0.000000 1.700990 0.000000 
#    z 0.008910 0.000000 1.707480 
# 
# From -- ./inp_files/61768.got.cif
#   From: 2010.06.25/outbox.cif.g09.slc.cpg/sg11_31_cif.got.tgz:61768.got - 2010.06.27 23:14:04.
