data_PCOD8068856
_publ_section_title
;
Structure prediction by ZEFSAII (Michael W. Deem and Ramdas Pophale) SiO2 
 PCOD8068856
Probable space group: P 21/M
;
_chemical_formula_sum "Si O2"
_cell_formula_units_Z 32
_cell_length_a 11.690968
_cell_length_b 9.075237
_cell_length_c 18.054247
_cell_angle_alpha 90.000000
_cell_angle_beta 89.276031
_cell_angle_gamma 90.000000
_cell_volume 1915.372097
_symmetry_space_group_name_H-M "P 21/M"
_symmetry_group_IT_number 11
_symmetry_cell_setting 'monoclinic'
loop_
_space_group_symop_operation_xyz
x,y,z
-x,1/2+y,-z
-x,-y,-z
x,1/2-y,z
loop_
_atom_site_type_symbol
_atom_site_label
_atom_site_fract_x
_atom_site_fract_y
_atom_site_fract_z
Si Si1 0.860652 0.087392 0.935574
Si Si2 0.737449 0.076156 0.361887
Si Si3 0.494996 0.424906 0.420054
Si Si4 0.883475 0.074869 0.222676
Si Si5 0.131854 0.413474 0.925712
Si Si6 0.722813 0.421036 0.636827
Si Si7 0.119727 0.577715 0.502222
Si Si8 0.122665 0.576613 0.227163
O O1 0.809914 0.250000 0.950325
O O2 0.826281 0.030878 0.853728
O O3 0.997010 0.093818 0.937490
O O4 0.811977 0.981208 0.000090
O O5 0.745605 0.250000 0.366754
O O6 0.606134 0.026547 0.371836
O O7 0.790765 0.021697 0.284081
O O8 0.810019 0.010403 0.429514
O O9 0.500000 0.500000 0.500000
O O10 0.489567 0.250000 0.431891
O O11 0.388320 0.479251 0.372830
O O12 0.893744 0.250000 0.217337
O O13 0.837905 0.013554 0.145004
O O14 0.006564 0.011199 0.245099
O O15 0.182544 0.250000 0.913631
O O16 0.686867 0.250000 0.634326
O O17 0.812661 0.459207 0.572658
O O18 0.780949 0.463582 0.714096
O O19 0.098542 0.750000 0.511631
O O20 0.000000 0.500000 0.500000
O O21 0.091726 0.750000 0.228317
#
# Coordination Sequence:
#
# PCOD8068856 Si02
#       8
#     4   4   4   4   4   4   4   4
#     4   8  14  25  41  63  92 128 162 187 225 283
#     4   9  19  34  49  67  95 126 156 198 244 281
#     4  11  21  37  56  72  92 122 164 208 247 287
#     4  10  18  29  47  69  97 130 162 195 236 288
#     4   9  16  26  41  64  95 127 159 195 234 277
#     4  10  20  35  52  71  98 128 158 200 248 284
#     4  10  19  32  48  68  97 127 156 191 233 284
#     4   9  18  31  47  70 102 131 156 195 241 284
#
# _framework density 16.706937
#
# number of rings (size 3 to 8) (size 9 to 14) (size 15 to 20)
#    0.000    2.500    1.250    2.625    0.000    4.000 
#    0.000    3.125    0.000    0.000    0.000    0.875 
#    0.000    0.000    0.000    0.000    0.000    0.000 
#
# Total GULP energy -396721.844412 kJ/mol
# GULP energy per Si atom -12397.557638 kJ/mol
# Density = 1.666891 g / cm^3
# Si number density = 16.706937 Si / 1000 Ang^3
#
#
#
# Elastic Constant Matrix: (Units=GPa)
#
#
# Indices 1 2 3 4 5 6 
#
# 1 100.0006 46.0249 64.1953 0.0000 4.0794 0.0000
# 2 46.0249 72.3195 55.3366 0.0000 1.4202 0.0000
# 3 64.1953 55.3366 152.6134 0.0000 8.7121 0.0000
# 4 0.0000 0.0000 0.0000 22.7425 0.0000 2.7447
# 5 4.0794 1.4202 8.7121 0.0000 8.6182 0.0000
# 6 0.0000 0.0000 0.0000 2.7447 0.0000 23.0260
#
#
#
# Elastic Compliance Matrix: (Units=1/GPa)
#
#
# Indices 1 2 3 4 5 6 
#
# 1 0.015892 -0.006995 -0.004017 0.000000 -0.002309 0.000000
# 2 -0.006995 0.022353 -0.005456 0.000000 0.005143 0.000000
# 3 -0.004017 -0.005456 0.010677 0.000000 -0.007993 0.000000
# 4 0.000000 0.000000 0.000000 0.044612 0.000000 -0.005318
# 5 -0.002309 0.005143 -0.007993 0.000000 0.124358 0.000000
# 6 0.000000 0.000000 0.000000 -0.005318 0.000000 0.044063
#
#
# Mechanical properties :
#
#
# Convention : Reuss Voigt Hill
#
# Bulk Modulus (GPa) = 62.55489 72.89413 67.72451
# Shear Modulus (GPa) = 16.65441 21.50246 19.07843
#
# Velocity S-wave (km/s) = 3.16073 3.59142 3.38294
# Velocity P-wave (km/s) = 7.13050 7.80535 7.47555
#
# Compressibility (1/GPa) = 0.01598596
#
# Stress axis : x y z
#
# Youngs Moduli (GPa) = 62.92427 44.73608 93.66142
#
# Poissons Ratio (x) = 0.31294 0.37620
# Poissons Ratio (y) = 0.44017 0.51105
# Poissons Ratio (z) = 0.25274 0.24409
#
# Static dielectric constant tensor:
#      x y z
#    x 2.917020 0.000000 0.018630 
#    y 0.000000 3.144900 0.000000 
#    z 0.018630 0.000000 3.384560 
# 
# 
# High freq. dielectric constant tensor:
#      x y z
#    x 1.603490 0.000000 0.002320 
#    y 0.000000 1.640230 0.000000 
#    z 0.002320 0.000000 1.656640 
# 
# From -- ./inp_files/42543.got.cif
#   From: 2010.06.25/outbox.cif.g09.slc.cpg/sg11_22_cif.got.tgz:42543.got - 2010.06.27 23:14:04.
