data_PCOD8068748
_publ_section_title
;
Structure prediction by ZEFSAII (Michael W. Deem and Ramdas Pophale) SiO2 
 PCOD8068748
Probable space group: P 21/M
;
_chemical_formula_sum "Si O2"
_cell_formula_units_Z 32
_cell_length_a 12.437512
_cell_length_b 9.124038
_cell_length_c 15.438619
_cell_angle_alpha 90.000000
_cell_angle_beta 106.784907
_cell_angle_gamma 90.000000
_cell_volume 1677.337575
_symmetry_space_group_name_H-M "P 21/M"
_symmetry_group_IT_number 11
_symmetry_cell_setting 'monoclinic'
loop_
_space_group_symop_operation_xyz
x,y,z
-x,1/2+y,-z
-x,-y,-z
x,1/2-y,z
loop_
_atom_site_type_symbol
_atom_site_label
_atom_site_fract_x
_atom_site_fract_y
_atom_site_fract_z
Si Si1 0.448745 0.916733 0.358442
Si Si2 0.291784 0.415902 0.597748
Si Si3 0.133405 0.425304 0.863212
Si Si4 0.736927 0.919968 0.596132
Si Si5 0.215324 0.420560 0.065372
Si Si6 0.552728 0.581662 0.813926
Si Si7 0.297677 0.578547 0.772141
Si Si8 0.901244 0.924260 0.786977
O O1 0.410616 0.750000 0.349003
O O2 0.580523 0.935730 0.403333
O O3 0.380375 0.996608 0.418004
O O4 0.412939 0.984762 0.259008
O O5 0.270416 0.250000 0.626376
O O6 0.220753 0.448898 0.493299
O O7 0.261763 0.528832 0.666974
O O8 0.129162 0.250000 0.857972
O O9 0.232657 0.482147 0.825866
O O10 0.018530 0.493988 0.803360
O O11 0.158333 0.486215 0.965980
O O12 0.710513 0.750000 0.603563
O O13 0.830116 0.972654 0.686349
O O14 0.191199 0.250000 0.060388
O O15 0.349952 0.450771 0.092737
O O16 0.159158 0.484224 0.139857
O O17 0.556938 0.750000 0.784318
O O18 0.429109 0.544082 0.820895
O O19 0.269662 0.750000 0.775652
O O20 0.920104 0.750000 0.793254
#
# Coordination Sequence:
#
# PCOD8068748 Si02
#       8
#     4   4   4   4   4   4   4   4
#     4  10  18  28  47  80 118 145 173 217 267 321
#     4   9  19  34  53  80 111 144 181 220 268 319
#     4  11  23  38  57  79 108 145 184 229 277 322
#     4  10  19  33  55  79 108 147 182 218 268 325
#     4   9  18  35  59  84 109 141 178 222 276 327
#     4   9  17  34  57  80 109 145 182 218 268 327
#     4  10  21  37  58  81 109 146 186 224 265 322
#     4  10  20  37  59  81 109 142 183 226 267 323
#
# _framework density 19.077853999999999
#
# number of rings (size 3 to 8) (size 9 to 14) (size 15 to 20)
#    0.000    2.250    1.250    1.875    0.000    2.500 
#    0.000    2.500    0.000    0.000    0.000    0.000 
#    0.000    0.000    0.000    0.000    0.000    0.000 
#
# Total GULP energy -396707.131859 kJ/mol
# GULP energy per Si atom -12397.097871 kJ/mol
# Density = 1.903443 g / cm^3
# Si number density = 19.077854 Si / 1000 Ang^3
#
#
#
# Elastic Constant Matrix: (Units=GPa)
#
#
# Indices 1 2 3 4 5 6 
#
# 1 63.1148 19.1989 19.7310 0.0000 -0.2954 0.0000
# 2 19.1989 49.9983 18.9058 0.0000 0.8487 0.0000
# 3 19.7310 18.9058 75.7161 0.0000 12.3763 0.0000
# 4 0.0000 0.0000 0.0000 23.4635 0.0000 -3.6523
# 5 -0.2954 0.8487 12.3763 0.0000 20.5299 0.0000
# 6 0.0000 0.0000 0.0000 -3.6523 0.0000 28.7052
#
#
#
# Elastic Compliance Matrix: (Units=1/GPa)
#
#
# Indices 1 2 3 4 5 6 
#
# 1 0.018852 -0.005800 -0.003936 0.000000 0.002884 0.000000
# 2 -0.005800 0.024003 -0.004777 0.000000 0.001804 0.000000
# 3 -0.003936 -0.004777 0.017086 0.000000 -0.010160 0.000000
# 4 0.000000 0.000000 0.000000 0.043481 0.000000 0.005532
# 5 0.002884 0.001804 -0.010160 0.000000 0.054801 0.000000
# 6 0.000000 0.000000 0.000000 0.005532 0.000000 0.035541
#
#
# Mechanical properties :
#
#
# Convention : Reuss Voigt Hill
#
# Bulk Modulus (GPa) = 32.34509 33.83342 33.08926
# Shear Modulus (GPa) = 21.45041 23.27260 22.36151
#
# Velocity S-wave (km/s) = 3.35679 3.49646 3.42734
# Velocity P-wave (km/s) = 5.65819 5.83723 5.74840
#
# Compressibility (1/GPa) = 0.03091659
#
# Stress axis : x y z
#
# Youngs Moduli (GPa) = 53.04379 41.66073 58.52617
#
# Poissons Ratio (x) = 0.24162 0.23036
# Poissons Ratio (y) = 0.30764 0.27958
# Poissons Ratio (z) = 0.20878 0.19901
#
# Static dielectric constant tensor:
#      x y z
#    x 3.367200 0.000000 0.109170 
#    y 0.000000 3.385020 0.000000 
#    z 0.109170 0.000000 3.717000 
# 
# 
# High freq. dielectric constant tensor:
#      x y z
#    x 1.727270 0.000000 0.007270 
#    y 0.000000 1.729780 0.000000 
#    z 0.007270 0.000000 1.745850 
# 
# From -- ./inp_files/49360.got.cif
#   From: 2010.06.25/outbox.cif.g09.slc.cpg/sg11_25_cif.got.tgz:49360.got - 2010.06.27 23:14:04.
