data_PCOD8068266
_publ_section_title
;
Structure prediction by ZEFSAII (Michael W. Deem and Ramdas Pophale) SiO2 
 PCOD8068266
Probable space group: P 21/M
;
_chemical_formula_sum "Si O2"
_cell_formula_units_Z 28
_cell_length_a 27.510783
_cell_length_b 9.406624
_cell_length_c 13.664885
_cell_angle_alpha 90.000000
_cell_angle_beta 30.247265
_cell_angle_gamma 90.000000
_cell_volume 1781.323909
_symmetry_space_group_name_H-M "P 21/M"
_symmetry_group_IT_number 11
_symmetry_cell_setting 'monoclinic'
loop_
_space_group_symop_operation_xyz
x,y,z
-x,1/2+y,-z
-x,-y,-z
x,1/2-y,z
loop_
_atom_site_type_symbol
_atom_site_label
_atom_site_fract_x
_atom_site_fract_y
_atom_site_fract_z
Si Si1 0.219335 0.916233 0.823325
Si Si2 0.604119 0.412857 0.221445
Si Si3 0.106387 0.918062 0.208066
Si Si4 0.972000 0.084426 0.953262
Si Si5 0.918088 0.582935 0.432932
Si Si6 0.385887 0.085382 0.599205
Si Si7 0.787313 0.415651 0.785055
O O1 0.244911 0.750000 0.776149
O O2 0.317204 0.007692 0.638678
O O3 0.179869 0.968656 0.996696
O O4 0.138504 0.952584 0.882828
O O5 0.621693 0.250000 0.226115
O O6 0.625919 0.514922 0.273981
O O7 0.495610 0.433642 0.370886
O O8 0.676320 0.448540 0.006200
O O9 0.104935 0.750000 0.205696
O O10 0.144442 0.972725 0.245656
O O11 0.998792 0.971872 0.370347
O O12 0.981498 0.250000 0.959146
O O13 0.045717 0.042047 0.738328
O O14 0.000000 0.000000 0.000000
O O15 0.899545 0.750000 0.473223
O O16 0.818874 0.501341 0.632729
O O17 0.357348 0.250000 0.657073
O O18 0.803292 0.250000 0.736974
#
# Coordination Sequence:
#
# PCOD8068266 Si02
#       7
#     4   4   4   4   4   4   4
#     4   9  16  30  48  64  89 124 150 178 226 275
#     4   9  18  30  42  58  90 128 157 186 223 262
#     4   8  14  26  42  58  84 121 152 173 208 258
#     4   9  19  34  52  70  91 117 145 182 231 276
#     4   9  18  30  43  63  89 115 145 184 222 261
#     4  10  18  27  42  66  89 117 158 196 222 252
#     4  10  17  27  43  61  85 124 157 178 211 259
#
# _framework density 15.718646
#
# number of rings (size 3 to 8) (size 9 to 14) (size 15 to 20)
#    0.000    2.857    1.429    2.571    0.000    2.286 
#    0.000    2.143    0.000    0.000    0.000    1.000 
#    0.000    0.000    0.000    0.000    0.000    0.000 
#
# Total GULP energy -347018.450767 kJ/mol
# GULP energy per Si atom -12393.516099 kJ/mol
# Density = 1.568287 g / cm^3
# Si number density = 15.718646 Si / 1000 Ang^3
#
#
#
# Elastic Constant Matrix: (Units=GPa)
#
#
# Indices 1 2 3 4 5 6 
#
# 1 78.1497 48.2430 53.9307 0.0000 -4.9081 0.0000
# 2 48.2430 68.9947 55.5586 0.0000 -6.8079 0.0000
# 3 53.9307 55.5586 115.4965 0.0000 -9.1295 0.0000
# 4 0.0000 0.0000 0.0000 27.5338 0.0000 -0.8068
# 5 -4.9081 -6.8079 -9.1295 0.0000 15.9336 0.0000
# 6 0.0000 0.0000 0.0000 -0.8068 0.0000 25.6461
#
#
#
# Elastic Compliance Matrix: (Units=1/GPa)
#
#
# Indices 1 2 3 4 5 6 
#
# 1 0.024286 -0.012871 -0.005229 0.000000 -0.001014 0.000000
# 2 -0.012871 0.030696 -0.008414 0.000000 0.004330 0.000000
# 3 -0.005229 -0.008414 0.015435 0.000000 0.003638 0.000000
# 4 0.000000 0.000000 0.000000 0.036353 0.000000 0.001144
# 5 -0.001014 0.004330 0.003638 0.000000 0.066383 0.000000
# 6 0.000000 0.000000 0.000000 0.001144 0.000000 0.039028
#
#
# Mechanical properties :
#
#
# Convention : Reuss Voigt Hill
#
# Bulk Modulus (GPa) = 57.50564 64.23396 60.86980
# Shear Modulus (GPa) = 18.44984 20.81660 19.63322
#
# Velocity S-wave (km/s) = 3.42973 3.64308 3.53801
# Velocity P-wave (km/s) = 7.23518 7.65830 7.44974
#
# Compressibility (1/GPa) = 0.01738960
#
# Stress axis : x y z
#
# Youngs Moduli (GPa) = 41.17559 32.57743 64.78801
#
# Poissons Ratio (x) = 0.41930 0.33878
# Poissons Ratio (y) = 0.52997 0.54511
# Poissons Ratio (z) = 0.21531 0.27410
#
# Static dielectric constant tensor:
#      x y z
#    x 2.805190 0.000000 -0.217790 
#    y 0.000000 2.854250 0.000000 
#    z -0.217790 0.000000 3.095540 
# 
# 
# High freq. dielectric constant tensor:
#      x y z
#    x 1.563610 0.000000 -0.017000 
#    y 0.000000 1.595680 0.000000 
#    z -0.017000 0.000000 1.603060 
# 
# From -- ./inp_files/51020.got.cif
#   From: 2010.06.25/outbox.cif.g09.slc.cpg/sg11_26_cif.got.tgz:51020.got - 2010.06.27 23:14:04.
