data_PCOD8068427
_publ_section_title
;
Structure prediction by ZEFSAII (Michael W. Deem and Ramdas Pophale) SiO2 
 PCOD8068427
Probable space group: P 21/M
;
_chemical_formula_sum "Si O2"
_cell_formula_units_Z 32
_cell_length_a 9.206146
_cell_length_b 12.750448
_cell_length_c 20.358558
_cell_angle_alpha 90.000000
_cell_angle_beta 45.233898
_cell_angle_gamma 90.000000
_cell_volume 1696.684203
_symmetry_space_group_name_H-M "P 21/M"
_symmetry_group_IT_number 11
_symmetry_cell_setting 'monoclinic'
loop_
_space_group_symop_operation_xyz
x,y,z
-x,1/2+y,-z
-x,-y,-z
x,1/2-y,z
loop_
_atom_site_type_symbol
_atom_site_label
_atom_site_fract_x
_atom_site_fract_y
_atom_site_fract_z
Si Si1 0.302209 0.133072 0.392735
Si Si2 0.878832 0.508066 0.220006
Si Si3 0.510469 0.022598 0.573811
Si Si4 0.662808 0.373618 0.180243
Si Si5 0.709980 0.127821 0.904345
Si Si6 0.916905 0.127585 0.446775
Si Si7 0.939697 0.633803 0.733570
Si Si8 0.512448 0.939581 0.894603
O O1 0.270088 0.250000 0.426521
O O2 0.439994 0.123938 0.283893
O O3 0.079912 0.081224 0.447686
O O4 0.412014 0.084988 0.420334
O O5 0.697487 0.557414 0.323049
O O6 0.810168 0.453047 0.173939
O O7 0.053735 0.596448 0.155742
O O8 0.978745 0.412868 0.225887
O O9 0.680353 0.109197 0.539167
O O10 0.500000 0.000000 0.500000
O O11 0.738551 0.250000 0.152270
O O12 0.651721 0.430672 0.112387
O O13 0.701695 0.250000 0.885504
O O14 0.602544 0.057014 0.881156
O O15 0.583650 0.111212 0.010528
O O16 0.965794 0.250000 0.427175
O O17 0.968258 0.074680 0.359692
O O18 0.026532 0.750000 0.704618
O O19 0.695417 0.633873 0.811820
#
# Coordination Sequence:
#
# PCOD8068427 Si02
#       8
#     4   4   4   4   4   4   4   4
#     4   9  19  34  54  80 106 135 179 236 282 321
#     4  10  22  35  52  79 117 152 184 222 284 342
#     4  11  21  34  51  74 109 149 182 221 268 330
#     4  10  18  33  58  89 116 140 179 237 292 334
#     4  10  22  40  58  82 116 151 190 232 272 336
#     4  10  19  32  52  77 102 136 182 228 273 322
#     4  10  17  31  55  82 106 133 178 233 282 325
#     4  10  20  36  63  86 107 144 190 231 284 334
#
# _framework density 18.860316000000001
#
# number of rings (size 3 to 8) (size 9 to 14) (size 15 to 20)
#    0.000    2.000    2.500    1.875    0.000    2.000 
#    0.000    1.250    0.000    0.750    0.000    0.000 
#    0.000    0.000    0.000    0.000    0.000    0.000 
#
# Total GULP energy -396430.075865 kJ/mol
# GULP energy per Si atom -12388.439871 kJ/mol
# Density = 1.881739 g / cm^3
# Si number density = 18.860316 Si / 1000 Ang^3
#
#
#
# Elastic Constant Matrix: (Units=GPa)
#
#
# Indices 1 2 3 4 5 6 
#
# 1 76.4083 32.4332 15.9729 0.0000 8.7650 0.0000
# 2 32.4332 86.5901 25.6563 0.0000 1.6252 0.0000
# 3 15.9729 25.6563 68.9047 0.0000 -4.1141 0.0000
# 4 0.0000 0.0000 0.0000 22.0204 0.0000 -4.1891
# 5 8.7650 1.6252 -4.1141 0.0000 34.9015 0.0000
# 6 0.0000 0.0000 0.0000 -4.1891 0.0000 19.3715
#
#
#
# Elastic Compliance Matrix: (Units=1/GPa)
#
#
# Indices 1 2 3 4 5 6 
#
# 1 0.016276 -0.005429 -0.001994 0.000000 -0.004070 0.000000
# 2 -0.005429 0.014840 -0.004257 0.000000 0.000171 0.000000
# 3 -0.001994 -0.004257 0.016720 0.000000 0.002670 0.000000
# 4 0.000000 0.000000 0.000000 0.047361 0.000000 0.010242
# 5 -0.004070 0.000171 0.002670 0.000000 0.029981 0.000000
# 6 0.000000 0.000000 0.000000 0.010242 0.000000 0.053837
#
#
# Mechanical properties :
#
#
# Convention : Reuss Voigt Hill
#
# Bulk Modulus (GPa) = 40.85827 42.22533 41.54180
# Shear Modulus (GPa) = 23.74917 25.78140 24.76528
#
# Velocity S-wave (km/s) = 3.55239 3.70126 3.62759
# Velocity P-wave (km/s) = 6.20779 6.37988 6.29442
#
# Compressibility (1/GPa) = 0.02447485
#
# Stress axis : x y z
#
# Youngs Moduli (GPa) = 61.44089 67.38423 59.80991
#
# Poissons Ratio (x) = 0.36582 0.11929
# Poissons Ratio (y) = 0.33356 0.25461
# Poissons Ratio (z) = 0.12254 0.28686
#
# Static dielectric constant tensor:
#      x y z
#    x 3.678650 0.000000 -0.121590 
#    y 0.000000 3.327840 0.000000 
#    z -0.121590 0.000000 3.604400 
# 
# 
# High freq. dielectric constant tensor:
#      x y z
#    x 1.745460 0.000000 -0.002230 
#    y 0.000000 1.710570 0.000000 
#    z -0.002230 0.000000 1.728080 
# 
# From -- ./inp_files/26558.got.cif
#   From: 2010.06.25/outbox.cif.g09.slc.cpg/sg11_14_cif.got.tgz:26558.got - 2010.06.27 23:14:04.
