data_PCOD8068192
_publ_section_title
;
Structure prediction by ZEFSAII (Michael W. Deem and Ramdas Pophale) SiO2 
 PCOD8068192
Probable space group: P 21/M
;
_chemical_formula_sum "Si O2"
_cell_formula_units_Z 32
_cell_length_a 16.356168
_cell_length_b 8.894924
_cell_length_c 14.239259
_cell_angle_alpha 90.000000
_cell_angle_beta 83.507531
_cell_angle_gamma 90.000000
_cell_volume 2058.339342
_symmetry_space_group_name_H-M "P 21/M"
_symmetry_group_IT_number 11
_symmetry_cell_setting 'monoclinic'
loop_
_space_group_symop_operation_xyz
x,y,z
-x,1/2+y,-z
-x,-y,-z
x,1/2-y,z
loop_
_atom_site_type_symbol
_atom_site_label
_atom_site_fract_x
_atom_site_fract_y
_atom_site_fract_z
Si Si1 0.264052 0.428429 0.941590
Si Si2 0.027069 0.583597 0.857455
Si Si3 0.804098 0.428021 0.236072
Si Si4 0.115098 0.583080 0.045569
Si Si5 0.317937 0.073648 0.623231
Si Si6 0.436559 0.927262 0.937544
Si Si7 0.429312 0.076965 0.452458
Si Si8 0.538920 0.424318 0.278534
O O1 0.268871 0.250000 0.935556
O O2 0.245712 0.493665 0.841274
O O3 0.349045 0.496103 0.967355
O O4 0.193966 0.475718 0.025410
O O5 0.998022 0.750000 0.831943
O O6 0.099186 0.525650 0.777975
O O7 0.946865 0.477667 0.865673
O O8 0.066479 0.587756 0.954947
O O9 0.794901 0.250000 0.223824
O O10 0.764984 0.483546 0.339095
O O11 0.144071 0.750000 0.070565
O O12 0.300671 0.250000 0.637036
O O13 0.341808 0.028532 0.511232
O O14 0.391317 0.026980 0.683910
O O15 0.429166 0.750000 0.955863
O O16 0.469618 0.964717 0.829098
O O17 0.500000 0.000000 0.000000
O O18 0.438376 0.250000 0.474598
O O19 0.448486 0.045188 0.339552
O O20 0.500000 0.000000 0.500000
O O21 0.564868 0.250000 0.288731
#
# Coordination Sequence:
#
# PCOD8068192 Si02
#       8
#     4   4   4   4   4   4   4   4
#     4  11  20  30  44  59  77 103 137 174 210 247
#     4   8  15  25  36  53  76 104 136 167 196 233
#     4  10  18  27  39  56  82 112 140 168 203 243
#     4   9  16  26  40  56  76 101 132 167 203 243
#     4  10  17  24  39  61  83 105 136 171 202 241
#     4  11  22  34  47  62  81 106 139 178 218 254
#     4   8  15  26  39  58  78 101 132 166 202 242
#     4   9  17  30  45  56  76 106 135 169 210 250
#
# _framework density 15.546514
#
# number of rings (size 3 to 8) (size 9 to 14) (size 15 to 20)
#    0.000    2.500    1.250    3.375    0.000    4.500 
#    0.000    0.000    0.000    0.000    0.000    0.000 
#    0.000    0.000    0.000    1.125    0.000   13.000 
#
# Total GULP energy -396456.428711 kJ/mol
# GULP energy per Si atom -12389.263397 kJ/mol
# Density = 1.551113 g / cm^3
# Si number density = 15.546514 Si / 1000 Ang^3
#
#
#
# Elastic Constant Matrix: (Units=GPa)
#
#
# Indices 1 2 3 4 5 6 
#
# 1 89.1932 42.0067 48.1261 0.0000 -35.3377 0.0000
# 2 42.0067 83.0680 27.1375 0.0000 -15.8282 0.0000
# 3 48.1261 27.1375 61.7930 0.0000 -28.5841 0.0000
# 4 0.0000 0.0000 0.0000 15.6304 0.0000 -6.8019
# 5 -35.3377 -15.8282 -28.5841 0.0000 32.4108 0.0000
# 6 0.0000 0.0000 0.0000 -6.8019 0.0000 25.7904
#
#
#
# Elastic Compliance Matrix: (Units=1/GPa)
#
#
# Indices 1 2 3 4 5 6 
#
# 1 0.026400 -0.006971 -0.009728 0.000000 0.016800 0.000000
# 2 -0.006971 0.016007 -0.002534 0.000000 -0.002018 0.000000
# 3 -0.009728 -0.002534 0.032757 0.000000 0.017046 0.000000
# 4 0.000000 0.000000 0.000000 0.072273 0.000000 0.019061
# 5 0.016800 -0.002018 0.017046 0.000000 0.063218 0.000000
# 6 0.000000 0.000000 0.000000 0.019061 0.000000 0.043801
#
#
# Mechanical properties :
#
#
# Convention : Reuss Voigt Hill
#
# Bulk Modulus (GPa) = 27.24971 52.06607 39.65789
# Shear Modulus (GPa) = 16.38513 22.55193 19.46853
#
# Velocity S-wave (km/s) = 3.24997 3.81282 3.54259
# Velocity P-wave (km/s) = 5.62574 7.27645 6.50368
#
# Compressibility (1/GPa) = 0.03669764
#
# Stress axis : x y z
#
# Youngs Moduli (GPa) = 37.87942 62.47377 30.52737
#
# Poissons Ratio (x) = 0.43549 0.29697
# Poissons Ratio (y) = 0.26405 0.07736
# Poissons Ratio (z) = 0.36849 0.15832
#
# Static dielectric constant tensor:
#      x y z
#    x 3.058770 0.000000 -0.673480 
#    y 0.000000 3.106420 0.000000 
#    z -0.673480 0.000000 3.037660 
# 
# 
# High freq. dielectric constant tensor:
#      x y z
#    x 1.573980 0.000000 -0.058750 
#    y 0.000000 1.610890 0.000000 
#    z -0.058750 0.000000 1.554260 
# 
# From -- ./inp_files/51328.got.cif
#   From: 2010.06.25/outbox.cif.g09.slc.cpg/sg11_26_cif.got.tgz:51328.got - 2010.06.27 23:14:04.
