data_PCOD8068695
_publ_section_title
;
Structure prediction by ZEFSAII (Michael W. Deem and Ramdas Pophale) SiO2 
 PCOD8068695
Probable space group: P 21/M
;
_chemical_formula_sum "Si O2"
_cell_formula_units_Z 32
_cell_length_a 10.153143
_cell_length_b 14.701763
_cell_length_c 14.870538
_cell_angle_alpha 90.000000
_cell_angle_beta 121.405622
_cell_angle_gamma 90.000000
_cell_volume 1894.523337
_symmetry_space_group_name_H-M "P 21/M"
_symmetry_group_IT_number 11
_symmetry_cell_setting 'monoclinic'
loop_
_space_group_symop_operation_xyz
x,y,z
-x,1/2+y,-z
-x,-y,-z
x,1/2-y,z
loop_
_atom_site_type_symbol
_atom_site_label
_atom_site_fract_x
_atom_site_fract_y
_atom_site_fract_z
Si Si1 0.059901 0.486733 0.922047
Si Si2 0.103976 0.489691 0.403207
Si Si3 0.946059 0.353927 0.737290
Si Si4 0.960489 0.356026 0.222591
Si Si5 0.285884 0.346832 0.786435
Si Si6 0.768964 0.992596 0.367011
Si Si7 0.397223 0.077095 0.004536
Si Si8 0.650654 0.351609 0.219769
O O1 0.968623 0.403067 0.841927
O O2 0.030003 0.583408 0.863299
O O3 0.240388 0.463495 0.988876
O O4 0.000000 0.500000 0.000000
O O5 0.232338 0.472866 0.526380
O O6 0.156355 0.577332 0.361282
O O7 0.084208 0.397747 0.337356
O O8 0.942172 0.509867 0.393019
O O9 0.878623 0.250000 0.723953
O O10 0.105679 0.349561 0.742005
O O11 0.000541 0.250000 0.218178
O O12 0.786415 0.368022 0.196057
O O13 0.334100 0.250000 0.762490
O O14 0.330413 0.419832 0.726007
O O15 0.370799 0.356228 0.911644
O O16 0.683165 0.087898 0.319207
O O17 0.486234 0.128212 0.115992
O O18 0.500000 0.000000 0.000000
O O19 0.651083 0.250000 0.256895
#
# Coordination Sequence:
#
# PCOD8068695 Si02
#       8
#     4   4   4   4   4   4   4   4
#     4  10  20  32  48  71  96 123 157 195 232 271
#     4   8  15  25  40  61  91 126 153 185 239 280
#     4   8  15  28  44  61  86 119 155 188 224 272
#     4   9  17  30  45  66  94 126 160 194 235 284
#     4   9  16  25  40  62  88 121 156 187 224 269
#     4   9  15  25  38  62  95 121 152 196 230 275
#     4  11  17  31  48  64  95 128 154 185 230 280
#     4  10  18  28  45  68  94 127 160 193 235 281
#
# _framework density 16.890791
#
# number of rings (size 3 to 8) (size 9 to 14) (size 15 to 20)
#    0.000    2.750    2.500    1.875    0.000    2.000 
#    0.000    5.000    0.000    0.000    0.000    3.500 
#    0.000    2.000    0.000    0.000    0.000    0.000 
#
# Total GULP energy -396455.231972 kJ/mol
# GULP energy per Si atom -12389.225999 kJ/mol
# Density = 1.685235 g / cm^3
# Si number density = 16.890791 Si / 1000 Ang^3
#
#
#
# Elastic Constant Matrix: (Units=GPa)
#
#
# Indices 1 2 3 4 5 6 
#
# 1 31.1068 25.5629 34.4289 0.0000 -9.1098 0.0000
# 2 25.5629 144.7368 67.6222 0.0000 -12.0332 0.0000
# 3 34.4289 67.6222 134.5997 0.0000 -7.2535 0.0000
# 4 0.0000 0.0000 0.0000 15.9155 0.0000 1.3836
# 5 -9.1098 -12.0332 -7.2535 0.0000 15.0112 0.0000
# 6 0.0000 0.0000 0.0000 1.3836 0.0000 9.9967
#
#
#
# Elastic Compliance Matrix: (Units=1/GPa)
#
#
# Indices 1 2 3 4 5 6 
#
# 1 0.053932 -0.002089 -0.011368 0.000000 0.025562 0.000000
# 2 -0.002089 0.009519 -0.004010 0.000000 0.004426 0.000000
# 3 -0.011368 -0.004010 0.012122 0.000000 -0.004256 0.000000
# 4 0.000000 0.000000 0.000000 0.063597 0.000000 -0.008802
# 5 0.025562 0.004426 -0.004256 0.000000 0.083621 0.000000
# 6 0.000000 0.000000 0.000000 -0.008802 0.000000 0.101252
#
#
# Mechanical properties :
#
#
# Convention : Reuss Voigt Hill
#
# Bulk Modulus (GPa) = 24.60608 62.85235 43.72921
# Shear Modulus (GPa) = 13.42198 20.37331 16.89765
#
# Velocity S-wave (km/s) = 2.82198 3.47678 3.16635
# Velocity P-wave (km/s) = 5.02170 7.30815 6.27003
#
# Compressibility (1/GPa) = 0.04064036
#
# Stress axis : x y z
#
# Youngs Moduli (GPa) = 18.54186 105.04983 82.49199
#
# Poissons Ratio (x) = 0.21943 0.93779
# Poissons Ratio (y) = 0.03873 0.33077
# Poissons Ratio (z) = 0.21079 0.42121
#
# Static dielectric constant tensor:
#      x y z
#    x 2.136420 0.000000 -0.637610 
#    y 0.000000 3.196700 0.000000 
#    z -0.637610 0.000000 2.199230 
# 
# 
# High freq. dielectric constant tensor:
#      x y z
#    x 1.574350 0.000000 0.001630 
#    y 0.000000 1.666050 0.000000 
#    z 0.001630 0.000000 1.656830 
# 
# From -- ./inp_files/35499.got.cif
#   From: 2010.06.25/outbox.cif.g09.slc.cpg/sg11_18_cif.got.tgz:35499.got - 2010.06.27 23:14:04.
