data_PCOD8068457
_publ_section_title
;
Structure prediction by ZEFSAII (Michael W. Deem and Ramdas Pophale) SiO2 
 PCOD8068457
Probable space group: P 21/M
;
_chemical_formula_sum "Si O2"
_cell_formula_units_Z 26
_cell_length_a 13.239167
_cell_length_b 18.709397
_cell_length_c 10.844084
_cell_angle_alpha 90.000000
_cell_angle_beta 33.215896
_cell_angle_gamma 90.000000
_cell_volume 1471.403102
_symmetry_space_group_name_H-M "P 21/M"
_symmetry_group_IT_number 11
_symmetry_cell_setting 'monoclinic'
loop_
_space_group_symop_operation_xyz
x,y,z
-x,1/2+y,-z
-x,-y,-z
x,1/2-y,z
loop_
_atom_site_type_symbol
_atom_site_label
_atom_site_fract_x
_atom_site_fract_y
_atom_site_fract_z
Si Si1 0.804660 0.250000 0.029962
Si Si2 0.015584 0.100883 0.567109
Si Si3 0.909396 0.750000 0.464491
Si Si4 0.672023 0.595775 0.379569
Si Si5 0.942598 0.399944 0.926703
Si Si6 0.699333 0.001019 0.856222
Si Si7 0.617779 0.501303 0.217575
Si Si8 0.382523 0.250000 0.458341
O O1 0.864580 0.321201 0.042787
O O2 0.898674 0.250000 0.802281
O O3 0.593682 0.250000 0.205626
O O4 0.079293 0.180166 0.459753
O O5 0.027312 0.098586 0.702760
O O6 0.805755 0.078003 0.742953
O O7 0.168167 0.051515 0.351076
O O8 0.738353 0.750000 0.542967
O O9 0.592062 0.572671 0.326930
O O10 0.565193 0.548529 0.592573
O O11 0.653764 0.680223 0.421664
O O12 0.889334 0.578379 0.156938
O O13 0.780815 0.455789 0.112980
O O14 0.500000 0.000000 0.000000
O O15 0.670212 0.975805 0.026340
#
# Coordination Sequence:
#
# PCOD8068457 Si02
#       8
#     2   4   2   4   4   4   4   2
#     4  10  18  28  50  79 105 135 175 212 265 313
#     4   9  19  33  54  81 105 134 181 223 268 320
#     4  10  20  34  55  83 107 134 177 231 272 319
#     4  11  20  34  52  80 108 143 172 220 268 323
#     4  10  17  33  52  78 108 135 171 222 268 317
#     4  10  20  35  55  77 109 146 179 225 268 316
#     4  10  22  33  52  80 109 140 182 217 265 320
#     4  12  20  32  57  76 114 141 172 223 275 314
#
# _framework density 17.670209
#
# number of rings (size 3 to 8) (size 9 to 14) (size 15 to 20)
#    0.000    1.846    4.615    1.385    0.000    0.000 
#    0.000    0.769    0.000    0.000    0.000    0.000 
#    0.000    0.000    0.000    0.000    0.000    0.000 
#
# Total GULP energy -322168.554851 kJ/mol
# GULP energy per Si atom -12391.098264 kJ/mol
# Density = 1.762999 g / cm^3
# Si number density = 17.670209 Si / 1000 Ang^3
#
#
#
# Elastic Constant Matrix: (Units=GPa)
#
#
# Indices 1 2 3 4 5 6 
#
# 1 76.5661 48.6309 38.2044 0.0000 -23.4589 0.0000
# 2 48.6309 107.1189 22.0756 0.0000 -10.0080 0.0000
# 3 38.2044 22.0756 80.4004 0.0000 -25.2577 0.0000
# 4 0.0000 0.0000 0.0000 24.2376 0.0000 0.2107
# 5 -23.4589 -10.0080 -25.2577 0.0000 36.0972 0.0000
# 6 0.0000 0.0000 0.0000 0.2107 0.0000 22.8361
#
#
#
# Elastic Compliance Matrix: (Units=1/GPa)
#
#
# Indices 1 2 3 4 5 6 
#
# 1 0.024851 -0.009102 -0.006446 0.000000 0.009117 0.000000
# 2 -0.009102 0.013262 -0.000025 0.000000 -0.002256 0.000000
# 3 -0.006446 -0.000025 0.018187 0.000000 0.008530 0.000000
# 4 0.000000 0.000000 0.000000 0.041261 0.000000 -0.000381
# 5 0.009117 -0.002256 0.008530 0.000000 0.038971 0.000000
# 6 0.000000 0.000000 0.000000 -0.000381 0.000000 0.043794
#
#
# Mechanical properties :
#
#
# Convention : Reuss Voigt Hill
#
# Bulk Modulus (GPa) = 39.75329 53.54527 46.64928
# Shear Modulus (GPa) = 22.74208 26.97914 24.86061
#
# Velocity S-wave (km/s) = 3.59141 3.91169 3.75497
# Velocity P-wave (km/s) = 6.30427 7.12531 6.72733
#
# Compressibility (1/GPa) = 0.02515515
#
# Stress axis : x y z
#
# Youngs Moduli (GPa) = 40.23949 75.40301 54.98424
#
# Poissons Ratio (x) = 0.68633 0.35440
# Poissons Ratio (y) = 0.36626 0.00137
# Poissons Ratio (z) = 0.25937 0.00188
#
# Static dielectric constant tensor:
#      x y z
#    x 3.083860 0.000000 -0.275460 
#    y 0.000000 3.754800 0.000000 
#    z -0.275460 0.000000 3.411060 
# 
# 
# High freq. dielectric constant tensor:
#      x y z
#    x 1.654230 0.000000 -0.026700 
#    y 0.000000 1.686280 0.000000 
#    z -0.026700 0.000000 1.692950 
# 
# From -- ./inp_files/39838.got.cif
#   From: 2010.06.25/outbox.cif.g09.slc.cpg/sg11_20_cif.got.tgz:39838.got - 2010.06.27 23:14:04.
