data_PCOD8068275
_publ_section_title
;
Structure prediction by ZEFSAII (Michael W. Deem and Ramdas Pophale) SiO2 
 PCOD8068275
Probable space group: P 21/M
;
_chemical_formula_sum "Si O2"
_cell_formula_units_Z 20
_cell_length_a 9.825777
_cell_length_b 9.071613
_cell_length_c 27.796259
_cell_angle_alpha 90.000000
_cell_angle_beta 27.904748
_cell_angle_gamma 90.000000
_cell_volume 1159.541910
_symmetry_space_group_name_H-M "P 21/M"
_symmetry_group_IT_number 11
_symmetry_cell_setting 'monoclinic'
loop_
_space_group_symop_operation_xyz
x,y,z
-x,1/2+y,-z
-x,-y,-z
x,1/2-y,z
loop_
_atom_site_type_symbol
_atom_site_label
_atom_site_fract_x
_atom_site_fract_y
_atom_site_fract_z
Si Si1 0.273531 0.925313 0.390588
Si Si2 0.103626 0.075799 0.774088
Si Si3 0.105697 0.923739 0.057723
Si Si4 0.474087 0.575799 0.225905
Si Si5 0.650969 0.425501 0.839612
O O1 0.240425 0.750000 0.403830
O O2 0.563761 0.981167 0.327931
O O3 0.296607 0.981168 0.327925
O O4 0.000000 0.000000 0.500000
O O5 0.118145 0.250000 0.769554
O O6 0.923973 0.027089 0.877365
O O7 0.937305 0.016878 0.778528
O O8 0.164136 0.750000 0.034346
O O9 0.810817 0.972914 0.122630
O O10 0.366156 0.012924 0.953542
O O11 0.465937 0.750000 0.230439
O O12 0.329974 0.516875 0.221463
O O13 0.630788 0.250000 0.847684
#
# Coordination Sequence:
#
# PCOD8068275 Si02
#       5
#     4   4   4   4   4
#     4   9  17  33  51  64  80 109 144 179 216 258
#     4   8  16  29  45  63  87 116 144 170 209 258
#     4   9  16  28  43  62  90 122 144 167 205 248
#     4   8  16  29  45  63  87 116 144 170 209 258
#     4  10  17  27  44  66  88 115 146 174 202 246
#
# _framework density 17.248192
#
# number of rings (size 3 to 8) (size 9 to 14) (size 15 to 20)
#    0.000    3.200    0.000    3.600    0.000    0.000 
#    0.000    7.000    0.000    0.000    0.000    0.000 
#    0.000    0.000    0.000    0.000    0.000    0.000 
#
# Total GULP energy -247835.629525 kJ/mol
# GULP energy per Si atom -12391.781476 kJ/mol
# Density = 1.720893 g / cm^3
# Si number density = 17.248192 Si / 1000 Ang^3
#
#
#
# Elastic Constant Matrix: (Units=GPa)
#
#
# Indices 1 2 3 4 5 6 
#
# 1 188.9944 23.3320 88.2947 0.0000 -2.8160 0.0000
# 2 23.3320 16.1432 22.9536 0.0000 -0.0147 0.0000
# 3 88.2947 22.9536 144.1307 0.0000 1.2355 0.0000
# 4 0.0000 0.0000 0.0000 30.6596 0.0000 0.6739
# 5 -2.8160 -0.0147 1.2355 0.0000 10.1500 0.0000
# 6 0.0000 0.0000 0.0000 0.6739 0.0000 11.2850
#
#
#
# Elastic Compliance Matrix: (Units=1/GPa)
#
#
# Indices 1 2 3 4 5 6 
#
# 1 0.007882 -0.005806 -0.003927 0.000000 0.002656 0.000000
# 2 -0.005806 0.084384 -0.009879 0.000000 -0.000286 0.000000
# 3 -0.003927 -0.009879 0.010938 0.000000 -0.002435 0.000000
# 4 0.000000 0.000000 0.000000 0.032659 0.000000 -0.001950
# 5 0.002656 -0.000286 -0.002435 0.000000 0.099555 0.000000
# 6 0.000000 0.000000 0.000000 -0.001950 0.000000 0.088730
#
#
# Mechanical properties :
#
#
# Convention : Reuss Voigt Hill
#
# Bulk Modulus (GPa) = 15.62993 68.71431 42.17212
# Shear Modulus (GPa) = 12.99715 24.73144 18.86429
#
# Velocity S-wave (km/s) = 2.74804 3.79074 3.31070
# Velocity P-wave (km/s) = 4.37612 7.68665 6.25440
#
# Compressibility (1/GPa) = 0.06397982
#
# Stress axis : x y z
#
# Youngs Moduli (GPa) = 126.87142 11.85052 91.42627
#
# Poissons Ratio (x) = 0.06881 0.35899
# Poissons Ratio (y) = 0.73667 0.90322
# Poissons Ratio (z) = 0.49817 0.11707
#
# Static dielectric constant tensor:
#      x y z
#    x 4.160970 0.000000 -0.036180 
#    y 0.000000 2.771840 0.000000 
#    z -0.036180 0.000000 3.121420 
# 
# 
# High freq. dielectric constant tensor:
#      x y z
#    x 1.681030 0.000000 -0.000980 
#    y 0.000000 1.622760 0.000000 
#    z -0.000980 0.000000 1.652910 
# 
# From -- ./inp_files/16311.got.cif
#   From: 2010.06.25/outbox.cif.g09.slc.cpg/sg11_9_cif.got.tgz:16311.got - 2010.06.27 23:14:04.
