data_PCOD8068620
_publ_section_title
;
Structure prediction by ZEFSAII (Michael W. Deem and Ramdas Pophale) SiO2 
 PCOD8068620
Probable space group: P 21/M
;
_chemical_formula_sum "Si O2"
_cell_formula_units_Z 32
_cell_length_a 20.302019
_cell_length_b 9.171433
_cell_length_c 31.195498
_cell_angle_alpha 90.000000
_cell_angle_beta 21.345181
_cell_angle_gamma 90.000000
_cell_volume 2114.232784
_symmetry_space_group_name_H-M "P 21/M"
_symmetry_group_IT_number 11
_symmetry_cell_setting 'monoclinic'
loop_
_space_group_symop_operation_xyz
x,y,z
-x,1/2+y,-z
-x,-y,-z
x,1/2-y,z
loop_
_atom_site_type_symbol
_atom_site_label
_atom_site_fract_x
_atom_site_fract_y
_atom_site_fract_z
Si Si1 0.420352 0.914439 0.111028
Si Si2 0.029018 0.917492 0.211688
Si Si3 0.623077 0.417112 0.055029
Si Si4 0.202132 0.919319 0.965785
Si Si5 0.776428 0.585361 0.837452
Si Si6 0.672727 0.577247 0.375837
Si Si7 0.177134 0.921856 0.795826
Si Si8 0.182310 0.915745 0.885411
O O1 0.355327 0.750000 0.158042
O O2 0.465148 0.985879 0.129863
O O3 0.258283 0.000808 0.185999
O O4 0.597639 0.921491 0.974463
O O5 0.033320 0.750000 0.223312
O O6 0.839449 0.961253 0.305728
O O7 0.059030 0.011765 0.236406
O O8 0.183038 0.950946 0.083560
O O9 0.567525 0.250000 0.081289
O O10 0.642923 0.456722 0.093309
O O11 0.141736 0.750000 0.008580
O O12 0.291238 0.945000 0.864079
O O13 0.028687 0.021061 0.078562
O O14 0.830941 0.750000 0.793285
O O15 0.500000 0.500000 0.500000
O O16 0.643309 0.750000 0.389710
O O17 0.705435 0.510612 0.309233
O O18 0.177062 0.750000 0.784500
O O19 0.274057 0.953180 0.783799
O O20 0.122008 0.750000 0.919875
O O21 0.000000 0.000000 0.000000
#
# Coordination Sequence:
#
# PCOD8068620 Si02
#       8
#     4   4   4   4   4   4   4   4
#     4   9  16  24  34  52  76 102 130 162 196 231
#     4   9  17  29  42  55  73 100 132 166 206 244
#     4   9  15  24  38  55  77 106 136 165 198 236
#     4   9  15  26  41  58  81 110 139 169 203 241
#     4   9  16  25  38  54  72  97 130 164 196 234
#     4  11  22  35  47  61  79 105 138 177 218 253
#     4  10  18  28  42  60  80 104 135 173 209 248
#     4   8  15  25  39  58  79 103 134 167 202 241
#
# _framework density 15.135514000000001
#
# number of rings (size 3 to 8) (size 9 to 14) (size 15 to 20)
#    0.000    2.750    1.250    1.500    0.000    5.000 
#    0.000    0.000    0.000    0.000    0.000    0.000 
#    0.000    0.000    0.000    1.125    0.000   12.250 
#
# Total GULP energy -396503.074497 kJ/mol
# GULP energy per Si atom -12390.721078 kJ/mol
# Density = 1.510107 g / cm^3
# Si number density = 15.135514 Si / 1000 Ang^3
#
#
#
# Elastic Constant Matrix: (Units=GPa)
#
#
# Indices 1 2 3 4 5 6 
#
# 1 157.7297 70.8003 38.0272 0.0000 11.7072 0.0000
# 2 70.8003 91.9904 28.1035 0.0000 4.9975 0.0000
# 3 38.0272 28.1035 37.0497 0.0000 7.5229 0.0000
# 4 0.0000 0.0000 0.0000 14.0007 0.0000 -1.6254
# 5 11.7072 4.9975 7.5229 0.0000 13.2576 0.0000
# 6 0.0000 0.0000 0.0000 -1.6254 0.0000 27.5981
#
#
#
# Elastic Compliance Matrix: (Units=1/GPa)
#
#
# Indices 1 2 3 4 5 6 
#
# 1 0.010854 -0.006484 -0.005393 0.000000 -0.004080 0.000000
# 2 -0.006484 0.018032 -0.007691 0.000000 0.003293 0.000000
# 3 -0.005393 -0.007691 0.041597 0.000000 -0.015942 0.000000
# 4 0.000000 0.000000 0.000000 0.071917 0.000000 0.004236
# 5 -0.004080 0.003293 -0.015942 0.000000 0.086836 0.000000
# 6 0.000000 0.000000 0.000000 0.004236 0.000000 0.036484
#
#
# Mechanical properties :
#
#
# Convention : Reuss Voigt Hill
#
# Bulk Modulus (GPa) = 31.90211 62.29240 47.09725
# Shear Modulus (GPa) = 15.85764 20.96055 18.40910
#
# Velocity S-wave (km/s) = 3.24035 3.72541 3.49131
# Velocity P-wave (km/s) = 5.92648 7.72986 6.88745
#
# Compressibility (1/GPa) = 0.03134589
#
# Stress axis : x y z
#
# Youngs Moduli (GPa) = 92.13567 55.45666 24.03997
#
# Poissons Ratio (x) = 0.35959 0.12965
# Poissons Ratio (y) = 0.59743 0.18490
# Poissons Ratio (z) = 0.49689 0.42654
#
# Static dielectric constant tensor:
#      x y z
#    x 3.429060 0.000000 0.213720 
#    y 0.000000 3.051480 0.000000 
#    z 0.213720 0.000000 2.386930 
# 
# 
# High freq. dielectric constant tensor:
#      x y z
#    x 1.599120 0.000000 0.010100 
#    y 0.000000 1.593720 0.000000 
#    z 0.010100 0.000000 1.495460 
# 
# From -- ./inp_files/42536.got.cif
#   From: 2010.06.25/outbox.cif.g09.slc.cpg/sg11_22_cif.got.tgz:42536.got - 2010.06.27 23:14:04.
