data_PCOD8068829
_publ_section_title
;
Structure prediction by ZEFSAII (Michael W. Deem and Ramdas Pophale) SiO2 
 PCOD8068829
Probable space group: P 21/M
;
_chemical_formula_sum "Si O2"
_cell_formula_units_Z 28
_cell_length_a 10.805857
_cell_length_b 13.934809
_cell_length_c 20.411272
_cell_angle_alpha 90.000000
_cell_angle_beta 147.737171
_cell_angle_gamma 90.000000
_cell_volume 1640.635191
_symmetry_space_group_name_H-M "P 21/M"
_symmetry_group_IT_number 11
_symmetry_cell_setting 'monoclinic'
loop_
_space_group_symop_operation_xyz
x,y,z
-x,1/2+y,-z
-x,-y,-z
x,1/2-y,z
loop_
_atom_site_type_symbol
_atom_site_label
_atom_site_fract_x
_atom_site_fract_y
_atom_site_fract_z
Si Si1 0.493587 0.856761 0.368575
Si Si2 0.480290 0.493146 0.800780
Si Si3 0.228265 0.520824 0.562349
Si Si4 0.942643 0.136683 0.752108
Si Si5 0.748110 0.861191 0.992010
Si Si6 0.183113 0.854147 0.101694
Si Si7 0.054271 0.362839 0.655068
O O1 0.588211 0.750000 0.429986
O O2 0.315510 0.899150 0.343586
O O3 0.357273 0.848677 0.240144
O O4 0.706893 0.930091 0.455028
O O5 0.427948 0.541030 0.705804
O O6 0.720529 0.432913 0.905660
O O7 0.275446 0.422069 0.730059
O O8 0.519088 0.576953 0.871678
O O9 0.000000 0.500000 0.500000
O O10 0.172695 0.611317 0.490260
O O11 0.935724 0.250000 0.758094
O O12 0.140484 0.098658 0.890569
O O13 0.002879 0.104816 0.706095
O O14 0.676110 0.750000 0.966517
O O15 0.926135 0.877896 0.011797
O O16 0.179920 0.750000 0.065177
O O17 0.106028 0.250000 0.672261
#
# Coordination Sequence:
#
# PCOD8068829 Si02
#       7
#     4   4   4   4   4   4   4
#     4   8  14  28  49  68  89 117 148 183 217 259
#     4  10  18  29  46  69  92 117 148 180 225 275
#     4   9  19  30  43  69  93 115 150 181 219 268
#     4   8  16  31  49  68  87 114 152 184 218 263
#     4   9  17  29  46  68  92 115 144 185 224 263
#     4   8  14  26  45  68  92 117 145 179 219 264
#     4  10  20  33  46  62  89 120 152 190 221 257
#
# _framework density 17.066559999999999
#
# number of rings (size 3 to 8) (size 9 to 14) (size 15 to 20)
#    0.000    3.143    0.000    2.571    0.000    5.143 
#    0.000    2.143    0.000    0.000    0.000    3.000 
#    0.000    0.000    0.000    0.000    0.000    0.000 
#
# Total GULP energy -346933.718140 kJ/mol
# GULP energy per Si atom -12390.489934 kJ/mol
# Density = 1.702772 g / cm^3
# Si number density = 17.066560 Si / 1000 Ang^3
#
#
#
# Elastic Constant Matrix: (Units=GPa)
#
#
# Indices 1 2 3 4 5 6 
#
# 1 73.5442 38.7552 33.9557 0.0000 -11.3615 0.0000
# 2 38.7552 77.3272 45.3920 0.0000 -1.8286 0.0000
# 3 33.9557 45.3920 71.3030 0.0000 -8.2391 0.0000
# 4 0.0000 0.0000 0.0000 28.0949 0.0000 1.8489
# 5 -11.3615 -1.8286 -8.2391 0.0000 20.5306 0.0000
# 6 0.0000 0.0000 0.0000 1.8489 0.0000 20.6741
#
#
#
# Elastic Compliance Matrix: (Units=1/GPa)
#
#
# Indices 1 2 3 4 5 6 
#
# 1 0.021078 -0.008124 -0.003777 0.000000 0.009425 0.000000
# 2 -0.008124 0.024037 -0.012274 0.000000 -0.007281 0.000000
# 3 -0.003777 -0.012274 0.024401 0.000000 0.006609 0.000000
# 4 0.000000 0.000000 0.000000 0.035804 0.000000 -0.003202
# 5 0.009425 -0.007281 0.006609 0.000000 0.055927 0.000000
# 6 0.000000 0.000000 0.000000 -0.003202 0.000000 0.048656
#
#
# Mechanical properties :
#
#
# Convention : Reuss Voigt Hill
#
# Bulk Modulus (GPa) = 47.24753 50.93112 49.08933
# Shear Modulus (GPa) = 18.84592 20.79805 19.82199
#
# Velocity S-wave (km/s) = 3.32665 3.49469 3.41171
# Velocity P-wave (km/s) = 6.51919 6.79642 6.65924
#
# Compressibility (1/GPa) = 0.02116513
#
# Stress axis : x y z
#
# Youngs Moduli (GPa) = 47.44227 41.60286 40.98210
#
# Poissons Ratio (x) = 0.33799 0.15478
# Poissons Ratio (y) = 0.38543 0.50303
# Poissons Ratio (z) = 0.17918 0.51065
#
# Static dielectric constant tensor:
#      x y z
#    x 3.339700 0.000000 -0.054250 
#    y 0.000000 3.306640 0.000000 
#    z -0.054250 0.000000 3.176550 
# 
# 
# High freq. dielectric constant tensor:
#      x y z
#    x 1.651390 0.000000 0.003930 
#    y 0.000000 1.644870 0.000000 
#    z 0.003930 0.000000 1.635170 
# 
# From -- ./inp_files/35244.got.cif
#   From: 2010.06.25/outbox.cif.g09.slc.cpg/sg11_18_cif.got.tgz:35244.got - 2010.06.27 23:14:04.
