data_PCOD8068950
_publ_section_title
;
Structure prediction by ZEFSAII (Michael W. Deem and Ramdas Pophale) SiO2 
 PCOD8068950
Probable space group: P 21/M
;
_chemical_formula_sum "Si O2"
_cell_formula_units_Z 32
_cell_length_a 21.399756
_cell_length_b 9.101000
_cell_length_c 11.909644
_cell_angle_alpha 90.000000
_cell_angle_beta 128.700514
_cell_angle_gamma 90.000000
_cell_volume 1810.205069
_symmetry_space_group_name_H-M "P 21/M"
_symmetry_group_IT_number 11
_symmetry_cell_setting 'monoclinic'
loop_
_space_group_symop_operation_xyz
x,y,z
-x,1/2+y,-z
-x,-y,-z
x,1/2-y,z
loop_
_atom_site_type_symbol
_atom_site_label
_atom_site_fract_x
_atom_site_fract_y
_atom_site_fract_z
Si Si1 0.209859 0.420860 0.970874
Si Si2 0.468981 0.420589 0.228906
Si Si3 0.349178 0.424261 0.281583
Si Si4 0.908227 0.079421 0.503821
Si Si5 0.671301 0.582760 0.096482
Si Si6 0.369296 0.075289 0.557907
Si Si7 0.063382 0.921673 0.720551
Si Si8 0.269491 0.577365 0.626638
O O1 0.189102 0.250000 0.959803
O O2 0.264009 0.478131 0.135825
O O3 0.257954 0.451933 0.910764
O O4 0.127338 0.510625 0.878746
O O5 0.492733 0.250000 0.269695
O O6 0.422527 0.481117 0.287038
O O7 0.547527 0.517437 0.298618
O O8 0.414022 0.443106 0.058033
O O9 0.349879 0.250000 0.273543
O O10 0.359865 0.481500 0.419616
O O11 0.927338 0.250000 0.541022
O O12 0.908764 0.036584 0.373534
O O13 0.822908 0.035717 0.458728
O O14 0.975951 0.989024 0.646287
O O15 0.678167 0.750000 0.147404
O O16 0.677557 0.474098 0.208404
O O17 0.366397 0.250000 0.562328
O O18 0.296377 0.007001 0.545346
O O19 0.058950 0.750000 0.736660
O O20 0.282325 0.750000 0.625793
#
# Coordination Sequence:
#
# PCOD8068950 Si02
#       8
#     4   4   4   4   4   4   4   4
#     4   9  16  30  53  77 103 133 163 203 255 302
#     4   9  18  35  56  77 101 129 166 213 260 301
#     4   8  17  34  55  77 101 131 169 212 254 299
#     4   9  19  33  48  71 103 137 166 199 246 300
#     4   9  18  32  52  76 101 132 168 205 251 304
#     4  11  22  35  52  75 101 134 175 211 250 300
#     4  10  18  29  49  79 107 130 162 204 248 297
#     4  11  22  36  52  71 103 139 171 207 248 299
#
# _framework density 17.677555000000002
#
# number of rings (size 3 to 8) (size 9 to 14) (size 15 to 20)
#    0.000    2.500    1.250    3.000    0.000    2.500 
#    0.000    3.750    0.000    0.750    0.000    0.000 
#    0.000    0.000    0.000    0.000    0.000    0.000 
#
# Total GULP energy -396833.890459 kJ/mol
# GULP energy per Si atom -12401.059077 kJ/mol
# Density = 1.763732 g / cm^3
# Si number density = 17.677555 Si / 1000 Ang^3
#
#
#
# Elastic Constant Matrix: (Units=GPa)
#
#
# Indices 1 2 3 4 5 6 
#
# 1 93.4438 39.8434 43.4295 0.0000 12.4562 0.0000
# 2 39.8434 62.5177 35.4403 0.0000 10.0959 0.0000
# 3 43.4295 35.4403 74.3952 0.0000 20.3971 0.0000
# 4 0.0000 0.0000 0.0000 26.8427 0.0000 5.3025
# 5 12.4562 10.0959 20.3971 0.0000 25.1537 0.0000
# 6 0.0000 0.0000 0.0000 5.3025 0.0000 24.6597
#
#
#
# Elastic Compliance Matrix: (Units=1/GPa)
#
#
# Indices 1 2 3 4 5 6 
#
# 1 0.016655 -0.006988 -0.006303 0.000000 -0.000332 0.000000
# 2 -0.006988 0.024849 -0.007680 0.000000 -0.000286 0.000000
# 3 -0.006303 -0.007680 0.024533 0.000000 -0.013690 0.000000
# 4 0.000000 0.000000 0.000000 0.038907 0.000000 -0.008366
# 5 -0.000332 -0.000286 -0.013690 0.000000 0.051136 0.000000
# 6 0.000000 0.000000 0.000000 -0.008366 0.000000 0.042351
#
#
# Mechanical properties :
#
#
# Convention : Reuss Voigt Hill
#
# Bulk Modulus (GPa) = 41.50101 51.97589 46.73845
# Shear Modulus (GPa) = 20.12869 22.77411 21.45140
#
# Velocity S-wave (km/s) = 3.37806 3.59319 3.48729
# Velocity P-wave (km/s) = 6.22436 6.83233 6.53542
#
# Compressibility (1/GPa) = 0.02409580
#
# Stress axis : x y z
#
# Youngs Moduli (GPa) = 60.04349 40.24381 40.76161
#
# Poissons Ratio (x) = 0.28121 0.25690
# Poissons Ratio (y) = 0.41957 0.31304
# Poissons Ratio (z) = 0.37843 0.30906
#
# Static dielectric constant tensor:
#      x y z
#    x 3.171720 0.000000 0.070570 
#    y 0.000000 3.112750 0.000000 
#    z 0.070570 0.000000 3.323120 
# 
# 
# High freq. dielectric constant tensor:
#      x y z
#    x 1.665520 0.000000 0.016230 
#    y 0.000000 1.675500 0.000000 
#    z 0.016230 0.000000 1.681670 
# 
# From -- ./inp_files/42868.got.cif
#   From: 2010.06.25/outbox.cif.g09.slc.cpg/sg11_22_cif.got.tgz:42868.got - 2010.06.27 23:14:04.
