data_PCOD8068090
_publ_section_title
;
Structure prediction by ZEFSAII (Michael W. Deem and Ramdas Pophale) SiO2 
 PCOD8068090
Probable space group: P 2/M
;
_chemical_formula_sum "Si O2"
_cell_formula_units_Z 32
_cell_length_a 27.000000
_cell_length_b 9.000000
_cell_length_c 21.000000
_cell_angle_alpha 90.000000
_cell_angle_beta 160.000000
_cell_angle_gamma 90.000000
_cell_volume 1745.328791
_symmetry_space_group_name_H-M "P 2/M"
_symmetry_group_IT_number 10
_symmetry_cell_setting 'monoclinic'
loop_
_space_group_symop_operation_xyz
x,y,z
-x,y,-z
-x,-y,-z
x,-y,z
loop_
_atom_site_type_symbol
_atom_site_label
_atom_site_fract_x
_atom_site_fract_y
_atom_site_fract_z
Si Si1 0.418367 0.323916 0.992712
Si Si2 0.275814 0.325260 0.693285
Si Si3 0.974479 0.323905 0.699489
Si Si4 0.842832 0.827826 0.790593
Si Si5 0.534325 0.171427 0.467777
Si Si6 0.454490 0.174024 0.162019
Si Si7 0.210926 0.170582 0.421214
Si Si8 0.307660 0.323308 0.102572
O O1 0.415716 0.500000 0.003546
O O2 0.579353 0.269989 0.167407
O O3 0.376822 0.227895 0.003821
O O4 0.296880 0.281872 0.792914
O O5 0.271312 0.500000 0.681285
O O6 0.126570 0.261255 0.481503
O O7 0.977466 0.500000 0.700601
O O8 0.898574 0.273340 0.672527
O O9 0.140222 0.264380 0.899641
O O10 0.697048 0.763522 0.649558
O O11 0.821721 0.797794 0.691253
O O12 0.850478 0.000000 0.818020
O O13 0.000000 0.755291 0.000000
O O14 0.500000 0.187326 0.500000
O O15 0.403798 0.257938 0.275868
O O16 0.529170 0.000000 0.438442
O O17 0.624046 0.214164 0.364764
O O18 0.380062 0.270358 0.125749
O O19 0.429070 0.000000 0.143350
O O20 0.181459 0.000000 0.403777
O O21 0.310995 0.500000 0.111637
#
# Coordination Sequence:
#
# PCOD8068090 Si02
#       8
#     4   4   4   4   4   4   4   4
#     4   9  16  30  56  83 107 142 184 227 280 328
#     4   8  15  30  53  81 110 141 182 230 273 328
#     4  10  21  37  56  81 112 145 185 230 276 326
#     4   9  18  34  55  82 110 137 178 226 267 320
#     4  10  21  38  60  83 110 147 185 223 273 329
#     4  11  21  36  56  82 113 146 186 229 273 330
#     4  10  20  34  56  83 110 140 181 231 278 323
#     4  11  24  39  57  80 112 152 188 226 273 326
#
# _framework density 18.334654
#
# number of rings (size 3 to 8) (size 9 to 14) (size 15 to 20)
#    0.000    2.250    2.500    1.500    1.750    1.750 
#    0.000    2.500    0.000    4.500    0.000    0.000 
#    0.000    0.000    0.000    0.000    0.000    0.000 
#
# Total GULP energy -396575.669211 kJ/mol
# GULP energy per Si atom -12392.989663 kJ/mol
# Density = 1.829292 g / cm^3
# Si number density = 18.334654 Si / 1000 Ang^3
#
#
#
# Elastic Constant Matrix: (Units=GPa)
#
#
# Indices 1 2 3 4 5 6 
#
# 1 83.5384 23.1801 54.6074 0.0000 -8.6158 0.0000
# 2 23.1801 29.8940 39.6075 0.0000 5.1172 0.0000
# 3 54.6074 39.6075 156.1623 0.0000 -11.2470 0.0000
# 4 0.0000 0.0000 0.0000 25.2350 0.0000 -0.2815
# 5 -8.6158 5.1172 -11.2470 0.0000 17.6195 0.0000
# 6 0.0000 0.0000 0.0000 -0.2815 0.0000 27.7814
#
#
#
# Elastic Compliance Matrix: (Units=1/GPa)
#
#
# Indices 1 2 3 4 5 6 
#
# 1 0.018236 -0.013107 -0.002239 0.000000 0.011295 0.000000
# 2 -0.013107 0.071650 -0.016299 0.000000 -0.037623 0.000000
# 3 -0.002239 -0.016299 0.012141 0.000000 0.011389 0.000000
# 4 0.000000 0.000000 0.000000 0.039632 0.000000 0.000402
# 5 0.011295 -0.037623 0.011389 0.000000 0.080475 0.000000
# 6 0.000000 0.000000 0.000000 0.000402 0.000000 0.035999
#
#
# Mechanical properties :
#
#
# Convention : Reuss Voigt Hill
#
# Bulk Modulus (GPa) = 25.81541 56.04273 40.92907
# Shear Modulus (GPa) = 14.95501 24.27383 19.61442
#
# Velocity S-wave (km/s) = 2.85909 3.64253 3.27433
# Velocity P-wave (km/s) = 5.00099 6.95152 6.05531
#
# Compressibility (1/GPa) = 0.03873656
#
# Stress axis : x y z
#
# Youngs Moduli (GPa) = 54.83664 13.95665 82.36791
#
# Poissons Ratio (x) = 0.18293 0.18442
# Poissons Ratio (y) = 0.71876 1.34251
# Poissons Ratio (z) = 0.12278 0.22748
#
# Static dielectric constant tensor:
#      x y z
#    x 3.360500 0.000000 -0.109340 
#    y 0.000000 3.131460 0.000000 
#    z -0.109340 0.000000 4.129310 
# 
# 
# High freq. dielectric constant tensor:
#      x y z
#    x 1.710800 0.000000 -0.008390 
#    y 0.000000 1.681770 0.000000 
#    z -0.008390 0.000000 1.733860 
# 
# From -- ./inp_files/86986.got.cif
#   From: 2010.06.25/outbox.ucp.g09.slc.cvg/sg10_44_cif.got.tgz:86986.got - 2010.06.28 13:37:52.
