data_PCOD8068040
_publ_section_title
;
Structure prediction by ZEFSAII (Michael W. Deem and Ramdas Pophale) SiO2 
 PCOD8068040
Probable space group: P 2/M
;
_chemical_formula_sum "Si O2"
_cell_formula_units_Z 28
_cell_length_a 13.990072
_cell_length_b 7.770500
_cell_length_c 19.909931
_cell_angle_alpha 90.000000
_cell_angle_beta 129.052063
_cell_angle_gamma 90.000000
_cell_volume 1680.820751
_symmetry_space_group_name_H-M "P 2/M"
_symmetry_group_IT_number 10
_symmetry_cell_setting 'monoclinic'
loop_
_space_group_symop_operation_xyz
x,y,z
-x,y,-z
-x,-y,-z
x,-y,z
loop_
_atom_site_type_symbol
_atom_site_label
_atom_site_fract_x
_atom_site_fract_y
_atom_site_fract_z
Si Si1 0.002431 0.204058 0.925874
Si Si2 0.234114 0.196938 0.262419
Si Si3 0.750746 0.202137 0.030381
Si Si4 0.519410 0.803425 0.847044
Si Si5 0.309385 0.500000 0.382625
Si Si6 0.505125 0.198348 0.691161
Si Si7 0.427799 0.500000 0.569897
Si Si8 0.616072 0.299272 0.093007
O O1 0.879799 0.259972 0.832962
O O2 0.121158 0.280756 0.939487
O O3 0.011193 0.000000 0.933157
O O4 0.000000 0.281057 0.000000
O O5 0.240515 0.325634 0.328651
O O6 0.354014 0.212325 0.269388
O O7 0.217516 0.000000 0.280955
O O8 0.736876 0.246300 0.103900
O O9 0.751302 0.000000 0.021078
O O10 0.636787 0.283843 0.937059
O O11 0.497444 0.726295 0.763499
O O12 0.395462 0.782813 0.837578
O O13 0.552164 0.000000 0.849149
O O14 0.316488 0.500000 0.466811
O O15 0.444340 0.500000 0.411989
O O16 0.418367 0.324655 0.609274
O O17 0.458254 0.000000 0.663556
O O18 0.611013 0.500000 0.101146
O O19 0.500000 0.226740 0.000000
#
# Coordination Sequence:
#
# PCOD8068040 Si02
#       8
#     4   4   4   4   2   4   2   4
#     4   9  16  27  45  65  87 118 153 185 215 246
#     4   9  17  30  46  64  90 121 150 182 216 252
#     4   9  16  27  42  59  83 116 152 185 213 247
#     4   9  16  26  42  62  84 114 148 180 217 260
#     4   9  18  32  45  64  87 115 151 181 216 265
#     4   9  17  28  44  67  91 115 145 179 219 266
#     4   9  18  30  46  64  88 115 143 181 222 264
#     4   9  17  27  38  55  81 114 148 181 217 255
#
# _framework density 16.658528
#
# number of rings (size 3 to 8) (size 9 to 14) (size 15 to 20)
#    0.000    3.000    0.000    1.286    1.000    5.714 
#    1.286    3.214    0.000    0.000    0.000    0.000 
#    0.000    2.286    0.000    8.429    0.000    0.286 
#
# Total GULP energy -346990.569640 kJ/mol
# GULP energy per Si atom -12392.520344 kJ/mol
# Density = 1.662061 g / cm^3
# Si number density = 16.658528 Si / 1000 Ang^3
#
#
#
# Elastic Constant Matrix: (Units=GPa)
#
#
# Indices 1 2 3 4 5 6 
#
# 1 91.7416 21.2283 47.5276 0.0000 -16.8819 0.0000
# 2 21.2283 64.7287 46.4930 0.0000 -10.4073 0.0000
# 3 47.5276 46.4930 117.5626 0.0000 -21.3621 0.0000
# 4 0.0000 0.0000 0.0000 19.8116 0.0000 -3.4746
# 5 -16.8819 -10.4073 -21.3621 0.0000 19.6171 0.0000
# 6 0.0000 0.0000 0.0000 -3.4746 0.0000 9.4017
#
#
#
# Elastic Compliance Matrix: (Units=1/GPa)
#
#
# Indices 1 2 3 4 5 6 
#
# 1 0.014671 -0.000447 -0.004367 0.000000 0.007632 0.000000
# 2 -0.000447 0.021707 -0.007955 0.000000 0.002468 0.000000
# 3 -0.004367 -0.007955 0.014920 0.000000 0.008269 0.000000
# 4 0.000000 0.000000 0.000000 0.053974 0.000000 0.019947
# 5 0.007632 0.002468 0.008269 0.000000 0.067857 0.000000
# 6 0.000000 0.000000 0.000000 0.019947 0.000000 0.113736
#
#
# Mechanical properties :
#
#
# Convention : Reuss Voigt Hill
#
# Bulk Modulus (GPa) = 38.82281 56.05897 47.44089
# Shear Modulus (GPa) = 15.57682 20.35168 17.96425
#
# Velocity S-wave (km/s) = 3.06120 3.49907 3.28743
# Velocity P-wave (km/s) = 5.98751 7.07457 6.55362
#
# Compressibility (1/GPa) = 0.02575805
#
# Stress axis : x y z
#
# Youngs Moduli (GPa) = 68.16360 46.06906 67.02326
#
# Poissons Ratio (x) = 0.02061 0.29271
# Poissons Ratio (y) = 0.03049 0.53317
# Poissons Ratio (z) = 0.29769 0.36648
#
# Static dielectric constant tensor:
#      x y z
#    x 3.187200 0.000000 -0.186980 
#    y 0.000000 3.049250 0.000000 
#    z -0.186980 0.000000 3.087950 
# 
# 
# High freq. dielectric constant tensor:
#      x y z
#    x 1.622850 0.000000 -0.024080 
#    y 0.000000 1.641050 0.000000 
#    z -0.024080 0.000000 1.602560 
# 
# From -- ./inp_files/77848.got.cif
#   From: 2010.06.25/outbox.cif.g09.slc.cpg/sg10_39_cif.got.tgz:77848.got - 2010.06.27 22:07:45.
