data_PCOD8068953
_publ_section_title
;
Structure prediction by ZEFSAII (Michael W. Deem and Ramdas Pophale) SiO2 
 PCOD8068953
Probable space group: P 21/M
;
_chemical_formula_sum "Si O2"
_cell_formula_units_Z 28
_cell_length_a 4.804602
_cell_length_b 19.327737
_cell_length_c 11.097133
_cell_angle_alpha 90.000000
_cell_angle_beta 96.497871
_cell_angle_gamma 90.000000
_cell_volume 1023.883008
_symmetry_space_group_name_H-M "P 21/M"
_symmetry_group_IT_number 11
_symmetry_cell_setting 'monoclinic'
loop_
_space_group_symop_operation_xyz
x,y,z
-x,1/2+y,-z
-x,-y,-z
x,1/2-y,z
loop_
_atom_site_type_symbol
_atom_site_label
_atom_site_fract_x
_atom_site_fract_y
_atom_site_fract_z
Si Si1 0.937830 0.172703 0.369083
Si Si2 0.545157 0.423957 0.950994
Si Si3 0.470968 0.985177 0.746859
Si Si4 0.547224 0.171217 0.709873
Si Si5 0.996636 0.593470 0.845512
Si Si6 0.536259 0.901258 0.532726
Si Si7 0.090493 0.326043 0.875563
O O1 0.005284 0.250000 0.413278
O O2 0.138453 0.119766 0.451461
O O3 0.981966 0.165266 0.227047
O O4 0.621028 0.152435 0.386339
O O5 0.536470 0.437457 0.802057
O O6 0.277043 0.375864 0.972829
O O7 0.500000 0.500000 0.000000
O O8 0.847101 0.396092 0.016460
O O9 0.158847 0.964657 0.773171
O O10 0.498335 0.977014 0.600511
O O11 0.677039 0.932765 0.831407
O O12 0.617329 0.250000 0.664816
O O13 0.576445 0.111401 0.608035
O O14 0.236885 0.173153 0.750870
O O15 0.764205 0.154436 0.832879
O O16 0.105064 0.250000 0.935019
#
# Coordination Sequence:
#
# PCOD8068953 Si02
#       7
#     4   4   4   4   4   4   4
#     4  10  18  29  49  81 112 143 185 231 275 333
#     4  10  21  40  63  83 111 153 190 233 287 336
#     4   9  19  34  53  81 108 138 185 231 271 328
#     4  10  20  37  57  80 114 155 188 226 281 336
#     4   9  19  32  51  77 108 142 181 226 277 330
#     4  10  19  33  54  80 112 147 186 230 279 331
#     4  10  23  39  58  86 116 146 190 233 272 334
#
# _framework density 27.346876000000002
#
# number of rings (size 3 to 8) (size 9 to 14) (size 15 to 20)
#    0.000    2.286    0.000    2.571    0.000    6.286 
#    0.000    1.429    0.000    4.286    0.000    0.000 
#    0.000    0.000    0.000    0.000    0.000    0.000 
#
# Total GULP energy -346983.332836 kJ/mol
# GULP energy per Si atom -12392.261887 kJ/mol
# Density = 2.728463 g / cm^3
# Si number density = 27.346876 Si / 1000 Ang^3
#
#
#
# Elastic Constant Matrix: (Units=GPa)
#
#
# Indices 1 2 3 4 5 6 
#
# 1 82.6088 -1.8484 -13.5514 0.0000 28.8084 0.0000
# 2 -1.8484 43.9029 1.8804 0.0000 11.3109 0.0000
# 3 -13.5514 1.8804 144.8534 0.0000 13.0692 0.0000
# 4 0.0000 0.0000 0.0000 383.9732 0.0000 50.8899
# 5 28.8084 11.3109 13.0692 0.0000 31.9487 0.0000
# 6 0.0000 0.0000 0.0000 50.8899 0.0000 35.7185
#
#
#
# Elastic Compliance Matrix: (Units=1/GPa)
#
#
# Indices 1 2 3 4 5 6 
#
# 1 0.020799 0.006549 0.003906 0.000000 -0.022671 0.000000
# 2 0.006549 0.027160 0.001724 0.000000 -0.016226 0.000000
# 3 0.003906 0.001724 0.007911 0.000000 -0.007369 0.000000
# 4 0.000000 0.000000 0.000000 0.003211 0.000000 -0.004574
# 5 -0.022671 -0.016226 -0.007369 0.000000 0.060502 0.000000
# 6 0.000000 0.000000 0.000000 -0.004574 0.000000 0.034514
#
#
# Mechanical properties :
#
#
# Convention : Reuss Voigt Hill
#
# Bulk Modulus (GPa) = 12.46433 27.14738 19.80585
# Shear Modulus (GPa) = 31.95289 109.32037 70.63663
#
# Velocity S-wave (km/s) = 3.42194 6.32947 5.08782
# Velocity P-wave (km/s) = 4.49229 7.96021 6.46319
#
# Compressibility (1/GPa) = 0.08022894
#
# Stress axis : x y z
#
# Youngs Moduli (GPa) = 48.07999 36.81901 126.39923
#
# Poissons Ratio (x) = -0.24113 -0.49374
# Poissons Ratio (y) = -0.31488 -0.21793
# Poissons Ratio (z) = -0.18781 -0.06348
#
# Static dielectric constant tensor:
#      x y z
#    x 4.898850 0.000000 -0.124680 
#    y 0.000000 5.189410 0.000000 
#    z -0.124680 0.000000 5.304270 
# 
# 
# High freq. dielectric constant tensor:
#      x y z
#    x 2.118150 0.000000 -0.007210 
#    y 0.000000 2.106270 0.000000 
#    z -0.007210 0.000000 2.114360 
# 
# From -- ./inp_files/46085.got.cif
#   From: 2010.06.25/outbox.cif.g09.slc.cpg/sg11_24_cif.got.tgz:46085.got - 2010.06.27 23:14:04.
