data_PCOD8068105
_publ_section_title
;
Structure prediction by ZEFSAII (Michael W. Deem and Ramdas Pophale) SiO2 
 PCOD8068105
Probable space group: P 2/M
;
_chemical_formula_sum "Si O2"
_cell_formula_units_Z 28
_cell_length_a 9.000000
_cell_length_b 9.000000
_cell_length_c 27.000000
_cell_angle_alpha 90.000000
_cell_angle_beta 40.000000
_cell_angle_gamma 90.000000
_cell_volume 1405.776502
_symmetry_space_group_name_H-M "P 2/M"
_symmetry_group_IT_number 10
_symmetry_cell_setting 'monoclinic'
loop_
_space_group_symop_operation_xyz
x,y,z
-x,y,-z
-x,-y,-z
x,-y,z
loop_
_atom_site_type_symbol
_atom_site_label
_atom_site_fract_x
_atom_site_fract_y
_atom_site_fract_z
Si Si1 0.602723 0.674219 0.043812
Si Si2 0.807257 0.673657 0.655563
Si Si3 0.194129 0.828611 0.089035
Si Si4 0.677938 0.672627 0.794776
Si Si5 0.270668 0.826844 0.529592
Si Si6 0.593276 0.826277 0.615249
Si Si7 0.082971 0.170849 0.748813
O O1 0.640225 0.500000 0.026778
O O2 0.381775 0.732104 0.070449
O O3 0.555074 0.713605 0.114136
O O4 0.823457 0.760220 0.962633
O O5 0.816084 0.500000 0.643099
O O6 0.646111 0.711752 0.744698
O O7 0.720191 0.750285 0.628299
O O8 0.061208 0.731935 0.604907
O O9 0.962062 0.810966 0.180420
O O10 0.270158 0.000000 0.066395
O O11 0.729955 0.500000 0.788248
O O12 0.900392 0.751824 0.760247
O O13 0.500000 0.775503 0.500000
O O14 0.278890 0.793816 0.468821
O O15 0.225086 0.000000 0.551311
O O16 0.335411 0.761026 0.675421
O O17 0.586080 0.000000 0.629125
O O18 0.076528 0.000000 0.734520
#
# Coordination Sequence:
#
# PCOD8068105 Si02
#       7
#     4   4   4   4   4   4   4
#     4   9  15  25  42  65  95 130 165 201 246 297
#     4  11  23  37  53  76 106 137 169 207 251 296
#     4   9  15  24  41  69 100 125 157 205 255 296
#     4   9  19  33  49  72 102 134 170 211 251 297
#     4  10  21  38  60  82 103 130 166 206 248 298
#     4  10  21  37  55  76 103 135 170 205 245 299
#     4   9  18  32  52  76 101 131 169 212 254 298
#
# _framework density 19.917818
#
# number of rings (size 3 to 8) (size 9 to 14) (size 15 to 20)
#    0.000    2.429    0.000    3.429    0.000    6.571 
#    0.000    0.000    0.000    0.857    0.000    6.000 
#    0.000    0.000    0.000    0.000    0.000    0.000 
#
# Total GULP energy -346918.604376 kJ/mol
# GULP energy per Si atom -12389.950156 kJ/mol
# Density = 1.987248 g / cm^3
# Si number density = 19.917818 Si / 1000 Ang^3
#
#
#
# Elastic Constant Matrix: (Units=GPa)
#
#
# Indices 1 2 3 4 5 6 
#
# 1 70.9540 20.4250 12.0208 0.0000 24.4586 0.0000
# 2 20.4250 36.8280 25.1120 0.0000 10.2463 0.0000
# 3 12.0208 25.1120 70.7644 0.0000 29.0195 0.0000
# 4 0.0000 0.0000 0.0000 37.1195 0.0000 -9.2390
# 5 24.4586 10.2463 29.0195 0.0000 26.2899 0.0000
# 6 0.0000 0.0000 0.0000 -9.2390 0.0000 43.1609
#
#
#
# Elastic Compliance Matrix: (Units=1/GPa)
#
#
# Indices 1 2 3 4 5 6 
#
# 1 0.030328 -0.017632 0.018011 0.000000 -0.041224 0.000000
# 2 -0.017632 0.046072 -0.023235 0.000000 0.024095 0.000000
# 3 0.018011 -0.023235 0.041063 0.000000 -0.053026 0.000000
# 4 0.000000 0.000000 0.000000 0.028456 0.000000 0.006091
# 5 -0.041224 0.024095 -0.053026 0.000000 0.125531 0.000000
# 6 0.000000 0.000000 0.000000 0.006091 0.000000 0.024473
#
#
# Mechanical properties :
#
#
# Convention : Reuss Voigt Hill
#
# Bulk Modulus (GPa) = 13.93732 32.62911 23.28322
# Shear Modulus (GPa) = 13.67792 29.37996 21.52894
#
# Velocity S-wave (km/s) = 2.62337 3.84482 3.29125
# Velocity P-wave (km/s) = 4.02352 6.01062 5.11450
#
# Compressibility (1/GPa) = 0.07174978
#
# Stress axis : x y z
#
# Youngs Moduli (GPa) = 32.97244 21.70527 24.35298
#
# Poissons Ratio (x) = 0.38270 -0.43861
# Poissons Ratio (y) = 0.58136 0.56585
# Poissons Ratio (z) = -0.59385 0.50433
#
# Static dielectric constant tensor:
#      x y z
#    x 3.306590 0.000000 0.451110 
#    y 0.000000 3.559040 0.000000 
#    z 0.451110 0.000000 4.632520 
# 
# 
# High freq. dielectric constant tensor:
#      x y z
#    x 1.737100 0.000000 0.029900 
#    y 0.000000 1.771110 0.000000 
#    z 0.029900 0.000000 1.798060 
# 
# From -- ./inp_files/81739.got.cif
#   From: 2010.06.25/outbox.ucp.g09.slc.cvg/sg10_41_cif.got.tgz:81739.got - 2010.06.28 13:37:52.
