data_PCOD8068493
_publ_section_title
;
Structure prediction by ZEFSAII (Michael W. Deem and Ramdas Pophale) SiO2 
 PCOD8068493
Probable space group: P 21/M
;
_chemical_formula_sum "Si O2"
_cell_formula_units_Z 32
_cell_length_a 13.369547
_cell_length_b 9.307936
_cell_length_c 17.157722
_cell_angle_alpha 90.000000
_cell_angle_beta 79.093569
_cell_angle_gamma 90.000000
_cell_volume 2096.590172
_symmetry_space_group_name_H-M "P 21/M"
_symmetry_group_IT_number 11
_symmetry_cell_setting 'monoclinic'
loop_
_space_group_symop_operation_xyz
x,y,z
-x,1/2+y,-z
-x,-y,-z
x,1/2-y,z
loop_
_atom_site_type_symbol
_atom_site_label
_atom_site_fract_x
_atom_site_fract_y
_atom_site_fract_z
Si Si1 0.073554 0.081342 0.170273
Si Si2 0.099810 0.413166 0.998546
Si Si3 0.270125 0.088314 0.668204
Si Si4 0.786734 0.084881 0.548243
Si Si5 0.137465 0.082293 0.826744
Si Si6 0.603714 0.079722 0.466841
Si Si7 0.877357 0.083582 0.691269
Si Si8 0.917324 0.910931 0.419485
O O1 0.059318 0.250000 0.188610
O O2 0.140729 0.011330 0.229161
O O3 0.139498 0.052892 0.080466
O O4 0.961973 0.009547 0.181434
O O5 0.064427 0.250000 0.001681
O O6 0.172020 0.444342 0.912644
O O7 0.000000 0.500000 0.000000
O O8 0.316363 0.250000 0.662226
O O9 0.235114 0.038678 0.759961
O O10 0.169553 0.083407 0.631931
O O11 0.353465 0.977990 0.622091
O O12 0.804783 0.250000 0.525483
O O13 0.680596 0.034775 0.525428
O O14 0.785899 0.059037 0.641999
O O15 0.884705 0.005072 0.498225
O O16 0.110868 0.250000 0.815309
O O17 0.586618 0.250000 0.463937
O O18 0.500000 0.000000 0.500000
O O19 0.884867 0.250000 0.714815
O O20 0.980869 0.029349 0.635206
O O21 0.935975 0.750000 0.447268
#
# Coordination Sequence:
#
# PCOD8068493 Si02
#       8
#     4   4   4   4   4   4   4   4
#     4  10  18  25  36  58  85 114 149 182 208 235
#     4   8  15  25  37  54  78 111 147 179 207 239
#     4   9  16  27  44  65  84 109 142 173 206 248
#     4   9  19  31  44  61  80 104 139 176 209 246
#     4   9  15  27  43  57  81 115 147 176 210 249
#     4  10  20  34  49  65  84 107 134 172 216 257
#     4  10  18  29  41  56  82 115 145 172 204 246
#     4   9  16  26  40  58  82 110 140 169 203 243
#
# _framework density 15.262878000000001
#
# number of rings (size 3 to 8) (size 9 to 14) (size 15 to 20)
#    0.000    2.750    1.250    1.125    0.000    2.500 
#    0.000    0.000    0.000    0.000    0.000    0.000 
#    0.000    1.000    0.000    2.000    0.000    2.750 
#
# Total GULP energy -396451.945094 kJ/mol
# GULP energy per Si atom -12389.123284 kJ/mol
# Density = 1.522814 g / cm^3
# Si number density = 15.262878 Si / 1000 Ang^3
#
#
#
# Elastic Constant Matrix: (Units=GPa)
#
#
# Indices 1 2 3 4 5 6 
#
# 1 42.5078 23.3796 39.1470 0.0000 -2.3962 0.0000
# 2 23.3796 58.2811 50.6627 0.0000 1.8578 0.0000
# 3 39.1470 50.6627 137.4717 0.0000 6.7582 0.0000
# 4 0.0000 0.0000 0.0000 24.7728 0.0000 0.6286
# 5 -2.3962 1.8578 6.7582 0.0000 16.2790 0.0000
# 6 0.0000 0.0000 0.0000 0.6286 0.0000 14.9091
#
#
#
# Elastic Compliance Matrix: (Units=1/GPa)
#
#
# Indices 1 2 3 4 5 6 
#
# 1 0.035409 -0.007855 -0.007645 0.000000 0.009282 0.000000
# 2 -0.007855 0.027004 -0.007663 0.000000 -0.001057 0.000000
# 3 -0.007645 -0.007663 0.012544 0.000000 -0.005458 0.000000
# 4 0.000000 0.000000 0.000000 0.040410 0.000000 -0.001704
# 5 0.009282 -0.001057 -0.005458 0.000000 0.065182 0.000000
# 6 0.000000 0.000000 0.000000 -0.001704 0.000000 0.067145
#
#
# Mechanical properties :
#
#
# Convention : Reuss Voigt Hill
#
# Bulk Modulus (GPa) = 34.92680 51.62658 43.27669
# Shear Modulus (GPa) = 16.47104 19.53027 18.00066
#
# Velocity S-wave (km/s) = 3.28862 3.58102 3.43793
# Velocity P-wave (km/s) = 6.11172 7.14119 6.64642
#
# Compressibility (1/GPa) = 0.02863131
#
# Stress axis : x y z
#
# Youngs Moduli (GPa) = 28.24149 37.03100 79.72155
#
# Poissons Ratio (x) = 0.29087 0.60945
# Poissons Ratio (y) = 0.22183 0.61093
# Poissons Ratio (z) = 0.21590 0.28378
#
# Static dielectric constant tensor:
#      x y z
#    x 2.560170 0.000000 0.166460 
#    y 0.000000 3.007280 0.000000 
#    z 0.166460 0.000000 3.556950 
# 
# 
# High freq. dielectric constant tensor:
#      x y z
#    x 1.525070 0.000000 0.013770 
#    y 0.000000 1.591490 0.000000 
#    z 0.013770 0.000000 1.594090 
# 
# From -- ./inp_files/43826.got.cif
#   From: 2010.06.25/outbox.cif.g09.slc.cpg/sg11_22_cif.got.tgz:43826.got - 2010.06.27 23:14:04.
