data_PCOD8068397
_publ_section_title
;
Structure prediction by ZEFSAII (Michael W. Deem and Ramdas Pophale) SiO2 
 PCOD8068397
Probable space group: P 21/M
;
_chemical_formula_sum "Si O2"
_cell_formula_units_Z 28
_cell_length_a 8.614016
_cell_length_b 16.375614
_cell_length_c 11.175147
_cell_angle_alpha 90.000000
_cell_angle_beta 119.044192
_cell_angle_gamma 90.000000
_cell_volume 1378.129168
_symmetry_space_group_name_H-M "P 21/M"
_symmetry_group_IT_number 11
_symmetry_cell_setting 'monoclinic'
loop_
_space_group_symop_operation_xyz
x,y,z
-x,1/2+y,-z
-x,-y,-z
x,1/2-y,z
loop_
_atom_site_type_symbol
_atom_site_label
_atom_site_fract_x
_atom_site_fract_y
_atom_site_fract_z
Si Si1 0.173804 0.560967 0.945434
Si Si2 0.061670 0.160055 0.980951
Si Si3 0.984614 0.158487 0.688115
Si Si4 0.286434 0.655526 0.767368
Si Si5 0.372944 0.438264 0.172811
Si Si6 0.178401 0.497293 0.317089
Si Si7 0.944943 0.910971 0.518464
O O1 0.263127 0.630008 0.896961
O O2 0.015462 0.515406 0.816240
O O3 0.324412 0.497276 0.043239
O O4 0.096178 0.599708 0.038560
O O5 0.004082 0.250000 0.999129
O O6 0.096995 0.154725 0.852224
O O7 0.241413 0.139034 0.118300
O O8 0.904151 0.250000 0.641963
O O9 0.117064 0.136845 0.625406
O O10 0.824745 0.090923 0.633736
O O11 0.346280 0.750000 0.784204
O O12 0.428405 0.594656 0.760003
O O13 0.105100 0.643788 0.628357
O O14 0.342374 0.484525 0.288068
O O15 0.200071 0.428429 0.431233
O O16 0.000000 0.000000 0.500000
#
# Coordination Sequence:
#
# PCOD8068397 Si02
#       7
#     4   4   4   4   4   4   4
#     4  10  18  34  53  76 111 144 182 215 263 329
#     4  10  18  30  55  83 106 138 180 224 269 317
#     4  10  17  30  53  79 104 133 180 231 263 307
#     4  11  23  36  53  80 112 144 177 227 281 322
#     4  11  19  34  54  81 115 140 175 223 278 329
#     4   9  17  34  56  79 102 143 185 221 257 319
#     4   9  20  37  58  77 101 140 188 222 262 319
#
# _framework density 20.317398000000001
#
# number of rings (size 3 to 8) (size 9 to 14) (size 15 to 20)
#    0.000    2.000    2.857    2.571    0.000    0.000 
#    0.000    5.000    0.000    0.000    0.000    7.000 
#    0.000    0.000    0.000    0.000    0.000    0.000 
#
# Total GULP energy -346920.290402 kJ/mol
# GULP energy per Si atom -12390.010372 kJ/mol
# Density = 2.027115 g / cm^3
# Si number density = 20.317398 Si / 1000 Ang^3
#
#
#
# Elastic Constant Matrix: (Units=GPa)
#
#
# Indices 1 2 3 4 5 6 
#
# 1 63.3651 23.6215 22.4282 0.0000 -22.3538 0.0000
# 2 23.6215 124.7916 26.3866 0.0000 -16.3627 0.0000
# 3 22.4282 26.3866 45.6512 0.0000 -31.8681 0.0000
# 4 0.0000 0.0000 0.0000 29.7187 0.0000 -4.2811
# 5 -22.3538 -16.3627 -31.8681 0.0000 31.6458 0.0000
# 6 0.0000 0.0000 0.0000 -4.2811 0.0000 26.3304
#
#
#
# Elastic Compliance Matrix: (Units=1/GPa)
#
#
# Indices 1 2 3 4 5 6 
#
# 1 0.021632 -0.002404 0.001889 0.000000 0.015939 0.000000
# 2 -0.002404 0.009434 -0.006909 0.000000 -0.003778 0.000000
# 3 0.001889 -0.006909 0.078811 0.000000 0.077127 0.000000
# 4 0.000000 0.000000 0.000000 0.034456 0.000000 0.005602
# 5 0.015939 -0.003778 0.077127 0.000000 0.118574 0.000000
# 6 0.000000 0.000000 0.000000 0.005602 0.000000 0.038890
#
#
# Mechanical properties :
#
#
# Convention : Reuss Voigt Hill
#
# Bulk Modulus (GPa) = 10.52312 42.07562 26.29937
# Shear Modulus (GPa) = 14.35452 28.29710 21.32581
#
# Velocity S-wave (km/s) = 2.66092 3.73601 3.24332
# Velocity P-wave (km/s) = 3.82508 6.27411 5.19595
#
# Compressibility (1/GPa) = 0.09502885
#
# Stress axis : x y z
#
# Youngs Moduli (GPa) = 46.22714 106.00018 12.68853
#
# Poissons Ratio (x) = 0.25484 -0.02396
# Poissons Ratio (y) = 0.11114 0.08766
# Poissons Ratio (z) = -0.08731 0.73235
#
# Static dielectric constant tensor:
#      x y z
#    x 3.581510 0.000000 -0.691160 
#    y 0.000000 3.939660 0.000000 
#    z -0.691160 0.000000 3.882800 
# 
# 
# High freq. dielectric constant tensor:
#      x y z
#    x 1.754540 0.000000 -0.048130 
#    y 0.000000 1.806600 0.000000 
#    z -0.048130 0.000000 1.781410 
# 
# From -- ./inp_files/31951.got.cif
#   From: 2010.06.25/outbox.cif.g09.slc.cpg/sg11_16_cif.got.tgz:31951.got - 2010.06.27 23:14:04.
