data_PCOD8068118
_publ_section_title
;
Structure prediction by ZEFSAII (Michael W. Deem and Ramdas Pophale) SiO2 
 PCOD8068118
Probable space group: P 21/M
;
_chemical_formula_sum "Si O2"
_cell_formula_units_Z 32
_cell_length_a 14.267034
_cell_length_b 21.037482
_cell_length_c 16.849603
_cell_angle_alpha 90.000000
_cell_angle_beta 23.923007
_cell_angle_gamma 90.000000
_cell_volume 2050.771491
_symmetry_space_group_name_H-M "P 21/M"
_symmetry_group_IT_number 11
_symmetry_cell_setting 'monoclinic'
loop_
_space_group_symop_operation_xyz
x,y,z
-x,1/2+y,-z
-x,-y,-z
x,1/2-y,z
loop_
_atom_site_type_symbol
_atom_site_label
_atom_site_fract_x
_atom_site_fract_y
_atom_site_fract_z
Si Si1 0.096875 0.676548 0.124741
Si Si2 0.466714 0.104826 0.174100
Si Si3 0.335793 0.039142 0.962284
Si Si4 0.836049 0.004885 0.354423
Si Si5 0.064770 0.101944 0.603945
Si Si6 0.557393 0.427520 0.941811
Si Si7 0.995371 0.929130 0.083323
Si Si8 0.655304 0.965166 0.219804
O O1 0.054736 0.750000 0.140572
O O2 0.958527 0.657114 0.311914
O O3 0.023103 0.639582 0.101847
O O4 0.364250 0.661174 0.931214
O O5 0.235576 0.118723 0.400632
O O6 0.594545 0.036266 0.087576
O O7 0.415896 0.111740 0.118668
O O8 0.476132 0.085183 0.914161
O O9 0.383985 0.064877 0.836806
O O10 0.063167 0.048121 0.192649
O O11 0.825590 0.957663 0.436726
O O12 0.860384 0.973425 0.249763
O O13 0.589551 0.039791 0.545342
O O14 0.826947 0.086048 0.743994
O O15 0.500000 0.500000 0.000000
O O16 0.838248 0.922248 0.126578
O O17 0.240300 0.962708 0.870265
#
# Coordination Sequence:
#
# PCOD8068118 Si02
#       8
#     4   4   4   4   4   4   4   4
#     4  10  19  33  47  64  91 117 151 195 230 272
#     4  10  17  30  43  63  92 122 149 184 222 273
#     4  10  17  27  41  66  94 121 151 176 222 271
#     4  10  15  26  40  61  88 119 146 178 223 272
#     4  10  17  28  45  63  90 122 153 177 226 271
#     4   9  17  27  39  64  94 124 148 180 214 263
#     4   9  18  30  41  65  85 118 156 187 233 275
#     4  10  17  27  45  61  92 121 149 188 227 282
#
# _framework density 15.603885
#
# number of rings (size 3 to 8) (size 9 to 14) (size 15 to 20)
#    0.000    2.250    7.500    0.375    0.000    3.500 
#    0.000    0.000    0.000    0.000    0.000    3.500 
#    0.000    4.000    0.000    0.000    0.000    0.000 
#
# Total GULP energy -396420.349094 kJ/mol
# GULP energy per Si atom -12388.135909 kJ/mol
# Density = 1.556837 g / cm^3
# Si number density = 15.603885 Si / 1000 Ang^3
#
#
#
# Elastic Constant Matrix: (Units=GPa)
#
#
# Indices 1 2 3 4 5 6 
#
# 1 118.5122 29.2614 24.0542 0.0000 -1.4576 0.0000
# 2 29.2614 51.0353 19.7351 0.0000 -1.7009 0.0000
# 3 24.0542 19.7351 104.1587 0.0000 7.6084 0.0000
# 4 0.0000 0.0000 0.0000 7.8288 0.0000 -0.8346
# 5 -1.4576 -1.7009 7.6084 0.0000 18.8442 0.0000
# 6 0.0000 0.0000 0.0000 -0.8346 0.0000 12.5732
#
#
#
# Elastic Compliance Matrix: (Units=1/GPa)
#
#
# Indices 1 2 3 4 5 6 
#
# 1 0.010008 -0.005170 -0.001395 0.000000 0.000871 0.000000
# 2 -0.005170 0.024058 -0.003600 0.000000 0.003225 0.000000
# 3 -0.001395 -0.003600 0.010960 0.000000 -0.004858 0.000000
# 4 0.000000 0.000000 0.000000 0.128644 0.000000 0.008539
# 5 0.000871 0.003225 -0.004858 0.000000 0.055387 0.000000
# 6 0.000000 0.000000 0.000000 0.008539 0.000000 0.080101
#
#
# Mechanical properties :
#
#
# Convention : Reuss Voigt Hill
#
# Bulk Modulus (GPa) = 40.49240 46.64527 43.56883
# Shear Modulus (GPa) = 14.80516 21.22628 18.01572
#
# Velocity S-wave (km/s) = 3.08362 3.69225 3.40158
# Velocity P-wave (km/s) = 6.21971 6.93796 6.58863
#
# Compressibility (1/GPa) = 0.02469600
#
# Stress axis : x y z
#
# Youngs Moduli (GPa) = 99.91692 41.56629 91.24136
#
# Poissons Ratio (x) = 0.21489 0.12732
# Poissons Ratio (y) = 0.51654 0.32847
# Poissons Ratio (z) = 0.13942 0.14964
#
# Static dielectric constant tensor:
#      x y z
#    x 3.540420 0.000000 0.094400 
#    y 0.000000 2.391510 0.000000 
#    z 0.094400 0.000000 3.014070 
# 
# 
# High freq. dielectric constant tensor:
#      x y z
#    x 1.616050 0.000000 0.005800 
#    y 0.000000 1.518560 0.000000 
#    z 0.005800 0.000000 1.608110 
# 
# From -- ./inp_files/53851.got.cif
#   From: 2010.06.25/outbox.cif.g09.slc.cpg/sg11_27_cif.got.tgz:53851.got - 2010.06.27 23:14:04.
