data_PCOD8068916
_publ_section_title
;
Structure prediction by ZEFSAII (Michael W. Deem and Ramdas Pophale) SiO2 
 PCOD8068916
Probable space group: P 21/M
;
_chemical_formula_sum "Si O2"
_cell_formula_units_Z 28
_cell_length_a 10.156591
_cell_length_b 8.824455
_cell_length_c 26.274880
_cell_angle_alpha 90.000000
_cell_angle_beta 40.058107
_cell_angle_gamma 90.000000
_cell_volume 1515.543669
_symmetry_space_group_name_H-M "P 21/M"
_symmetry_group_IT_number 11
_symmetry_cell_setting 'monoclinic'
loop_
_space_group_symop_operation_xyz
x,y,z
-x,1/2+y,-z
-x,-y,-z
x,1/2-y,z
loop_
_atom_site_type_symbol
_atom_site_label
_atom_site_fract_x
_atom_site_fract_y
_atom_site_fract_z
Si Si1 0.685990 0.571388 0.415101
Si Si2 0.640850 0.425147 0.999292
Si Si3 0.627315 0.429534 0.324163
Si Si4 0.189985 0.427164 0.415436
Si Si5 0.004305 0.571841 0.170396
Si Si6 0.710412 0.574127 0.830441
Si Si7 0.087340 0.425665 0.332664
O O1 0.500000 0.500000 0.500000
O O2 0.657420 0.750000 0.420789
O O3 0.699234 0.503602 0.355151
O O4 0.890490 0.531021 0.384962
O O5 0.633960 0.250000 0.989222
O O6 0.876074 0.475088 0.917963
O O7 0.500000 0.500000 0.000000
O O8 0.532906 0.460836 0.085844
O O9 0.630774 0.250000 0.328409
O O10 0.402224 0.489251 0.375838
O O11 0.790072 0.482022 0.233342
O O12 0.173409 0.250000 0.429468
O O13 0.190616 0.467352 0.355606
O O14 0.000000 0.500000 0.500000
O O15 0.958123 0.750000 0.187159
O O16 0.140494 0.526579 0.179070
O O17 0.759758 0.750000 0.827771
O O18 0.748152 0.537262 0.760110
O O19 0.018991 0.250000 0.351049
#
# Coordination Sequence:
#
# PCOD8068916 Si02
#       7
#     4   4   4   4   4   4   4
#     4  12  24  37  55  80 107 135 171 217 270 320
#     4   8  15  26  43  72 106 139 171 210 259 313
#     4  11  22  37  55  77 107 142 180 219 263 315
#     4  10  23  40  57  77 102 137 180 222 265 320
#     4  10  18  29  48  77 110 139 176 219 262 311
#     4   9  16  29  51  76 106 140 173 213 268 320
#     4  10  20  36  57  80 106 136 175 221 269 319
#
# _framework density 18.475217000000001
#
# number of rings (size 3 to 8) (size 9 to 14) (size 15 to 20)
#    0.000    2.000    1.429    3.000    0.000    4.571 
#    0.000    0.000    0.000    0.857    0.000    0.000 
#    0.000    0.000    0.000    0.000    0.000    0.857 
#
# Total GULP energy -346999.076638 kJ/mol
# GULP energy per Si atom -12392.824166 kJ/mol
# Density = 1.843317 g / cm^3
# Si number density = 18.475217 Si / 1000 Ang^3
#
#
#
# Elastic Constant Matrix: (Units=GPa)
#
#
# Indices 1 2 3 4 5 6 
#
# 1 54.3646 18.9384 26.0526 0.0000 -4.5740 0.0000
# 2 18.9384 63.7021 36.8627 0.0000 -4.3967 0.0000
# 3 26.0526 36.8627 154.8528 0.0000 -1.4377 0.0000
# 4 0.0000 0.0000 0.0000 29.5889 0.0000 -2.9495
# 5 -4.5740 -4.3967 -1.4377 0.0000 26.8357 0.0000
# 6 0.0000 0.0000 0.0000 -2.9495 0.0000 14.9613
#
#
#
# Elastic Compliance Matrix: (Units=1/GPa)
#
#
# Indices 1 2 3 4 5 6 
#
# 1 0.021462 -0.004774 -0.002449 0.000000 0.002745 0.000000
# 2 -0.004774 0.019473 -0.003812 0.000000 0.002173 0.000000
# 3 -0.002449 -0.003812 0.007771 0.000000 -0.000626 0.000000
# 4 0.000000 0.000000 0.000000 0.034474 0.000000 0.006796
# 5 0.002745 0.002173 -0.000626 0.000000 0.038054 0.000000
# 6 0.000000 0.000000 0.000000 0.006796 0.000000 0.068179
#
#
# Mechanical properties :
#
#
# Convention : Reuss Voigt Hill
#
# Bulk Modulus (GPa) = 37.54261 48.51411 43.02836
# Shear Modulus (GPa) = 22.68987 27.01491 24.85239
#
# Velocity S-wave (km/s) = 3.50826 3.82805 3.67164
# Velocity P-wave (km/s) = 6.06425 6.77161 6.42767
#
# Compressibility (1/GPa) = 0.02663640
#
# Stress axis : x y z
#
# Youngs Moduli (GPa) = 46.59435 51.35215 128.67624
#
# Poissons Ratio (x) = 0.24516 0.31510
# Poissons Ratio (y) = 0.22244 0.49055
# Poissons Ratio (z) = 0.11410 0.19577
#
# Static dielectric constant tensor:
#      x y z
#    x 3.167400 0.000000 0.092230 
#    y 0.000000 3.342000 0.000000 
#    z 0.092230 0.000000 4.166880 
# 
# 
# High freq. dielectric constant tensor:
#      x y z
#    x 1.669480 0.000000 0.004230 
#    y 0.000000 1.717750 0.000000 
#    z 0.004230 0.000000 1.748310 
# 
# From -- ./inp_files/61230.got.cif
#   From: 2010.06.25/outbox.cif.g09.slc.cpg/sg11_31_cif.got.tgz:61230.got - 2010.06.27 23:14:04.
