data_PCOD8068448
_publ_section_title
;
Structure prediction by ZEFSAII (Michael W. Deem and Ramdas Pophale) SiO2 
 PCOD8068448
Probable space group: P 21/M
;
_chemical_formula_sum "Si O2"
_cell_formula_units_Z 32
_cell_length_a 10.998330
_cell_length_b 23.636459
_cell_length_c 9.131524
_cell_angle_alpha 90.000000
_cell_angle_beta 133.917773
_cell_angle_gamma 90.000000
_cell_volume 1709.966245
_symmetry_space_group_name_H-M "P 21/M"
_symmetry_group_IT_number 11
_symmetry_cell_setting 'monoclinic'
loop_
_space_group_symop_operation_xyz
x,y,z
-x,1/2+y,-z
-x,-y,-z
x,1/2-y,z
loop_
_atom_site_type_symbol
_atom_site_label
_atom_site_fract_x
_atom_site_fract_y
_atom_site_fract_z
Si Si1 0.062351 0.407017 0.093549
Si Si2 0.978175 0.316476 0.240900
Si Si3 0.603861 0.429037 0.324626
Si Si4 0.647254 0.374587 0.049423
Si Si5 0.570709 0.884076 0.558686
Si Si6 0.393578 0.532279 0.214679
Si Si7 0.140095 0.978885 0.267132
Si Si8 0.644933 0.815093 0.359649
O O1 0.250844 0.388359 0.213628
O O2 0.050906 0.459682 0.201144
O O3 0.966551 0.352762 0.081459
O O4 0.985421 0.426810 0.874384
O O5 0.978266 0.250000 0.203345
O O6 0.807241 0.331714 0.186814
O O7 0.154530 0.332609 0.473371
O O8 0.625498 0.395621 0.195207
O O9 0.569440 0.384883 0.430236
O O10 0.454488 0.475022 0.186739
O O11 0.773055 0.463694 0.506854
O O12 0.687676 0.426630 0.974718
O O13 0.467436 0.346646 0.856344
O O14 0.549131 0.937230 0.428928
O O15 0.564008 0.827761 0.452740
O O16 0.260466 0.515933 0.226112
O O17 0.625733 0.750000 0.308487
#
# Coordination Sequence:
#
# PCOD8068448 Si02
#       8
#     4   4   4   4   4   4   4   4
#     4  10  17  32  57  84 109 147 187 235 285 327
#     4  10  21  39  61  82 105 144 201 242 269 330
#     4  11  20  34  50  86 116 150 177 227 284 348
#     4  11  22  36  56  82 119 150 187 222 286 343
#     4   9  17  32  58  78 108 138 184 234 276 324
#     4  10  17  34  52  77 113 154 181 218 270 350
#     4  10  18  31  56  82 119 144 183 227 289 338
#     4   9  20  39  62  80 100 142 195 240 279 330
#
# _framework density 18.713819999999998
#
# number of rings (size 3 to 8) (size 9 to 14) (size 15 to 20)
#    0.000    2.000    3.750    1.500    0.000    0.000 
#    2.250    1.875    0.000    1.500    0.000    0.000 
#    0.000    0.000    0.000    0.000    0.000    0.000 
#
# Total GULP energy -396511.802372 kJ/mol
# GULP energy per Si atom -12390.993824 kJ/mol
# Density = 1.867123 g / cm^3
# Si number density = 18.713820 Si / 1000 Ang^3
#
#
#
# Elastic Constant Matrix: (Units=GPa)
#
#
# Indices 1 2 3 4 5 6 
#
# 1 58.5640 33.3841 33.2066 0.0000 -1.5966 0.0000
# 2 33.3841 83.8964 41.8316 0.0000 -8.6767 0.0000
# 3 33.2066 41.8316 91.7363 0.0000 -1.6478 0.0000
# 4 0.0000 0.0000 0.0000 22.8638 0.0000 0.9216
# 5 -1.5966 -8.6767 -1.6478 0.0000 27.1384 0.0000
# 6 0.0000 0.0000 0.0000 0.9216 0.0000 26.5285
#
#
#
# Elastic Compliance Matrix: (Units=1/GPa)
#
#
# Indices 1 2 3 4 5 6 
#
# 1 0.024182 -0.006945 -0.005607 0.000000 -0.001138 0.000000
# 2 -0.006945 0.017993 -0.005601 0.000000 0.005004 0.000000
# 3 -0.005607 -0.005601 0.015463 0.000000 -0.001182 0.000000
# 4 0.000000 0.000000 0.000000 0.043799 0.000000 -0.001522
# 5 -0.001138 0.005004 -0.001182 0.000000 0.038309 0.000000
# 6 0.000000 0.000000 0.000000 -0.001522 0.000000 0.037748
#
#
# Mechanical properties :
#
#
# Convention : Reuss Voigt Hill
#
# Bulk Modulus (GPa) = 46.87569 50.11569 48.49569
# Shear Modulus (GPa) = 22.63342 23.69109 23.16226
#
# Velocity S-wave (km/s) = 3.48149 3.56190 3.52193
# Velocity P-wave (km/s) = 6.42371 6.61471 6.51991
#
# Compressibility (1/GPa) = 0.02133302
#
# Stress axis : x y z
#
# Youngs Moduli (GPa) = 41.35233 55.57660 64.66873
#
# Poissons Ratio (x) = 0.38596 0.36261
# Poissons Ratio (y) = 0.28717 0.36222
# Poissons Ratio (z) = 0.23187 0.31129
#
# Static dielectric constant tensor:
#      x y z
#    x 3.252090 0.000000 0.371020 
#    y 0.000000 3.502130 0.000000 
#    z 0.371020 0.000000 3.571680 
# 
# 
# High freq. dielectric constant tensor:
#      x y z
#    x 1.697990 0.000000 0.032540 
#    y 0.000000 1.719120 0.000000 
#    z 0.032540 0.000000 1.723380 
# 
# From -- ./inp_files/19651.got.cif
#   From: 2010.06.25/outbox.cif.g09.slc.cpg/sg11_10_cif.got.tgz:19651.got - 2010.06.27 23:14:04.
