data_PCOD8068195
_publ_section_title
;
Structure prediction by ZEFSAII (Michael W. Deem and Ramdas Pophale) SiO2 
 PCOD8068195
Probable space group: P 21/M
;
_chemical_formula_sum "Si O2"
_cell_formula_units_Z 32
_cell_length_a 11.150833
_cell_length_b 14.054118
_cell_length_c 29.430923
_cell_angle_alpha 90.000000
_cell_angle_beta 152.433590
_cell_angle_gamma 90.000000
_cell_volume 2134.450097
_symmetry_space_group_name_H-M "P 21/M"
_symmetry_group_IT_number 11
_symmetry_cell_setting 'monoclinic'
loop_
_space_group_symop_operation_xyz
x,y,z
-x,1/2+y,-z
-x,-y,-z
x,1/2-y,z
loop_
_atom_site_type_symbol
_atom_site_label
_atom_site_fract_x
_atom_site_fract_y
_atom_site_fract_z
Si Si1 0.689372 0.855559 0.701779
Si Si2 0.039619 0.862126 0.978762
Si Si3 0.299072 0.983947 0.608348
Si Si4 0.366743 0.520037 0.022334
Si Si5 0.895381 0.000992 0.159454
Si Si6 0.959310 0.642464 0.052635
Si Si7 0.425804 0.144719 0.237996
Si Si8 0.713107 0.140740 0.750912
O O1 0.663663 0.750000 0.670918
O O2 0.754977 0.847680 0.777653
O O3 0.417051 0.915104 0.607986
O O4 0.923093 0.915846 0.758017
O O5 0.072189 0.750000 0.986242
O O6 0.760294 0.893717 0.864387
O O7 0.275290 0.906270 0.029765
O O8 0.050465 0.897988 0.034425
O O9 0.441616 0.085821 0.655008
O O10 0.345782 0.931253 0.673228
O O11 0.000000 0.000000 0.500000
O O12 0.240529 0.543018 0.931229
O O13 0.286080 0.414515 0.010806
O O14 0.678304 0.526194 0.123535
O O15 0.067301 0.907881 0.206577
O O16 0.860655 0.750000 0.014566
O O17 0.202330 0.634153 0.168117
O O18 0.541041 0.250000 0.265092
O O19 0.677224 0.250000 0.723293
#
# Coordination Sequence:
#
# PCOD8068195 Si02
#       8
#     4   4   4   4   4   4   4   4
#     4   8  14  26  40  53  76 103 128 160 197 230
#     4  10  17  27  43  59  80 110 140 166 191 227
#     4   9  16  25  39  59  80 102 131 162 196 244
#     4  10  17  25  38  56  78 107 141 169 192 221
#     4   9  17  26  37  55  79 107 139 167 190 228
#     4   9  18  29  40  58  83 111 139 162 192 232
#     4   8  14  25  40  57  78 103 131 162 196 227
#     4   9  17  29  40  55  84 114 131 156 199 238
#
# _framework density 14.992153
#
# number of rings (size 3 to 8) (size 9 to 14) (size 15 to 20)
#    0.750    2.250    1.250    1.125    0.000    2.000 
#    0.000    2.500    0.000    0.000    0.000    0.000 
#    0.000   16.000    0.000   45.000    0.000    3.250 
#
# Total GULP energy -396418.853314 kJ/mol
# GULP energy per Si atom -12388.089166 kJ/mol
# Density = 1.495803 g / cm^3
# Si number density = 14.992153 Si / 1000 Ang^3
#
#
#
# Elastic Constant Matrix: (Units=GPa)
#
#
# Indices 1 2 3 4 5 6 
#
# 1 59.8246 25.5067 39.8776 0.0000 12.7832 0.0000
# 2 25.5067 94.7461 53.3495 0.0000 14.8127 0.0000
# 3 39.8776 53.3495 98.4935 0.0000 26.5316 0.0000
# 4 0.0000 0.0000 0.0000 13.6168 0.0000 -0.9078
# 5 12.7832 14.8127 26.5316 0.0000 17.5015 0.0000
# 6 0.0000 0.0000 0.0000 -0.9078 0.0000 14.2599
#
#
#
# Elastic Compliance Matrix: (Units=1/GPa)
#
#
# Indices 1 2 3 4 5 6 
#
# 1 0.023226 -0.001348 -0.007456 0.000000 -0.004521 0.000000
# 2 -0.001348 0.015269 -0.007621 0.000000 -0.000386 0.000000
# 3 -0.007456 -0.007621 0.023824 0.000000 -0.024220 0.000000
# 4 0.000000 0.000000 0.000000 0.073752 0.000000 0.004695
# 5 -0.004521 -0.000386 -0.024220 0.000000 0.097484 0.000000
# 6 0.000000 0.000000 0.000000 0.004695 0.000000 0.070426
#
#
# Mechanical properties :
#
#
# Convention : Reuss Voigt Hill
#
# Bulk Modulus (GPa) = 33.93287 54.50354 44.21821
# Shear Modulus (GPa) = 14.42368 18.03098 16.22733
#
# Velocity S-wave (km/s) = 3.10511 3.47175 3.29354
# Velocity P-wave (km/s) = 5.96142 7.24599 6.63487
#
# Compressibility (1/GPa) = 0.02946995
#
# Stress axis : x y z
#
# Youngs Moduli (GPa) = 43.05510 65.49311 41.97474
#
# Poissons Ratio (x) = 0.08826 0.31296
# Poissons Ratio (y) = 0.05802 0.31989
# Poissons Ratio (z) = 0.32101 0.49912
#
# Static dielectric constant tensor:
#      x y z
#    x 2.679440 0.000000 0.051550 
#    y 0.000000 3.100950 0.000000 
#    z 0.051550 0.000000 2.559920 
# 
# 
# High freq. dielectric constant tensor:
#      x y z
#    x 1.534050 0.000000 0.010540 
#    y 0.000000 1.591170 0.000000 
#    z 0.010540 0.000000 1.538210 
# 
# From -- ./inp_files/71120.got.cif
#   From: 2010.06.25/outbox.cif.g09.slc.cpg/sg11_36_cif.got.tgz:71120.got - 2010.06.27 23:14:04.
