data_PCOD8068467
_publ_section_title
;
Structure prediction by ZEFSAII (Michael W. Deem and Ramdas Pophale) SiO2 
 PCOD8068467
Probable space group: P 21/M
;
_chemical_formula_sum "Si O2"
_cell_formula_units_Z 28
_cell_length_a 8.456831
_cell_length_b 21.462580
_cell_length_c 8.615812
_cell_angle_alpha 90.000000
_cell_angle_beta 112.501462
_cell_angle_gamma 90.000000
_cell_volume 1444.762791
_symmetry_space_group_name_H-M "P 21/M"
_symmetry_group_IT_number 11
_symmetry_cell_setting 'monoclinic'
loop_
_space_group_symop_operation_xyz
x,y,z
-x,1/2+y,-z
-x,-y,-z
x,1/2-y,z
loop_
_atom_site_type_symbol
_atom_site_label
_atom_site_fract_x
_atom_site_fract_y
_atom_site_fract_z
Si Si1 0.042821 0.817325 0.017409
Si Si2 0.644191 0.323593 0.403105
Si Si3 0.108880 0.025417 0.188580
Si Si4 0.860372 0.382616 0.234352
Si Si5 0.311359 0.367161 0.102327
Si Si6 0.298743 0.905481 0.285419
Si Si7 0.477262 0.930707 0.049562
O O1 0.116184 0.750000 0.091344
O O2 0.060545 0.827177 0.839331
O O3 0.842315 0.819161 0.983121
O O4 0.144591 0.870031 0.144314
O O5 0.674275 0.250000 0.445537
O O6 0.813766 0.353550 0.384697
O O7 0.470650 0.332100 0.241378
O O8 0.620992 0.362305 0.552574
O O9 0.249217 0.074467 0.181551
O O10 0.990735 0.058265 0.276483
O O11 0.212202 0.969728 0.312310
O O12 0.000000 0.000000 0.000000
O O13 0.686428 0.404668 0.095877
O O14 0.361697 0.390588 0.948759
O O15 0.453205 0.923221 0.225514
O O16 0.500000 0.000000 0.000000
#
# Coordination Sequence:
#
# PCOD8068467 Si02
#       7
#     4   4   4   4   4   4   4
#     4  10  19  36  60  83 105 154 207 235 274 340
#     4  11  24  41  53  82 123 157 194 234 280 348
#     4  11  17  37  62  93 115 137 195 251 290 339
#     4   9  20  34  59  82 109 156 186 234 287 342
#     4  10  20  35  61  84 114 153 189 237 289 338
#     4  11  22  35  61  85 119 152 185 244 298 332
#     4  10  17  33  57  86 113 144 182 235 288 349
#
# _framework density 19.380343
#
# number of rings (size 3 to 8) (size 9 to 14) (size 15 to 20)
#    0.000    1.714    5.714    1.286    0.000    1.143 
#    0.000    5.000    0.000    0.000    0.000    0.000 
#    0.000    0.000    0.000    0.000    0.000    0.000 
#
# Total GULP energy -346954.842710 kJ/mol
# GULP energy per Si atom -12391.244382 kJ/mol
# Density = 1.933623 g / cm^3
# Si number density = 19.380343 Si / 1000 Ang^3
#
#
#
# Elastic Constant Matrix: (Units=GPa)
#
#
# Indices 1 2 3 4 5 6 
#
# 1 108.7865 31.7531 21.0510 0.0000 -23.6810 0.0000
# 2 31.7531 116.9694 13.6083 0.0000 -14.4768 0.0000
# 3 21.0510 13.6083 45.6478 0.0000 -17.1689 0.0000
# 4 0.0000 0.0000 0.0000 24.5983 0.0000 2.9081
# 5 -23.6810 -14.4768 -17.1689 0.0000 25.9511 0.0000
# 6 0.0000 0.0000 0.0000 2.9081 0.0000 18.6984
#
#
#
# Elastic Compliance Matrix: (Units=1/GPa)
#
#
# Indices 1 2 3 4 5 6 
#
# 1 0.011994 -0.001981 -0.001650 0.000000 0.008748 0.000000
# 2 -0.001981 0.009551 -0.000812 0.000000 0.002983 0.000000
# 3 -0.001650 -0.000812 0.029518 0.000000 0.017570 0.000000
# 4 0.000000 0.000000 0.000000 0.041415 0.000000 -0.006441
# 5 0.008748 0.002983 0.017570 0.000000 0.059805 0.000000
# 6 0.000000 0.000000 0.000000 -0.006441 0.000000 0.054482
#
#
# Mechanical properties :
#
#
# Convention : Reuss Voigt Hill
#
# Bulk Modulus (GPa) = 23.70979 44.91431 34.31205
# Shear Modulus (GPa) = 21.76651 27.51565 24.64108
#
# Velocity S-wave (km/s) = 3.35494 3.77207 3.56960
# Velocity P-wave (km/s) = 5.22188 6.49591 5.89342
#
# Compressibility (1/GPa) = 0.04217667
#
# Stress axis : x y z
#
# Youngs Moduli (GPa) = 83.37310 104.70432 33.87724
#
# Poissons Ratio (x) = 0.20745 0.05591
# Poissons Ratio (y) = 0.16519 0.02749
# Poissons Ratio (z) = 0.13760 0.08498
#
# Static dielectric constant tensor:
#      x y z
#    x 4.150390 0.000000 -0.414190 
#    y 0.000000 3.748370 0.000000 
#    z -0.414190 0.000000 3.308320 
# 
# 
# High freq. dielectric constant tensor:
#      x y z
#    x 1.769400 0.000000 -0.011180 
#    y 0.000000 1.768780 0.000000 
#    z -0.011180 0.000000 1.706230 
# 
# From -- ./inp_files/14079.got.cif
#   From: 2010.06.25/outbox.cif.g09.slc.cpg/sg11_8_cif.got.tgz:14079.got - 2010.06.27 23:14:04.
