data_PCOD8068936
_publ_section_title
;
Structure prediction by ZEFSAII (Michael W. Deem and Ramdas Pophale) SiO2 
 PCOD8068936
Probable space group: P 21/M
;
_chemical_formula_sum "Si O2"
_cell_formula_units_Z 32
_cell_length_a 21.531251
_cell_length_b 9.037414
_cell_length_c 11.637901
_cell_angle_alpha 90.000000
_cell_angle_beta 127.332376
_cell_angle_gamma 90.000000
_cell_volume 1800.639393
_symmetry_space_group_name_H-M "P 21/M"
_symmetry_group_IT_number 11
_symmetry_cell_setting 'monoclinic'
loop_
_space_group_symop_operation_xyz
x,y,z
-x,1/2+y,-z
-x,-y,-z
x,1/2-y,z
loop_
_atom_site_type_symbol
_atom_site_label
_atom_site_fract_x
_atom_site_fract_y
_atom_site_fract_z
Si Si1 0.239530 0.917464 0.657743
Si Si2 0.095745 0.578999 0.329289
Si Si3 0.265315 0.925138 0.137928
Si Si4 0.183910 0.076173 0.243318
Si Si5 0.578028 0.418107 0.555866
Si Si6 0.036282 0.423122 0.650216
Si Si7 0.683156 0.418423 0.477857
Si Si8 0.214715 0.075901 0.858300
O O1 0.235027 0.750000 0.700499
O O2 0.162205 0.955440 0.498297
O O3 0.315593 0.936757 0.659088
O O4 0.248474 0.030488 0.772228
O O5 0.098171 0.750000 0.296570
O O6 0.108011 0.483836 0.226925
O O7 0.012553 0.534367 0.290625
O O8 0.254210 0.750000 0.123322
O O9 0.348155 0.972354 0.286335
O O10 0.194402 0.997618 0.131452
O O11 0.264455 0.990318 0.009320
O O12 0.175497 0.250000 0.213953
O O13 0.258602 0.038319 0.404424
O O14 0.500000 0.500000 0.500000
O O15 0.560447 0.250000 0.564834
O O16 0.598564 0.441775 0.442676
O O17 0.031479 0.250000 0.620554
O O18 0.124861 0.475171 0.767890
O O19 0.000000 0.500000 0.500000
O O20 0.712462 0.250000 0.541673
O O21 0.225009 0.250000 0.886779
#
# Coordination Sequence:
#
# PCOD8068936 Si02
#       8
#     4   4   4   4   4   4   4   4
#     4   9  16  29  50  71  97 137 176 205 245 303
#     4   9  17  31  49  69  97 135 173 209 257 313
#     4  10  21  38  55  72 101 140 173 198 244 317
#     4  10  18  29  49  75  99 125 165 219 262 291
#     4   9  18  33  56  83 106 130 161 202 247 297
#     4  10  20  33  49  71 102 135 172 218 262 305
#     4   8  16  31  49  73 105 137 169 199 241 304
#     4  11  22  33  49  76 105 132 170 221 262 293
#
# _framework density 17.771464999999999
#
# number of rings (size 3 to 8) (size 9 to 14) (size 15 to 20)
#    0.000    2.500    1.250    3.375    0.000    5.500 
#    0.000    0.625    0.000    0.750    0.000    0.000 
#    0.000    0.000    0.000    0.000    0.000    0.000 
#
# Total GULP energy -396643.708584 kJ/mol
# GULP energy per Si atom -12395.115893 kJ/mol
# Density = 1.773102 g / cm^3
# Si number density = 17.771465 Si / 1000 Ang^3
#
#
#
# Elastic Constant Matrix: (Units=GPa)
#
#
# Indices 1 2 3 4 5 6 
#
# 1 141.7344 45.1053 47.3398 0.0000 -9.0431 0.0000
# 2 45.1053 76.7942 35.8889 0.0000 -7.3579 0.0000
# 3 47.3398 35.8889 61.6608 0.0000 -11.2666 0.0000
# 4 0.0000 0.0000 0.0000 23.7508 0.0000 -4.4498
# 5 -9.0431 -7.3579 -11.2666 0.0000 22.3920 0.0000
# 6 0.0000 0.0000 0.0000 -4.4498 0.0000 32.1049
#
#
#
# Elastic Compliance Matrix: (Units=1/GPa)
#
#
# Indices 1 2 3 4 5 6 
#
# 1 0.010012 -0.003142 -0.005845 0.000000 0.000070 0.000000
# 2 -0.003142 0.018884 -0.008454 0.000000 0.000683 0.000000
# 3 -0.005845 -0.008454 0.027186 0.000000 0.008540 0.000000
# 4 0.000000 0.000000 0.000000 0.043226 0.000000 0.005991
# 5 0.000070 0.000683 0.008540 0.000000 0.049209 0.000000
# 6 0.000000 0.000000 0.000000 0.005991 0.000000 0.031978
#
#
# Mechanical properties :
#
#
# Convention : Reuss Voigt Hill
#
# Bulk Modulus (GPa) = 47.17057 59.65083 53.41070
# Shear Modulus (GPa) = 22.47757 25.77325 24.12541
#
# Velocity S-wave (km/s) = 3.56028 3.81236 3.68847
# Velocity P-wave (km/s) = 6.59555 7.28129 6.94689
#
# Compressibility (1/GPa) = 0.02119966
#
# Stress axis : x y z
#
# Youngs Moduli (GPa) = 99.87808 52.95589 36.78344
#
# Poissons Ratio (x) = 0.16641 0.21500
# Poissons Ratio (y) = 0.31385 0.31096
# Poissons Ratio (z) = 0.58379 0.44768
#
# Static dielectric constant tensor:
#      x y z
#    x 3.629970 0.000000 -0.202370 
#    y 0.000000 3.211780 0.000000 
#    z -0.202370 0.000000 2.938940 
# 
# 
# High freq. dielectric constant tensor:
#      x y z
#    x 1.697940 0.000000 -0.024010 
#    y 0.000000 1.687170 0.000000 
#    z -0.024010 0.000000 1.640570 
# 
# From -- ./inp_files/42453.got.cif
#   From: 2010.06.25/outbox.cif.g09.slc.cpg/sg11_22_cif.got.tgz:42453.got - 2010.06.27 23:14:04.
