data_PCOD8068348
_publ_section_title
;
Structure prediction by ZEFSAII (Michael W. Deem and Ramdas Pophale) SiO2 
 PCOD8068348
Probable space group: P 21/M
;
_chemical_formula_sum "Si O2"
_cell_formula_units_Z 32
_cell_length_a 17.751649
_cell_length_b 8.683539
_cell_length_c 12.544229
_cell_angle_alpha 90.000000
_cell_angle_beta 75.830716
_cell_angle_gamma 90.000000
_cell_volume 1874.828789
_symmetry_space_group_name_H-M "P 21/M"
_symmetry_group_IT_number 11
_symmetry_cell_setting 'monoclinic'
loop_
_space_group_symop_operation_xyz
x,y,z
-x,1/2+y,-z
-x,-y,-z
x,1/2-y,z
loop_
_atom_site_type_symbol
_atom_site_label
_atom_site_fract_x
_atom_site_fract_y
_atom_site_fract_z
Si Si1 0.652248 0.068081 0.572511
Si Si2 0.658497 0.569582 0.338026
Si Si3 0.090408 0.567968 0.643885
Si Si4 0.184339 0.568335 0.409105
Si Si5 0.921855 0.068946 0.979419
Si Si6 0.822540 0.929557 0.187198
Si Si7 0.495935 0.567585 0.619608
Si Si8 0.072004 0.931657 0.265940
O O1 0.639644 0.250000 0.579987
O O2 0.725950 0.013601 0.617519
O O3 0.668779 0.018832 0.445557
O O4 0.575535 0.986764 0.649379
O O5 0.649364 0.750000 0.365148
O O6 0.732309 0.533324 0.238838
O O7 0.582138 0.505485 0.301798
O O8 0.098538 0.750000 0.651703
O O9 0.136745 0.500747 0.526111
O O10 0.123473 0.491790 0.738236
O O11 0.001181 0.521411 0.661185
O O12 0.181552 0.750000 0.421306
O O13 0.146091 0.516214 0.311016
O O14 0.927119 0.250000 0.989078
O O15 0.846543 0.008533 0.068251
O O16 0.911564 0.017921 0.860667
O O17 0.000000 0.000000 0.000000
O O18 0.838450 0.750000 0.172193
O O19 0.500000 0.500000 0.500000
O O20 0.489857 0.750000 0.621818
O O21 0.056325 0.750000 0.280721
#
# Coordination Sequence:
#
# PCOD8068348 Si02
#       8
#     4   4   4   4   4   4   4   4
#     4  10  17  29  48  70  99 133 162 196 239 293
#     4  10  19  31  47  70  98 129 164 202 244 294
#     4  11  20  32  51  74  99 130 167 206 247 297
#     4   9  19  33  50  73 101 132 168 203 245 298
#     4  11  22  35  54  73  97 129 169 212 254 297
#     4  11  22  34  51  73 100 132 167 208 252 296
#     4  10  18  28  44  68  99 132 162 196 237 291
#     4  10  21  37  52  70  97 132 169 209 251 295
#
# _framework density 17.068225000000002
#
# number of rings (size 3 to 8) (size 9 to 14) (size 15 to 20)
#    0.000    1.750    2.500    4.875    0.000    2.000 
#    0.000    1.875    0.000    0.000    0.000    0.875 
#    0.000    0.000    0.000    0.000    0.000    0.000 
#
# Total GULP energy -396763.581960 kJ/mol
# GULP energy per Si atom -12398.861936 kJ/mol
# Density = 1.702938 g / cm^3
# Si number density = 17.068225 Si / 1000 Ang^3
#
#
#
# Elastic Constant Matrix: (Units=GPa)
#
#
# Indices 1 2 3 4 5 6 
#
# 1 153.3788 35.4146 54.0271 0.0000 -8.6744 0.0000
# 2 35.4146 58.9390 17.2684 0.0000 -6.1380 0.0000
# 3 54.0271 17.2684 69.3251 0.0000 2.6839 0.0000
# 4 0.0000 0.0000 0.0000 19.0278 0.0000 -6.1966
# 5 -8.6744 -6.1380 2.6839 0.0000 22.0659 0.0000
# 6 0.0000 0.0000 0.0000 -6.1966 0.0000 25.8069
#
#
#
# Elastic Compliance Matrix: (Units=1/GPa)
#
#
# Indices 1 2 3 4 5 6 
#
# 1 0.010061 -0.003566 -0.007100 0.000000 0.003827 0.000000
# 2 -0.003566 0.020302 -0.002454 0.000000 0.004544 0.000000
# 3 -0.007100 -0.002454 0.020802 0.000000 -0.006004 0.000000
# 4 0.000000 0.000000 0.000000 0.057013 0.000000 0.013690
# 5 0.003827 0.004544 -0.006004 0.000000 0.048817 0.000000
# 6 0.000000 0.000000 0.000000 0.013690 0.000000 0.042036
#
#
# Mechanical properties :
#
#
# Convention : Reuss Voigt Hill
#
# Bulk Modulus (GPa) = 40.12244 55.00702 47.56473
# Shear Modulus (GPa) = 21.40596 25.04229 23.22413
#
# Velocity S-wave (km/s) = 3.54523 3.83454 3.69272
# Velocity P-wave (km/s) = 6.34951 7.20435 6.79040
#
# Compressibility (1/GPa) = 0.02492371
#
# Stress axis : x y z
#
# Youngs Moduli (GPa) = 99.39568 49.25707 48.07228
#
# Poissons Ratio (x) = 0.17567 0.34134
# Poissons Ratio (y) = 0.35448 0.11795
# Poissons Ratio (z) = 0.70576 0.12085
#
# Static dielectric constant tensor:
#      x y z
#    x 3.790160 0.000000 -0.238700 
#    y 0.000000 3.202120 0.000000 
#    z -0.238700 0.000000 3.106100 
# 
# 
# High freq. dielectric constant tensor:
#      x y z
#    x 1.668080 0.000000 -0.015800 
#    y 0.000000 1.664390 0.000000 
#    z -0.015800 0.000000 1.620850 
# 
# From -- ./inp_files/40550.got.cif
#   From: 2010.06.25/outbox.cif.g09.slc.cpg/sg11_21_cif.got.tgz:40550.got - 2010.06.27 23:14:04.
