data_PCOD8068859
_publ_section_title
;
Structure prediction by ZEFSAII (Michael W. Deem and Ramdas Pophale) SiO2 
 PCOD8068859
Probable space group: P 21/M
;
_chemical_formula_sum "Si O2"
_cell_formula_units_Z 32
_cell_length_a 20.230101
_cell_length_b 9.214889
_cell_length_c 28.808455
_cell_angle_alpha 90.000000
_cell_angle_beta 20.627895
_cell_angle_gamma 90.000000
_cell_volume 1891.984117
_symmetry_space_group_name_H-M "P 21/M"
_symmetry_group_IT_number 11
_symmetry_cell_setting 'monoclinic'
loop_
_space_group_symop_operation_xyz
x,y,z
-x,1/2+y,-z
-x,-y,-z
x,1/2-y,z
loop_
_atom_site_type_symbol
_atom_site_label
_atom_site_fract_x
_atom_site_fract_y
_atom_site_fract_z
Si Si1 0.325284 0.421585 0.396730
Si Si2 0.834849 0.916120 0.949941
Si Si3 0.193162 0.416089 0.134259
Si Si4 0.290563 0.919940 0.816746
Si Si5 0.455803 0.421786 0.210349
Si Si6 0.010365 0.584022 0.926512
Si Si7 0.062263 0.577850 0.308207
Si Si8 0.381974 0.580351 0.168148
O O1 0.316640 0.250000 0.406277
O O2 0.499465 0.481602 0.313411
O O3 0.348444 0.467483 0.327901
O O4 0.131974 0.486317 0.543795
O O5 0.759481 0.750000 0.001374
O O6 0.902246 0.948396 0.853195
O O7 0.007796 0.939440 0.872327
O O8 0.667482 0.021270 0.074720
O O9 0.165515 0.250000 0.167591
O O10 0.090504 0.517447 0.238268
O O11 0.413212 0.455073 0.986804
O O12 0.292429 0.750000 0.825819
O O13 0.213852 0.955872 0.815028
O O14 0.151851 0.987430 0.945310
O O15 0.460396 0.250000 0.200403
O O16 0.346985 0.494317 0.238877
O O17 0.962962 0.750000 0.970200
O O18 0.059168 0.750000 0.306860
O O19 0.230574 0.524520 0.230576
O O20 0.358423 0.750000 0.194316
#
# Coordination Sequence:
#
# PCOD8068859 Si02
#       8
#     4   4   4   4   4   4   4   4
#     4   9  18  31  46  67  98 127 152 187 227 271
#     4   9  17  30  47  70  98 122 149 190 234 274
#     4   9  18  32  48  67  91 115 149 201 243 268
#     4   9  16  28  45  68  98 126 150 183 223 267
#     4  10  18  29  47  70  95 123 152 185 229 278
#     4   9  16  26  46  72  95 122 154 183 222 273
#     4  10  20  34  50  66  88 124 162 191 228 277
#     4   9  19  34  50  68  92 118 149 197 242 274
#
# _framework density 16.913461999999999
#
# number of rings (size 3 to 8) (size 9 to 14) (size 15 to 20)
#    0.000    2.750    1.250    1.500    0.000    3.000 
#    0.000    1.875    0.000    0.750    0.000    0.000 
#    0.000    0.000    0.000    0.000    0.000    0.250 
#
# Total GULP energy -396632.581791 kJ/mol
# GULP energy per Si atom -12394.768181 kJ/mol
# Density = 1.687497 g / cm^3
# Si number density = 16.913462 Si / 1000 Ang^3
#
#
#
# Elastic Constant Matrix: (Units=GPa)
#
#
# Indices 1 2 3 4 5 6 
#
# 1 153.0082 34.2393 60.8124 0.0000 7.1162 0.0000
# 2 34.2393 36.0300 25.5994 0.0000 5.9447 0.0000
# 3 60.8124 25.5994 79.7627 0.0000 13.2501 0.0000
# 4 0.0000 0.0000 0.0000 16.9621 0.0000 3.8950
# 5 7.1162 5.9447 13.2501 0.0000 17.7692 0.0000
# 6 0.0000 0.0000 0.0000 3.8950 0.0000 24.6947
#
#
#
# Elastic Compliance Matrix: (Units=1/GPa)
#
#
# Indices 1 2 3 4 5 6 
#
# 1 0.010217 -0.005564 -0.006430 0.000000 0.002564 0.000000
# 2 -0.005564 0.039222 -0.007461 0.000000 -0.005330 0.000000
# 3 -0.006430 -0.007461 0.021677 0.000000 -0.011093 0.000000
# 4 0.000000 0.000000 0.000000 0.061171 0.000000 -0.009648
# 5 0.002564 -0.005330 -0.011093 0.000000 0.065305 0.000000
# 6 0.000000 0.000000 0.000000 -0.009648 0.000000 0.042016
#
#
# Mechanical properties :
#
#
# Convention : Reuss Voigt Hill
#
# Bulk Modulus (GPa) = 31.04921 56.67813 43.86367
# Shear Modulus (GPa) = 17.28597 21.76185 19.52391
#
# Velocity S-wave (km/s) = 3.20038 3.59089 3.40125
# Velocity P-wave (km/s) = 5.66164 7.12573 6.43546
#
# Compressibility (1/GPa) = 0.03220694
#
# Stress axis : x y z
#
# Youngs Moduli (GPa) = 97.87742 25.49573 46.13279
#
# Poissons Ratio (x) = 0.14185 0.29662
# Poissons Ratio (y) = 0.54457 0.34419
# Poissons Ratio (z) = 0.62933 0.19022
#
# Static dielectric constant tensor:
#      x y z
#    x 3.531450 0.000000 -0.178190 
#    y 0.000000 3.038080 0.000000 
#    z -0.178190 0.000000 3.060150 
# 
# 
# High freq. dielectric constant tensor:
#      x y z
#    x 1.670610 0.000000 -0.007370 
#    y 0.000000 1.639950 0.000000 
#    z -0.007370 0.000000 1.615120 
# 
# From -- ./inp_files/40650.got.cif
#   From: 2010.06.25/outbox.cif.g09.slc.cpg/sg11_21_cif.got.tgz:40650.got - 2010.06.27 23:14:04.
