data_PCOD8068246
_publ_section_title
;
Structure prediction by ZEFSAII (Michael W. Deem and Ramdas Pophale) SiO2 
 PCOD8068246
Probable space group: P 21/M
;
_chemical_formula_sum "Si O2"
_cell_formula_units_Z 32
_cell_length_a 20.212882
_cell_length_b 9.153492
_cell_length_c 12.138265
_cell_angle_alpha 90.000000
_cell_angle_beta 65.532271
_cell_angle_gamma 90.000000
_cell_volume 2044.117999
_symmetry_space_group_name_H-M "P 21/M"
_symmetry_group_IT_number 11
_symmetry_cell_setting 'monoclinic'
loop_
_space_group_symop_operation_xyz
x,y,z
-x,1/2+y,-z
-x,-y,-z
x,1/2-y,z
loop_
_atom_site_type_symbol
_atom_site_label
_atom_site_fract_x
_atom_site_fract_y
_atom_site_fract_z
Si Si1 0.382833 0.583034 0.893312
Si Si2 0.199493 0.079457 0.213518
Si Si3 0.667656 0.087903 0.820695
Si Si4 0.114391 0.918408 0.935675
Si Si5 0.998280 0.583418 0.840859
Si Si6 0.039437 0.080129 0.374779
Si Si7 0.755907 0.577804 0.064028
Si Si8 0.513339 0.077538 0.875950
O O1 0.390329 0.750000 0.847597
O O2 0.321839 0.499535 0.863977
O O3 0.460042 0.498702 0.823415
O O4 0.360901 0.574064 0.035474
O O5 0.202085 0.250000 0.227494
O O6 0.121393 0.018051 0.304848
O O7 0.263560 0.016315 0.246725
O O8 0.212105 0.037049 0.077804
O O9 0.696309 0.250000 0.777762
O O10 0.599013 0.052438 0.787465
O O11 0.132774 0.750000 0.947636
O O12 0.077242 0.938120 0.841577
O O13 0.188242 0.012371 0.885061
O O14 0.059465 0.973971 0.066942
O O15 0.969904 0.750000 0.878822
O O16 0.005247 0.550161 0.706602
O O17 0.041617 0.250000 0.401699
O O18 0.000000 0.000000 0.500000
O O19 0.746870 0.750000 0.087374
O O20 0.495798 0.250000 0.897570
O O21 0.500000 0.000000 0.000000
#
# Coordination Sequence:
#
# PCOD8068246 Si02
#       8
#     4   4   4   4   4   4   4   4
#     4   9  16  24  34  52  76 102 137 173 200 243
#     4   9  17  28  41  55  76 104 136 170 210 253
#     4   8  15  24  35  51  72  97 132 172 203 237
#     4  10  18  27  45  66  83 107 139 176 212 253
#     4   9  18  33  46  60  85 110 136 173 218 260
#     4  10  20  34  47  62  83 110 142 178 219 260
#     4  10  17  27  41  57  82 112 136 170 213 251
#     4   9  15  23  33  48  71 102 135 169 205 242
#
# _framework density 15.654673000000001
#
# number of rings (size 3 to 8) (size 9 to 14) (size 15 to 20)
#    0.000    2.750    1.250    2.250    0.000    5.500 
#    0.000    0.000    0.000    0.000    0.000    0.000 
#    0.000    0.000    0.000    1.125    0.000   14.375 
#
# Total GULP energy -396608.805033 kJ/mol
# GULP energy per Si atom -12394.025157 kJ/mol
# Density = 1.561904 g / cm^3
# Si number density = 15.654673 Si / 1000 Ang^3
#
#
#
# Elastic Constant Matrix: (Units=GPa)
#
#
# Indices 1 2 3 4 5 6 
#
# 1 145.5976 62.8204 29.9043 0.0000 -8.6632 0.0000
# 2 62.8204 81.1588 19.1246 0.0000 -2.4604 0.0000
# 3 29.9043 19.1246 37.7587 0.0000 2.0019 0.0000
# 4 0.0000 0.0000 0.0000 14.6142 0.0000 -4.0173
# 5 -8.6632 -2.4604 2.0019 0.0000 12.1067 0.0000
# 6 0.0000 0.0000 0.0000 -4.0173 0.0000 34.1763
#
#
#
# Elastic Compliance Matrix: (Units=1/GPa)
#
#
# Indices 1 2 3 4 5 6 
#
# 1 0.011793 -0.007482 -0.005969 0.000000 0.007905 0.000000
# 2 -0.007482 0.018938 -0.003618 0.000000 -0.000907 0.000000
# 3 -0.005969 -0.003618 0.033604 0.000000 -0.010563 0.000000
# 4 0.000000 0.000000 0.000000 0.070711 0.000000 0.008312
# 5 0.007905 -0.000907 -0.010563 0.000000 0.089818 0.000000
# 6 0.000000 0.000000 0.000000 0.008312 0.000000 0.030237
#
#
# Mechanical properties :
#
#
# Convention : Reuss Voigt Hill
#
# Bulk Modulus (GPa) = 33.11701 54.24596 43.68148
# Shear Modulus (GPa) = 16.70532 22.35716 19.53124
#
# Velocity S-wave (km/s) = 3.27021 3.78318 3.53601
# Velocity P-wave (km/s) = 5.95481 7.33554 6.68094
#
# Compressibility (1/GPa) = 0.03019597
#
# Stress axis : x y z
#
# Youngs Moduli (GPa) = 84.79739 52.80396 29.75807
#
# Poissons Ratio (x) = 0.39507 0.17764
# Poissons Ratio (y) = 0.63444 0.10768
# Poissons Ratio (z) = 0.50618 0.19107
#
# Static dielectric constant tensor:
#      x y z
#    x 3.599160 0.000000 -0.136580 
#    y 0.000000 3.087890 0.000000 
#    z -0.136580 0.000000 2.368010 
# 
# 
# High freq. dielectric constant tensor:
#      x y z
#    x 1.623200 0.000000 -0.010960 
#    y 0.000000 1.612830 0.000000 
#    z -0.010960 0.000000 1.511530 
# 
# From -- ./inp_files/42471.got.cif
#   From: 2010.06.25/outbox.cif.g09.slc.cpg/sg11_22_cif.got.tgz:42471.got - 2010.06.27 23:14:04.
