data_PCOD8068239
_publ_section_title
;
Structure prediction by ZEFSAII (Michael W. Deem and Ramdas Pophale) SiO2 
 PCOD8068239
Probable space group: P 21/M
;
_chemical_formula_sum "Si O2"
_cell_formula_units_Z 24
_cell_length_a 12.160352
_cell_length_b 9.324213
_cell_length_c 20.958412
_cell_angle_alpha 90.000000
_cell_angle_beta 142.280680
_cell_angle_gamma 90.000000
_cell_volume 1453.857296
_symmetry_space_group_name_H-M "P 21/M"
_symmetry_group_IT_number 11
_symmetry_cell_setting 'monoclinic'
loop_
_space_group_symop_operation_xyz
x,y,z
-x,1/2+y,-z
-x,-y,-z
x,1/2-y,z
loop_
_atom_site_type_symbol
_atom_site_label
_atom_site_fract_x
_atom_site_fract_y
_atom_site_fract_z
Si Si1 0.039383 0.087113 0.913891
Si Si2 0.042133 0.586356 0.792415
Si Si3 0.594600 0.416999 0.100762
Si Si4 0.636957 0.915382 0.605925
Si Si5 0.578966 0.911213 0.853424
Si Si6 0.688846 0.920064 0.773062
O O1 0.976110 0.250000 0.873201
O O2 0.878553 0.997269 0.870495
O O3 0.102119 0.019186 0.875919
O O4 0.208167 0.080681 0.037971
O O5 0.042036 0.750000 0.818427
O O6 0.188635 0.567715 0.803466
O O7 0.840479 0.548662 0.676490
O O8 0.535155 0.250000 0.068758
O O9 0.532395 0.487295 0.140315
O O10 0.500000 0.500000 0.000000
O O11 0.592218 0.750000 0.576032
O O12 0.608891 0.960919 0.667166
O O13 0.500000 0.000000 0.500000
O O14 0.506474 0.750000 0.820426
O O15 0.555404 0.971571 0.769813
O O16 0.723079 0.750000 0.793346
#
# Coordination Sequence:
#
# PCOD8068239 Si02
#       6
#     4   4   4   4   4   4
#     4  10  17  26  43  68  95 122 155 190 222 261
#     4   9  18  31  47  68  95 125 156 186 226 276
#     4  10  18  30  47  68  96 129 159 186 216 262
#     4   9  18  32  50  69  86 113 152 196 242 279
#     4   9  17  28  44  66  94 126 156 184 217 267
#     4   9  18  32  46  64  92 122 153 187 230 283
#
# _framework density 16.507809999999999
#
# number of rings (size 3 to 8) (size 9 to 14) (size 15 to 20)
#    0.000    2.667    1.667    2.000    0.000    2.667 
#    0.000    1.667    0.000    1.000    0.000    0.000 
#    0.000    0.000    0.000    0.000    0.000    0.667 
#
# Total GULP energy -297344.524404 kJ/mol
# GULP energy per Si atom -12389.355183 kJ/mol
# Density = 1.647024 g / cm^3
# Si number density = 16.507810 Si / 1000 Ang^3
#
#
#
# Elastic Constant Matrix: (Units=GPa)
#
#
# Indices 1 2 3 4 5 6 
#
# 1 164.3136 30.7748 58.6071 0.0000 -15.0747 0.0000
# 2 30.7748 44.1333 26.7542 0.0000 -3.3746 0.0000
# 3 58.6071 26.7542 77.0077 0.0000 -5.2307 0.0000
# 4 0.0000 0.0000 0.0000 24.2015 0.0000 0.1696
# 5 -15.0747 -3.3746 -5.2307 0.0000 16.3434 0.0000
# 6 0.0000 0.0000 0.0000 0.1696 0.0000 17.2381
#
#
#
# Elastic Compliance Matrix: (Units=1/GPa)
#
#
# Indices 1 2 3 4 5 6 
#
# 1 0.009132 -0.002457 -0.005682 0.000000 0.006097 0.000000
# 2 -0.002457 0.029491 -0.008296 0.000000 0.001168 0.000000
# 3 -0.005682 -0.008296 0.020159 0.000000 -0.000503 0.000000
# 4 0.000000 0.000000 0.000000 0.041323 0.000000 -0.000407
# 5 0.006097 0.001168 -0.000503 0.000000 0.066891 0.000000
# 6 0.000000 0.000000 0.000000 -0.000407 0.000000 0.058015
#
#
# Mechanical properties :
#
#
# Convention : Reuss Voigt Hill
#
# Bulk Modulus (GPa) = 38.59554 57.52519 48.06036
# Shear Modulus (GPa) = 18.76043 22.84450 20.80247
#
# Velocity S-wave (km/s) = 3.37480 3.72406 3.55372
# Velocity P-wave (km/s) = 6.21422 7.30852 6.78347
#
# Compressibility (1/GPa) = 0.02590973
#
# Stress axis : x y z
#
# Youngs Moduli (GPa) = 109.50153 33.90904 49.60684
#
# Poissons Ratio (x) = 0.08332 0.28188
# Poissons Ratio (y) = 0.26906 0.41156
# Poissons Ratio (z) = 0.62223 0.28132
#
# Static dielectric constant tensor:
#      x y z
#    x 3.563150 0.000000 -0.062520 
#    y 0.000000 3.041290 0.000000 
#    z -0.062520 0.000000 2.791200 
# 
# 
# High freq. dielectric constant tensor:
#      x y z
#    x 1.648520 0.000000 -0.005070 
#    y 0.000000 1.622140 0.000000 
#    z -0.005070 0.000000 1.595680 
# 
# From -- ./inp_files/36884.got.cif
#   From: 2010.06.25/outbox.cif.g09.slc.cpg/sg11_19_cif.got.tgz:36884.got - 2010.06.27 23:14:04.
