data_PCOD8068824
_publ_section_title
;
Structure prediction by ZEFSAII (Michael W. Deem and Ramdas Pophale) SiO2 
 PCOD8068824
Probable space group: P 21/M
;
_chemical_formula_sum "Si O2"
_cell_formula_units_Z 32
_cell_length_a 19.576705
_cell_length_b 9.349626
_cell_length_c 24.122750
_cell_angle_alpha 90.000000
_cell_angle_beta 155.700134
_cell_angle_gamma 90.000000
_cell_volume 1816.951752
_symmetry_space_group_name_H-M "P 21/M"
_symmetry_group_IT_number 11
_symmetry_cell_setting 'monoclinic'
loop_
_space_group_symop_operation_xyz
x,y,z
-x,1/2+y,-z
-x,-y,-z
x,1/2-y,z
loop_
_atom_site_type_symbol
_atom_site_label
_atom_site_fract_x
_atom_site_fract_y
_atom_site_fract_z
Si Si1 0.247367 0.410635 0.809194
Si Si2 0.552829 0.408461 0.119353
Si Si3 0.279238 0.086406 0.438357
Si Si4 0.167989 0.415683 0.036018
Si Si5 0.160838 0.083678 0.231721
Si Si6 0.941656 0.085093 0.245929
Si Si7 0.714640 0.915101 0.997025
Si Si8 0.605711 0.915863 0.696370
O O1 0.184717 0.250000 0.750861
O O2 0.303317 0.481575 0.792222
O O3 0.099764 0.502182 0.727752
O O4 0.402014 0.411413 0.964631
O O5 0.631698 0.250000 0.179697
O O6 0.471890 0.450839 0.118882
O O7 0.334567 0.250000 0.471065
O O8 0.213806 0.025402 0.331168
O O9 0.137309 0.072352 0.379822
O O10 0.433887 0.997928 0.574439
O O11 0.121491 0.250000 0.008576
O O12 0.280135 0.441970 0.064558
O O13 0.271611 0.472383 0.165008
O O14 0.997919 0.501012 0.907892
O O15 0.112995 0.250000 0.199051
O O16 0.313374 0.054746 0.303387
O O17 0.885567 0.250000 0.210146
O O18 0.848418 0.017334 0.124502
O O19 0.757973 0.750000 0.044296
O O20 0.567319 0.750000 0.677314
#
# Coordination Sequence:
#
# PCOD8068824 Si02
#       8
#     4   4   4   4   4   4   4   4
#     4   9  16  25  39  63  94 126 158 195 239 289
#     4   8  14  24  38  60  91 126 157 191 236 286
#     4  10  21  35  51  73 100 131 170 209 248 295
#     4  10  20  34  52  77 102 130 167 206 250 300
#     4  10  20  36  54  75 100 129 167 209 252 300
#     4  10  18  29  46  68  95 127 163 203 243 289
#     4   9  17  29  46  68  96 127 162 200 241 291
#     4  10  22  36  52  74 102 132 166 207 252 301
#
# _framework density 17.611915
#
# number of rings (size 3 to 8) (size 9 to 14) (size 15 to 20)
#    0.000    2.500    1.250    2.250    0.000    5.500 
#    0.000    0.000    0.000    0.000    0.000    0.875 
#    0.000    0.000    0.000    0.000    0.000    0.000 
#
# Total GULP energy -396791.872823 kJ/mol
# GULP energy per Si atom -12399.746026 kJ/mol
# Density = 1.757183 g / cm^3
# Si number density = 17.611915 Si / 1000 Ang^3
#
#
#
# Elastic Constant Matrix: (Units=GPa)
#
#
# Indices 1 2 3 4 5 6 
#
# 1 60.9106 35.1316 25.4584 0.0000 21.6004 0.0000
# 2 35.1316 87.6058 43.2940 0.0000 12.1229 0.0000
# 3 25.4584 43.2940 80.2521 0.0000 5.3546 0.0000
# 4 0.0000 0.0000 0.0000 28.5860 0.0000 6.2010
# 5 21.6004 12.1229 5.3546 0.0000 18.0473 0.0000
# 6 0.0000 0.0000 0.0000 6.2010 0.0000 23.9047
#
#
#
# Elastic Compliance Matrix: (Units=1/GPa)
#
#
# Indices 1 2 3 4 5 6 
#
# 1 0.035205 -0.006521 -0.005234 0.000000 -0.036202 0.000000
# 2 -0.006521 0.018035 -0.007522 0.000000 -0.002078 0.000000
# 3 -0.005234 -0.007522 0.017776 0.000000 0.006044 0.000000
# 4 0.000000 0.000000 0.000000 0.037068 0.000000 -0.009616
# 5 -0.036202 -0.002078 0.006044 0.000000 0.098342 0.000000
# 6 0.000000 0.000000 0.000000 -0.009616 0.000000 0.044327
#
#
# Mechanical properties :
#
#
# Convention : Reuss Voigt Hill
#
# Bulk Modulus (GPa) = 30.80705 48.50404 39.65554
# Shear Modulus (GPa) = 16.65958 22.43322 19.54640
#
# Velocity S-wave (km/s) = 3.07893 3.57284 3.33504
# Velocity P-wave (km/s) = 5.49271 6.67986 6.11516
#
# Compressibility (1/GPa) = 0.03246010
#
# Stress axis : x y z
#
# Youngs Moduli (GPa) = 28.40520 55.44878 56.25605
#
# Poissons Ratio (x) = 0.36160 0.29447
# Poissons Ratio (y) = 0.18524 0.42315
# Poissons Ratio (z) = 0.14869 0.41708
#
# Static dielectric constant tensor:
#      x y z
#    x 3.542290 0.000000 0.174480 
#    y 0.000000 3.390890 0.000000 
#    z 0.174480 0.000000 2.844770 
# 
# 
# High freq. dielectric constant tensor:
#      x y z
#    x 1.691150 0.000000 0.023740 
#    y 0.000000 1.684050 0.000000 
#    z 0.023740 0.000000 1.634540 
# 
# From -- ./inp_files/66447.got.cif
#   From: 2010.06.25/outbox.cif.g09.slc.cpg/sg11_34_cif.got.tgz:66447.got - 2010.06.27 23:14:04.
