data_PCOD8068194
_publ_section_title
;
Structure prediction by ZEFSAII (Michael W. Deem and Ramdas Pophale) SiO2 
 PCOD8068194
Probable space group: P 21/M
;
_chemical_formula_sum "Si O2"
_cell_formula_units_Z 24
_cell_length_a 20.618079
_cell_length_b 8.947906
_cell_length_c 17.921105
_cell_angle_alpha 90.000000
_cell_angle_beta 158.909991
_cell_angle_gamma 90.000000
_cell_volume 1189.698012
_symmetry_space_group_name_H-M "P 21/M"
_symmetry_group_IT_number 11
_symmetry_cell_setting 'monoclinic'
loop_
_space_group_symop_operation_xyz
x,y,z
-x,1/2+y,-z
-x,-y,-z
x,1/2-y,z
loop_
_atom_site_type_symbol
_atom_site_label
_atom_site_fract_x
_atom_site_fract_y
_atom_site_fract_z
Si Si1 0.363072 0.423098 0.956752
Si Si2 0.243531 0.588531 0.224520
Si Si3 0.780093 0.927083 0.944053
Si Si4 0.093681 0.925298 0.777171
Si Si5 0.556166 0.911925 0.455489
Si Si6 0.281605 0.422292 0.700878
O O1 0.351699 0.250000 0.967243
O O2 0.260232 0.520809 0.906800
O O3 0.273594 0.453832 0.780458
O O4 0.570689 0.473413 0.179484
O O5 0.145904 0.750000 0.131837
O O6 0.261520 0.500232 0.323218
O O7 0.446244 0.622050 0.413626
O O8 0.142981 0.488687 0.053098
O O9 0.779099 0.750000 0.943181
O O10 0.908882 0.989472 0.146785
O O11 0.574851 0.989194 0.738682
O O12 0.112311 0.750000 0.812011
O O13 0.910093 0.967061 0.538337
O O14 0.604892 0.750000 0.470633
O O15 0.331234 0.250000 0.738690
#
# Coordination Sequence:
#
# PCOD8068194 Si02
#       6
#     4   4   4   4   4   4
#     4  10  20  35  55  77  99 126 163 205 248 295
#     4   8  13  21  34  53  81 118 156 194 237 282
#     4  10  17  25  37  59  91 123 158 200 244 287
#     4  11  21  33  50  73 102 133 165 202 248 298
#     4   8  13  21  34  53  81 118 156 194 237 282
#     4   9  20  37  55  74  98 130 165 202 245 296
#
# _framework density 20.173186999999999
#
# number of rings (size 3 to 8) (size 9 to 14) (size 15 to 20)
#    1.000    1.667    0.000    3.500    0.000    2.000 
#    0.000    0.000    0.000    0.000    0.000    0.000 
#    0.000    5.333    0.000   20.000    0.000   30.667 
#
# Total GULP energy -297333.316776 kJ/mol
# GULP energy per Si atom -12388.888199 kJ/mol
# Density = 2.012727 g / cm^3
# Si number density = 20.173187 Si / 1000 Ang^3
#
#
#
# Elastic Constant Matrix: (Units=GPa)
#
#
# Indices 1 2 3 4 5 6 
#
# 1 -11.8279 9.0498 24.3772 0.0000 11.7959 0.0000
# 2 9.0498 148.3133 40.7713 0.0000 -0.4479 0.0000
# 3 24.3772 40.7713 59.0512 0.0000 -9.9994 0.0000
# 4 0.0000 0.0000 0.0000 33.5793 0.0000 -8.0827
# 5 11.7959 -0.4479 -9.9994 0.0000 11.0827 0.0000
# 6 0.0000 0.0000 0.0000 -8.0827 0.0000 22.4176
#
#
#
# Elastic Compliance Matrix: (Units=1/GPa)
#
#
# Indices 1 2 3 4 5 6 
#
# 1 -0.019257 -0.003117 0.015995 0.000000 0.034802 0.000000
# 2 -0.003117 0.008137 -0.004384 0.000000 -0.000309 0.000000
# 3 0.015995 -0.004384 0.012329 0.000000 -0.006078 0.000000
# 4 0.000000 0.000000 0.000000 0.032610 0.000000 0.011758
# 5 0.034802 -0.000309 -0.006078 0.000000 0.047693 0.000000
# 6 0.000000 0.000000 0.000000 0.011758 0.000000 0.048847
#
#
# Mechanical properties :
#
#
# Convention : Reuss Voigt Hill
#
# Bulk Modulus (GPa) = 54.95302 38.21480 46.58391
# Shear Modulus (GPa) = 41.86348 21.50513 31.68431
#
# Velocity S-wave (km/s) = 4.56038 3.26855 3.96740
# Velocity P-wave (km/s) = 7.41817 5.76446 6.64298
#
# Compressibility (1/GPa) = 0.01819736
#
# Stress axis : x y z
#
# Youngs Moduli (GPa) = -51.92811 122.89879 81.10981
#
# Poissons Ratio (x) = 0.38305 -1.29734
# Poissons Ratio (y) = -0.16185 0.35555
# Poissons Ratio (z) = 0.83058 0.53873
#
# Static dielectric constant tensor:
#      x y z
#    x 3.083480 0.000000 -0.210650 
#    y 0.000000 3.944110 0.000000 
#    z -0.210650 0.000000 3.555930 
# 
# 
# High freq. dielectric constant tensor:
#      x y z
#    x 1.730330 0.000000 -0.019080 
#    y 0.000000 1.806910 0.000000 
#    z -0.019080 0.000000 1.781350 
# 
# From -- ./inp_files/61891.got.cif
#   From: 2010.06.25/outbox.cif.g09.slc.cpg/sg11_31_cif.got.tgz:61891.got - 2010.06.27 23:14:04.
