data_PCOD8068024
_publ_section_title
;
Structure prediction by ZEFSAII (Michael W. Deem and Ramdas Pophale) SiO2 
 PCOD8068024
Probable space group: P 2/M
;
_chemical_formula_sum "Si O2"
_cell_formula_units_Z 32
_cell_length_a 12.560806
_cell_length_b 9.214925
_cell_length_c 17.716892
_cell_angle_alpha 90.000000
_cell_angle_beta 89.995202
_cell_angle_gamma 90.000000
_cell_volume 2050.675058
_symmetry_space_group_name_H-M "P 2/M"
_symmetry_group_IT_number 10
_symmetry_cell_setting 'monoclinic'
loop_
_space_group_symop_operation_xyz
x,y,z
-x,y,-z
-x,-y,-z
x,-y,z
loop_
_atom_site_type_symbol
_atom_site_label
_atom_site_fract_x
_atom_site_fract_y
_atom_site_fract_z
Si Si1 0.878152 0.331605 0.707883
Si Si2 0.499980 0.163735 0.589750
Si Si3 0.872947 0.335631 0.000013
Si Si4 0.705911 0.668667 0.586221
Si Si5 0.126684 0.163876 0.144980
Si Si6 0.873345 0.836125 0.145005
Si Si7 0.121792 0.331608 0.707861
Si Si8 0.705947 0.331336 0.413804
O O1 0.867478 0.500000 0.729542
O O2 0.809641 0.291036 0.634568
O O3 0.834048 0.240015 0.778393
O O4 0.999971 0.291319 0.688840
O O5 0.500000 0.169918 0.500000
O O6 0.605506 0.243926 0.619599
O O7 0.394436 0.243916 0.619587
O O8 0.499977 0.000000 0.620515
O O9 0.829391 0.500000 0.000018
O O10 0.828368 0.252846 0.926406
O O11 0.828382 0.252844 0.073629
O O12 0.000000 0.335625 0.000000
O O13 0.677170 0.500000 0.592234
O O14 0.731122 0.712966 0.500013
O O15 0.000014 0.164363 0.142288
O O16 0.171077 0.000000 0.141991
O O17 0.834090 0.759988 0.221641
O O18 0.828952 0.000000 0.142025
O O19 0.132461 0.500000 0.729528
O O20 0.190296 0.291062 0.634532
O O21 0.677193 0.500000 0.407792
#
# Coordination Sequence:
#
# PCOD8068024 Si02
#       8
#     4   4   4   4   4   4   4   4
#     4   9  17  28  41  59  85 115 144 173 207 249
#     4   9  17  29  45  63  81 102 133 176 221 259
#     4   9  15  23  37  55  75 102 137 174 209 245
#     4   9  17  29  45  63  83 109 141 177 215 253
#     4   9  16  25  37  54  78 108 140 172 206 245
#     4   9  16  25  37  54  78 108 140 172 206 245
#     4   9  17  28  41  59  85 115 144 173 207 249
#     4   9  17  29  45  63  83 109 141 177 215 253
#
# _framework density 15.604616999999999
#
# number of rings (size 3 to 8) (size 9 to 14) (size 15 to 20)
#    0.000    3.000    0.000    1.500    0.000    7.500 
#    0.000    2.500    0.000    0.000    0.000    7.000 
#    0.000    1.000    0.000   10.500    0.000    8.000 
#
# Total GULP energy -396764.818958 kJ/mol
# GULP energy per Si atom -12398.900592 kJ/mol
# Density = 1.556910 g / cm^3
# Si number density = 15.604617 Si / 1000 Ang^3
#
#
#
# Elastic Constant Matrix: (Units=GPa)
#
#
# Indices 1 2 3 4 5 6 
#
# 1 63.3855 40.4293 46.8141 0.0000 0.0171 0.0000
# 2 40.4293 102.6330 61.5412 0.0000 0.0167 0.0000
# 3 46.8141 61.5412 107.7547 0.0000 0.0231 0.0000
# 4 0.0000 0.0000 0.0000 21.8780 0.0000 0.0009
# 5 0.0171 0.0167 0.0231 0.0000 1.9781 0.0000
# 6 0.0000 0.0000 0.0000 0.0009 0.0000 13.4393
#
#
#
# Elastic Compliance Matrix: (Units=1/GPa)
#
#
# Indices 1 2 3 4 5 6 
#
# 1 0.024833 -0.005039 -0.007911 0.000000 -0.000080 0.000000
# 2 -0.005039 0.015840 -0.006858 0.000000 -0.000010 0.000000
# 3 -0.007911 -0.006858 0.016634 0.000000 -0.000068 0.000000
# 4 0.000000 0.000000 0.000000 0.045708 0.000000 -0.000003
# 5 -0.000080 -0.000010 -0.000068 0.000000 0.505535 0.000000
# 6 0.000000 0.000000 0.000000 -0.000003 0.000000 0.074409
#
#
# Mechanical properties :
#
#
# Convention : Reuss Voigt Hill
#
# Bulk Modulus (GPa) = 56.52107 63.48250 60.00179
# Shear Modulus (GPa) = 6.86369 15.79167 11.32768
#
# Velocity S-wave (km/s) = 2.09953 3.18463 2.69721
# Velocity P-wave (km/s) = 6.49436 7.36835 6.94512
#
# Compressibility (1/GPa) = 0.01769252
#
# Stress axis : x y z
#
# Youngs Moduli (GPa) = 40.26886 63.12994 60.11802
#
# Poissons Ratio (x) = 0.31809 0.47560
# Poissons Ratio (y) = 0.20290 0.41228
# Poissons Ratio (z) = 0.31857 0.43293
#
# Static dielectric constant tensor:
#      x y z
#    x 2.631960 0.000000 0.000090 
#    y 0.000000 3.138810 0.000000 
#    z 0.000090 0.000000 2.977770 
# 
# 
# High freq. dielectric constant tensor:
#      x y z
#    x 1.546240 0.000000 0.000010 
#    y 0.000000 1.609120 0.000000 
#    z 0.000010 0.000000 1.591390 
# 
# From -- ./inp_files/52812.got.cif
#   From: 2010.06.25/outbox.cif.g09.slc.cpg/sg10_27_cif.got.tgz:52812.got - 2010.06.27 22:07:45.
