data_PCOD8068200
_publ_section_title
;
Structure prediction by ZEFSAII (Michael W. Deem and Ramdas Pophale) SiO2 
 PCOD8068200
Probable space group: P 21/M
;
_chemical_formula_sum "Si O2"
_cell_formula_units_Z 32
_cell_length_a 28.283338
_cell_length_b 9.038109
_cell_length_c 22.997974
_cell_angle_alpha 90.000000
_cell_angle_beta 162.546996
_cell_angle_gamma 90.000000
_cell_volume 1763.226912
_symmetry_space_group_name_H-M "P 21/M"
_symmetry_group_IT_number 11
_symmetry_cell_setting 'monoclinic'
loop_
_space_group_symop_operation_xyz
x,y,z
-x,1/2+y,-z
-x,-y,-z
x,1/2-y,z
loop_
_atom_site_type_symbol
_atom_site_label
_atom_site_fract_x
_atom_site_fract_y
_atom_site_fract_z
Si Si1 0.409306 0.421781 0.478628
Si Si2 0.471109 0.424151 0.781153
Si Si3 0.393469 0.416296 0.957684
Si Si4 0.174767 0.919984 0.481419
Si Si5 0.638685 0.421395 0.456410
Si Si6 0.009612 0.916297 0.176490
Si Si7 0.269191 0.579173 0.208776
Si Si8 0.727080 0.413988 0.284570
O O1 0.373608 0.250000 0.446887
O O2 0.385993 0.509678 0.509969
O O3 0.285966 0.482989 0.286653
O O4 0.586325 0.450941 0.664855
O O5 0.494581 0.250000 0.802860
O O6 0.606460 0.489167 0.982655
O O7 0.302062 0.461235 0.610049
O O8 0.479711 0.498031 0.727490
O O9 0.346107 0.250000 0.917931
O O10 0.562576 0.427501 0.125713
O O11 0.263518 0.476733 0.759270
O O12 0.240557 0.750000 0.550560
O O13 0.139963 0.947866 0.509556
O O14 0.020718 0.938566 0.259913
O O15 0.593019 0.250000 0.404618
O O16 0.819217 0.445051 0.649831
O O17 0.951126 0.750000 0.093588
O O18 0.889889 0.034528 0.010489
O O19 0.259505 0.750000 0.215541
O O20 0.748183 0.250000 0.283728
#
# Coordination Sequence:
#
# PCOD8068200 Si02
#       8
#     4   4   4   4   4   4   4   4
#     4  10  21  37  55  74  96 124 159 196 235 281
#     4  10  17  25  39  59  85 118 154 191 233 279
#     4   9  15  22  32  49  77 113 152 191 230 275
#     4   8  15  27  40  57  85 119 154 192 233 277
#     4  10  20  34  51  72  98 127 159 196 239 284
#     4   9  18  32  50  72  98 128 160 195 237 285
#     4  10  21  36  54  75  98 125 157 194 236 281
#     4   8  13  21  33  50  75 110 151 191 229 271
#
# _framework density 18.148544000000001
#
# number of rings (size 3 to 8) (size 9 to 14) (size 15 to 20)
#    0.000    2.750    0.000    4.125    0.000    7.500 
#    0.000    0.000    0.000    0.000    0.000    0.000 
#    0.000    1.000    0.000    3.000    0.000    9.375 
#
# Total GULP energy -396612.261431 kJ/mol
# GULP energy per Si atom -12394.133170 kJ/mol
# Density = 1.810724 g / cm^3
# Si number density = 18.148544 Si / 1000 Ang^3
#
#
#
# Elastic Constant Matrix: (Units=GPa)
#
#
# Indices 1 2 3 4 5 6 
#
# 1 67.5052 56.7865 69.4312 0.0000 -38.6989 0.0000
# 2 56.7865 135.2238 53.0199 0.0000 -28.9180 0.0000
# 3 69.4312 53.0199 50.5206 0.0000 -37.9193 0.0000
# 4 0.0000 0.0000 0.0000 26.5443 0.0000 -12.0224
# 5 -38.6989 -28.9180 -37.9193 0.0000 31.0184 0.0000
# 6 0.0000 0.0000 0.0000 -12.0224 0.0000 29.5999
#
#
#
# Elastic Compliance Matrix: (Units=1/GPa)
#
#
# Indices 1 2 3 4 5 6 
#
# 1 -0.003864 -0.008481 0.056499 0.000000 0.056341 0.000000
# 2 -0.008481 0.011397 -0.003298 0.000000 -0.003988 0.000000
# 3 0.056499 -0.003298 -0.046009 0.000000 0.011169 0.000000
# 4 0.000000 0.000000 0.000000 0.046165 0.000000 0.018751
# 5 0.056341 -0.003988 0.011169 0.000000 0.112467 0.000000
# 6 0.000000 0.000000 0.000000 0.018751 0.000000 0.041400
#
#
# Mechanical properties :
#
#
# Convention : Reuss Voigt Hill
#
# Bulk Modulus (GPa) = 19.62190 67.96942 43.79566
# Shear Modulus (GPa) = 56.11259 22.36664 39.23962
#
# Velocity S-wave (km/s) = 5.56647 3.51439 4.65492
# Velocity P-wave (km/s) = 7.22146 7.34854 7.28527
#
# Compressibility (1/GPa) = 0.05096346
#
# Stress axis : x y z
#
# Youngs Moduli (GPa) = -258.82953 87.74065 -21.73501
#
# Poissons Ratio (x) = 0.74417 1.22801
# Poissons Ratio (y) = -2.19525 -0.07169
# Poissons Ratio (z) = 14.62360 0.28939
#
# Static dielectric constant tensor:
#      x y z
#    x 3.258260 0.000000 -0.583740 
#    y 0.000000 3.408000 0.000000 
#    z -0.583740 0.000000 3.273180 
# 
# 
# High freq. dielectric constant tensor:
#      x y z
#    x 1.677520 0.000000 -0.054880 
#    y 0.000000 1.712250 0.000000 
#    z -0.054880 0.000000 1.676160 
# 
# From -- ./inp_files/67223.got.cif
#   From: 2010.06.25/outbox.cif.g09.slc.cpg/sg11_34_cif.got.tgz:67223.got - 2010.06.27 23:14:04.
