data_PCOD8068930
_publ_section_title
;
Structure prediction by ZEFSAII (Michael W. Deem and Ramdas Pophale) SiO2 
 PCOD8068930
Probable space group: P 21/M
;
_chemical_formula_sum "Si O2"
_cell_formula_units_Z 32
_cell_length_a 9.229025
_cell_length_b 15.120464
_cell_length_c 25.366437
_cell_angle_alpha 90.000000
_cell_angle_beta 29.892195
_cell_angle_gamma 90.000000
_cell_volume 1764.135714
_symmetry_space_group_name_H-M "P 21/M"
_symmetry_group_IT_number 11
_symmetry_cell_setting 'monoclinic'
loop_
_space_group_symop_operation_xyz
x,y,z
-x,1/2+y,-z
-x,-y,-z
x,1/2-y,z
loop_
_atom_site_type_symbol
_atom_site_label
_atom_site_fract_x
_atom_site_fract_y
_atom_site_fract_z
Si Si1 0.263038 0.849579 0.744727
Si Si2 0.978133 0.411326 0.072146
Si Si3 0.352864 0.023313 0.237577
Si Si4 0.308526 0.940441 0.021905
Si Si5 0.709398 0.998251 0.624584
Si Si6 0.592622 0.845741 0.144646
Si Si7 0.204930 0.350838 0.194919
Si Si8 0.261932 0.350673 0.780811
O O1 0.384916 0.750000 0.705593
O O2 0.531791 0.915292 0.659017
O O3 0.064653 0.862219 0.858889
O O4 0.074063 0.869181 0.752851
O O5 0.166096 0.499308 0.021667
O O6 0.676127 0.438882 0.141464
O O7 0.146259 0.347262 0.979644
O O8 0.203083 0.016902 0.342025
O O9 0.170743 0.087017 0.256951
O O10 0.362847 0.925035 0.208413
O O11 0.053967 0.890663 0.135600
O O12 0.505924 0.869172 0.929937
O O13 0.500000 0.000000 0.000000
O O14 0.520752 0.088020 0.676233
O O15 0.000000 0.000000 0.500000
O O16 0.435266 0.750000 0.188622
O O17 0.732545 0.854615 0.157986
O O18 0.217111 0.250000 0.210618
O O19 0.297572 0.250000 0.748343
#
# Coordination Sequence:
#
# PCOD8068930 Si02
#       8
#     4   4   4   4   4   4   4   4
#     4  10  21  37  55  81 114 145 183 226 272 325
#     4  11  18  32  50  75 110 147 182 219 262 312
#     4  10  20  35  52  78 107 139 182 230 271 328
#     4  12  19  32  53  77 115 157 184 215 260 327
#     4  10  21  40  62  82 103 137 184 239 292 330
#     4  10  18  29  49  74 105 142 177 215 263 317
#     4  11  22  34  54  82 115 154 184 217 270 329
#     4  10  20  35  53  78 109 142 181 226 273 331
#
# _framework density 18.139195000000001
#
# number of rings (size 3 to 8) (size 9 to 14) (size 15 to 20)
#    0.000    1.500    6.250    1.875    0.000    4.000 
#    0.000    0.625    0.000    0.000    0.000    0.000 
#    0.000    0.000    0.000    0.000    0.000    0.000 
#
# Total GULP energy -396769.605744 kJ/mol
# GULP energy per Si atom -12399.050180 kJ/mol
# Density = 1.809791 g / cm^3
# Si number density = 18.139195 Si / 1000 Ang^3
#
#
#
# Elastic Constant Matrix: (Units=GPa)
#
#
# Indices 1 2 3 4 5 6 
#
# 1 71.2827 60.6460 37.3196 0.0000 7.1582 0.0000
# 2 60.6460 157.4305 61.2695 0.0000 -0.1906 0.0000
# 3 37.3196 61.2695 123.1318 0.0000 6.1870 0.0000
# 4 0.0000 0.0000 0.0000 14.0392 0.0000 -0.0783
# 5 7.1582 -0.1906 6.1870 0.0000 14.0605 0.0000
# 6 0.0000 0.0000 0.0000 -0.0783 0.0000 30.4846
#
#
#
# Elastic Compliance Matrix: (Units=1/GPa)
#
#
# Indices 1 2 3 4 5 6 
#
# 1 0.023224 -0.007976 -0.002526 0.000000 -0.010820 0.000000
# 2 -0.007976 0.010666 -0.003171 0.000000 0.005601 0.000000
# 3 -0.002526 -0.003171 0.010638 0.000000 -0.003438 0.000000
# 4 0.000000 0.000000 0.000000 0.071230 0.000000 0.000183
# 5 -0.010820 0.005601 -0.003438 0.000000 0.078218 0.000000
# 6 0.000000 0.000000 0.000000 0.000183 0.000000 0.032804
#
#
# Mechanical properties :
#
#
# Convention : Reuss Voigt Hill
#
# Bulk Modulus (GPa) = 58.20730 74.47947 66.34339
# Shear Modulus (GPa) = 19.24167 24.55753 21.89960
#
# Velocity S-wave (km/s) = 3.26049 3.68345 3.47840
# Velocity P-wave (km/s) = 6.80686 7.69672 7.26542
#
# Compressibility (1/GPa) = 0.01717998
#
# Stress axis : x y z
#
# Youngs Moduli (GPa) = 43.05920 93.75968 94.00567
#
# Poissons Ratio (x) = 0.74786 0.23748
# Poissons Ratio (y) = 0.34345 0.29809
# Poissons Ratio (z) = 0.10878 0.29731
#
# Static dielectric constant tensor:
#      x y z
#    x 3.349530 0.000000 0.076420 
#    y 0.000000 3.789530 0.000000 
#    z 0.076420 0.000000 2.970950 
# 
# 
# High freq. dielectric constant tensor:
#      x y z
#    x 1.692070 0.000000 0.008020 
#    y 0.000000 1.721990 0.000000 
#    z 0.008020 0.000000 1.661440 
# 
# From -- ./inp_files/26859.got.cif
#   From: 2010.06.25/outbox.cif.g09.slc.cpg/sg11_14_cif.got.tgz:26859.got - 2010.06.27 23:14:04.
