data_PCOD8068913
_publ_section_title
;
Structure prediction by ZEFSAII (Michael W. Deem and Ramdas Pophale) SiO2 
 PCOD8068913
Probable space group: P 21/M
;
_chemical_formula_sum "Si O2"
_cell_formula_units_Z 20
_cell_length_a 29.178264
_cell_length_b 8.591578
_cell_length_c 12.571847
_cell_angle_alpha 90.000000
_cell_angle_beta 159.920660
_cell_angle_gamma 90.000000
_cell_volume 1082.011569
_symmetry_space_group_name_H-M "P 21/M"
_symmetry_group_IT_number 11
_symmetry_cell_setting 'monoclinic'
loop_
_space_group_symop_operation_xyz
x,y,z
-x,1/2+y,-z
-x,-y,-z
x,1/2-y,z
loop_
_atom_site_type_symbol
_atom_site_label
_atom_site_fract_x
_atom_site_fract_y
_atom_site_fract_z
Si Si1 0.640230 0.929673 0.838727
Si Si2 0.856999 0.066603 0.161005
Si Si3 0.645949 0.066018 0.295819
Si Si4 0.585093 0.571180 0.956710
Si Si5 0.298612 0.433295 0.370745
O O1 0.646626 0.750000 0.816631
O O2 0.660089 0.946908 0.008415
O O3 0.500000 0.000000 0.500000
O O4 0.756958 0.025131 0.037853
O O5 0.863776 0.250000 0.161989
O O6 0.000000 0.000000 0.500000
O O7 0.811376 0.992444 0.950838
O O8 0.647630 0.250000 0.294464
O O9 0.738006 0.006445 0.593376
O O10 0.500000 0.000000 0.000000
O O11 0.685194 0.997522 0.265374
O O12 0.551324 0.750000 0.908518
O O13 0.444861 0.480711 0.647954
O O14 0.291502 0.250000 0.365200
#
# Coordination Sequence:
#
# PCOD8068913 Si02
#       5
#     4   4   4   4   4
#     4  11  22  36  58  85 116 151 189 234 284 334
#     4  12  25  41  59  82 114 151 193 235 283 342
#     4  10  18  29  48  76 110 145 183 228 280 331
#     4  10  19  32  52  81 114 146 184 230 280 332
#     4  11  20  33  54  79 111 147 187 231 281 335
#
# _framework density 18.484089000000001
#
# number of rings (size 3 to 8) (size 9 to 14) (size 15 to 20)
#    0.000    1.200    2.000    9.000    0.000    2.400 
#    0.000    0.000    0.000    1.200    0.000    0.000 
#    0.000    0.000    0.000    0.000    0.000    0.000 
#
# Total GULP energy -248009.882626 kJ/mol
# GULP energy per Si atom -12400.494131 kJ/mol
# Density = 1.844202 g / cm^3
# Si number density = 18.484089 Si / 1000 Ang^3
#
#
#
# Elastic Constant Matrix: (Units=GPa)
#
#
# Indices 1 2 3 4 5 6 
#
# 1 109.7539 50.7572 55.7686 0.0000 -30.7865 0.0000
# 2 50.7572 159.0609 35.2082 0.0000 -17.3074 0.0000
# 3 55.7686 35.2082 95.6644 0.0000 -15.7592 0.0000
# 4 0.0000 0.0000 0.0000 29.3162 0.0000 -6.2770
# 5 -30.7865 -17.3074 -15.7592 0.0000 34.0446 0.0000
# 6 0.0000 0.0000 0.0000 -6.2770 0.0000 34.5546
#
#
#
# Elastic Compliance Matrix: (Units=1/GPa)
#
#
# Indices 1 2 3 4 5 6 
#
# 1 0.016980 -0.002672 -0.007155 0.000000 0.010684 0.000000
# 2 -0.002672 0.007468 -0.001043 0.000000 0.000897 0.000000
# 3 -0.007155 -0.001043 0.014999 0.000000 -0.000058 0.000000
# 4 0.000000 0.000000 0.000000 0.035491 0.000000 0.006447
# 5 0.010684 0.000897 -0.000058 0.000000 0.039465 0.000000
# 6 0.000000 0.000000 0.000000 0.006447 0.000000 0.030111
#
#
# Mechanical properties :
#
#
# Convention : Reuss Voigt Hill
#
# Bulk Modulus (GPa) = 56.47693 71.99410 64.23551
# Shear Modulus (GPa) = 29.04357 34.43276 31.73817
#
# Velocity S-wave (km/s) = 3.96823 4.32074 4.14823
# Velocity P-wave (km/s) = 7.18446 7.99534 7.60072
#
# Compressibility (1/GPa) = 0.01770634
#
# Stress axis : x y z
#
# Youngs Moduli (GPa) = 58.89421 133.90335 66.67258
#
# Poissons Ratio (x) = 0.35779 0.47704
# Poissons Ratio (y) = 0.15736 0.06954
# Poissons Ratio (z) = 0.42139 0.13967
#
# Static dielectric constant tensor:
#      x y z
#    x 4.008530 0.000000 -0.597360 
#    y 0.000000 3.625280 0.000000 
#    z -0.597360 0.000000 3.187350 
# 
# 
# High freq. dielectric constant tensor:
#      x y z
#    x 1.728280 0.000000 -0.037820 
#    y 0.000000 1.743780 0.000000 
#    z -0.037820 0.000000 1.674470 
# 
# From -- ./inp_files/23902.got.cif
#   From: 2010.06.25/outbox.cif.g09.slc.cpg/sg11_12_cif.got.tgz:23902.got - 2010.06.27 23:14:04.
