data_PCOD8068426
_publ_section_title
;
Structure prediction by ZEFSAII (Michael W. Deem and Ramdas Pophale) SiO2 
 PCOD8068426
Probable space group: P 21/M
;
_chemical_formula_sum "Si O2"
_cell_formula_units_Z 28
_cell_length_a 18.166801
_cell_length_b 17.863588
_cell_length_c 8.151101
_cell_angle_alpha 90.000000
_cell_angle_beta 36.126335
_cell_angle_gamma 90.000000
_cell_volume 1559.542053
_symmetry_space_group_name_H-M "P 21/M"
_symmetry_group_IT_number 11
_symmetry_cell_setting 'monoclinic'
loop_
_space_group_symop_operation_xyz
x,y,z
-x,1/2+y,-z
-x,-y,-z
x,1/2-y,z
loop_
_atom_site_type_symbol
_atom_site_label
_atom_site_fract_x
_atom_site_fract_y
_atom_site_fract_z
Si Si1 0.083629 0.036701 0.205688
Si Si2 0.403025 0.606334 0.619990
Si Si3 0.929132 0.164135 0.306831
Si Si4 0.338780 0.450745 0.897576
Si Si5 0.332599 0.830308 0.076478
Si Si6 0.633304 0.022701 0.818722
Si Si7 0.196833 0.577646 0.750590
O O1 0.025852 0.105126 0.207825
O O2 0.206894 0.075572 0.061365
O O3 0.000000 0.000000 0.500000
O O4 0.112512 0.968214 0.029996
O O5 0.378129 0.522502 0.723173
O O6 0.551149 0.611786 0.309709
O O7 0.311084 0.622499 0.632288
O O8 0.369905 0.665489 0.819204
O O9 0.981278 0.250000 0.199015
O O10 0.816224 0.161995 0.639276
O O11 0.886406 0.136895 0.201957
O O12 0.315647 0.471140 0.128192
O O13 0.377592 0.750000 0.062947
O O14 0.396810 0.893218 0.068781
O O15 0.738691 0.018412 0.489650
O O16 0.500000 0.000000 0.000000
#
# Coordination Sequence:
#
# PCOD8068426 Si02
#       7
#     4   4   4   4   4   4   4
#     4  11  21  36  56  80 112 146 192 226 261 325
#     4   9  16  30  51  79 104 132 172 222 270 319
#     4  10  21  37  54  78 112 148 184 228 276 321
#     4   9  18  30  50  79 107 135 175 220 268 317
#     4   9  19  33  51  76 107 142 180 220 273 326
#     4  10  17  31  55  81 109 135 170 226 277 320
#     4  10  19  32  57  84 106 140 184 230 276 321
#
# _framework density 17.953987999999999
#
# number of rings (size 3 to 8) (size 9 to 14) (size 15 to 20)
#    0.000    2.286    1.429    3.857    2.000    0.571 
#    0.000    1.429    0.000    0.857    0.000    0.000 
#    0.000    0.000    0.000    0.000    0.000    0.000 
#
# Total GULP energy -346960.806781 kJ/mol
# GULP energy per Si atom -12391.457385 kJ/mol
# Density = 1.791312 g / cm^3
# Si number density = 17.953988 Si / 1000 Ang^3
#
#
#
# Elastic Constant Matrix: (Units=GPa)
#
#
# Indices 1 2 3 4 5 6 
#
# 1 127.1043 48.6638 49.3537 0.0000 -9.2924 0.0000
# 2 48.6638 81.4172 37.8195 0.0000 -8.8444 0.0000
# 3 49.3537 37.8195 102.2691 0.0000 9.7766 0.0000
# 4 0.0000 0.0000 0.0000 15.3485 0.0000 -1.8097
# 5 -9.2924 -8.8444 9.7766 0.0000 34.6188 0.0000
# 6 0.0000 0.0000 0.0000 -1.8097 0.0000 14.8263
#
#
#
# Elastic Compliance Matrix: (Units=1/GPa)
#
#
# Indices 1 2 3 4 5 6 
#
# 1 0.011451 -0.004599 -0.004118 0.000000 0.003062 0.000000
# 2 -0.004599 0.017765 -0.004795 0.000000 0.004658 0.000000
# 3 -0.004118 -0.004795 0.014144 0.000000 -0.006325 0.000000
# 4 0.000000 0.000000 0.000000 0.066105 0.000000 0.008069
# 5 0.003062 0.004658 -0.006325 0.000000 0.032684 0.000000
# 6 0.000000 0.000000 0.000000 0.008069 0.000000 0.068433
#
#
# Mechanical properties :
#
#
# Convention : Reuss Voigt Hill
#
# Bulk Modulus (GPa) = 61.22042 64.71829 62.96935
# Shear Modulus (GPa) = 20.57180 24.62227 22.59703
#
# Velocity S-wave (km/s) = 3.38865 3.70727 3.55154
# Velocity P-wave (km/s) = 7.03442 7.37903 7.20879
#
# Compressibility (1/GPa) = 0.01633442
#
# Stress axis : x y z
#
# Youngs Moduli (GPa) = 87.32671 56.29091 70.70369
#
# Poissons Ratio (x) = 0.25888 0.29117
# Poissons Ratio (y) = 0.40161 0.33906
# Poissons Ratio (z) = 0.35963 0.26994
#
# Static dielectric constant tensor:
#      x y z
#    x 3.589090 0.000000 0.027820 
#    y 0.000000 3.182550 0.000000 
#    z 0.027820 0.000000 3.447300 
# 
# 
# High freq. dielectric constant tensor:
#      x y z
#    x 1.705030 0.000000 0.008090 
#    y 0.000000 1.660230 0.000000 
#    z 0.008090 0.000000 1.695630 
# 
# From -- ./inp_files/27089.got.cif
#   From: 2010.06.25/outbox.cif.g09.slc.cpg/sg11_14_cif.got.tgz:27089.got - 2010.06.27 23:14:04.
