data_PCOD8068479
_publ_section_title
;
Structure prediction by ZEFSAII (Michael W. Deem and Ramdas Pophale) SiO2 
 PCOD8068479
Probable space group: P 21/M
;
_chemical_formula_sum "Si O2"
_cell_formula_units_Z 32
_cell_length_a 11.553281
_cell_length_b 13.994759
_cell_length_c 18.064061
_cell_angle_alpha 90.000000
_cell_angle_beta 30.369969
_cell_angle_gamma 90.000000
_cell_volume 1476.649511
_symmetry_space_group_name_H-M "P 21/M"
_symmetry_group_IT_number 11
_symmetry_cell_setting 'monoclinic'
loop_
_space_group_symop_operation_xyz
x,y,z
-x,1/2+y,-z
-x,-y,-z
x,1/2-y,z
loop_
_atom_site_type_symbol
_atom_site_label
_atom_site_fract_x
_atom_site_fract_y
_atom_site_fract_z
Si Si1 0.327713 0.092067 0.182940
Si Si2 0.055247 0.356881 0.659457
Si Si3 0.941185 0.959008 0.190017
Si Si4 0.330621 0.856885 0.888085
Si Si5 0.627682 0.963318 0.230379
Si Si6 0.883206 0.013288 0.485653
Si Si7 0.830138 0.645701 0.986120
Si Si8 0.466376 0.882404 0.077034
O O1 0.427616 0.141901 0.201241
O O2 0.467283 0.994220 0.094895
O O3 0.379734 0.148928 0.078883
O O4 0.054937 0.077196 0.341308
O O5 0.162331 0.250000 0.607753
O O6 0.116426 0.423605 0.695832
O O7 0.157956 0.410462 0.530884
O O8 0.785506 0.343146 0.797125
O O9 0.710853 0.951166 0.268453
O O10 0.134386 0.888065 0.053185
O O11 0.023917 0.069761 0.142964
O O12 0.283993 0.750000 0.884929
O O13 0.337486 0.926775 0.813896
O O14 0.786219 0.895683 0.092346
O O15 0.360700 0.934142 0.371646
O O16 0.000000 0.000000 0.500000
O O17 0.952464 0.750000 0.925252
O O18 0.585016 0.664348 0.082665
#
# Coordination Sequence:
#
# PCOD8068479 Si02
#       8
#     4   4   4   4   4   4   4   4
#     4  10  18  34  60  89 120 156 191 253 318 368
#     4  11  23  39  66  98 124 166 216 257 310 381
#     4  11  23  40  62  90 129 164 210 269 317 363
#     4  11  20  36  63  93 123 159 207 264 317 371
#     4  11  24  41  59  88 129 175 210 253 312 377
#     4  11  22  41  64  86 127 167 203 257 314 377
#     4  11  21  37  62  92 124 165 212 262 321 374
#     4  10  17  34  61  90 126 147 196 263 318 364
#
# _framework density 21.670680000000001
#
# number of rings (size 3 to 8) (size 9 to 14) (size 15 to 20)
#    0.000    1.250    5.000    4.500    0.000    4.000 
#    0.000    0.625    0.000    1.500    0.000    0.000 
#    0.000    0.000    0.000    0.000    0.000    0.000 
#
# Total GULP energy -396715.306868 kJ/mol
# GULP energy per Si atom -12397.353340 kJ/mol
# Density = 2.162136 g / cm^3
# Si number density = 21.670680 Si / 1000 Ang^3
#
#
#
# Elastic Constant Matrix: (Units=GPa)
#
#
# Indices 1 2 3 4 5 6 
#
# 1 129.1506 30.9777 6.9053 0.0000 7.7767 0.0000
# 2 30.9777 135.2754 13.6299 0.0000 10.6026 0.0000
# 3 6.9053 13.6299 53.6280 0.0000 5.0130 0.0000
# 4 0.0000 0.0000 0.0000 10.7926 0.0000 2.7256
# 5 7.7767 10.6026 5.0130 0.0000 34.6899 0.0000
# 6 0.0000 0.0000 0.0000 2.7256 0.0000 1.8945
#
#
#
# Elastic Compliance Matrix: (Units=1/GPa)
#
#
# Indices 1 2 3 4 5 6 
#
# 1 0.008263 -0.001744 -0.000504 0.000000 -0.001247 0.000000
# 2 -0.001744 0.008104 -0.001663 0.000000 -0.001846 0.000000
# 3 -0.000504 -0.001663 0.019338 0.000000 -0.002173 0.000000
# 4 0.000000 0.000000 0.000000 0.145532 0.000000 -0.209376
# 5 -0.001247 -0.001846 -0.002173 0.000000 0.029984 0.000000
# 6 0.000000 0.000000 0.000000 -0.209376 0.000000 0.829080
#
#
# Mechanical properties :
#
#
# Convention : Reuss Voigt Hill
#
# Bulk Modulus (GPa) = 35.86364 46.78666 41.32515
# Shear Modulus (GPa) = 4.72851 27.24480 15.98665
#
# Velocity S-wave (km/s) = 1.47876 3.54958 2.71903
# Velocity P-wave (km/s) = 4.41599 6.19968 5.38224
#
# Compressibility (1/GPa) = 0.02788339
#
# Stress axis : x y z
#
# Youngs Moduli (GPa) = 121.01895 123.39876 51.71269
#
# Poissons Ratio (x) = 0.21517 0.02608
# Poissons Ratio (y) = 0.21102 0.08598
# Poissons Ratio (z) = 0.06103 0.20516
#
# Static dielectric constant tensor:
#      x y z
#    x 3.968260 0.000000 0.077080 
#    y 0.000000 3.855960 0.000000 
#    z 0.077080 0.000000 3.733070 
# 
# 
# High freq. dielectric constant tensor:
#      x y z
#    x 1.860250 0.000000 0.005160 
#    y 0.000000 1.838500 0.000000 
#    z 0.005160 0.000000 1.819100 
# 
# From -- ./inp_files/59431.got.cif
#   From: 2010.06.25/outbox.cif.g09.slc.cpg/sg11_30_cif.got.tgz:59431.got - 2010.06.27 23:14:04.
