data_PCOD8068709
_publ_section_title
;
Structure prediction by ZEFSAII (Michael W. Deem and Ramdas Pophale) SiO2 
 PCOD8068709
Probable space group: P 21/M
;
_chemical_formula_sum "Si O2"
_cell_formula_units_Z 32
_cell_length_a 15.512697
_cell_length_b 22.037111
_cell_length_c 5.306832
_cell_angle_alpha 90.000000
_cell_angle_beta 90.000000
_cell_angle_gamma 90.000000
_cell_volume 1814.167190
_symmetry_space_group_name_H-M "P 21/M"
_symmetry_group_IT_number 11
_symmetry_cell_setting 'monoclinic'
loop_
_space_group_symop_operation_xyz
x,y,z
-x,1/2+y,-z
-x,-y,-z
x,1/2-y,z
loop_
_atom_site_type_symbol
_atom_site_label
_atom_site_fract_x
_atom_site_fract_y
_atom_site_fract_z
Si Si1 0.892714 0.026849 0.750000
Si Si2 0.305685 0.986406 0.249998
Si Si3 0.382945 0.970450 0.749998
Si Si4 0.197620 0.320483 0.750001
Si Si5 0.908430 0.820256 0.749999
Si Si6 0.563857 0.594720 0.750000
Si Si7 0.034289 0.924082 0.750000
Si Si8 0.621560 0.615520 0.250000
O O1 0.795879 0.002465 0.750001
O O2 0.908606 0.066609 0.499776
O O3 0.952540 0.968233 0.750000
O O4 0.908607 0.066610 0.000222
O O5 0.333576 0.948096 0.498376
O O6 0.351602 0.051771 0.249998
O O7 0.333575 0.948096 0.001619
O O8 0.479480 0.946072 0.749999
O O9 0.385038 0.042871 0.749998
O O10 0.224522 0.250000 0.750001
O O11 0.144386 0.337491 0.500798
O O12 0.281551 0.361670 0.750001
O O13 0.144386 0.337491 0.999206
O O14 0.933154 0.750000 0.749999
O O15 0.998467 0.855864 0.749999
O O16 0.570918 0.637541 0.501834
O O17 0.570917 0.637541 0.998167
#
# Coordination Sequence:
#
# PCOD8068709 Si02
#       8
#     4   4   4   4   4   4   4   4
#     4  10  21  33  47  74  99 135 163 201 253 300
#     4  10  18  29  46  66  97 129 160 195 237 295
#     4  10  19  29  46  71 101 127 164 198 230 295
#     4  10  21  33  48  75  99 124 175 211 235 292
#     4  10  21  36  54  71  96 133 171 212 251 292
#     4  10  19  31  44  73  98 128 166 197 232 295
#     4  10  21  35  49  68 105 128 166 210 241 302
#     4  10  18  28  46  64  94 134 153 196 241 275
#
# _framework density 17.638947000000002
#
# number of rings (size 3 to 8) (size 9 to 14) (size 15 to 20)
#    0.000    2.000    0.000    6.000    7.000    0.000 
#    0.000    0.000    0.000    0.000    0.000    0.000 
#    0.000   34.000    0.000    0.000    0.000    0.000 
#
# Total GULP energy -396663.188326 kJ/mol
# GULP energy per Si atom -12395.724635 kJ/mol
# Density = 1.759880 g / cm^3
# Si number density = 17.638947 Si / 1000 Ang^3
#
#
#
# Elastic Constant Matrix: (Units=GPa)
#
#
# Indices 1 2 3 4 5 6 
#
# 1 71.9515 2.1522 28.7952 0.0000 -0.0001 0.0000
# 2 2.1522 19.5695 7.4665 0.0000 0.0000 0.0000
# 3 28.7952 7.4665 189.2961 0.0000 0.0000 0.0000
# 4 0.0000 0.0000 0.0000 8.3981 0.0000 0.0000
# 5 -0.0001 0.0000 0.0000 0.0000 29.0774 0.0000
# 6 0.0000 0.0000 0.0000 0.0000 0.0000 13.3208
#
#
#
# Elastic Compliance Matrix: (Units=1/GPa)
#
#
# Indices 1 2 3 4 5 6 
#
# 1 0.014811 -0.000781 -0.002222 0.000000 0.000000 0.000000
# 2 -0.000781 0.051922 -0.001929 0.000000 0.000000 0.000000
# 3 -0.002222 -0.001929 0.005697 0.000000 0.000000 0.000000
# 4 0.000000 0.000000 0.000000 0.119074 0.000000 0.000000
# 5 0.000000 0.000000 0.000000 0.000000 0.034391 0.000000
# 6 0.000000 0.000000 0.000000 0.000000 0.000000 0.075071
#
#
# Mechanical properties :
#
#
# Convention : Reuss Voigt Hill
#
# Bulk Modulus (GPa) = 15.98339 39.73835 27.86087
# Shear Modulus (GPa) = 15.07451 26.31946 20.69699
#
# Velocity S-wave (km/s) = 2.92655 3.86699 3.42916
# Velocity P-wave (km/s) = 4.52777 6.52041 5.61322
#
# Compressibility (1/GPa) = 0.06256495
#
# Stress axis : x y z
#
# Youngs Moduli (GPa) = 67.51764 19.25966 175.53537
#
# Poissons Ratio (x) = 0.01504 0.39007
# Poissons Ratio (y) = 0.05273 0.33864
# Poissons Ratio (z) = 0.15004 0.03716
#
# Static dielectric constant tensor:
#      x y z
#    x 3.095370 0.000000 0.000000 
#    y 0.000000 2.789280 0.000000 
#    z 0.000000 0.000000 5.472350 
# 
# 
# High freq. dielectric constant tensor:
#      x y z
#    x 1.670820 0.000000 0.000000 
#    y 0.000000 1.617690 0.000000 
#    z 0.000000 0.000000 1.728270 
# 
# From -- ./inp_files/5383.got.cif
#   From: 2010.06.25/outbox.cif.g09.slc.cpg/sg11_3_cif.got.tgz:5383.got - 2010.06.27 23:14:04.
