data_PCOD8068290
_publ_section_title
;
Structure prediction by ZEFSAII (Michael W. Deem and Ramdas Pophale) SiO2 
 PCOD8068290
Probable space group: P 21/M
;
_chemical_formula_sum "Si O2"
_cell_formula_units_Z 32
_cell_length_a 19.290170
_cell_length_b 9.234725
_cell_length_c 13.698853
_cell_angle_alpha 90.000000
_cell_angle_beta 59.244689
_cell_angle_gamma 90.000000
_cell_volume 2097.098667
_symmetry_space_group_name_H-M "P 21/M"
_symmetry_group_IT_number 11
_symmetry_cell_setting 'monoclinic'
loop_
_space_group_symop_operation_xyz
x,y,z
-x,1/2+y,-z
-x,-y,-z
x,1/2-y,z
loop_
_atom_site_type_symbol
_atom_site_label
_atom_site_fract_x
_atom_site_fract_y
_atom_site_fract_z
Si Si1 0.506461 0.580035 0.097852
Si Si2 0.095221 0.084435 0.321396
Si Si3 0.343829 0.583009 0.999699
Si Si4 0.936493 0.085878 0.315497
Si Si5 0.168525 0.584435 0.097894
Si Si6 0.331187 0.581600 0.229998
Si Si7 0.985990 0.419213 0.909957
Si Si8 0.169155 0.579609 0.437554
O O1 0.521276 0.750000 0.072049
O O2 0.419951 0.551624 0.213635
O O3 0.500000 0.500000 0.000000
O O4 0.582624 0.510121 0.100854
O O5 0.119498 0.250000 0.320522
O O6 0.004801 0.067640 0.348135
O O7 0.156132 0.017964 0.198764
O O8 0.104174 0.999713 0.416068
O O9 0.371253 0.750000 0.981597
O O10 0.261514 0.562351 0.996069
O O11 0.327519 0.523608 0.121374
O O12 0.935703 0.250000 0.274717
O O13 0.853206 0.048104 0.432585
O O14 0.950497 0.977348 0.215810
O O15 0.155167 0.750000 0.141912
O O16 0.106054 0.546950 0.056410
O O17 0.314305 0.750000 0.235877
O O18 0.259208 0.517056 0.349112
O O19 0.001660 0.250000 0.913014
O O20 0.000000 0.500000 0.000000
O O21 0.161245 0.750000 0.423157
#
# Coordination Sequence:
#
# PCOD8068290 Si02
#       8
#     4   4   4   4   4   4   4   4
#     4   9  16  25  36  53  78 110 146 179 211 244
#     4  10  18  26  37  60  88 111 140 182 215 240
#     4   9  15  26  41  57  79 107 145 181 207 245
#     4   9  19  31  44  62  84 110 144 178 211 251
#     4   9  17  30  46  62  81 113 147 173 210 260
#     4   8  14  24  38  54  77 112 148 175 200 239
#     4  10  20  34  52  67  85 110 137 174 219 263
#     4  10  17  28  43  57  81 119 151 175 204 247
#
# _framework density 15.259179
#
# number of rings (size 3 to 8) (size 9 to 14) (size 15 to 20)
#    0.000    2.750    1.250    2.250    0.000    2.000 
#    0.000    0.625    0.000    0.000    0.000    0.000 
#    0.000    1.000    0.000    2.000    0.000    2.750 
#
# Total GULP energy -396492.730327 kJ/mol
# GULP energy per Si atom -12390.397823 kJ/mol
# Density = 1.522445 g / cm^3
# Si number density = 15.259179 Si / 1000 Ang^3
#
#
#
# Elastic Constant Matrix: (Units=GPa)
#
#
# Indices 1 2 3 4 5 6 
#
# 1 70.9761 34.1065 46.2296 0.0000 -11.7239 0.0000
# 2 34.1065 72.7207 41.3241 0.0000 -0.3324 0.0000
# 3 46.2296 41.3241 75.9103 0.0000 -5.8334 0.0000
# 4 0.0000 0.0000 0.0000 19.6908 0.0000 -0.3583
# 5 -11.7239 -0.3324 -5.8334 0.0000 20.3131 0.0000
# 6 0.0000 0.0000 0.0000 -0.3583 0.0000 22.4444
#
#
#
# Elastic Compliance Matrix: (Units=1/GPa)
#
#
# Indices 1 2 3 4 5 6 
#
# 1 0.026731 -0.005425 -0.012422 0.000000 0.011772 0.000000
# 2 -0.005425 0.021174 -0.008627 0.000000 -0.005262 0.000000
# 3 -0.012422 -0.008627 0.025434 0.000000 -0.000006 0.000000
# 4 0.000000 0.000000 0.000000 0.050800 0.000000 0.000811
# 5 0.011772 -0.005262 -0.000006 0.000000 0.055936 0.000000
# 6 0.000000 0.000000 0.000000 0.000811 0.000000 0.044568
#
#
# Mechanical properties :
#
#
# Convention : Reuss Voigt Hill
#
# Bulk Modulus (GPa) = 49.03855 51.43636 50.23746
# Shear Modulus (GPa) = 17.58162 19.01945 18.30053
#
# Velocity S-wave (km/s) = 3.39809 3.53431 3.46687
# Velocity P-wave (km/s) = 6.89948 7.10188 7.00141
#
# Compressibility (1/GPa) = 0.02039212
#
# Stress axis : x y z
#
# Youngs Moduli (GPa) = 37.40942 47.22772 39.31676
#
# Poissons Ratio (x) = 0.25619 0.48838
# Poissons Ratio (y) = 0.20293 0.33920
# Poissons Ratio (z) = 0.46469 0.40746
#
# Static dielectric constant tensor:
#      x y z
#    x 3.186050 0.000000 -0.456230 
#    y 0.000000 2.988800 0.000000 
#    z -0.456230 0.000000 2.833750 
# 
# 
# High freq. dielectric constant tensor:
#      x y z
#    x 1.570630 0.000000 -0.033400 
#    y 0.000000 1.584510 0.000000 
#    z -0.033400 0.000000 1.544260 
# 
# From -- ./inp_files/40711.got.cif
#   From: 2010.06.25/outbox.cif.g09.slc.cpg/sg11_21_cif.got.tgz:40711.got - 2010.06.27 23:14:04.
