data_PCOD8068725
_publ_section_title
;
Structure prediction by ZEFSAII (Michael W. Deem and Ramdas Pophale) SiO2 
 PCOD8068725
Probable space group: P 21/M
;
_chemical_formula_sum "Si O2"
_cell_formula_units_Z 28
_cell_length_a 12.975786
_cell_length_b 9.657784
_cell_length_c 14.133415
_cell_angle_alpha 90.000000
_cell_angle_beta 54.776572
_cell_angle_gamma 90.000000
_cell_volume 1446.878367
_symmetry_space_group_name_H-M "P 21/M"
_symmetry_group_IT_number 11
_symmetry_cell_setting 'monoclinic'
loop_
_space_group_symop_operation_xyz
x,y,z
-x,1/2+y,-z
-x,-y,-z
x,1/2-y,z
loop_
_atom_site_type_symbol
_atom_site_label
_atom_site_fract_x
_atom_site_fract_y
_atom_site_fract_z
Si Si1 0.606973 0.901419 0.477728
Si Si2 0.785398 0.903277 0.207763
Si Si3 0.394828 0.087645 0.859790
Si Si4 0.039280 0.909872 0.768864
Si Si5 0.244005 0.412245 0.122966
Si Si6 0.226050 0.594768 0.504781
Si Si7 0.322121 0.907744 0.258131
O O1 0.556322 0.750000 0.536632
O O2 0.705453 0.881697 0.343128
O O3 0.500000 0.000000 0.500000
O O4 0.670211 0.978594 0.531554
O O5 0.836143 0.750000 0.149133
O O6 0.696796 0.974631 0.173783
O O7 0.900377 0.003799 0.176295
O O8 0.386514 0.250000 0.847931
O O9 0.540875 0.040393 0.775147
O O10 0.342670 0.044253 0.989927
O O11 0.053405 0.750000 0.789647
O O12 0.100502 0.937332 0.632164
O O13 0.894616 0.955053 0.838547
O O14 0.250339 0.250000 0.143255
O O15 0.277817 0.494622 0.198469
O O16 0.274612 0.750000 0.506015
O O17 0.213696 0.586049 0.397311
O O18 0.335704 0.750000 0.213459
#
# Coordination Sequence:
#
# PCOD8068725 Si02
#       7
#     4   4   4   4   4   4   4
#     4  10  18  28  46  73 103 134 167 205 250 300
#     4   9  18  33  53  75 100 133 171 207 246 300
#     4   9  18  34  54  75 101 133 168 208 255 300
#     4   9  19  35  52  75 106 135 164 203 255 304
#     4  10  21  36  53  73 102 137 169 208 255 300
#     4   9  18  33  51  71  99 133 167 206 251 299
#     4  10  20  35  55  76  99 132 173 213 252 296
#
# _framework density 19.352008000000001
#
# number of rings (size 3 to 8) (size 9 to 14) (size 15 to 20)
#    0.000    2.571    0.000    1.714    0.000    5.143 
#    0.000    1.429    0.000    0.000    0.000    0.000 
#    0.000    0.000    0.000    0.000    0.000    0.000 
#
# Total GULP energy -346952.970450 kJ/mol
# GULP energy per Si atom -12391.177516 kJ/mol
# Density = 1.930796 g / cm^3
# Si number density = 19.352008 Si / 1000 Ang^3
#
#
#
# Elastic Constant Matrix: (Units=GPa)
#
#
# Indices 1 2 3 4 5 6 
#
# 1 74.8266 36.1279 -18.5300 0.0000 4.9576 0.0000
# 2 36.1279 76.1903 8.3182 0.0000 3.7941 0.0000
# 3 -18.5300 8.3182 -8.7731 0.0000 0.3319 0.0000
# 4 0.0000 0.0000 0.0000 19.2756 0.0000 4.3246
# 5 4.9576 3.7941 0.3319 0.0000 30.7690 0.0000
# 6 0.0000 0.0000 0.0000 4.3246 0.0000 33.2863
#
#
#
# Elastic Compliance Matrix: (Units=1/GPa)
#
#
# Indices 1 2 3 4 5 6 
#
# 1 0.009132 -0.001967 -0.021192 0.000000 -0.001000 0.000000
# 2 -0.001967 0.012396 0.015855 0.000000 -0.001383 0.000000
# 3 -0.021192 0.015855 -0.054115 0.000000 0.002043 0.000000
# 4 0.000000 0.000000 0.000000 0.053437 0.000000 -0.006942
# 5 -0.001000 -0.001383 0.002043 0.000000 0.032810 0.000000
# 6 0.000000 0.000000 0.000000 -0.006942 0.000000 0.030944
#
#
# Mechanical properties :
#
#
# Convention : Reuss Voigt Hill
#
# Bulk Modulus (GPa) = -21.18897 21.56401 0.18752
# Shear Modulus (GPa) = 59.89532 24.42137 42.15835
#
# Velocity S-wave (km/s) = 5.56935 3.55625 4.67250
# Velocity P-wave (km/s) = 5.51215 5.29432 5.40433
#
# Compressibility (1/GPa) = -0.04719437
#
# Stress axis : x y z
#
# Youngs Moduli (GPa) = 109.50071 80.67385 -18.47907
#
# Poissons Ratio (x) = 0.15868 -0.39160
# Poissons Ratio (y) = 0.21538 0.29298
# Poissons Ratio (z) = 2.32048 -1.27908
#
# Static dielectric constant tensor:
#      x y z
#    x 3.599500 0.000000 -0.135220 
#    y 0.000000 3.773700 0.000000 
#    z -0.135220 0.000000 3.646710 
# 
# 
# High freq. dielectric constant tensor:
#      x y z
#    x 1.740630 0.000000 0.001880 
#    y 0.000000 1.739920 0.000000 
#    z 0.001880 0.000000 1.753390 
# 
# From -- ./inp_files/37865.got.cif
#   From: 2010.06.25/outbox.cif.g09.slc.cpg/sg11_19_cif.got.tgz:37865.got - 2010.06.27 23:14:04.
