data_PCOD8068591
_publ_section_title
;
Structure prediction by ZEFSAII (Michael W. Deem and Ramdas Pophale) SiO2 
 PCOD8068591
Probable space group: P 21/M
;
_chemical_formula_sum "Si O2"
_cell_formula_units_Z 32
_cell_length_a 14.658057
_cell_length_b 9.246627
_cell_length_c 25.961426
_cell_angle_alpha 90.000000
_cell_angle_beta 32.529950
_cell_angle_gamma 90.000000
_cell_volume 1892.173486
_symmetry_space_group_name_H-M "P 21/M"
_symmetry_group_IT_number 11
_symmetry_cell_setting 'monoclinic'
loop_
_space_group_symop_operation_xyz
x,y,z
-x,1/2+y,-z
-x,-y,-z
x,1/2-y,z
loop_
_atom_site_type_symbol
_atom_site_label
_atom_site_fract_x
_atom_site_fract_y
_atom_site_fract_z
Si Si1 0.253675 0.419820 0.893044
Si Si2 0.246860 0.577837 0.443897
Si Si3 0.058797 0.579857 0.360192
Si Si4 0.074483 0.580695 0.889407
Si Si5 0.436152 0.082285 0.439212
Si Si6 0.883151 0.584228 0.341167
Si Si7 0.627643 0.079805 0.726450
Si Si8 0.179105 0.581563 0.727526
O O1 0.258038 0.250000 0.878999
O O2 0.207614 0.498238 0.861895
O O3 0.436419 0.479977 0.825195
O O4 0.117480 0.456276 0.002246
O O5 0.236587 0.750000 0.454295
O O6 0.394579 0.517675 0.410339
O O7 0.291655 0.525075 0.365246
O O8 0.066969 0.508707 0.543542
O O9 0.025340 0.750000 0.385934
O O10 0.250605 0.533546 0.283995
O O11 0.024345 0.542242 0.316796
O O12 0.114983 0.750000 0.874961
O O13 0.099178 0.526731 0.819257
O O14 0.424657 0.250000 0.427668
O O15 0.303627 0.049367 0.547830
O O16 0.622664 0.041318 0.369748
O O17 0.899277 0.750000 0.317787
O O18 0.918309 0.493666 0.273127
O O19 0.614918 0.250000 0.730232
O O20 0.148461 0.750000 0.735559
#
# Coordination Sequence:
#
# PCOD8068591 Si02
#       8
#     4   4   4   4   4   4   4   4
#     4   9  17  31  50  70  92 118 147 178 214 262
#     4  10  18  27  43  69  94 116 147 183 218 258
#     4   9  18  33  47  61  88 122 152 183 220 260
#     4   9  18  31  47  70  96 118 142 176 223 270
#     4   9  18  31  44  62  91 123 150 177 217 266
#     4   9  18  30  44  62  84 115 153 188 220 257
#     4   9  17  29  47  68  89 117 152 184 215 259
#     4  10  19  30  46  66  89 118 149 183 223 264
#
# _framework density 16.911769
#
# number of rings (size 3 to 8) (size 9 to 14) (size 15 to 20)
#    0.000    2.750    0.000    2.625    0.000    3.000 
#    0.000    1.875    0.000    0.750    0.000    0.000 
#    0.000    0.000    0.000    0.000    0.000    0.250 
#
# Total GULP energy -396731.527417 kJ/mol
# GULP energy per Si atom -12397.860232 kJ/mol
# Density = 1.687328 g / cm^3
# Si number density = 16.911769 Si / 1000 Ang^3
#
#
#
# Elastic Constant Matrix: (Units=GPa)
#
#
# Indices 1 2 3 4 5 6 
#
# 1 144.6369 41.9921 80.4593 0.0000 2.2171 0.0000
# 2 41.9921 39.3644 30.4858 0.0000 2.0760 0.0000
# 3 80.4593 30.4858 91.4208 0.0000 -0.8280 0.0000
# 4 0.0000 0.0000 0.0000 17.9330 0.0000 2.8518
# 5 2.2171 2.0760 -0.8280 0.0000 27.2577 0.0000
# 6 0.0000 0.0000 0.0000 2.8518 0.0000 26.6851
#
#
#
# Elastic Compliance Matrix: (Units=1/GPa)
#
#
# Indices 1 2 3 4 5 6 
#
# 1 0.015188 -0.007809 -0.010772 0.000000 -0.000968 0.000000
# 2 -0.007809 0.038503 -0.005990 0.000000 -0.002479 0.000000
# 3 -0.010772 -0.005990 0.022434 0.000000 0.002014 0.000000
# 4 0.000000 0.000000 0.000000 0.056727 0.000000 -0.006062
# 5 -0.000968 -0.002479 0.002014 0.000000 0.037016 0.000000
# 6 0.000000 0.000000 0.000000 -0.006062 0.000000 0.038122
#
#
# Mechanical properties :
#
#
# Convention : Reuss Voigt Hill
#
# Bulk Modulus (GPa) = 37.05733 64.58851 50.82292
# Shear Modulus (GPa) = 18.78820 22.54082 20.66451
#
# Velocity S-wave (km/s) = 3.33671 3.65478 3.49936
# Velocity P-wave (km/s) = 6.06668 7.48894 6.81502
#
# Compressibility (1/GPa) = 0.02698521
#
# Stress axis : x y z
#
# Youngs Moduli (GPa) = 65.84212 25.97207 44.57490
#
# Poissons Ratio (x) = 0.20280 0.48015
# Poissons Ratio (y) = 0.51413 0.26699
# Poissons Ratio (z) = 0.70923 0.15556
#
# Static dielectric constant tensor:
#      x y z
#    x 3.270420 0.000000 -0.126630 
#    y 0.000000 3.021700 0.000000 
#    z -0.126630 0.000000 3.221010 
# 
# 
# High freq. dielectric constant tensor:
#      x y z
#    x 1.651850 0.000000 -0.002930 
#    y 0.000000 1.639600 0.000000 
#    z -0.002930 0.000000 1.635170 
# 
# From -- ./inp_files/56199.got.cif
#   From: 2010.06.25/outbox.cif.g09.slc.cpg/sg11_29_cif.got.tgz:56199.got - 2010.06.27 23:14:04.
