data_PCOD8068674
_publ_section_title
;
Structure prediction by ZEFSAII (Michael W. Deem and Ramdas Pophale) SiO2 
 PCOD8068674
Probable space group: P 21/M
;
_chemical_formula_sum "Si O2"
_cell_formula_units_Z 32
_cell_length_a 11.656280
_cell_length_b 9.270208
_cell_length_c 17.268061
_cell_angle_alpha 90.000000
_cell_angle_beta 85.735372
_cell_angle_gamma 90.000000
_cell_volume 1860.753720
_symmetry_space_group_name_H-M "P 21/M"
_symmetry_group_IT_number 11
_symmetry_cell_setting 'monoclinic'
loop_
_space_group_symop_operation_xyz
x,y,z
-x,1/2+y,-z
-x,-y,-z
x,1/2-y,z
loop_
_atom_site_type_symbol
_atom_site_label
_atom_site_fract_x
_atom_site_fract_y
_atom_site_fract_z
Si Si1 0.142640 0.577693 0.274677
Si Si2 0.954379 0.592195 0.175832
Si Si3 0.641191 0.915793 0.785136
Si Si4 0.382349 0.583347 0.764649
Si Si5 0.779117 0.591144 0.325855
Si Si6 0.251541 0.079985 0.901828
Si Si7 0.607659 0.582315 0.960413
Si Si8 0.980080 0.920037 0.421550
O O1 0.149699 0.750000 0.268733
O O2 0.268443 0.509343 0.267824
O O3 0.079620 0.531320 0.356811
O O4 0.069075 0.514825 0.203740
O O5 0.992709 0.750000 0.145470
O O6 0.866078 0.604139 0.250759
O O7 0.879078 0.519685 0.109810
O O8 0.680759 0.750000 0.782376
O O9 0.518951 0.935320 0.749520
O O10 0.637107 0.974531 0.873481
O O11 0.347192 0.750000 0.774188
O O12 0.323709 0.518442 0.690206
O O13 0.343974 0.502029 0.844370
O O14 0.726539 0.750000 0.345487
O O15 0.853416 0.536221 0.395657
O O16 0.257806 0.250000 0.880408
O O17 0.281747 0.054004 0.990112
O O18 0.573967 0.750000 0.958719
O O19 0.500000 0.500000 0.000000
O O20 0.985815 0.750000 0.434863
O O21 0.000000 0.000000 0.500000
#
# Coordination Sequence:
#
# PCOD8068674 Si02
#       8
#     4   4   4   4   4   4   4   4
#     4   9  18  33  51  70  95 128 164 195 228 286
#     4   7  12  26  46  66  87 115 156 200 233 270
#     4  10  21  33  44  66 101 132 160 203 251 288
#     4  10  18  28  44  68  98 126 158 205 247 278
#     4   8  15  29  48  71  98 125 157 193 231 283
#     4   9  16  28  48  67  87 122 163 203 250 296
#     4  10  19  31  46  66  94 127 164 207 251 293
#     4   9  18  33  55  82 106 126 153 194 238 283
#
# _framework density 17.197330000000001
#
# number of rings (size 3 to 8) (size 9 to 14) (size 15 to 20)
#    0.000    3.000    1.250    2.625    0.000    2.500 
#    0.000    5.625    0.000    0.750    0.000    0.000 
#    0.000    0.000    0.000    0.000    0.000    0.000 
#
# Total GULP energy -396462.848706 kJ/mol
# GULP energy per Si atom -12389.464022 kJ/mol
# Density = 1.715819 g / cm^3
# Si number density = 17.197330 Si / 1000 Ang^3
#
#
#
# Elastic Constant Matrix: (Units=GPa)
#
#
# Indices 1 2 3 4 5 6 
#
# 1 95.4302 42.0530 51.0400 0.0000 13.9863 0.0000
# 2 42.0530 53.9935 35.6676 0.0000 6.3095 0.0000
# 3 51.0400 35.6676 92.8553 0.0000 21.4239 0.0000
# 4 0.0000 0.0000 0.0000 23.6886 0.0000 2.6530
# 5 13.9863 6.3095 21.4239 0.0000 28.2333 0.0000
# 6 0.0000 0.0000 0.0000 2.6530 0.0000 24.5984
#
#
#
# Elastic Compliance Matrix: (Units=1/GPa)
#
#
# Indices 1 2 3 4 5 6 
#
# 1 0.018380 -0.010364 -0.005523 0.000000 -0.002599 0.000000
# 2 -0.010364 0.030760 -0.006931 0.000000 0.003519 0.000000
# 3 -0.005523 -0.006931 0.018764 0.000000 -0.009954 0.000000
# 4 0.000000 0.000000 0.000000 0.042731 0.000000 -0.004609
# 5 -0.002599 0.003519 -0.009954 0.000000 0.043473 0.000000
# 6 0.000000 0.000000 0.000000 -0.004609 0.000000 0.041150
#
#
# Mechanical properties :
#
#
# Convention : Reuss Voigt Hill
#
# Bulk Modulus (GPa) = 44.90409 55.53334 50.21872
# Shear Modulus (GPa) = 20.13570 22.87196 21.50383
#
# Velocity S-wave (km/s) = 3.42550 3.65083 3.53996
# Velocity P-wave (km/s) = 6.46631 7.08049 6.78036
#
# Compressibility (1/GPa) = 0.02226969
#
# Stress axis : x y z
#
# Youngs Moduli (GPa) = 54.40555 32.51012 53.29387
#
# Poissons Ratio (x) = 0.33693 0.29433
# Poissons Ratio (y) = 0.56384 0.36936
# Poissons Ratio (z) = 0.30047 0.22532
#
# Static dielectric constant tensor:
#      x y z
#    x 3.382400 0.000000 0.482790 
#    y 0.000000 3.122940 0.000000 
#    z 0.482790 0.000000 3.179600 
# 
# 
# High freq. dielectric constant tensor:
#      x y z
#    x 1.660450 0.000000 0.033850 
#    y 0.000000 1.647280 0.000000 
#    z 0.033850 0.000000 1.638110 
# 
# From -- ./inp_files/58726.got.cif
#   From: 2010.06.25/outbox.cif.g09.slc.cpg/sg11_30_cif.got.tgz:58726.got - 2010.06.27 23:14:04.
