data_PCOD8068921
_publ_section_title
;
Structure prediction by ZEFSAII (Michael W. Deem and Ramdas Pophale) SiO2 
 PCOD8068921
Probable space group: P 21/M
;
_chemical_formula_sum "Si O2"
_cell_formula_units_Z 28
_cell_length_a 10.214524
_cell_length_b 8.889127
_cell_length_c 30.295670
_cell_angle_alpha 90.000000
_cell_angle_beta 33.752219
_cell_angle_gamma 90.000000
_cell_volume 1528.346919
_symmetry_space_group_name_H-M "P 21/M"
_symmetry_group_IT_number 11
_symmetry_cell_setting 'monoclinic'
loop_
_space_group_symop_operation_xyz
x,y,z
-x,1/2+y,-z
-x,-y,-z
x,1/2-y,z
loop_
_atom_site_type_symbol
_atom_site_label
_atom_site_fract_x
_atom_site_fract_y
_atom_site_fract_z
Si Si1 0.980540 0.928047 0.900969
Si Si2 0.804567 0.073100 0.321982
Si Si3 0.619835 0.576848 0.506922
Si Si4 0.414788 0.072086 0.920848
Si Si5 0.111064 0.571554 0.165827
Si Si6 0.051523 0.575314 0.335423
Si Si7 0.416775 0.073529 0.820588
O O1 0.977591 0.750000 0.896292
O O2 0.242915 0.983271 0.837648
O O3 0.885480 0.002051 0.883396
O O4 0.808959 0.983067 0.988365
O O5 0.839933 0.250000 0.304138
O O6 0.524996 0.029623 0.408274
O O7 0.882662 0.984624 0.256525
O O8 0.960018 0.023998 0.320468
O O9 0.500000 0.500000 0.500000
O O10 0.569075 0.750000 0.514459
O O11 0.900916 0.543198 0.423157
O O12 0.430538 0.250000 0.915335
O O13 0.655719 0.010882 0.874788
O O14 0.389428 0.011486 0.878174
O O15 0.104657 0.750000 0.163763
O O16 0.029065 0.750000 0.327200
O O17 0.321326 0.536677 0.270276
O O18 0.358943 0.250000 0.833922
#
# Coordination Sequence:
#
# PCOD8068921 Si02
#       7
#     4   4   4   4   4   4   4
#     4  11  23  37  52  77 108 137 172 219 268 308
#     4  10  18  29  48  78 110 134 167 214 262 304
#     4   8  15  26  44  73 105 135 165 206 255 301
#     4   9  19  36  57  78 102 133 176 220 258 307
#     4  11  21  37  57  76 102 140 179 214 257 314
#     4   9  16  30  52  75 104 140 175 208 249 306
#     4  10  19  35  56  78 105 140 177 211 251 310
#
# _framework density 18.320447999999999
#
# number of rings (size 3 to 8) (size 9 to 14) (size 15 to 20)
#    0.000    2.286    1.429    2.143    0.000    1.143 
#    0.000    2.857    0.000    0.857    0.000    0.000 
#    0.000    0.000    0.000    0.000    0.000    0.000 
#
# Total GULP energy -347001.089602 kJ/mol
# GULP energy per Si atom -12392.896057 kJ/mol
# Density = 1.827875 g / cm^3
# Si number density = 18.320448 Si / 1000 Ang^3
#
#
#
# Elastic Constant Matrix: (Units=GPa)
#
#
# Indices 1 2 3 4 5 6 
#
# 1 56.9287 15.4749 12.9639 0.0000 -7.5086 0.0000
# 2 15.4749 50.6194 25.1088 0.0000 -3.4390 0.0000
# 3 12.9639 25.1088 114.8041 0.0000 -19.8422 0.0000
# 4 0.0000 0.0000 0.0000 24.3173 0.0000 3.3768
# 5 -7.5086 -3.4390 -19.8422 0.0000 14.7487 0.0000
# 6 0.0000 0.0000 0.0000 3.3768 0.0000 24.6125
#
#
#
# Elastic Compliance Matrix: (Units=1/GPa)
#
#
# Indices 1 2 3 4 5 6 
#
# 1 0.020314 -0.005888 0.000709 0.000000 0.009922 0.000000
# 2 -0.005888 0.023901 -0.005365 0.000000 -0.004642 0.000000
# 3 0.000709 -0.005365 0.012574 0.000000 0.016026 0.000000
# 4 0.000000 0.000000 0.000000 0.041922 0.000000 -0.005752
# 5 0.009922 -0.004642 0.016026 0.000000 0.093332 0.000000
# 6 0.000000 0.000000 0.000000 -0.005752 0.000000 0.041419
#
#
# Mechanical properties :
#
#
# Convention : Reuss Voigt Hill
#
# Bulk Modulus (GPa) = 28.01047 36.60527 32.30787
# Shear Modulus (GPa) = 18.76534 23.98931 21.37733
#
# Velocity S-wave (km/s) = 3.20392 3.62253 3.41963
# Velocity P-wave (km/s) = 5.38601 6.12543 5.76758
#
# Compressibility (1/GPa) = 0.03570094
#
# Stress axis : x y z
#
# Youngs Moduli (GPa) = 49.22818 41.83936 79.53160
#
# Poissons Ratio (x) = 0.24633 -0.05637
# Poissons Ratio (y) = 0.28983 0.42667
# Poissons Ratio (z) = -0.03489 0.22446
#
# Static dielectric constant tensor:
#      x y z
#    x 3.048750 0.000000 -0.080640 
#    y 0.000000 3.226750 0.000000 
#    z -0.080640 0.000000 4.140260 
# 
# 
# High freq. dielectric constant tensor:
#      x y z
#    x 1.668850 0.000000 -0.006180 
#    y 0.000000 1.702000 0.000000 
#    z -0.006180 0.000000 1.737370 
# 
# From -- ./inp_files/28266.got.cif
#   From: 2010.06.25/outbox.cif.g09.slc.cpg/sg11_15_cif.got.tgz:28266.got - 2010.06.27 23:14:04.
