data_PCOD8068707
_publ_section_title
;
Structure prediction by ZEFSAII (Michael W. Deem and Ramdas Pophale) SiO2 
 PCOD8068707
Probable space group: P 21/M
;
_chemical_formula_sum "Si O2"
_cell_formula_units_Z 24
_cell_length_a 14.444815
_cell_length_b 8.895158
_cell_length_c 13.299440
_cell_angle_alpha 90.000000
_cell_angle_beta 40.523452
_cell_angle_gamma 90.000000
_cell_volume 1110.328452
_symmetry_space_group_name_H-M "P 21/M"
_symmetry_group_IT_number 11
_symmetry_cell_setting 'monoclinic'
loop_
_space_group_symop_operation_xyz
x,y,z
-x,1/2+y,-z
-x,-y,-z
x,1/2-y,z
loop_
_atom_site_type_symbol
_atom_site_label
_atom_site_fract_x
_atom_site_fract_y
_atom_site_fract_z
Si Si1 0.724207 0.426577 0.566075
Si Si2 0.713232 0.922634 0.058658
Si Si3 0.026091 0.580705 0.777432
Si Si4 0.472243 0.427338 0.129619
Si Si5 0.150462 0.416772 0.850781
Si Si6 0.405921 0.082667 0.498451
O O1 0.725037 0.250000 0.586223
O O2 0.872193 0.488537 0.394183
O O3 0.681899 0.511596 0.704073
O O4 0.595268 0.475040 0.597972
O O5 0.657372 0.750000 0.105625
O O6 0.748819 0.981812 0.142682
O O7 0.600499 0.029476 0.098684
O O8 0.863992 0.931767 0.873291
O O9 0.081697 0.750000 0.742535
O O10 0.025674 0.517246 0.896656
O O11 0.463744 0.250000 0.125393
O O12 0.500000 0.500000 0.000000
O O13 0.096085 0.250000 0.927238
O O14 0.246818 0.404738 0.671809
O O15 0.463519 0.250000 0.424152
O O16 0.500000 0.000000 0.500000
#
# Coordination Sequence:
#
# PCOD8068707 Si02
#       6
#     4   4   4   4   4   4
#     4  10  20  37  58  82 114 151 189 236 287 341
#     4  10  20  37  59  87 121 156 193 238 286 336
#     4   9  19  34  57  88 123 159 193 229 278 337
#     4  12  26  44  65  87 109 143 190 243 298 352
#     4   9  18  30  49  79 119 159 193 230 275 328
#     4  10  18  28  45  75 112 154 198 238 282 336
#
# _framework density 21.615226
#
# number of rings (size 3 to 8) (size 9 to 14) (size 15 to 20)
#    0.000    2.000    0.000    4.000    0.000    4.000 
#    0.000    0.833    0.000    0.000    0.000    0.000 
#    0.000    0.000    0.000    0.000    0.000    0.000 
#
# Total GULP energy -297368.685340 kJ/mol
# GULP energy per Si atom -12390.361889 kJ/mol
# Density = 2.156603 g / cm^3
# Si number density = 21.615226 Si / 1000 Ang^3
#
#
#
# Elastic Constant Matrix: (Units=GPa)
#
#
# Indices 1 2 3 4 5 6 
#
# 1 51.6887 25.4108 31.5589 0.0000 7.3157 0.0000
# 2 25.4108 110.2302 34.1993 0.0000 5.7866 0.0000
# 3 31.5589 34.1993 117.8546 0.0000 26.4561 0.0000
# 4 0.0000 0.0000 0.0000 32.3925 0.0000 3.0005
# 5 7.3157 5.7866 26.4561 0.0000 27.3399 0.0000
# 6 0.0000 0.0000 0.0000 3.0005 0.0000 34.1700
#
#
#
# Elastic Compliance Matrix: (Units=1/GPa)
#
#
# Indices 1 2 3 4 5 6 
#
# 1 0.024636 -0.004004 -0.005296 0.000000 -0.000620 0.000000
# 2 -0.004004 0.010637 -0.002235 0.000000 0.000983 0.000000
# 3 -0.005296 -0.002235 0.012938 0.000000 -0.010629 0.000000
# 4 0.000000 0.000000 0.000000 0.031124 0.000000 -0.002733
# 5 -0.000620 0.000983 -0.010629 0.000000 0.046820 0.000000
# 6 0.000000 0.000000 0.000000 -0.002733 0.000000 0.029505
#
#
# Mechanical properties :
#
#
# Convention : Reuss Voigt Hill
#
# Bulk Modulus (GPa) = 39.77545 51.34571 45.56058
# Shear Modulus (GPa) = 26.72212 31.35412 29.03812
#
# Velocity S-wave (km/s) = 3.51987 3.81275 3.66923
# Velocity P-wave (km/s) = 5.91277 6.57181 6.25098
#
# Compressibility (1/GPa) = 0.02514114
#
# Stress axis : x y z
#
# Youngs Moduli (GPa) = 40.59088 94.01399 77.29219
#
# Poissons Ratio (x) = 0.37639 0.40934
# Poissons Ratio (y) = 0.16251 0.17276
# Poissons Ratio (z) = 0.21497 0.21014
#
# Static dielectric constant tensor:
#      x y z
#    x 3.520740 0.000000 0.040270 
#    y 0.000000 4.122520 0.000000 
#    z 0.040270 0.000000 4.712070 
# 
# 
# High freq. dielectric constant tensor:
#      x y z
#    x 1.807760 0.000000 0.000770 
#    y 0.000000 1.839510 0.000000 
#    z 0.000770 0.000000 1.888460 
# 
# From -- ./inp_files/51492.got.cif
#   From: 2010.06.25/outbox.cif.g09.slc.cpg/sg11_26_cif.got.tgz:51492.got - 2010.06.27 23:14:04.
