data_PCOD8068063
_publ_section_title
;
Structure prediction by ZEFSAII (Michael W. Deem and Ramdas Pophale) SiO2 
 PCOD8068063
Probable space group: P 2/M
;
_chemical_formula_sum "Si O2"
_cell_formula_units_Z 24
_cell_length_a 9.561010
_cell_length_b 10.428051
_cell_length_c 26.595304
_cell_angle_alpha 90.000000
_cell_angle_beta 153.994210
_cell_angle_gamma 90.000000
_cell_volume 1162.636118
_symmetry_space_group_name_H-M "P 2/M"
_symmetry_group_IT_number 10
_symmetry_cell_setting 'monoclinic'
loop_
_space_group_symop_operation_xyz
x,y,z
-x,y,-z
-x,-y,-z
x,-y,z
loop_
_atom_site_type_symbol
_atom_site_label
_atom_site_fract_x
_atom_site_fract_y
_atom_site_fract_z
Si Si1 0.471174 0.144457 0.432068
Si Si2 0.222736 0.637589 0.120803
Si Si3 0.021702 0.355041 0.164379
Si Si4 0.199808 0.855041 0.835621
Si Si5 0.310831 0.644457 0.567931
Si Si6 0.618720 0.862411 0.879197
O O1 0.500000 0.168856 0.500000
O O2 0.692544 0.250000 0.477017
O O3 0.106107 0.165495 0.298364
O O4 0.583739 0.000000 0.454233
O O5 0.397357 0.500000 0.185501
O O6 0.009404 0.669474 0.100622
O O7 0.482357 0.750000 0.192942
O O8 0.000000 0.628538 0.000000
O O9 0.904012 0.500000 0.139635
O O10 0.385714 0.334506 0.298364
O O11 0.795073 0.250000 0.118029
O O12 0.506293 0.830527 0.899379
O O13 0.205831 0.000000 0.860364
O O14 0.312573 0.500000 0.545766
O O15 0.000000 0.668855 0.500000
O O16 0.469852 0.000000 0.814499
O O17 0.000000 0.871461 0.000000
#
# Coordination Sequence:
#
# PCOD8068063 Si02
#       6
#     4   4   4   4   4   4
#     4   9  18  32  49  72 102 132 164 202 242 289
#     4   9  18  33  51  71  96 125 160 202 246 292
#     4   9  18  33  52  73  98 130 166 203 245 292
#     4   9  18  33  52  73  98 130 166 203 245 292
#     4   9  18  32  49  72 102 132 164 202 242 289
#     4   9  18  33  51  71  96 125 160 202 246 292
#
# _framework density 20.642745999999999
#
# number of rings (size 3 to 8) (size 9 to 14) (size 15 to 20)
#    0.000    3.000    0.000    0.000    0.000    3.333 
#    0.000    3.333    0.000   18.000    0.000    0.000 
#    0.000    0.000    0.000    0.000    0.000    0.000 
#
# Total GULP energy -297355.626824 kJ/mol
# GULP energy per Si atom -12389.817784 kJ/mol
# Density = 2.059576 g / cm^3
# Si number density = 20.642746 Si / 1000 Ang^3
#
#
#
# Elastic Constant Matrix: (Units=GPa)
#
#
# Indices 1 2 3 4 5 6 
#
# 1 164.6907 121.5320 30.8320 0.0000 -5.3435 0.0000
# 2 121.5320 209.9958 16.3538 0.0000 -7.8965 0.0000
# 3 30.8320 16.3538 33.9505 0.0000 -4.4721 0.0000
# 4 0.0000 0.0000 0.0000 -8.3147 0.0000 -4.2850
# 5 -5.3435 -7.8965 -4.4721 0.0000 31.4088 0.0000
# 6 0.0000 0.0000 0.0000 -4.2850 0.0000 48.7647
#
#
#
# Elastic Compliance Matrix: (Units=1/GPa)
#
#
# Indices 1 2 3 4 5 6 
#
# 1 0.012456 -0.006595 -0.008229 0.000000 -0.000710 0.000000
# 2 -0.006595 0.008465 0.002083 0.000000 0.001303 0.000000
# 3 -0.008229 0.002083 0.036493 0.000000 0.004320 0.000000
# 4 0.000000 0.000000 0.000000 -0.115059 0.000000 -0.010110
# 5 -0.000710 0.001303 0.004320 0.000000 0.032660 0.000000
# 6 0.000000 0.000000 0.000000 -0.010110 0.000000 0.019618
#
#
# Mechanical properties :
#
#
# Convention : Reuss Voigt Hill
#
# Bulk Modulus (GPa) = 31.31519 82.89696 57.10608
# Shear Modulus (GPa) = 162.55374 30.36638 96.46006
#
# Velocity S-wave (km/s) = 8.88353 3.83958 6.84323
# Velocity P-wave (km/s) = 10.97387 7.73961 9.49546
#
# Compressibility (1/GPa) = 0.03193338
#
# Stress axis : x y z
#
# Youngs Moduli (GPa) = 80.28376 118.12964 27.40223
#
# Poissons Ratio (x) = 0.77901 0.22549
# Poissons Ratio (y) = 0.52943 -0.05707
# Poissons Ratio (z) = 0.66064 -0.24603
#
# Static dielectric constant tensor:
#      x y z
#    x 3.893840 0.000000 -0.040540 
#    y 0.000000 7.295360 0.000000 
#    z -0.040540 0.000000 3.353880 
# 
# 
# High freq. dielectric constant tensor:
#      x y z
#    x 1.802410 0.000000 -0.002320 
#    y 0.000000 1.835160 0.000000 
#    z -0.002320 0.000000 1.771480 
# 
# From -- ./inp_files/88119.got.cif
#   From: 2010.06.25/outbox.cif.g09.slc.cpg/sg10_45_cif.got.tgz:88119.got - 2010.06.27 22:07:45.
