data_PCOD8068128
_publ_section_title
;
Structure prediction by ZEFSAII (Michael W. Deem and Ramdas Pophale) SiO2 
 PCOD8068128
Probable space group: P 21/M
;
_chemical_formula_sum "Si O2"
_cell_formula_units_Z 32
_cell_length_a 18.851922
_cell_length_b 8.817979
_cell_length_c 12.266556
_cell_angle_alpha 90.000000
_cell_angle_beta 100.788751
_cell_angle_gamma 90.000000
_cell_volume 2003.097571
_symmetry_space_group_name_H-M "P 21/M"
_symmetry_group_IT_number 11
_symmetry_cell_setting 'monoclinic'
loop_
_space_group_symop_operation_xyz
x,y,z
-x,1/2+y,-z
-x,-y,-z
x,1/2-y,z
loop_
_atom_site_type_symbol
_atom_site_label
_atom_site_fract_x
_atom_site_fract_y
_atom_site_fract_z
Si Si1 0.042390 0.929099 0.912959
Si Si2 0.524300 0.429458 0.891417
Si Si3 0.764196 0.426049 0.299716
Si Si4 0.106471 0.573892 0.521715
Si Si5 0.811253 0.923696 0.091829
Si Si6 0.389462 0.575003 0.795171
Si Si7 0.344899 0.074590 0.003885
Si Si8 0.008952 0.428455 0.334368
O O1 0.037139 0.750000 0.918745
O O2 0.006549 0.991746 0.790921
O O3 0.126138 0.975702 0.942596
O O4 0.000000 0.000000 0.000000
O O5 0.532000 0.250000 0.897371
O O6 0.461547 0.477428 0.786514
O O7 0.602317 0.507116 0.885699
O O8 0.500000 0.500000 0.000000
O O9 0.775409 0.250000 0.269170
O O10 0.810883 0.463608 0.421286
O O11 0.792702 0.527654 0.209197
O O12 0.679445 0.457628 0.303770
O O13 0.094432 0.750000 0.497508
O O14 0.085051 0.490086 0.403362
O O15 0.055854 0.516070 0.606152
O O16 0.836786 0.750000 0.102094
O O17 0.740146 0.941310 0.993764
O O18 0.412065 0.750000 0.799323
O O19 0.360301 0.531051 0.905155
O O20 0.364658 0.250000 0.984761
O O21 0.013130 0.250000 0.330950
#
# Coordination Sequence:
#
# PCOD8068128 Si02
#       8
#     4   4   4   4   4   4   4   4
#     4  11  22  36  50  64  86 112 143 180 219 262
#     4  10  16  22  32  47  70 100 135 169 203 241
#     4   9  16  27  41  59  83 112 141 175 214 249
#     4   9  16  28  45  64  86 110 140 176 214 255
#     4  10  19  29  43  62  81 105 140 178 215 256
#     4   9  15  22  34  50  73 104 136 167 204 244
#     4   9  16  25  36  51  72  98 133 172 205 242
#     4   9  18  31  45  63  85 109 137 175 217 256
#
# _framework density 15.975258999999999
#
# number of rings (size 3 to 8) (size 9 to 14) (size 15 to 20)
#    0.000    2.500    1.250    4.125    0.000    3.500 
#    0.000    0.000    0.000    0.000    0.000    0.000 
#    0.000    0.000    0.000    1.125    0.000   13.625 
#
# Total GULP energy -396485.498250 kJ/mol
# GULP energy per Si atom -12390.171820 kJ/mol
# Density = 1.593890 g / cm^3
# Si number density = 15.975259 Si / 1000 Ang^3
#
#
#
# Elastic Constant Matrix: (Units=GPa)
#
#
# Indices 1 2 3 4 5 6 
#
# 1 113.5296 38.6936 49.7253 0.0000 35.5078 0.0000
# 2 38.6936 64.5688 25.9224 0.0000 10.3218 0.0000
# 3 49.7253 25.9224 57.5951 0.0000 14.7642 0.0000
# 4 0.0000 0.0000 0.0000 16.8179 0.0000 5.1636
# 5 35.5078 10.3218 14.7642 0.0000 24.1765 0.0000
# 6 0.0000 0.0000 0.0000 5.1636 0.0000 26.6218
#
#
#
# Elastic Compliance Matrix: (Units=1/GPa)
#
#
# Indices 1 2 3 4 5 6 
#
# 1 0.023619 -0.005520 -0.011404 0.000000 -0.025367 0.000000
# 2 -0.005520 0.020433 -0.005066 0.000000 0.002477 0.000000
# 3 -0.011404 -0.005066 0.029214 0.000000 0.001071 0.000000
# 4 0.000000 0.000000 0.000000 0.063226 0.000000 -0.012263
# 5 -0.025367 0.002477 0.001071 0.000000 0.076907 0.000000
# 6 0.000000 0.000000 0.000000 -0.012263 0.000000 0.039942
#
#
# Mechanical properties :
#
#
# Convention : Reuss Voigt Hill
#
# Bulk Modulus (GPa) = 34.14651 51.59736 42.87194
# Shear Modulus (GPa) = 16.28231 21.61338 18.94785
#
# Velocity S-wave (km/s) = 3.19599 3.68221 3.44768
# Velocity P-wave (km/s) = 5.91947 7.10258 6.53784
#
# Compressibility (1/GPa) = 0.02928557
#
# Stress axis : x y z
#
# Youngs Moduli (GPa) = 42.33964 48.94022 34.23051
#
# Poissons Ratio (x) = 0.27016 0.39036
# Poissons Ratio (y) = 0.23372 0.17340
# Poissons Ratio (z) = 0.48284 0.24792
#
# Static dielectric constant tensor:
#      x y z
#    x 3.793900 0.000000 0.666150 
#    y 0.000000 3.087440 0.000000 
#    z 0.666150 0.000000 2.733910 
# 
# 
# High freq. dielectric constant tensor:
#      x y z
#    x 1.619880 0.000000 0.051000 
#    y 0.000000 1.625920 0.000000 
#    z 0.051000 0.000000 1.541190 
# 
# From -- ./inp_files/40672.got.cif
#   From: 2010.06.25/outbox.cif.g09.slc.cpg/sg11_21_cif.got.tgz:40672.got - 2010.06.27 23:14:04.
