data_PCOD8068466
_publ_section_title
;
Structure prediction by ZEFSAII (Michael W. Deem and Ramdas Pophale) SiO2 
 PCOD8068466
Probable space group: P 21/M
;
_chemical_formula_sum "Si O2"
_cell_formula_units_Z 32
_cell_length_a 13.983264
_cell_length_b 14.461025
_cell_length_c 20.593427
_cell_angle_alpha 90.000000
_cell_angle_beta 22.193425
_cell_angle_gamma 90.000000
_cell_volume 1572.979100
_symmetry_space_group_name_H-M "P 21/M"
_symmetry_group_IT_number 11
_symmetry_cell_setting 'monoclinic'
loop_
_space_group_symop_operation_xyz
x,y,z
-x,1/2+y,-z
-x,-y,-z
x,1/2-y,z
loop_
_atom_site_type_symbol
_atom_site_label
_atom_site_fract_x
_atom_site_fract_y
_atom_site_fract_z
Si Si1 0.233657 0.854161 0.863212
Si Si2 0.840929 0.975369 0.765504
Si Si3 0.587432 0.020453 0.624637
Si Si4 0.046043 0.886725 0.123762
Si Si5 0.032026 0.091883 0.173768
Si Si6 0.496404 0.093571 0.541891
Si Si7 0.254266 0.352387 0.910097
Si Si8 0.605667 0.355265 0.975402
O O1 0.306773 0.750000 0.796852
O O2 0.995810 0.889027 0.970152
O O3 0.476850 0.916974 0.694832
O O4 0.167996 0.855530 0.980195
O O5 0.846737 0.928042 0.832796
O O6 0.109443 0.983077 0.561432
O O7 0.735095 0.080366 0.838579
O O8 0.656857 0.907705 0.839905
O O9 0.498018 0.073883 0.617296
O O10 0.484136 0.077825 0.751187
O O11 0.217193 0.847296 0.073302
O O12 0.757012 0.846769 0.313397
O O13 0.011860 0.996490 0.146468
O O14 0.207312 0.154369 0.017414
O O15 0.759553 0.142992 0.355355
O O16 0.500000 0.000000 0.500000
O O17 0.326459 0.250000 0.839879
O O18 0.557924 0.250000 0.980061
#
# Coordination Sequence:
#
# PCOD8068466 Si02
#       8
#     4   4   4   4   4   4   4   4
#     4  11  21  32  53  86 122 157 190 228 285 345
#     4   9  22  40  63  88 108 150 199 235 293 342
#     4  11  20  38  59  82 121 153 188 241 283 338
#     4  10  17  33  57  83 114 150 187 229 291 339
#     4   9  18  35  57  84 115 147 189 238 281 339
#     4   9  17  30  57  86 112 151 186 226 287 341
#     4  11  22  34  54  87 122 160 194 225 284 347
#     4  10  21  39  62  85 114 147 192 245 288 339
#
# _framework density 20.343564000000001
#
# number of rings (size 3 to 8) (size 9 to 14) (size 15 to 20)
#    0.000    2.000    2.500    3.000    0.000    1.500 
#    0.000    5.000    0.000    0.750    0.000    0.000 
#    0.000    0.000    0.000    0.000    0.000    0.000 
#
# Total GULP energy -396601.002575 kJ/mol
# GULP energy per Si atom -12393.781330 kJ/mol
# Density = 2.029726 g / cm^3
# Si number density = 20.343564 Si / 1000 Ang^3
#
#
#
# Elastic Constant Matrix: (Units=GPa)
#
#
# Indices 1 2 3 4 5 6 
#
# 1 43.8458 17.3185 37.0648 0.0000 -1.9831 0.0000
# 2 17.3185 105.0826 55.8661 0.0000 -11.7568 0.0000
# 3 37.0648 55.8661 161.1179 0.0000 -13.2757 0.0000
# 4 0.0000 0.0000 0.0000 4.8265 0.0000 0.4968
# 5 -1.9831 -11.7568 -13.2757 0.0000 35.2167 0.0000
# 6 0.0000 0.0000 0.0000 0.4968 0.0000 12.9369
#
#
#
# Elastic Compliance Matrix: (Units=1/GPa)
#
#
# Indices 1 2 3 4 5 6 
#
# 1 0.028552 -0.001591 -0.006118 0.000000 -0.001230 0.000000
# 2 -0.001591 0.011963 -0.003572 0.000000 0.002558 0.000000
# 3 -0.006118 -0.003572 0.009006 0.000000 0.001858 0.000000
# 4 0.000000 0.000000 0.000000 0.208011 0.000000 -0.007988
# 5 -0.001230 0.002558 0.001858 0.000000 0.029881 0.000000
# 6 0.000000 0.000000 0.000000 -0.007988 0.000000 0.077605
#
#
# Mechanical properties :
#
#
# Convention : Reuss Voigt Hill
#
# Bulk Modulus (GPa) = 37.09139 58.94947 48.02043
# Shear Modulus (GPa) = 12.60827 23.91580 18.26204
#
# Velocity S-wave (km/s) = 2.49221 3.43242 2.99938
# Velocity P-wave (km/s) = 5.15302 6.68943 5.97085
#
# Compressibility (1/GPa) = 0.02696043
#
# Stress axis : x y z
#
# Youngs Moduli (GPa) = 35.02421 83.58817 111.04230
#
# Poissons Ratio (x) = 0.13295 0.67937
# Poissons Ratio (y) = 0.05571 0.39659
# Poissons Ratio (z) = 0.21428 0.29854
#
# Static dielectric constant tensor:
#      x y z
#    x 3.407630 0.000000 -0.073840 
#    y 0.000000 3.579500 0.000000 
#    z -0.073840 0.000000 3.908490 
# 
# 
# High freq. dielectric constant tensor:
#      x y z
#    x 1.774200 0.000000 -0.000730 
#    y 0.000000 1.786600 0.000000 
#    z -0.000730 0.000000 1.793610 
# 
# From -- ./inp_files/65752.got.cif
#   From: 2010.06.25/outbox.cif.g09.slc.cpg/sg11_33_cif.got.tgz:65752.got - 2010.06.27 23:14:04.
