data_PCOD8068116
_publ_section_title
;
Structure prediction by ZEFSAII (Michael W. Deem and Ramdas Pophale) SiO2 
 PCOD8068116
Probable space group: P 2/M
;
_chemical_formula_sum "Si O2"
_cell_formula_units_Z 28
_cell_length_a 30.000000
_cell_length_b 9.000000
_cell_length_c 30.000000
_cell_angle_alpha 90.000000
_cell_angle_beta 10.000000
_cell_angle_gamma 90.000000
_cell_volume 1406.550239
_symmetry_space_group_name_H-M "P 2/M"
_symmetry_group_IT_number 10
_symmetry_cell_setting 'monoclinic'
loop_
_space_group_symop_operation_xyz
x,y,z
-x,y,-z
-x,-y,-z
x,-y,z
loop_
_atom_site_type_symbol
_atom_site_label
_atom_site_fract_x
_atom_site_fract_y
_atom_site_fract_z
Si Si1 0.387458 0.171976 0.387477
Si Si2 0.762165 0.177064 0.762167
Si Si3 0.526122 0.667563 0.526094
Si Si4 0.812625 0.177842 0.812691
Si Si5 0.334798 0.831160 0.334866
Si Si6 0.092891 0.678976 0.092875
Si Si7 0.955365 0.820804 0.955393
O O1 0.361115 0.176213 0.361153
O O2 0.146485 0.260015 0.643866
O O3 0.396134 0.000000 0.396178
O O4 0.643885 0.259987 0.146460
O O5 0.787385 0.234699 0.787398
O O6 0.000000 0.241131 0.500000
O O7 0.761352 0.000000 0.761344
O O8 0.500000 0.241133 0.000000
O O9 0.500000 0.645490 0.500000
O O10 0.537067 0.500000 0.537041
O O11 0.780326 0.762347 0.284520
O O12 0.284574 0.762361 0.780277
O O13 0.072267 0.246808 0.577688
O O14 0.814475 0.000000 0.814550
O O15 0.577604 0.246810 0.072346
O O16 0.326174 0.000000 0.326248
O O17 0.092474 0.500000 0.092420
O O18 0.068646 0.748126 0.068626
O O19 0.954513 0.000000 0.954526
#
# Coordination Sequence:
#
# PCOD8068116 Si02
#       7
#     4   4   4   4   4   4   4
#     4  11  22  39  61  86 114 147 194 244 290 343
#     4   9  15  21  30  47  76 118 167 214 256 309
#     4  11  24  43  66  93 127 165 202 243 295 351
#     4   9  15  24  37  57  86 122 169 220 269 320
#     4   9  17  28  45  67  92 125 169 225 276 323
#     4  12  25  42  62  87 120 156 193 236 295 356
#     4  12  25  42  65  93 124 159 202 249 293 341
#
# _framework density 19.906860999999999
#
# number of rings (size 3 to 8) (size 9 to 14) (size 15 to 20)
#    0.000    1.571    0.000    6.429    0.000    8.571 
#    0.000    0.000    0.000    0.000    0.000    0.000 
#    0.000    0.000    0.000    0.000    0.000  180.000 
#
# Total GULP energy -347119.218318 kJ/mol
# GULP energy per Si atom -12397.114940 kJ/mol
# Density = 1.986155 g / cm^3
# Si number density = 19.906861 Si / 1000 Ang^3
#
#
#
# Elastic Constant Matrix: (Units=GPa)
#
#
# Indices 1 2 3 4 5 6 
#
# 1 85.6404 34.2540 65.2248 0.0000 -5.1940 0.0000
# 2 34.2540 141.3317 61.4184 0.0000 -2.4046 0.0000
# 3 65.2248 61.4184 217.2980 0.0000 -6.4259 0.0000
# 4 0.0000 0.0000 0.0000 34.1302 0.0000 -3.9052
# 5 -5.1940 -2.4046 -6.4259 0.0000 39.7585 0.0000
# 6 0.0000 0.0000 0.0000 -3.9052 0.0000 -10.1895
#
#
#
# Elastic Compliance Matrix: (Units=1/GPa)
#
#
# Indices 1 2 3 4 5 6 
#
# 1 0.015677 -0.001994 -0.004105 0.000000 0.001264 0.000000
# 2 -0.001994 0.008321 -0.001754 0.000000 -0.000041 0.000000
# 3 -0.004105 -0.001754 0.006341 0.000000 0.000383 0.000000
# 4 0.000000 0.000000 0.000000 0.028069 0.000000 -0.010758
# 5 0.001264 -0.000041 0.000383 0.000000 0.025376 0.000000
# 6 0.000000 0.000000 0.000000 -0.010758 0.000000 -0.094018
#
#
# Mechanical properties :
#
#
# Convention : Reuss Voigt Hill
#
# Bulk Modulus (GPa) = 68.34187 85.11828 76.73008
# Shear Modulus (GPa) = 483.06683 31.63137 257.34910
#
# Velocity S-wave (km/s) = 15.59456 3.99051 11.38232
# Velocity P-wave (km/s) = 18.93830 8.00521 14.53861
#
# Compressibility (1/GPa) = 0.01463232
#
# Stress axis : x y z
#
# Youngs Moduli (GPa) = 63.78670 120.18333 157.69852
#
# Poissons Ratio (x) = 0.23969 0.64730
# Poissons Ratio (y) = 0.12721 0.27666
# Poissons Ratio (z) = 0.26182 0.21085
#
# Static dielectric constant tensor:
#      x y z
#    x 3.667060 0.000000 -0.037710 
#    y 0.000000 3.570950 0.000000 
#    z -0.037710 0.000000 4.093610 
# 
# 
# High freq. dielectric constant tensor:
#      x y z
#    x 1.785650 0.000000 -0.001850 
#    y 0.000000 1.740740 0.000000 
#    z -0.001850 0.000000 1.806560 
# 
# From -- ./inp_files/95996.got.cif
#   From: 2010.06.25/outbox.ucp.g09.slc.cvg/sg10_48_cif.got.tgz:95996.got - 2010.06.28 13:37:52.
