data_PCOD8068733
_publ_section_title
;
Structure prediction by ZEFSAII (Michael W. Deem and Ramdas Pophale) SiO2 
 PCOD8068733
Probable space group: P 21/M
;
_chemical_formula_sum "Si O2"
_cell_formula_units_Z 32
_cell_length_a 16.852262
_cell_length_b 9.441944
_cell_length_c 25.639499
_cell_angle_alpha 90.000000
_cell_angle_beta 154.807409
_cell_angle_gamma 90.000000
_cell_volume 1736.578133
_symmetry_space_group_name_H-M "P 21/M"
_symmetry_group_IT_number 11
_symmetry_cell_setting 'monoclinic'
loop_
_space_group_symop_operation_xyz
x,y,z
-x,1/2+y,-z
-x,-y,-z
x,1/2-y,z
loop_
_atom_site_type_symbol
_atom_site_label
_atom_site_fract_x
_atom_site_fract_y
_atom_site_fract_z
Si Si1 0.878813 0.084645 0.259961
Si Si2 0.418121 0.413192 0.856269
Si Si3 0.257970 0.087436 0.108255
Si Si4 0.588400 0.587909 0.263554
Si Si5 0.052872 0.909028 0.160675
Si Si6 0.648584 0.416295 0.739283
Si Si7 0.245991 0.414339 0.531235
Si Si8 0.841473 0.413480 0.117769
O O1 0.851168 0.250000 0.255971
O O2 0.903181 0.057229 0.213387
O O3 0.059741 0.016209 0.396344
O O4 0.695264 0.005423 0.170271
O O5 0.411278 0.250000 0.870363
O O6 0.329456 0.432564 0.745666
O O7 0.631402 0.468421 0.983100
O O8 0.310939 0.250000 0.151428
O O9 0.416848 0.017528 0.167217
O O10 0.235169 0.003000 0.148557
O O11 0.068483 0.075485 0.963573
O O12 0.517749 0.750000 0.228750
O O13 0.742680 0.553821 0.399805
O O14 0.041710 0.750000 0.176203
O O15 0.263220 0.944861 0.265575
O O16 0.990833 0.010474 0.169933
O O17 0.661156 0.250000 0.761128
O O18 0.433354 0.469429 0.613629
O O19 0.226793 0.250000 0.507960
O O20 0.851917 0.250000 0.109144
#
# Coordination Sequence:
#
# PCOD8068733 Si02
#       8
#     4   4   4   4   4   4   4   4
#     4  10  21  36  54  75  98 132 175 213 252 295
#     4  10  20  34  53  77 101 130 168 207 258 310
#     4  10  18  28  46  77 109 132 163 207 252 294
#     4   9  17  32  53  74 102 138 168 198 249 310
#     4  10  20  32  50  77 104 133 170 208 250 298
#     4   9  18  33  52  73 102 140 171 199 245 305
#     4   8  16  33  54  73  99 136 173 204 241 298
#     4  10  21  36  53  74 103 135 167 209 256 302
#
# _framework density 18.427042
#
# number of rings (size 3 to 8) (size 9 to 14) (size 15 to 20)
#    0.000    2.500    1.250    1.875    0.000    3.000 
#    0.000    3.125    0.000    0.000    0.000    0.000 
#    0.000    0.000    0.000    0.000    0.000    0.000 
#
# Total GULP energy -396685.520790 kJ/mol
# GULP energy per Si atom -12396.422525 kJ/mol
# Density = 1.838510 g / cm^3
# Si number density = 18.427042 Si / 1000 Ang^3
#
#
#
# Elastic Constant Matrix: (Units=GPa)
#
#
# Indices 1 2 3 4 5 6 
#
# 1 75.9841 35.1663 11.8889 0.0000 4.3835 0.0000
# 2 35.1663 58.2935 11.8607 0.0000 2.0017 0.0000
# 3 11.8889 11.8607 56.0647 0.0000 -9.0278 0.0000
# 4 0.0000 0.0000 0.0000 13.1164 0.0000 0.8847
# 5 4.3835 2.0017 -9.0278 0.0000 18.9515 0.0000
# 6 0.0000 0.0000 0.0000 0.8847 0.0000 30.7211
#
#
#
# Elastic Compliance Matrix: (Units=1/GPa)
#
#
# Indices 1 2 3 4 5 6 
#
# 1 0.018720 -0.010651 -0.002418 0.000000 -0.004357 0.000000
# 2 -0.010651 0.024272 -0.003133 0.000000 -0.001592 0.000000
# 3 -0.002418 -0.003133 0.020747 0.000000 0.010773 0.000000
# 4 0.000000 0.000000 0.000000 0.076389 0.000000 -0.002200
# 5 -0.004357 -0.001592 0.010773 0.000000 0.059074 0.000000
# 6 0.000000 0.000000 0.000000 -0.002200 0.000000 0.032614
#
#
# Mechanical properties :
#
#
# Convention : Reuss Voigt Hill
#
# Bulk Modulus (GPa) = 31.91312 34.24156 33.07734
# Shear Modulus (GPa) = 18.20400 21.31957 19.76178
#
# Velocity S-wave (km/s) = 3.14649 3.40512 3.27836
# Velocity P-wave (km/s) = 5.52782 5.83801 5.68503
#
# Compressibility (1/GPa) = 0.03133508
#
# Stress axis : x y z
#
# Youngs Moduli (GPa) = 53.41909 41.19934 48.20050
#
# Poissons Ratio (x) = 0.43883 0.11654
# Poissons Ratio (y) = 0.56899 0.15099
# Poissons Ratio (z) = 0.12916 0.12906
#
# Static dielectric constant tensor:
#      x y z
#    x 3.352010 0.000000 -0.007900 
#    y 0.000000 3.249090 0.000000 
#    z -0.007900 0.000000 3.425760 
# 
# 
# High freq. dielectric constant tensor:
#      x y z
#    x 1.715370 0.000000 0.001070 
#    y 0.000000 1.697650 0.000000 
#    z 0.001070 0.000000 1.699650 
# 
# From -- ./inp_files/68984.got.cif
#   From: 2010.06.25/outbox.cif.g09.slc.cpg/sg11_35_cif.got.tgz:68984.got - 2010.06.27 23:14:04.
