data_PCOD8068905
_publ_section_title
;
Structure prediction by ZEFSAII (Michael W. Deem and Ramdas Pophale) SiO2 
 PCOD8068905
Probable space group: P 21/M
;
_chemical_formula_sum "Si O2"
_cell_formula_units_Z 32
_cell_length_a 23.547624
_cell_length_b 8.540964
_cell_length_c 17.589268
_cell_angle_alpha 90.000000
_cell_angle_beta 148.730673
_cell_angle_gamma 90.000000
_cell_volume 1836.202850
_symmetry_space_group_name_H-M "P 21/M"
_symmetry_group_IT_number 11
_symmetry_cell_setting 'monoclinic'
loop_
_space_group_symop_operation_xyz
x,y,z
-x,1/2+y,-z
-x,-y,-z
x,1/2-y,z
loop_
_atom_site_type_symbol
_atom_site_label
_atom_site_fract_x
_atom_site_fract_y
_atom_site_fract_z
Si Si1 0.884636 0.067780 0.388469
Si Si2 0.489052 0.433733 0.571441
Si Si3 0.190517 0.566920 0.851905
Si Si4 0.302630 0.432015 0.116450
Si Si5 0.075542 0.569127 0.240987
Si Si6 0.852559 0.068768 0.936737
Si Si7 0.040765 0.932762 0.370905
Si Si8 0.242403 0.430764 0.322556
O O1 0.892212 0.250000 0.384190
O O2 0.798381 0.010384 0.224822
O O3 0.866780 0.027398 0.457771
O O4 0.000000 0.000000 0.500000
O O5 0.500000 0.500000 0.500000
O O6 0.512713 0.250000 0.596060
O O7 0.574451 0.517579 0.724449
O O8 0.370057 0.473084 0.467932
O O9 0.215985 0.750000 0.891279
O O10 0.068365 0.533613 0.742691
O O11 0.279155 0.469284 0.001290
O O12 0.286744 0.250000 0.115622
O O13 0.215561 0.528215 0.066230
O O14 0.043466 0.750000 0.194492
O O15 0.093377 0.526264 0.349904
O O16 0.187800 0.533508 0.326058
O O17 0.979844 0.465361 0.095372
O O18 0.837272 0.250000 0.898787
O O19 0.809410 0.965725 0.818261
O O20 0.007669 0.750000 0.337973
O O21 0.223270 0.250000 0.319463
#
# Coordination Sequence:
#
# PCOD8068905 Si02
#       8
#     4   4   4   4   4   4   4   4
#     4   8  15  27  44  69 100 135 170 206 248 301
#     4  11  23  39  59  78 100 132 173 218 263 308
#     4  10  18  29  48  74 104 136 173 211 254 306
#     4  12  23  35  53  77 106 138 174 214 262 312
#     4  11  22  35  53  77 108 142 177 212 255 307
#     4  12  23  36  55  76 104 137 176 217 259 308
#     4   9  17  30  48  71 104 140 172 207 252 303
#     4  11  24  40  56  75 102 135 175 217 261 308
#
# _framework density 17.427268999999999
#
# number of rings (size 3 to 8) (size 9 to 14) (size 15 to 20)
#    0.000    1.500    2.500    4.125    0.000    2.500 
#    0.000    0.000    0.000    0.000    0.000    0.875 
#    0.000    0.000    0.000    0.000    0.000    0.000 
#
# Total GULP energy -396675.975755 kJ/mol
# GULP energy per Si atom -12396.124242 kJ/mol
# Density = 1.738760 g / cm^3
# Si number density = 17.427269 Si / 1000 Ang^3
#
#
#
# Elastic Constant Matrix: (Units=GPa)
#
#
# Indices 1 2 3 4 5 6 
#
# 1 51.6567 26.1432 60.5493 0.0000 -11.5812 0.0000
# 2 26.1432 41.9308 23.7348 0.0000 0.3674 0.0000
# 3 60.5493 23.7348 115.9557 0.0000 -20.7890 0.0000
# 4 0.0000 0.0000 0.0000 25.8948 0.0000 0.4539
# 5 -11.5812 0.3674 -20.7890 0.0000 31.5429 0.0000
# 6 0.0000 0.0000 0.0000 0.4539 0.0000 20.1047
#
#
#
# Elastic Compliance Matrix: (Units=1/GPa)
#
#
# Indices 1 2 3 4 5 6 
#
# 1 0.067928 -0.025952 -0.029068 0.000000 0.006085 0.000000
# 2 -0.025952 0.037460 0.004646 0.000000 -0.006902 0.000000
# 3 -0.029068 0.004646 0.023732 0.000000 0.004915 0.000000
# 4 0.000000 0.000000 0.000000 0.038633 0.000000 -0.000872
# 5 0.006085 -0.006902 0.004915 0.000000 0.037257 0.000000
# 6 0.000000 0.000000 0.000000 -0.000872 0.000000 0.049759
#
#
# Mechanical properties :
#
#
# Convention : Reuss Voigt Hill
#
# Bulk Modulus (GPa) = 35.24295 47.82196 41.53245
# Shear Modulus (GPa) = 13.69961 22.11620 17.90790
#
# Velocity S-wave (km/s) = 2.80679 3.56625 3.20907
# Velocity P-wave (km/s) = 5.54715 6.66768 6.13306
#
# Compressibility (1/GPa) = 0.02837447
#
# Stress axis : x y z
#
# Youngs Moduli (GPa) = 14.72140 26.69526 42.13646
#
# Poissons Ratio (x) = 0.69279 1.22480
# Poissons Ratio (y) = 0.38205 -0.19578
# Poissons Ratio (z) = 0.42791 -0.12404
#
# Static dielectric constant tensor:
#      x y z
#    x 3.357490 0.000000 -0.413820 
#    y 0.000000 3.306490 0.000000 
#    z -0.413820 0.000000 3.506080 
# 
# 
# High freq. dielectric constant tensor:
#      x y z
#    x 1.651990 0.000000 -0.031410 
#    y 0.000000 1.685600 0.000000 
#    z -0.031410 0.000000 1.664010 
# 
# From -- ./inp_files/45263.got.cif
#   From: 2010.06.25/outbox.cif.g09.slc.cpg/sg11_23_cif.got.tgz:45263.got - 2010.06.27 23:14:04.
