data_PCOD8068559
_publ_section_title
;
Structure prediction by ZEFSAII (Michael W. Deem and Ramdas Pophale) SiO2 
 PCOD8068559
Probable space group: P 21/M
;
_chemical_formula_sum "Si O2"
_cell_formula_units_Z 28
_cell_length_a 13.527180
_cell_length_b 8.994840
_cell_length_c 16.249597
_cell_angle_alpha 90.000000
_cell_angle_beta 114.928366
_cell_angle_gamma 90.000000
_cell_volume 1792.964945
_symmetry_space_group_name_H-M "P 21/M"
_symmetry_group_IT_number 11
_symmetry_cell_setting 'monoclinic'
loop_
_space_group_symop_operation_xyz
x,y,z
-x,1/2+y,-z
-x,-y,-z
x,1/2-y,z
loop_
_atom_site_type_symbol
_atom_site_label
_atom_site_fract_x
_atom_site_fract_y
_atom_site_fract_z
Si Si1 0.491885 0.424794 0.200239
Si Si2 0.697217 0.922238 0.191322
Si Si3 0.889026 0.578772 0.373898
Si Si4 0.863005 0.077074 0.532079
Si Si5 0.533730 0.424198 0.636341
Si Si6 0.600136 0.920461 0.995672
Si Si7 0.332308 0.424080 0.452691
O O1 0.498129 0.250000 0.222382
O O2 0.608294 0.476648 0.205713
O O3 0.461798 0.513510 0.270751
O O4 0.394529 0.463769 0.099455
O O5 0.666676 0.750000 0.197496
O O6 0.816605 0.958868 0.268592
O O7 0.702059 0.953672 0.093217
O O8 0.876398 0.750000 0.397132
O O9 0.846366 0.477854 0.433214
O O10 0.013900 0.543477 0.395207
O O11 0.833706 0.250000 0.525593
O O12 0.785025 0.988803 0.565955
O O13 0.556219 0.250000 0.645558
O O14 0.416454 0.461433 0.555575
O O15 0.629136 0.500930 0.618034
O O16 0.569067 0.750000 0.987364
O O17 0.500000 0.000000 0.000000
O O18 0.322275 0.250000 0.433820
#
# Coordination Sequence:
#
# PCOD8068559 Si02
#       7
#     4   4   4   4   4   4   4
#     4  10  18  27  41  64  91 115 141 174 213 253
#     4   9  16  28  44  61  85 117 149 177 207 246
#     4   9  18  30  44  63  86 115 149 178 207 247
#     4  10  19  30  44  63  88 115 143 177 214 250
#     4  10  20  32  46  64  85 112 144 173 207 252
#     4   8  15  26  40  59  84 113 142 173 209 249
#     4  10  20  33  47  63  85 112 142 176 211 249
#
# _framework density 15.616591
#
# number of rings (size 3 to 8) (size 9 to 14) (size 15 to 20)
#    0.000    2.571    0.000    2.571    0.000    6.857 
#    0.000    0.000    0.000    0.000    0.000    1.000 
#    0.000    0.000    0.000    0.000    0.000    0.000 
#
# Total GULP energy -346993.532922 kJ/mol
# GULP energy per Si atom -12392.626176 kJ/mol
# Density = 1.558105 g / cm^3
# Si number density = 15.616591 Si / 1000 Ang^3
#
#
#
# Elastic Constant Matrix: (Units=GPa)
#
#
# Indices 1 2 3 4 5 6 
#
# 1 83.1089 37.6334 51.5698 0.0000 -5.6791 0.0000
# 2 37.6334 62.0833 40.4203 0.0000 -7.3496 0.0000
# 3 51.5698 40.4203 135.2699 0.0000 -2.1156 0.0000
# 4 0.0000 0.0000 0.0000 22.2135 0.0000 -4.0824
# 5 -5.6791 -7.3496 -2.1156 0.0000 22.0896 0.0000
# 6 0.0000 0.0000 0.0000 -4.0824 0.0000 25.5186
#
#
#
# Elastic Compliance Matrix: (Units=1/GPa)
#
#
# Indices 1 2 3 4 5 6 
#
# 1 0.018725 -0.008098 -0.004693 0.000000 0.001670 0.000000
# 2 -0.008098 0.024353 -0.004102 0.000000 0.005628 0.000000
# 3 -0.004693 -0.004102 0.010383 0.000000 -0.001577 0.000000
# 4 0.000000 0.000000 0.000000 0.046381 0.000000 0.007420
# 5 0.001670 0.005628 -0.001577 0.000000 0.047421 0.000000
# 6 0.000000 0.000000 0.000000 0.007420 0.000000 0.040374
#
#
# Mechanical properties :
#
#
# Convention : Reuss Voigt Hill
#
# Bulk Modulus (GPa) = 50.82320 59.96769 55.39544
# Shear Modulus (GPa) = 21.93167 24.02025 22.97596
#
# Velocity S-wave (km/s) = 3.75157 3.92615 3.83985
# Velocity P-wave (km/s) = 7.16804 7.68350 7.43024
#
# Compressibility (1/GPa) = 0.01967606
#
# Stress axis : x y z
#
# Youngs Moduli (GPa) = 53.40347 41.06314 96.31346
#
# Poissons Ratio (x) = 0.33252 0.45200
# Poissons Ratio (y) = 0.43244 0.39506
# Poissons Ratio (z) = 0.25062 0.16843
#
# Static dielectric constant tensor:
#      x y z
#    x 2.752800 0.000000 0.088640 
#    y 0.000000 3.109330 0.000000 
#    z 0.088640 0.000000 3.461280 
# 
# 
# High freq. dielectric constant tensor:
#      x y z
#    x 1.561900 0.000000 0.000980 
#    y 0.000000 1.613820 0.000000 
#    z 0.000980 0.000000 1.604010 
# 
# From -- ./inp_files/49028.got.cif
#   From: 2010.06.25/outbox.cif.g09.slc.cpg/sg11_25_cif.got.tgz:49028.got - 2010.06.27 23:14:04.
