data_PCOD8068351
_publ_section_title
;
Structure prediction by ZEFSAII (Michael W. Deem and Ramdas Pophale) SiO2 
 PCOD8068351
Probable space group: P 21/M
;
_chemical_formula_sum "Si O2"
_cell_formula_units_Z 28
_cell_length_a 12.970473
_cell_length_b 20.374059
_cell_length_c 5.369873
_cell_angle_alpha 90.000000
_cell_angle_beta 78.053059
_cell_angle_gamma 90.000000
_cell_volume 1388.311987
_symmetry_space_group_name_H-M "P 21/M"
_symmetry_group_IT_number 11
_symmetry_cell_setting 'monoclinic'
loop_
_space_group_symop_operation_xyz
x,y,z
-x,1/2+y,-z
-x,-y,-z
x,1/2-y,z
loop_
_atom_site_type_symbol
_atom_site_label
_atom_site_fract_x
_atom_site_fract_y
_atom_site_fract_z
Si Si1 0.224969 0.327412 0.137516
Si Si2 0.905453 0.062508 0.797275
Si Si3 0.579625 0.123298 0.460186
Si Si4 0.666376 0.106866 0.916810
Si Si5 0.726672 0.250000 0.386662
Si Si6 0.266761 0.750000 0.116621
Si Si7 0.654589 0.672498 0.422706
Si Si8 0.026180 0.084450 0.236910
O O1 0.211206 0.250000 0.144401
O O2 0.284958 0.350632 0.357934
O O3 0.109423 0.357486 0.195286
O O4 0.284960 0.350631 0.857111
O O5 0.785009 0.082642 0.857492
O O6 0.956732 0.091916 0.521137
O O7 0.912394 0.984228 0.793806
O O8 0.956729 0.091917 0.022138
O O9 0.607837 0.081521 0.695545
O O10 0.651938 0.187559 0.424030
O O11 0.457225 0.137911 0.521385
O O12 0.607837 0.081521 0.196614
O O13 0.657808 0.186506 0.921095
O O14 0.801991 0.250000 0.594292
O O15 0.801991 0.250000 0.103714
O O16 0.638174 0.750000 0.430917
#
# Coordination Sequence:
#
# PCOD8068351 Si02
#       8
#     4   4   4   4   2   2   4   4
#     4  10  21  36  56  82 109 138 181 234 275 306
#     4  10  21  38  61  80 102 145 186 218 272 338
#     4  10  17  29  49  74 112 139 173 216 252 314
#     4  10  19  31  49  78 109 139 172 214 264 314
#     4   8  14  24  40  62  93 138 163 196 238 288
#     4   8  16  26  40  66 101 130 159 196 250 302
#     4  10  19  32  54  80 109 149 184 214 266 324
#     4  10  21  40  60  79 104 139 188 231 268 324
#
# _framework density 20.168378000000001
#
# number of rings (size 3 to 8) (size 9 to 14) (size 15 to 20)
#    0.000    2.286    0.714    2.571    0.000    0.000 
#    2.571    0.000    0.000    5.143    0.000    0.000 
#    0.000    0.000    0.000    0.000    0.000    0.000 
#
# Total GULP energy -346885.924589 kJ/mol
# GULP energy per Si atom -12388.783021 kJ/mol
# Density = 2.012247 g / cm^3
# Si number density = 20.168378 Si / 1000 Ang^3
#
#
#
# Elastic Constant Matrix: (Units=GPa)
#
#
# Indices 1 2 3 4 5 6 
#
# 1 96.1208 9.2015 64.4824 0.0000 13.7053 0.0000
# 2 9.2015 11.4200 9.8154 0.0000 0.2142 0.0000
# 3 64.4824 9.8154 242.8723 0.0000 37.7336 0.0000
# 4 0.0000 0.0000 0.0000 8.5607 0.0000 -1.2740
# 5 13.7053 0.2142 37.7336 0.0000 43.7928 0.0000
# 6 0.0000 0.0000 0.0000 -1.2740 0.0000 12.1973
#
#
#
# Elastic Compliance Matrix: (Units=1/GPa)
#
#
# Indices 1 2 3 4 5 6 
#
# 1 0.013418 -0.008217 -0.002984 0.000000 -0.001588 0.000000
# 2 -0.008217 0.096123 -0.002343 0.000000 0.004121 0.000000
# 3 -0.002984 -0.002343 0.005608 0.000000 -0.003887 0.000000
# 4 0.000000 0.000000 0.000000 0.118658 0.000000 0.012394
# 5 -0.001588 0.004121 -0.003887 0.000000 0.026661 0.000000
# 6 0.000000 0.000000 0.000000 0.012394 0.000000 0.083280
#
#
# Mechanical properties :
#
#
# Convention : Reuss Voigt Hill
#
# Bulk Modulus (GPa) = 11.35574 57.49019 34.42296
# Shear Modulus (GPa) = 12.49405 30.70441 21.59923
#
# Velocity S-wave (km/s) = 2.49165 3.90603 3.27608
# Velocity P-wave (km/s) = 3.73101 6.99355 5.60492
#
# Compressibility (1/GPa) = 0.08806123
#
# Stress axis : x y z
#
# Youngs Moduli (GPa) = 74.52528 10.40331 178.31208
#
# Poissons Ratio (x) = 0.08549 0.53203
# Poissons Ratio (y) = 0.61240 0.41782
# Poissons Ratio (z) = 0.22236 0.02438
#
# Static dielectric constant tensor:
#      x y z
#    x 3.453370 0.000000 0.521190 
#    y 0.000000 3.315900 0.000000 
#    z 0.521190 0.000000 4.940270 
# 
# 
# High freq. dielectric constant tensor:
#      x y z
#    x 1.769790 0.000000 0.020550 
#    y 0.000000 1.749370 0.000000 
#    z 0.020550 0.000000 1.828410 
# 
# From -- ./inp_files/5045.got.cif
#   From: 2010.06.25/outbox.cif.g09.slc.cpg/sg11_3_cif.got.tgz:5045.got - 2010.06.27 23:14:04.
