data_PCOD8068948
_publ_section_title
;
Structure prediction by ZEFSAII (Michael W. Deem and Ramdas Pophale) SiO2 
 PCOD8068948
Probable space group: P 21/M
;
_chemical_formula_sum "Si O2"
_cell_formula_units_Z 32
_cell_length_a 20.102519
_cell_length_b 8.949836
_cell_length_c 12.160567
_cell_angle_alpha 90.000000
_cell_angle_beta 55.680780
_cell_angle_gamma 90.000000
_cell_volume 1806.973125
_symmetry_space_group_name_H-M "P 21/M"
_symmetry_group_IT_number 11
_symmetry_cell_setting 'monoclinic'
loop_
_space_group_symop_operation_xyz
x,y,z
-x,1/2+y,-z
-x,-y,-z
x,1/2-y,z
loop_
_atom_site_type_symbol
_atom_site_label
_atom_site_fract_x
_atom_site_fract_y
_atom_site_fract_z
Si Si1 0.890862 0.924968 0.685238
Si Si2 0.678721 0.577873 0.693416
Si Si3 0.316666 0.072739 0.647161
Si Si4 0.064123 0.922420 0.577541
Si Si5 0.716589 0.923790 0.906295
Si Si6 0.549126 0.923849 0.645346
Si Si7 0.789951 0.422943 0.421641
Si Si8 0.630636 0.427465 0.185401
O O1 0.882588 0.750000 0.676896
O O2 0.809578 0.980103 0.820874
O O3 0.970366 0.970364 0.681778
O O4 0.895563 0.988556 0.558866
O O5 0.702557 0.750000 0.645762
O O6 0.676985 0.546763 0.824300
O O7 0.590353 0.543179 0.725042
O O8 0.742752 0.471097 0.575323
O O9 0.314919 0.250000 0.659942
O O10 0.393829 0.013562 0.505504
O O11 0.235855 0.020156 0.659619
O O12 0.317227 0.998923 0.765895
O O13 0.067851 0.750000 0.539587
O O14 0.114912 0.950548 0.641882
O O15 0.709565 0.750000 0.946145
O O16 0.668430 0.025644 0.035117
O O17 0.538976 0.750000 0.635072
O O18 0.460205 0.995235 0.724020
O O19 0.772086 0.250000 0.413665
O O20 0.632209 0.250000 0.193962
#
# Coordination Sequence:
#
# PCOD8068948 Si02
#       8
#     4   4   4   4   4   4   4   4
#     4   9  17  30  48  72 102 137 168 197 236 289
#     4   9  17  32  51  72 100 135 170 201 240 294
#     4  10  20  36  56  74  96 127 167 209 249 299
#     4   9  17  28  47  76 106 130 160 202 246 289
#     4  10  20  33  50  71 102 140 173 201 236 293
#     4   8  17  33  53  75  98 125 161 209 254 293
#     4  10  18  29  49  78 107 129 157 204 256 295
#     4  11  22  35  51  72  99 131 168 210 255 295
#
# _framework density 17.709174999999998
#
# number of rings (size 3 to 8) (size 9 to 14) (size 15 to 20)
#    0.000    2.500    1.250    2.250    0.000    2.000 
#    0.000    5.625    0.000    0.750    0.000    0.000 
#    0.000    0.000    0.000    0.000    0.000    0.000 
#
# Total GULP energy -396678.558010 kJ/mol
# GULP energy per Si atom -12396.204938 kJ/mol
# Density = 1.766887 g / cm^3
# Si number density = 17.709175 Si / 1000 Ang^3
#
#
#
# Elastic Constant Matrix: (Units=GPa)
#
#
# Indices 1 2 3 4 5 6 
#
# 1 111.1299 28.6523 29.5489 0.0000 9.6025 0.0000
# 2 28.6523 50.2574 19.3131 0.0000 5.9711 0.0000
# 3 29.5489 19.3131 46.4670 0.0000 13.6534 0.0000
# 4 0.0000 0.0000 0.0000 26.5805 0.0000 3.9899
# 5 9.6025 5.9711 13.6534 0.0000 23.0390 0.0000
# 6 0.0000 0.0000 0.0000 3.9899 0.0000 21.9856
#
#
#
# Elastic Compliance Matrix: (Units=1/GPa)
#
#
# Indices 1 2 3 4 5 6 
#
# 1 0.011633 -0.004506 -0.005380 0.000000 -0.000492 0.000000
# 2 -0.004506 0.025428 -0.007651 0.000000 -0.000178 0.000000
# 3 -0.005380 -0.007651 0.032548 0.000000 -0.015063 0.000000
# 4 0.000000 0.000000 0.000000 0.038675 0.000000 -0.007019
# 5 -0.000492 -0.000178 -0.015063 0.000000 0.052583 0.000000
# 6 0.000000 0.000000 0.000000 -0.007019 0.000000 0.046758
#
#
# Mechanical properties :
#
#
# Convention : Reuss Voigt Hill
#
# Bulk Modulus (GPa) = 28.95626 40.32032 34.63829
# Shear Modulus (GPa) = 19.66870 23.01036 21.33953
#
# Velocity S-wave (km/s) = 3.33626 3.60856 3.47507
# Velocity P-wave (km/s) = 5.58814 6.33875 5.97524
#
# Compressibility (1/GPa) = 0.03453485
#
# Stress axis : x y z
#
# Youngs Moduli (GPa) = 85.95909 39.32701 30.72399
#
# Poissons Ratio (x) = 0.17722 0.16530
# Poissons Ratio (y) = 0.38736 0.23506
# Poissons Ratio (z) = 0.46248 0.30088
#
# Static dielectric constant tensor:
#      x y z
#    x 3.702640 0.000000 -0.176100 
#    y 0.000000 3.170840 0.000000 
#    z -0.176100 0.000000 3.033680 
# 
# 
# High freq. dielectric constant tensor:
#      x y z
#    x 1.703300 0.000000 -0.002580 
#    y 0.000000 1.677410 0.000000 
#    z -0.002580 0.000000 1.646280 
# 
# From -- ./inp_files/40663.got.cif
#   From: 2010.06.25/outbox.cif.g09.slc.cpg/sg11_21_cif.got.tgz:40663.got - 2010.06.27 23:14:04.
