data_PCOD8068346
_publ_section_title
;
Structure prediction by ZEFSAII (Michael W. Deem and Ramdas Pophale) SiO2 
 PCOD8068346
Probable space group: P 21/M
;
_chemical_formula_sum "Si O2"
_cell_formula_units_Z 28
_cell_length_a 16.774415
_cell_length_b 9.440566
_cell_length_c 15.086826
_cell_angle_alpha 90.000000
_cell_angle_beta 133.955623
_cell_angle_gamma 90.000000
_cell_volume 1719.895129
_symmetry_space_group_name_H-M "P 21/M"
_symmetry_group_IT_number 11
_symmetry_cell_setting 'monoclinic'
loop_
_space_group_symop_operation_xyz
x,y,z
-x,1/2+y,-z
-x,-y,-z
x,1/2-y,z
loop_
_atom_site_type_symbol
_atom_site_label
_atom_site_fract_x
_atom_site_fract_y
_atom_site_fract_z
Si Si1 0.154570 0.912854 0.067616
Si Si2 0.864927 0.081227 0.269590
Si Si3 0.095804 0.087173 0.184168
Si Si4 0.484831 0.415044 0.898595
Si Si5 0.099777 0.084530 0.382905
Si Si6 0.240972 0.414700 0.655985
Si Si7 0.711372 0.083664 0.992859
O O1 0.179069 0.750000 0.109449
O O2 0.242913 0.976670 0.065080
O O3 0.166617 0.000062 0.167439
O O4 0.034449 0.931775 0.931823
O O5 0.859441 0.250000 0.278086
O O6 0.986709 0.024770 0.338104
O O7 0.832703 0.008885 0.336523
O O8 0.780192 0.024495 0.129492
O O9 0.131955 0.250000 0.203079
O O10 0.122867 0.022839 0.302514
O O11 0.491460 0.250000 0.928334
O O12 0.369916 0.455165 0.763018
O O13 0.582517 0.456238 0.905461
O O14 0.500000 0.500000 0.000000
O O15 0.079975 0.250000 0.354076
O O16 0.203236 0.050705 0.526504
O O17 0.220487 0.250000 0.662705
O O18 0.732534 0.250000 0.006504
#
# Coordination Sequence:
#
# PCOD8068346 Si02
#       7
#     4   4   4   4   4   4   4
#     4   9  16  28  46  67  87 111 146 186 221 261
#     4  10  17  29  48  66  89 125 156 177 213 272
#     4   9  16  28  46  66  88 114 143 179 225 271
#     4  10  19  31  47  66  89 119 154 190 222 257
#     4   9  17  30  47  66  92 125 153 177 219 277
#     4  10  20  31  44  67  95 120 151 190 224 257
#     4   9  16  28  47  66  87 118 152 179 216 268
#
# _framework density 16.280062000000001
#
# number of rings (size 3 to 8) (size 9 to 14) (size 15 to 20)
#    0.000    2.571    2.857    0.429    0.000    0.000 
#    0.000    2.857    0.000    0.857    0.000    0.000 
#    0.000    0.000    0.000    0.000    0.000    0.000 
#
# Total GULP energy -347136.050117 kJ/mol
# GULP energy per Si atom -12397.716076 kJ/mol
# Density = 1.624301 g / cm^3
# Si number density = 16.280062 Si / 1000 Ang^3
#
#
#
# Elastic Constant Matrix: (Units=GPa)
#
#
# Indices 1 2 3 4 5 6 
#
# 1 124.7109 38.2194 63.4834 0.0000 -20.1393 0.0000
# 2 38.2194 36.2751 31.0818 0.0000 -9.4846 0.0000
# 3 63.4834 31.0818 115.7823 0.0000 -10.4517 0.0000
# 4 0.0000 0.0000 0.0000 15.8755 0.0000 -6.0581
# 5 -20.1393 -9.4846 -10.4517 0.0000 29.4430 0.0000
# 6 0.0000 0.0000 0.0000 -6.0581 0.0000 23.7256
#
#
#
# Elastic Compliance Matrix: (Units=1/GPa)
#
#
# Indices 1 2 3 4 5 6 
#
# 1 0.014164 -0.009563 -0.004755 0.000000 0.004920 0.000000
# 2 -0.009563 0.044384 -0.006169 0.000000 0.005567 0.000000
# 3 -0.004755 -0.006169 0.012839 0.000000 -0.000682 0.000000
# 4 0.000000 0.000000 0.000000 0.069790 0.000000 0.017820
# 5 0.004920 0.005567 -0.000682 0.000000 0.038880 0.000000
# 6 0.000000 0.000000 0.000000 0.017820 0.000000 0.046699
#
#
# Mechanical properties :
#
#
# Convention : Reuss Voigt Hill
#
# Bulk Modulus (GPa) = 32.88074 60.25971 46.57023
# Shear Modulus (GPa) = 17.99420 23.40774 20.70097
#
# Velocity S-wave (km/s) = 3.32820 3.79597 3.56975
# Velocity P-wave (km/s) = 5.91692 7.50382 6.75712
#
# Compressibility (1/GPa) = 0.03041294
#
# Stress axis : x y z
#
# Youngs Moduli (GPa) = 70.60059 22.53073 77.89047
#
# Poissons Ratio (x) = 0.21546 0.37037
# Poissons Ratio (y) = 0.67514 0.48051
# Poissons Ratio (z) = 0.33570 0.13899
#
# Static dielectric constant tensor:
#      x y z
#    x 3.239300 0.000000 -0.060110 
#    y 0.000000 2.807970 0.000000 
#    z -0.060110 0.000000 3.072370 
# 
# 
# High freq. dielectric constant tensor:
#      x y z
#    x 1.627390 0.000000 -0.007320 
#    y 0.000000 1.596280 0.000000 
#    z -0.007320 0.000000 1.615360 
# 
# From -- ./inp_files/34291.got.cif
#   From: 2010.06.25/outbox.cif.g09.slc.cpg/sg11_18_cif.got.tgz:34291.got - 2010.06.27 23:14:04.
