data_PCOD8068570
_publ_section_title
;
Structure prediction by ZEFSAII (Michael W. Deem and Ramdas Pophale) SiO2 
 PCOD8068570
Probable space group: P 21/M
;
_chemical_formula_sum "Si O2"
_cell_formula_units_Z 28
_cell_length_a 17.581111
_cell_length_b 8.953449
_cell_length_c 16.337433
_cell_angle_alpha 90.000000
_cell_angle_beta 41.550319
_cell_angle_gamma 90.000000
_cell_volume 1705.751639
_symmetry_space_group_name_H-M "P 21/M"
_symmetry_group_IT_number 11
_symmetry_cell_setting 'monoclinic'
loop_
_space_group_symop_operation_xyz
x,y,z
-x,1/2+y,-z
-x,-y,-z
x,1/2-y,z
loop_
_atom_site_type_symbol
_atom_site_label
_atom_site_fract_x
_atom_site_fract_y
_atom_site_fract_z
Si Si1 0.939526 0.425372 0.788682
Si Si2 0.920534 0.925975 0.630959
Si Si3 0.342095 0.076989 0.172073
Si Si4 0.940773 0.418559 0.166639
Si Si5 0.174952 0.418306 0.877957
Si Si6 0.289096 0.575062 0.929042
Si Si7 0.542536 0.924480 0.090857
O O1 0.957017 0.250000 0.762881
O O2 0.952304 0.506610 0.692550
O O3 0.039624 0.487241 0.766700
O O4 0.815985 0.463933 0.926201
O O5 0.941171 0.750000 0.617673
O O6 0.790372 0.964413 0.711534
O O7 0.000000 0.000000 0.500000
O O8 0.367045 0.250000 0.169314
O O9 0.412815 0.980261 0.180884
O O10 0.380781 0.034066 0.049509
O O11 0.904406 0.250000 0.218425
O O12 0.838998 0.495319 0.196771
O O13 0.055298 0.418307 0.021315
O O14 0.215995 0.250000 0.827185
O O15 0.270213 0.500974 0.855765
O O16 0.302318 0.750000 0.905298
O O17 0.405130 0.509070 0.873493
O O18 0.542308 0.750000 0.109752
#
# Coordination Sequence:
#
# PCOD8068570 Si02
#       7
#     4   4   4   4   4   4   4
#     4  10  19  30  45  64  87 119 157 192 230 276
#     4  11  22  36  51  68  92 121 157 198 238 278
#     4   9  19  33  47  65  90 119 152 191 235 277
#     4   9  16  26  40  58  84 117 151 187 227 271
#     4   9  16  25  38  58  86 118 152 186 223 269
#     4  10  18  27  42  64  92 122 154 188 227 276
#     4  10  18  29  47  68  91 119 154 191 230 278
#
# _framework density 16.415051999999999
#
# number of rings (size 3 to 8) (size 9 to 14) (size 15 to 20)
#    0.000    2.286    1.429    2.571    0.000    6.286 
#    0.000    0.000    0.000    0.000    0.000    0.000 
#    0.000    1.143    0.000    4.286    0.000    6.571 
#
# Total GULP energy -347250.331547 kJ/mol
# GULP energy per Si atom -12401.797555 kJ/mol
# Density = 1.637769 g / cm^3
# Si number density = 16.415052 Si / 1000 Ang^3
#
#
#
# Elastic Constant Matrix: (Units=GPa)
#
#
# Indices 1 2 3 4 5 6 
#
# 1 155.2609 74.5967 38.0123 0.0000 11.6645 0.0000
# 2 74.5967 105.0421 32.5200 0.0000 7.1182 0.0000
# 3 38.0123 32.5200 47.0100 0.0000 0.2451 0.0000
# 4 0.0000 0.0000 0.0000 18.2505 0.0000 4.2704
# 5 11.6645 7.1182 0.2451 0.0000 14.0799 0.0000
# 6 0.0000 0.0000 0.0000 4.2704 0.0000 38.2768
#
#
#
# Elastic Compliance Matrix: (Units=1/GPa)
#
#
# Indices 1 2 3 4 5 6 
#
# 1 0.010846 -0.005846 -0.004695 0.000000 -0.005948 0.000000
# 2 -0.005846 0.015790 -0.006181 0.000000 -0.003033 0.000000
# 3 -0.004695 -0.006181 0.029310 0.000000 0.006504 0.000000
# 4 0.000000 0.000000 0.000000 0.056262 0.000000 -0.006277
# 5 -0.005948 -0.003033 0.006504 0.000000 0.077371 0.000000
# 6 0.000000 0.000000 0.000000 -0.006277 0.000000 0.026826
#
#
# Mechanical properties :
#
#
# Convention : Reuss Voigt Hill
#
# Bulk Modulus (GPa) = 44.43738 66.39678 55.41708
# Shear Modulus (GPa) = 19.42893 24.93371 22.18132
#
# Velocity S-wave (km/s) = 3.44409 3.90160 3.67996
# Velocity P-wave (km/s) = 6.55328 7.79957 7.20343
#
# Compressibility (1/GPa) = 0.02250358
#
# Stress axis : x y z
#
# Youngs Moduli (GPa) = 92.20250 63.33025 34.11789
#
# Poissons Ratio (x) = 0.37020 0.16019
# Poissons Ratio (y) = 0.53898 0.21087
# Poissons Ratio (z) = 0.43290 0.39142
#
# Static dielectric constant tensor:
#      x y z
#    x 3.243520 0.000000 0.085710 
#    y 0.000000 3.258280 0.000000 
#    z 0.085710 0.000000 2.517640 
# 
# 
# High freq. dielectric constant tensor:
#      x y z
#    x 1.646650 0.000000 0.011570 
#    y 0.000000 1.651580 0.000000 
#    z 0.011570 0.000000 1.557490 
# 
# From -- ./inp_files/37490.got.cif
#   From: 2010.06.25/outbox.cif.g09.slc.cpg/sg11_19_cif.got.tgz:37490.got - 2010.06.27 23:14:04.
