data_PCOD8068528
_publ_section_title
;
Structure prediction by ZEFSAII (Michael W. Deem and Ramdas Pophale) SiO2 
 PCOD8068528
Probable space group: P 21/M
;
_chemical_formula_sum "Si O2"
_cell_formula_units_Z 32
_cell_length_a 36.911858
_cell_length_b 9.074957
_cell_length_c 21.565012
_cell_angle_alpha 90.000000
_cell_angle_beta 163.753346
_cell_angle_gamma 90.000000
_cell_volume 2020.998101
_symmetry_space_group_name_H-M "P 21/M"
_symmetry_group_IT_number 11
_symmetry_cell_setting 'monoclinic'
loop_
_space_group_symop_operation_xyz
x,y,z
-x,1/2+y,-z
-x,-y,-z
x,1/2-y,z
loop_
_atom_site_type_symbol
_atom_site_label
_atom_site_fract_x
_atom_site_fract_y
_atom_site_fract_z
Si Si1 0.278756 0.575388 0.902732
Si Si2 0.196500 0.423191 0.314152
Si Si3 0.417606 0.924875 0.917671
Si Si4 0.963838 0.076515 0.847289
Si Si5 0.116715 0.076927 0.727044
Si Si6 0.486506 0.075592 0.791825
Si Si7 0.878719 0.424738 0.575842
Si Si8 0.950641 0.422105 0.562886
O O1 0.272979 0.750000 0.903563
O O2 0.250532 0.496547 0.922915
O O3 0.170742 0.518362 0.676495
O O4 0.417558 0.520961 0.105087
O O5 0.193802 0.250000 0.322671
O O6 0.148280 0.501467 0.296948
O O7 0.341572 0.478669 0.537732
O O8 0.105412 0.465900 0.106291
O O9 0.432042 0.750000 0.935910
O O10 0.468790 0.984646 0.067905
O O11 0.269746 0.976336 0.667008
O O12 0.500000 0.000000 0.000000
O O13 0.939476 0.250000 0.810832
O O14 0.952820 0.016523 0.758824
O O15 0.117347 0.250000 0.713782
O O16 0.087690 0.047526 0.752815
O O17 0.000000 0.000000 0.500000
O O18 0.494792 0.250000 0.807898
O O19 0.886106 0.250000 0.587280
O O20 0.948887 0.490969 0.629399
O O21 0.925744 0.250000 0.529064
#
# Coordination Sequence:
#
# PCOD8068528 Si02
#       8
#     4   4   4   4   4   4   4   4
#     4   9  15  26  42  58  78 106 137 165 197 237
#     4   9  17  29  43  59  80 105 136 171 205 242
#     4  10  18  27  40  56  78 107 136 162 195 240
#     4   9  17  28  43  61  79 102 135 175 208 232
#     4   9  16  25  40  60  82 108 135 162 197 238
#     4   9  16  27  43  59  78 109 140 163 197 247
#     4   9  15  25  41  59  78 103 135 165 194 234
#     4   8  13  23  39  57  77 102 131 159 190 233
#
# _framework density 15.83376
#
# number of rings (size 3 to 8) (size 9 to 14) (size 15 to 20)
#    0.000    3.000    1.250    1.875    0.000    0.000 
#    0.000    1.250    0.000    3.750    0.000    0.875 
#    0.000    0.000    0.000    0.000    0.000    0.000 
#
# Total GULP energy -396511.978426 kJ/mol
# GULP energy per Si atom -12390.999326 kJ/mol
# Density = 1.579772 g / cm^3
# Si number density = 15.833760 Si / 1000 Ang^3
#
#
#
# Elastic Constant Matrix: (Units=GPa)
#
#
# Indices 1 2 3 4 5 6 
#
# 1 159.2702 31.0574 76.9128 0.0000 19.7890 0.0000
# 2 31.0574 26.7499 18.7735 0.0000 6.5161 0.0000
# 3 76.9128 18.7735 95.8201 0.0000 10.7685 0.0000
# 4 0.0000 0.0000 0.0000 12.1281 0.0000 6.0338
# 5 19.7890 6.5161 10.7685 0.0000 25.2737 0.0000
# 6 0.0000 0.0000 0.0000 6.0338 0.0000 21.8794
#
#
#
# Elastic Compliance Matrix: (Units=1/GPa)
#
#
# Indices 1 2 3 4 5 6 
#
# 1 0.011957 -0.007490 -0.007662 0.000000 -0.004166 0.000000
# 2 -0.007490 0.049606 -0.003076 0.000000 -0.005614 0.000000
# 3 -0.007662 -0.003076 0.017252 0.000000 -0.000558 0.000000
# 4 0.000000 0.000000 0.000000 0.095564 0.000000 -0.026354
# 5 -0.004166 -0.005614 -0.000558 0.000000 0.044514 0.000000
# 6 0.000000 0.000000 0.000000 -0.026354 0.000000 0.052973
#
#
# Mechanical properties :
#
#
# Convention : Reuss Voigt Hill
#
# Bulk Modulus (GPa) = 23.60788 59.48084 41.54436
# Shear Modulus (GPa) = 15.50671 22.19601 18.85136
#
# Velocity S-wave (km/s) = 3.13284 3.74814 3.45422
# Velocity P-wave (km/s) = 5.29419 7.50858 6.49643
#
# Compressibility (1/GPa) = 0.04235874
#
# Stress axis : x y z
#
# Youngs Moduli (GPa) = 83.63467 20.15888 57.96593
#
# Poissons Ratio (x) = 0.15099 0.44412
# Poissons Ratio (y) = 0.62643 0.17830
# Poissons Ratio (z) = 0.64079 0.06201
#
# Static dielectric constant tensor:
#      x y z
#    x 3.542680 0.000000 0.137500 
#    y 0.000000 2.812960 0.000000 
#    z 0.137500 0.000000 3.079420 
# 
# 
# High freq. dielectric constant tensor:
#      x y z
#    x 1.615520 0.000000 0.015390 
#    y 0.000000 1.575510 0.000000 
#    z 0.015390 0.000000 1.580110 
# 
# From -- ./inp_files/43050.got.cif
#   From: 2010.06.25/outbox.cif.g09.slc.cpg/sg11_22_cif.got.tgz:43050.got - 2010.06.27 23:14:04.
