data_PCOD8068960
_publ_section_title
;
Structure prediction by ZEFSAII (Michael W. Deem and Ramdas Pophale) SiO2 
 PCOD8068960
Probable space group: P 21/M
;
_chemical_formula_sum "Si O2"
_cell_formula_units_Z 32
_cell_length_a 11.937664
_cell_length_b 9.099809
_cell_length_c 21.176644
_cell_angle_alpha 90.000000
_cell_angle_beta 128.183989
_cell_angle_gamma 90.000000
_cell_volume 1808.205163
_symmetry_space_group_name_H-M "P 21/M"
_symmetry_group_IT_number 11
_symmetry_cell_setting 'monoclinic'
loop_
_space_group_symop_operation_xyz
x,y,z
-x,1/2+y,-z
-x,-y,-z
x,1/2-y,z
loop_
_atom_site_type_symbol
_atom_site_label
_atom_site_fract_x
_atom_site_fract_y
_atom_site_fract_z
Si Si1 0.425584 0.578125 0.338238
Si Si2 0.778796 0.921152 0.935154
Si Si3 0.708754 0.421521 0.458665
Si Si4 0.241079 0.579024 0.667769
Si Si5 0.856304 0.918031 0.729797
Si Si6 0.522894 0.422088 0.788333
Si Si7 0.992691 0.419923 0.091418
Si Si8 0.058760 0.418508 0.380697
O O1 0.438797 0.750000 0.355421
O O2 0.558388 0.500283 0.418298
O O3 0.282125 0.519749 0.319864
O O4 0.424183 0.540045 0.263658
O O5 0.750143 0.750000 0.934435
O O6 0.874278 0.955654 0.907317
O O7 0.628458 0.002125 0.874728
O O8 0.856791 0.983169 0.024528
O O9 0.686097 0.250000 0.461689
O O10 0.767423 0.457033 0.409413
O O11 0.820162 0.480356 0.547958
O O12 0.272258 0.750000 0.690610
O O13 0.365586 0.486399 0.744258
O O14 0.093754 0.527614 0.647440
O O15 0.806710 0.750000 0.723607
O O16 0.941478 0.936847 0.694624
O O17 0.963639 0.966037 0.822763
O O18 0.520011 0.250000 0.800487
O O19 0.948941 0.250000 0.070958
O O20 0.086595 0.250000 0.410591
#
# Coordination Sequence:
#
# PCOD8068960 Si02
#       8
#     4   4   4   4   4   4   4   4
#     4  10  20  33  51  75 103 134 169 208 252 300
#     4  10  18  29  50  77 105 134 165 203 248 298
#     4  10  20  34  54  76 101 131 167 213 259 300
#     4   9  19  35  54  76 101 131 168 212 257 299
#     4  10  20  35  53  73 103 139 169 203 249 303
#     4  10  19  31  51  78 105 132 165 210 256 297
#     4   9  18  31  48  73 105 136 165 200 245 299
#     4  10  21  36  54  75 100 133 172 210 252 301
#
# _framework density 17.697106000000002
#
# number of rings (size 3 to 8) (size 9 to 14) (size 15 to 20)
#    0.000    2.250    1.250    1.875    0.000    4.000 
#    0.000    0.000    0.000    0.750    0.000    0.000 
#    0.000    0.000    0.000    0.000    0.000    0.000 
#
# Total GULP energy -396951.077394 kJ/mol
# GULP energy per Si atom -12404.721169 kJ/mol
# Density = 1.765683 g / cm^3
# Si number density = 17.697106 Si / 1000 Ang^3
#
#
#
# Elastic Constant Matrix: (Units=GPa)
#
#
# Indices 1 2 3 4 5 6 
#
# 1 48.0235 25.3092 44.1700 0.0000 -0.5190 0.0000
# 2 25.3092 79.0007 58.4412 0.0000 10.1828 0.0000
# 3 44.1700 58.4412 132.6858 0.0000 14.4234 0.0000
# 4 0.0000 0.0000 0.0000 34.5132 0.0000 7.6594
# 5 -0.5190 10.1828 14.4234 0.0000 20.6348 0.0000
# 6 0.0000 0.0000 0.0000 7.6594 0.0000 22.4809
#
#
#
# Elastic Compliance Matrix: (Units=1/GPa)
#
#
# Indices 1 2 3 4 5 6 
#
# 1 0.032339 -0.004265 -0.009961 0.000000 0.009881 0.000000
# 2 -0.004265 0.019613 -0.006661 0.000000 -0.005130 0.000000
# 3 -0.009961 -0.006661 0.014563 0.000000 -0.007143 0.000000
# 4 0.000000 0.000000 0.000000 0.031344 0.000000 -0.010679
# 5 0.009881 -0.005130 -0.007143 0.000000 0.056234 0.000000
# 6 0.000000 0.000000 0.000000 -0.010679 0.000000 0.048121
#
#
# Mechanical properties :
#
#
# Convention : Reuss Voigt Hill
#
# Bulk Modulus (GPa) = 40.41909 57.28343 48.85126
# Shear Modulus (GPa) = 19.82259 24.31176 22.06718
#
# Velocity S-wave (km/s) = 3.35043 3.71046 3.53503
# Velocity P-wave (km/s) = 6.15273 7.12712 6.65777
#
# Compressibility (1/GPa) = 0.02474079
#
# Stress axis : x y z
#
# Youngs Moduli (GPa) = 30.92196 50.98533 68.66811
#
# Poissons Ratio (x) = 0.21748 0.68400
# Poissons Ratio (y) = 0.13190 0.45741
# Poissons Ratio (z) = 0.30801 0.33962
#
# Static dielectric constant tensor:
#      x y z
#    x 3.100940 0.000000 0.084050 
#    y 0.000000 3.292050 0.000000 
#    z 0.084050 0.000000 3.278750 
# 
# 
# High freq. dielectric constant tensor:
#      x y z
#    x 1.658680 0.000000 0.013110 
#    y 0.000000 1.690750 0.000000 
#    z 0.013110 0.000000 1.685280 
# 
# From -- ./inp_files/42850.got.cif
#   From: 2010.06.25/outbox.cif.g09.slc.cpg/sg11_22_cif.got.tgz:42850.got - 2010.06.27 23:14:04.
