data_PCOD8068902
_publ_section_title
;
Structure prediction by ZEFSAII (Michael W. Deem and Ramdas Pophale) SiO2 
 PCOD8068902
Probable space group: P 21/M
;
_chemical_formula_sum "Si O2"
_cell_formula_units_Z 32
_cell_length_a 17.811706
_cell_length_b 8.568720
_cell_length_c 23.955219
_cell_angle_alpha 90.000000
_cell_angle_beta 30.051604
_cell_angle_gamma 90.000000
_cell_volume 1830.915958
_symmetry_space_group_name_H-M "P 21/M"
_symmetry_group_IT_number 11
_symmetry_cell_setting 'monoclinic'
loop_
_space_group_symop_operation_xyz
x,y,z
-x,1/2+y,-z
-x,-y,-z
x,1/2-y,z
loop_
_atom_site_type_symbol
_atom_site_label
_atom_site_fract_x
_atom_site_fract_y
_atom_site_fract_z
Si Si1 0.324917 0.431794 0.340004
Si Si2 0.908822 0.432642 0.424538
Si Si3 0.236155 0.430602 0.584126
Si Si4 0.115940 0.431525 0.382865
Si Si5 0.945755 0.934202 0.976396
Si Si6 0.196138 0.567824 0.726901
Si Si7 0.556260 0.568396 0.358376
Si Si8 0.636381 0.067807 0.188958
O O1 0.292210 0.250000 0.374045
O O2 0.230028 0.533302 0.444629
O O3 0.280076 0.471344 0.303604
O O4 0.499934 0.469947 0.234804
O O5 0.908827 0.250000 0.409931
O O6 0.892355 0.529436 0.378230
O O7 0.067641 0.488416 0.351619
O O8 0.279208 0.250000 0.552867
O O9 0.172299 0.471968 0.685719
O O10 0.381470 0.531734 0.475712
O O11 0.088058 0.250000 0.399629
O O12 0.000000 0.500000 0.500000
O O13 0.930271 0.750000 0.990760
O O14 0.063990 0.983987 0.853328
O O15 0.786810 0.009620 0.061936
O O16 0.000000 0.000000 0.000000
O O17 0.191140 0.750000 0.716323
O O18 0.356463 0.527725 0.650495
O O19 0.583938 0.750000 0.351109
O O20 0.617737 0.524196 0.258360
O O21 0.646794 0.250000 0.196689
#
# Coordination Sequence:
#
# PCOD8068902 Si02
#       8
#     4   4   4   4   4   4   4   4
#     4   9  17  30  48  72 105 139 171 209 252 304
#     4  10  18  29  48  73 103 138 173 210 252 305
#     4  12  24  37  53  75 106 140 175 214 260 312
#     4   8  15  27  44  69 100 135 171 205 248 300
#     4  11  23  38  58  77 101 133 173 220 265 310
#     4  11  24  41  57  75 100 134 177 219 261 307
#     4  12  23  36  55  77 105 138 175 214 257 307
#     4  11  21  33  53  79 108 140 175 212 257 307
#
# _framework density 17.477589999999999
#
# number of rings (size 3 to 8) (size 9 to 14) (size 15 to 20)
#    0.000    1.500    2.500    4.125    0.000    2.500 
#    0.000    0.000    0.000    0.000    0.000    0.875 
#    0.000    0.000    0.000    0.000    0.000    0.000 
#
# Total GULP energy -396681.161270 kJ/mol
# GULP energy per Si atom -12396.286290 kJ/mol
# Density = 1.743781 g / cm^3
# Si number density = 17.477590 Si / 1000 Ang^3
#
#
#
# Elastic Constant Matrix: (Units=GPa)
#
#
# Indices 1 2 3 4 5 6 
#
# 1 149.4445 23.3977 42.2037 0.0000 -9.5592 0.0000
# 2 23.3977 48.3923 22.1193 0.0000 -1.4211 0.0000
# 3 42.2037 22.1193 56.6644 0.0000 0.3489 0.0000
# 4 0.0000 0.0000 0.0000 23.5251 0.0000 1.1824
# 5 -9.5592 -1.4211 0.3489 0.0000 21.4502 0.0000
# 6 0.0000 0.0000 0.0000 1.1824 0.0000 24.3563
#
#
#
# Elastic Compliance Matrix: (Units=1/GPa)
#
#
# Indices 1 2 3 4 5 6 
#
# 1 0.008885 -0.001392 -0.006099 0.000000 0.003967 0.000000
# 2 -0.001392 0.025442 -0.008902 0.000000 0.001210 0.000000
# 3 -0.006099 -0.008902 0.025688 0.000000 -0.003726 0.000000
# 4 0.000000 0.000000 0.000000 0.042612 0.000000 -0.002069
# 5 0.003967 0.001210 -0.003726 0.000000 0.048528 0.000000
# 6 0.000000 0.000000 0.000000 -0.002069 0.000000 0.041158
#
#
# Mechanical properties :
#
#
# Convention : Reuss Voigt Hill
#
# Bulk Modulus (GPa) = 36.72481 47.77139 42.24810
# Shear Modulus (GPa) = 21.35144 24.98501 23.16822
#
# Velocity S-wave (km/s) = 3.49900 3.78503 3.64482
# Velocity P-wave (km/s) = 6.11409 6.81867 6.47597
#
# Compressibility (1/GPa) = 0.02722955
#
# Stress axis : x y z
#
# Youngs Moduli (GPa) = 112.54320 39.30500 38.92826
#
# Poissons Ratio (x) = 0.05471 0.23742
# Poissons Ratio (y) = 0.15665 0.34655
# Poissons Ratio (z) = 0.68640 0.34990
#
# Static dielectric constant tensor:
#      x y z
#    x 3.835260 0.000000 -0.240130 
#    y 0.000000 3.311740 0.000000 
#    z -0.240130 0.000000 3.097110 
# 
# 
# High freq. dielectric constant tensor:
#      x y z
#    x 1.689420 0.000000 -0.013640 
#    y 0.000000 1.687860 0.000000 
#    z -0.013640 0.000000 1.630390 
# 
# From -- ./inp_files/42458.got.cif
#   From: 2010.06.25/outbox.cif.g09.slc.cpg/sg11_22_cif.got.tgz:42458.got - 2010.06.27 23:14:04.
