data_PCOD8068705
_publ_section_title
;
Structure prediction by ZEFSAII (Michael W. Deem and Ramdas Pophale) SiO2 
 PCOD8068705
Probable space group: P 21/M
;
_chemical_formula_sum "Si O2"
_cell_formula_units_Z 28
_cell_length_a 16.082611
_cell_length_b 9.498808
_cell_length_c 20.442658
_cell_angle_alpha 90.000000
_cell_angle_beta 28.847919
_cell_angle_gamma 90.000000
_cell_volume 1506.773959
_symmetry_space_group_name_H-M "P 21/M"
_symmetry_group_IT_number 11
_symmetry_cell_setting 'monoclinic'
loop_
_space_group_symop_operation_xyz
x,y,z
-x,1/2+y,-z
-x,-y,-z
x,1/2-y,z
loop_
_atom_site_type_symbol
_atom_site_label
_atom_site_fract_x
_atom_site_fract_y
_atom_site_fract_z
Si Si1 0.818230 0.589680 0.046074
Si Si2 0.538275 0.088767 0.172326
Si Si3 0.684095 0.913708 0.554150
Si Si4 0.018260 0.915500 0.256418
Si Si5 0.890442 0.584843 0.204182
Si Si6 0.585469 0.907024 0.331391
Si Si7 0.401967 0.912579 0.013565
O O1 0.847034 0.750000 0.003265
O O2 0.697147 0.512443 0.076803
O O3 0.734070 0.583191 0.174787
O O4 0.997818 0.506163 0.923899
O O5 0.594811 0.250000 0.147545
O O6 0.375492 0.047607 0.330887
O O7 0.492990 0.070955 0.127067
O O8 0.662276 0.750000 0.554492
O O9 0.884220 0.957943 0.406721
O O10 0.568528 0.987497 0.578343
O O11 0.040452 0.750000 0.235071
O O12 0.936352 0.970594 0.245053
O O13 0.208145 0.976627 0.140132
O O14 0.931932 0.750000 0.165947
O O15 0.687014 0.556578 0.328918
O O16 0.506611 0.750000 0.387924
O O17 0.396290 0.750000 0.039402
O O18 0.500000 0.000000 0.000000
#
# Coordination Sequence:
#
# PCOD8068705 Si02
#       7
#     4   4   4   4   4   4   4
#     4  10  18  28  45  73 104 131 170 218 254 286
#     4   9  17  33  55  75  98 134 169 199 245 307
#     4   9  18  33  54  75  99 135 176 208 238 292
#     4   9  18  34  54  75 100 133 170 207 249 299
#     4  10  18  31  49  68 100 142 177 206 250 300
#     4   9  19  31  45  70 104 140 172 211 254 290
#     4  10  20  36  57  79 102 127 161 204 253 305
#
# _framework density 18.582747999999999
#
# number of rings (size 3 to 8) (size 9 to 14) (size 15 to 20)
#    0.000    2.571    1.429    0.857    0.000    2.286 
#    0.000    2.143    0.000    0.000    0.000    0.000 
#    0.000    0.000    0.000    0.000    0.000    0.000 
#
# Total GULP energy -347041.720717 kJ/mol
# GULP energy per Si atom -12394.347168 kJ/mol
# Density = 1.854045 g / cm^3
# Si number density = 18.582748 Si / 1000 Ang^3
#
#
#
# Elastic Constant Matrix: (Units=GPa)
#
#
# Indices 1 2 3 4 5 6 
#
# 1 115.7499 33.7434 49.2504 0.0000 -11.8207 0.0000
# 2 33.7434 55.4512 25.4034 0.0000 -5.1039 0.0000
# 3 49.2504 25.4034 103.5001 0.0000 -6.5071 0.0000
# 4 0.0000 0.0000 0.0000 17.4154 0.0000 -5.5153
# 5 -11.8207 -5.1039 -6.5071 0.0000 15.3375 0.0000
# 6 0.0000 0.0000 0.0000 -5.5153 0.0000 28.6945
#
#
#
# Elastic Compliance Matrix: (Units=1/GPa)
#
#
# Indices 1 2 3 4 5 6 
#
# 1 0.012615 -0.005111 -0.004360 0.000000 0.006172 0.000000
# 2 -0.005111 0.022735 -0.003000 0.000000 0.002354 0.000000
# 3 -0.004360 -0.003000 0.012533 0.000000 0.000959 0.000000
# 4 0.000000 0.000000 0.000000 0.061142 0.000000 0.011752
# 5 0.006172 0.002354 0.000959 0.000000 0.071146 0.000000
# 6 0.000000 0.000000 0.000000 0.011752 0.000000 0.037109
#
#
# Mechanical properties :
#
#
# Convention : Reuss Voigt Hill
#
# Bulk Modulus (GPa) = 43.59094 54.61059 49.10077
# Shear Modulus (GPa) = 20.01043 23.37641 21.69342
#
# Velocity S-wave (km/s) = 3.28507 3.55062 3.42042
# Velocity P-wave (km/s) = 6.15610 6.80153 6.48685
#
# Compressibility (1/GPa) = 0.02294055
#
# Stress axis : x y z
#
# Youngs Moduli (GPa) = 79.27247 43.98497 79.78741
#
# Poissons Ratio (x) = 0.22480 0.34790
# Poissons Ratio (y) = 0.40514 0.23938
# Poissons Ratio (z) = 0.34565 0.13196
#
# Static dielectric constant tensor:
#      x y z
#    x 3.280090 0.000000 0.099120 
#    y 0.000000 3.343130 0.000000 
#    z 0.099120 0.000000 3.566710 
# 
# 
# High freq. dielectric constant tensor:
#      x y z
#    x 1.702060 0.000000 0.009220 
#    y 0.000000 1.703450 0.000000 
#    z 0.009220 0.000000 1.717800 
# 
# From -- ./inp_files/52099.got.cif
#   From: 2010.06.25/outbox.cif.g09.slc.cpg/sg11_27_cif.got.tgz:52099.got - 2010.06.27 23:14:04.
