data_PCOD8068812
_publ_section_title
;
Structure prediction by ZEFSAII (Michael W. Deem and Ramdas Pophale) SiO2 
 PCOD8068812
Probable space group: P 21/M
;
_chemical_formula_sum "Si O2"
_cell_formula_units_Z 32
_cell_length_a 15.158054
_cell_length_b 8.895482
_cell_length_c 15.129189
_cell_angle_alpha 90.000000
_cell_angle_beta 101.301789
_cell_angle_gamma 90.000000
_cell_volume 2000.434125
_symmetry_space_group_name_H-M "P 21/M"
_symmetry_group_IT_number 11
_symmetry_cell_setting 'monoclinic'
loop_
_space_group_symop_operation_xyz
x,y,z
-x,1/2+y,-z
-x,-y,-z
x,1/2-y,z
loop_
_atom_site_type_symbol
_atom_site_label
_atom_site_fract_x
_atom_site_fract_y
_atom_site_fract_z
Si Si1 0.259664 0.577896 0.237088
Si Si2 0.387920 0.922794 0.412723
Si Si3 0.575179 0.928253 0.210395
Si Si4 0.885573 0.927067 0.058702
Si Si5 0.613106 0.927065 0.874188
Si Si6 0.435006 0.575221 0.613510
Si Si7 0.304588 0.428342 0.925010
Si Si8 0.918609 0.423761 0.881961
O O1 0.280614 0.750000 0.213566
O O2 0.293498 0.548591 0.344009
O O3 0.309004 0.467937 0.179267
O O4 0.151903 0.547165 0.211759
O O5 0.420022 0.750000 0.409499
O O6 0.376701 0.962560 0.514191
O O7 0.462088 0.026917 0.381587
O O8 0.572913 0.750000 0.210436
O O9 0.645054 0.992201 0.151431
O O10 0.476664 0.987294 0.169568
O O11 0.607491 0.986070 0.312606
O O12 0.875507 0.750000 0.050559
O O13 0.798446 0.990789 0.093923
O O14 0.979676 0.974458 0.125105
O O15 0.883659 0.985903 0.958947
O O16 0.595519 0.750000 0.867413
O O17 0.642807 0.982065 0.977174
O O18 0.433820 0.750000 0.636537
O O19 0.304526 0.250000 0.921754
O O20 0.921121 0.250000 0.910074
#
# Coordination Sequence:
#
# PCOD8068812 Si02
#       8
#     4   4   4   4   4   4   4   4
#     4  10  18  29  45  69  94 119 145 176 223 273
#     4   9  18  31  47  64  90 119 144 182 229 272
#     4  11  21  33  46  62  88 123 156 190 225 260
#     4   9  16  30  46  63  89 119 149 183 219 260
#     4  11  20  31  45  65  90 121 156 187 215 259
#     4  10  19  31  46  66  87 114 152 188 224 269
#     4   9  19  32  46  63  88 123 158 186 221 260
#     4   9  17  27  45  69  91 114 145 182 221 266
#
# _framework density 15.996528
#
# number of rings (size 3 to 8) (size 9 to 14) (size 15 to 20)
#    0.000    2.250    2.500    1.500    0.000    0.500 
#    0.000    3.125    0.000    0.000    0.000    0.875 
#    0.000    0.000    0.000    0.000    0.000    0.000 
#
# Total GULP energy -396639.222973 kJ/mol
# GULP energy per Si atom -12394.975718 kJ/mol
# Density = 1.596012 g / cm^3
# Si number density = 15.996528 Si / 1000 Ang^3
#
#
#
# Elastic Constant Matrix: (Units=GPa)
#
#
# Indices 1 2 3 4 5 6 
#
# 1 85.6899 19.4188 58.7950 0.0000 10.4458 0.0000
# 2 19.4188 39.8103 27.3657 0.0000 0.1122 0.0000
# 3 58.7950 27.3657 124.4067 0.0000 8.4104 0.0000
# 4 0.0000 0.0000 0.0000 20.6617 0.0000 -1.6255
# 5 10.4458 0.1122 8.4104 0.0000 24.8625 0.0000
# 6 0.0000 0.0000 0.0000 -1.6255 0.0000 12.9210
#
#
#
# Elastic Compliance Matrix: (Units=1/GPa)
#
#
# Indices 1 2 3 4 5 6 
#
# 1 0.018266 -0.003770 -0.007456 0.000000 -0.005135 0.000000
# 2 -0.003770 0.030481 -0.005138 0.000000 0.003185 0.000000
# 3 -0.007456 -0.005138 0.012771 0.000000 -0.001164 0.000000
# 4 0.000000 0.000000 0.000000 0.048882 0.000000 0.006150
# 5 -0.005135 0.003185 -0.001164 0.000000 0.042758 0.000000
# 6 0.000000 0.000000 0.000000 0.006150 0.000000 0.078167
#
#
# Mechanical properties :
#
#
# Convention : Reuss Voigt Hill
#
# Bulk Modulus (GPa) = 34.73551 51.22954 42.98252
# Shear Modulus (GPa) = 18.27135 21.31087 19.79111
#
# Velocity S-wave (km/s) = 3.38332 3.65392 3.52122
# Velocity P-wave (km/s) = 6.08474 7.06374 6.59244
#
# Compressibility (1/GPa) = 0.02878898
#
# Stress axis : x y z
#
# Youngs Moduli (GPa) = 54.74545 32.80695 78.30224
#
# Poissons Ratio (x) = 0.12369 0.58384
# Poissons Ratio (y) = 0.20640 0.40236
# Poissons Ratio (z) = 0.40820 0.16858
#
# Static dielectric constant tensor:
#      x y z
#    x 3.258200 0.000000 0.085440 
#    y 0.000000 3.010200 0.000000 
#    z 0.085440 0.000000 3.215320 
# 
# 
# High freq. dielectric constant tensor:
#      x y z
#    x 1.597300 0.000000 0.015870 
#    y 0.000000 1.611820 0.000000 
#    z 0.015870 0.000000 1.603440 
# 
# From -- ./inp_files/51391.got.cif
#   From: 2010.06.25/outbox.cif.g09.slc.cpg/sg11_26_cif.got.tgz:51391.got - 2010.06.27 23:14:04.
