data_PCOD8068257
_publ_section_title
;
Structure prediction by ZEFSAII (Michael W. Deem and Ramdas Pophale) SiO2 
 PCOD8068257
Probable space group: P 21/M
;
_chemical_formula_sum "Si O2"
_cell_formula_units_Z 32
_cell_length_a 35.221891
_cell_length_b 8.956208
_cell_length_c 24.089212
_cell_angle_alpha 90.000000
_cell_angle_beta 15.547702
_cell_angle_gamma 90.000000
_cell_volume 2036.854239
_symmetry_space_group_name_H-M "P 21/M"
_symmetry_group_IT_number 11
_symmetry_cell_setting 'monoclinic'
loop_
_space_group_symop_operation_xyz
x,y,z
-x,1/2+y,-z
-x,-y,-z
x,1/2-y,z
loop_
_atom_site_type_symbol
_atom_site_label
_atom_site_fract_x
_atom_site_fract_y
_atom_site_fract_z
Si Si1 0.194306 0.077263 0.373867
Si Si2 0.321936 0.574942 0.505248
Si Si3 0.898572 0.078710 0.101060
Si Si4 0.110126 0.426121 0.715843
Si Si5 0.564643 0.076829 0.112071
Si Si6 0.190422 0.922835 0.490913
Si Si7 0.502425 0.418219 0.902054
Si Si8 0.124291 0.573430 0.359286
O O1 0.150069 0.250000 0.434287
O O2 0.134940 0.003665 0.513634
O O3 0.122965 0.994456 0.422572
O O4 0.363902 0.055829 0.134454
O O5 0.321163 0.750000 0.493143
O O6 0.262294 0.540764 0.652113
O O7 0.228520 0.494103 0.589714
O O8 0.482555 0.512723 0.276297
O O9 0.927542 0.250000 0.070780
O O10 0.950462 0.039817 0.965387
O O11 0.000000 0.000000 0.000000
O O12 0.138435 0.250000 0.669714
O O13 0.113325 0.503354 0.651805
O O14 0.543545 0.250000 0.152964
O O15 0.493128 0.035232 0.154268
O O16 0.729842 0.032559 0.877948
O O17 0.148058 0.750000 0.548086
O O18 0.359643 0.944990 0.255137
O O19 0.501541 0.250000 0.878462
O O20 0.103413 0.750000 0.393182
O O21 0.000000 0.500000 0.500000
#
# Coordination Sequence:
#
# PCOD8068257 Si02
#       8
#     4   4   4   4   4   4   4   4
#     4  10  20  33  48  66  87 117 152 186 226 269
#     4  10  17  27  42  61  87 118 153 191 227 264
#     4   8  16  27  39  56  81 115 154 191 224 260
#     4  10  18  28  41  59  85 121 159 191 225 262
#     4  10  19  29  45  68  91 117 151 187 224 268
#     4  11  20  29  42  63  91 122 155 190 223 262
#     4   9  18  30  43  60  87 120 152 186 223 260
#     4  10  21  37  54  71  91 116 146 185 231 275
#
# _framework density 15.710501000000001
#
# number of rings (size 3 to 8) (size 9 to 14) (size 15 to 20)
#    0.000    2.250    1.250    2.625    0.000    3.500 
#    0.000    0.000    0.000    0.000    0.000    0.000 
#    0.000    1.000    0.000    3.000    0.000    4.625 
#
# Total GULP energy -396563.220572 kJ/mol
# GULP energy per Si atom -12392.600643 kJ/mol
# Density = 1.567474 g / cm^3
# Si number density = 15.710501 Si / 1000 Ang^3
#
#
#
# Elastic Constant Matrix: (Units=GPa)
#
#
# Indices 1 2 3 4 5 6 
#
# 1 86.9001 50.2684 60.3394 0.0000 15.2168 0.0000
# 2 50.2684 90.2408 51.7106 0.0000 10.5274 0.0000
# 3 60.3394 51.7106 88.1454 0.0000 20.7884 0.0000
# 4 0.0000 0.0000 0.0000 22.6032 0.0000 2.8326
# 5 15.2168 10.5274 20.7884 0.0000 24.2325 0.0000
# 6 0.0000 0.0000 0.0000 2.8326 0.0000 24.0043
#
#
#
# Elastic Compliance Matrix: (Units=1/GPa)
#
#
# Indices 1 2 3 4 5 6 
#
# 1 0.023922 -0.005987 -0.012454 0.000000 -0.001737 0.000000
# 2 -0.005987 0.018232 -0.007041 0.000000 0.001879 0.000000
# 3 -0.012454 -0.007041 0.026872 0.000000 -0.012173 0.000000
# 4 0.000000 0.000000 0.000000 0.044906 0.000000 -0.005299
# 5 -0.001737 0.001879 -0.012173 0.000000 0.051985 0.000000
# 6 0.000000 0.000000 0.000000 -0.005299 0.000000 0.042284
#
#
# Mechanical properties :
#
#
# Convention : Reuss Voigt Hill
#
# Bulk Modulus (GPa) = 55.36227 65.54703 60.45465
# Shear Modulus (GPa) = 18.85487 21.03253 19.94370
#
# Velocity S-wave (km/s) = 3.46807 3.66287 3.56680
# Velocity P-wave (km/s) = 7.16604 7.72666 7.45162
#
# Compressibility (1/GPa) = 0.01806284
#
# Stress axis : x y z
#
# Youngs Moduli (GPa) = 41.80221 54.84994 37.21407
#
# Poissons Ratio (x) = 0.32837 0.46347
# Poissons Ratio (y) = 0.25025 0.26201
# Poissons Ratio (z) = 0.52061 0.38618
#
# Static dielectric constant tensor:
#      x y z
#    x 2.738520 0.000000 0.431430 
#    y 0.000000 3.138680 0.000000 
#    z 0.431430 0.000000 3.350500 
# 
# 
# High freq. dielectric constant tensor:
#      x y z
#    x 1.560400 0.000000 0.035850 
#    y 0.000000 1.622790 0.000000 
#    z 0.035850 0.000000 1.591170 
# 
# From -- ./inp_files/67401.got.cif
#   From: 2010.06.25/outbox.cif.g09.slc.cpg/sg11_34_cif.got.tgz:67401.got - 2010.06.27 23:14:04.
