data_PCOD8068681
_publ_section_title
;
Structure prediction by ZEFSAII (Michael W. Deem and Ramdas Pophale) SiO2 
 PCOD8068681
Probable space group: P 21/M
;
_chemical_formula_sum "Si O2"
_cell_formula_units_Z 28
_cell_length_a 9.732392
_cell_length_b 8.768648
_cell_length_c 31.613128
_cell_angle_alpha 90.000000
_cell_angle_beta 145.569300
_cell_angle_gamma 90.000000
_cell_volume 1525.395429
_symmetry_space_group_name_H-M "P 21/M"
_symmetry_group_IT_number 11
_symmetry_cell_setting 'monoclinic'
loop_
_space_group_symop_operation_xyz
x,y,z
-x,1/2+y,-z
-x,-y,-z
x,1/2-y,z
loop_
_atom_site_type_symbol
_atom_site_label
_atom_site_fract_x
_atom_site_fract_y
_atom_site_fract_z
Si Si1 0.253931 0.429710 0.297606
Si Si2 0.190591 0.070667 0.188399
Si Si3 0.130380 0.928421 0.734235
Si Si4 0.701673 0.930183 0.306629
Si Si5 0.795299 0.069322 0.418791
Si Si6 0.037852 0.424523 0.942725
Si Si7 0.350821 0.074959 0.098439
O O1 0.226717 0.250000 0.292192
O O2 0.147241 0.486797 0.225331
O O3 0.535148 0.479013 0.372612
O O4 0.097067 0.495627 0.296639
O O5 0.234960 0.250000 0.198467
O O6 0.431517 0.993195 0.230458
O O7 0.964446 0.023474 0.101133
O O8 0.102245 0.750000 0.716285
O O9 0.366198 0.957781 0.823185
O O10 0.136334 0.022253 0.692381
O O11 0.697313 0.750000 0.310512
O O12 0.823305 0.002596 0.379017
O O13 0.821403 0.250000 0.422960
O O14 0.000000 0.000000 0.500000
O O15 0.020474 0.250000 0.924592
O O16 0.803532 0.463984 0.911364
O O17 0.282239 0.457362 0.031794
O O18 0.284169 0.250000 0.093094
#
# Coordination Sequence:
#
# PCOD8068681 Si02
#       7
#     4   4   4   4   4   4   4
#     4   8  18  34  55  78 103 135 173 213 258 311
#     4  10  18  32  51  73 100 138 182 222 262 310
#     4  10  18  34  55  76 103 138 176 216 262 312
#     4  11  21  33  53  82 108 136 173 215 256 306
#     4  10  20  38  61  85 109 137 171 209 252 304
#     4  10  18  28  44  71 102 133 176 227 268 306
#     4   9  18  29  46  70 100 137 175 218 268 313
#
# _framework density 18.355896999999999
#
# number of rings (size 3 to 8) (size 9 to 14) (size 15 to 20)
#    0.000    2.286    1.429    3.429    0.000    0.571 
#    0.000    5.714    0.000    0.000    0.000    0.000 
#    0.000    0.000    0.000    0.000    0.000    0.000 
#
# Total GULP energy -347140.595953 kJ/mol
# GULP energy per Si atom -12397.878427 kJ/mol
# Density = 1.831412 g / cm^3
# Si number density = 18.355897 Si / 1000 Ang^3
#
#
#
# Elastic Constant Matrix: (Units=GPa)
#
#
# Indices 1 2 3 4 5 6 
#
# 1 124.6045 38.3784 54.1553 0.0000 -8.2185 0.0000
# 2 38.3784 82.9413 45.2189 0.0000 -7.5995 0.0000
# 3 54.1553 45.2189 123.4051 0.0000 -16.9132 0.0000
# 4 0.0000 0.0000 0.0000 30.0417 0.0000 -8.1487
# 5 -8.2185 -7.5995 -16.9132 0.0000 22.3051 0.0000
# 6 0.0000 0.0000 0.0000 -8.1487 0.0000 15.3900
#
#
#
# Elastic Compliance Matrix: (Units=1/GPa)
#
#
# Indices 1 2 3 4 5 6 
#
# 1 0.010454 -0.002915 -0.003491 0.000000 0.000212 0.000000
# 2 -0.002915 0.015902 -0.004411 0.000000 0.000999 0.000000
# 3 -0.003491 -0.004411 0.012130 0.000000 0.006409 0.000000
# 4 0.000000 0.000000 0.000000 0.038869 0.000000 0.020581
# 5 0.000212 0.000999 0.006409 0.000000 0.050111 0.000000
# 6 0.000000 0.000000 0.000000 0.020581 0.000000 0.075874
#
#
# Mechanical properties :
#
#
# Convention : Reuss Voigt Hill
#
# Bulk Modulus (GPa) = 59.33532 67.38402 63.35967
# Shear Modulus (GPa) = 21.68346 26.42725 24.05536
#
# Velocity S-wave (km/s) = 3.44070 3.79847 3.62401
# Velocity P-wave (km/s) = 6.94116 7.48514 7.21828
#
# Compressibility (1/GPa) = 0.01685337
#
# Stress axis : x y z
#
# Youngs Moduli (GPa) = 95.65488 62.88631 82.44196
#
# Poissons Ratio (x) = 0.18331 0.28777
# Poissons Ratio (y) = 0.27882 0.36362
# Poissons Ratio (z) = 0.33389 0.27737
#
# Static dielectric constant tensor:
#      x y z
#    x 3.414060 0.000000 -0.161030 
#    y 0.000000 3.286270 0.000000 
#    z -0.161030 0.000000 3.463900 
# 
# 
# High freq. dielectric constant tensor:
#      x y z
#    x 1.692860 0.000000 -0.020480 
#    y 0.000000 1.704080 0.000000 
#    z -0.020480 0.000000 1.708540 
# 
# From -- ./inp_files/28978.got.cif
#   From: 2010.06.25/outbox.cif.g09.slc.cpg/sg11_15_cif.got.tgz:28978.got - 2010.06.27 23:14:04.
