data_PCOD8068621
_publ_section_title
;
Structure prediction by ZEFSAII (Michael W. Deem and Ramdas Pophale) SiO2 
 PCOD8068621
Probable space group: P 21/M
;
_chemical_formula_sum "Si O2"
_cell_formula_units_Z 32
_cell_length_a 34.439794
_cell_length_b 9.021026
_cell_length_c 16.425260
_cell_angle_alpha 90.000000
_cell_angle_beta 24.008731
_cell_angle_gamma 90.000000
_cell_volume 2076.302583
_symmetry_space_group_name_H-M "P 21/M"
_symmetry_group_IT_number 11
_symmetry_cell_setting 'monoclinic'
loop_
_space_group_symop_operation_xyz
x,y,z
-x,1/2+y,-z
-x,-y,-z
x,1/2-y,z
loop_
_atom_site_type_symbol
_atom_site_label
_atom_site_fract_x
_atom_site_fract_y
_atom_site_fract_z
Si Si1 0.493392 0.574836 0.777959
Si Si2 0.575026 0.424026 0.914512
Si Si3 0.776792 0.076431 0.460292
Si Si4 0.366259 0.085487 0.707681
Si Si5 0.171892 0.075224 0.806889
Si Si6 0.024382 0.580780 0.872219
Si Si7 0.415254 0.586385 0.761703
Si Si8 0.682754 0.073779 0.357396
O O1 0.516045 0.750000 0.729098
O O2 0.420222 0.529033 0.845596
O O3 0.592520 0.488240 0.579880
O O4 0.444233 0.527607 0.955986
O O5 0.563104 0.250000 0.926972
O O6 0.680875 0.476966 0.688254
O O7 0.500000 0.500000 0.000000
O O8 0.771449 0.250000 0.446407
O O9 0.863342 0.048191 0.360557
O O10 0.790544 0.981238 0.352429
O O11 0.321204 0.250000 0.790953
O O12 0.477541 0.093213 0.476212
O O13 0.351540 0.020295 0.826969
O O14 0.314886 0.981320 0.740276
O O15 0.194596 0.250000 0.770853
O O16 0.221974 0.985581 0.782737
O O17 0.057367 0.040129 0.037660
O O18 0.010077 0.750000 0.921281
O O19 0.000000 0.500000 0.000000
O O20 0.369247 0.750000 0.846144
O O21 0.679823 0.250000 0.364369
#
# Coordination Sequence:
#
# PCOD8068621 Si02
#       8
#     4   4   4   4   4   4   4   4
#     4   9  18  31  43  57  80 111 143 172 202 237
#     4  10  20  31  43  59  82 111 142 174 204 234
#     4   9  17  30  45  61  80 105 139 175 206 238
#     4   9  16  26  40  58  80 105 132 163 200 242
#     4  10  18  28  42  60  82 108 135 166 207 250
#     4   8  15  27  43  60  78 101 131 167 206 246
#     4   8  14  25  40  56  76 103 135 167 197 234
#     4  11  20  28  40  59  83 110 138 168 201 240
#
# _framework density 15.412012000000001
#
# number of rings (size 3 to 8) (size 9 to 14) (size 15 to 20)
#    0.000    2.750    0.000    3.375    0.000    6.500 
#    0.000    0.000    0.000    0.000    0.000    0.000 
#    0.000    1.000    0.000    1.750    0.000    2.750 
#
# Total GULP energy -396484.439914 kJ/mol
# GULP energy per Si atom -12390.138747 kJ/mol
# Density = 1.537693 g / cm^3
# Si number density = 15.412012 Si / 1000 Ang^3
#
#
#
# Elastic Constant Matrix: (Units=GPa)
#
#
# Indices 1 2 3 4 5 6 
#
# 1 125.5429 48.6938 55.9278 0.0000 -4.8057 0.0000
# 2 48.6938 71.0386 28.2093 0.0000 -7.9375 0.0000
# 3 55.9278 28.2093 72.5600 0.0000 -13.4691 0.0000
# 4 0.0000 0.0000 0.0000 13.3469 0.0000 -1.3539
# 5 -4.8057 -7.9375 -13.4691 0.0000 21.9426 0.0000
# 6 0.0000 0.0000 0.0000 -1.3539 0.0000 26.8051
#
#
#
# Elastic Compliance Matrix: (Units=1/GPa)
#
#
# Indices 1 2 3 4 5 6 
#
# 1 0.014715 -0.006834 -0.009645 0.000000 -0.005170 0.000000
# 2 -0.006834 0.019925 -0.001601 0.000000 0.004728 0.000000
# 3 -0.009645 -0.001601 0.024082 0.000000 0.012091 0.000000
# 4 0.000000 0.000000 0.000000 0.075310 0.000000 0.003804
# 5 -0.005170 0.004728 0.012091 0.000000 0.053573 0.000000
# 6 0.000000 0.000000 0.000000 0.003804 0.000000 0.037498
#
#
# Mechanical properties :
#
#
# Convention : Reuss Voigt Hill
#
# Bulk Modulus (GPa) = 44.32037 59.42259 51.87148
# Shear Modulus (GPa) = 18.60222 21.50630 20.05426
#
# Velocity S-wave (km/s) = 3.47795 3.73959 3.61114
# Velocity P-wave (km/s) = 6.70430 7.56874 7.14960
#
# Compressibility (1/GPa) = 0.02256299
#
# Stress axis : x y z
#
# Youngs Moduli (GPa) = 67.95895 50.18701 41.52400
#
# Poissons Ratio (x) = 0.34298 0.40048
# Poissons Ratio (y) = 0.46444 0.06649
# Poissons Ratio (z) = 0.65543 0.08036
#
# Static dielectric constant tensor:
#      x y z
#    x 3.276120 0.000000 -0.234230 
#    y 0.000000 3.061980 0.000000 
#    z -0.234230 0.000000 2.971600 
# 
# 
# High freq. dielectric constant tensor:
#      x y z
#    x 1.593000 0.000000 -0.014210 
#    y 0.000000 1.599180 0.000000 
#    z -0.014210 0.000000 1.542300 
# 
# From -- ./inp_files/52912.got.cif
#   From: 2010.06.25/outbox.cif.g09.slc.cpg/sg11_27_cif.got.tgz:52912.got - 2010.06.27 23:14:04.
