data_PCOD8068470
_publ_section_title
;
Structure prediction by ZEFSAII (Michael W. Deem and Ramdas Pophale) SiO2 
 PCOD8068470
Probable space group: P 21/M
;
_chemical_formula_sum "Si O2"
_cell_formula_units_Z 24
_cell_length_a 8.165462
_cell_length_b 16.573815
_cell_length_c 18.035476
_cell_angle_alpha 90.000000
_cell_angle_beta 31.788393
_cell_angle_gamma 90.000000
_cell_volume 1285.769485
_symmetry_space_group_name_H-M "P 21/M"
_symmetry_group_IT_number 11
_symmetry_cell_setting 'monoclinic'
loop_
_space_group_symop_operation_xyz
x,y,z
-x,1/2+y,-z
-x,-y,-z
x,1/2-y,z
loop_
_atom_site_type_symbol
_atom_site_label
_atom_site_fract_x
_atom_site_fract_y
_atom_site_fract_z
Si Si1 0.459101 0.513845 0.179806
Si Si2 0.756133 0.058216 0.938711
Si Si3 0.785704 0.451628 0.423832
Si Si4 0.576184 0.660661 0.035175
Si Si5 0.229188 0.841730 0.701606
Si Si6 0.560768 0.498585 0.313539
O O1 0.562171 0.601837 0.111349
O O2 0.508882 0.508044 0.247299
O O3 0.103817 0.500747 0.293252
O O4 0.678654 0.445252 0.056636
O O5 0.693374 0.143793 0.923079
O O6 0.103237 0.029675 0.789242
O O7 0.500000 0.000000 0.000000
O O8 0.500000 0.500000 0.500000
O O9 0.814515 0.366955 0.368472
O O10 0.698968 0.445738 0.544919
O O11 0.523455 0.750000 0.086667
O O12 0.905110 0.651919 0.868648
O O13 0.359704 0.750000 0.654278
O O14 0.465504 0.904042 0.651760
#
# Coordination Sequence:
#
# PCOD8068470 Si02
#       6
#     4   4   4   4   4   4
#     4  11  20  35  58  82 112 142 180 226 277 326
#     4  10  17  34  55  78 103 142 186 216 259 322
#     4  10  20  37  57  80 105 146 189 216 263 337
#     4  10  19  34  56  82 108 144 189 232 268 312
#     4  10  19  35  56  81 108 145 187 229 268 317
#     4  11  21  35  57  85 111 145 180 224 276 333
#
# _framework density 18.665865
#
# number of rings (size 3 to 8) (size 9 to 14) (size 15 to 20)
#    0.000    1.667    5.000    4.000    0.000    0.000 
#    0.000   10.833    0.000    0.000    0.000    0.000 
#    0.000    0.000    0.000    0.000    0.000    0.000 
#
# Total GULP energy -297363.109424 kJ/mol
# GULP energy per Si atom -12390.129559 kJ/mol
# Density = 1.862338 g / cm^3
# Si number density = 18.665865 Si / 1000 Ang^3
#
#
#
# Elastic Constant Matrix: (Units=GPa)
#
#
# Indices 1 2 3 4 5 6 
#
# 1 74.0463 53.2508 21.0090 0.0000 27.9677 0.0000
# 2 53.2508 113.6928 48.9053 0.0000 17.9415 0.0000
# 3 21.0090 48.9053 96.6837 0.0000 17.0903 0.0000
# 4 0.0000 0.0000 0.0000 21.6499 0.0000 1.8297
# 5 27.9677 17.9415 17.0903 0.0000 45.7134 0.0000
# 6 0.0000 0.0000 0.0000 1.8297 0.0000 16.4149
#
#
#
# Elastic Compliance Matrix: (Units=1/GPa)
#
#
# Indices 1 2 3 4 5 6 
#
# 1 0.025213 -0.010831 0.002115 0.000000 -0.011966 0.000000
# 2 -0.010831 0.016156 -0.006284 0.000000 0.002635 0.000000
# 3 0.002115 -0.006284 0.013765 0.000000 -0.003973 0.000000
# 4 0.000000 0.000000 0.000000 0.046629 0.000000 -0.005198
# 5 -0.011966 0.002635 -0.003973 0.000000 0.029647 0.000000
# 6 0.000000 0.000000 0.000000 -0.005198 0.000000 0.061500
#
#
# Mechanical properties :
#
#
# Convention : Reuss Voigt Hill
#
# Bulk Modulus (GPa) = 39.78786 58.97256 49.38021
# Shear Modulus (GPa) = 21.61804 27.50617 24.56210
#
# Velocity S-wave (km/s) = 3.40687 3.84292 3.63145
# Velocity P-wave (km/s) = 6.06941 7.16611 6.64044
#
# Compressibility (1/GPa) = 0.02513329
#
# Stress axis : x y z
#
# Youngs Moduli (GPa) = 39.66133 61.89676 72.64986
#
# Poissons Ratio (x) = 0.67039 -0.15364
# Poissons Ratio (y) = 0.42956 0.45656
# Poissons Ratio (z) = -0.08388 0.38898
#
# Static dielectric constant tensor:
#      x y z
#    x 3.520530 0.000000 0.324810 
#    y 0.000000 3.658860 0.000000 
#    z 0.324810 0.000000 4.067790 
# 
# 
# High freq. dielectric constant tensor:
#      x y z
#    x 1.712830 0.000000 0.011160 
#    y 0.000000 1.691860 0.000000 
#    z 0.011160 0.000000 1.744810 
# 
# From -- ./inp_files/13188.got.cif
#   From: 2010.06.25/outbox.cif.g09.slc.cpg/sg11_7_cif.got.tgz:13188.got - 2010.06.27 23:14:04.
