data_PCOD8068249
_publ_section_title
;
Structure prediction by ZEFSAII (Michael W. Deem and Ramdas Pophale) SiO2 
 PCOD8068249
Probable space group: P 21/M
;
_chemical_formula_sum "Si O2"
_cell_formula_units_Z 32
_cell_length_a 17.187266
_cell_length_b 9.190071
_cell_length_c 19.174360
_cell_angle_alpha 90.000000
_cell_angle_beta 43.988536
_cell_angle_gamma 90.000000
_cell_volume 2103.428792
_symmetry_space_group_name_H-M "P 21/M"
_symmetry_group_IT_number 11
_symmetry_cell_setting 'monoclinic'
loop_
_space_group_symop_operation_xyz
x,y,z
-x,1/2+y,-z
-x,-y,-z
x,1/2-y,z
loop_
_atom_site_type_symbol
_atom_site_label
_atom_site_fract_x
_atom_site_fract_y
_atom_site_fract_z
Si Si1 0.764266 0.920467 0.083320
Si Si2 0.906639 0.080740 0.768585
Si Si3 0.322961 0.077453 0.090789
Si Si4 0.333732 0.920719 0.223464
Si Si5 0.916897 0.083011 0.603292
Si Si6 0.102471 0.581588 0.899560
Si Si7 0.435058 0.419587 0.878692
Si Si8 0.976233 0.915371 0.848533
O O1 0.759343 0.750000 0.104230
O O2 0.646602 0.984468 0.128270
O O3 0.785006 0.006781 0.142685
O O4 0.863063 0.953549 0.964329
O O5 0.879231 0.250000 0.798231
O O6 0.952791 0.056599 0.660457
O O7 0.798437 0.982819 0.849869
O O8 0.993072 0.022753 0.771486
O O9 0.317137 0.250000 0.104145
O O10 0.368931 0.005276 0.131309
O O11 0.403298 0.026516 0.976392
O O12 0.329174 0.750000 0.207524
O O13 0.210993 0.971759 0.328341
O O14 0.431634 0.953221 0.217807
O O15 0.926385 0.250000 0.576614
O O16 0.000000 0.000000 0.500000
O O17 0.100059 0.750000 0.922935
O O18 0.086538 0.564829 0.826313
O O19 0.000000 0.500000 0.000000
O O20 0.409993 0.250000 0.892123
O O21 0.969070 0.750000 0.826020
#
# Coordination Sequence:
#
# PCOD8068249 Si02
#       8
#     4   4   4   4   4   4   4   4
#     4   9  16  27  40  57  82 115 148 172 203 243
#     4  10  19  29  43  64  85 107 141 178 211 248
#     4  10  17  27  41  58  83 113 141 169 206 244
#     4   9  18  31  44  61  82 106 140 176 209 246
#     4   9  19  33  47  63  82 106 136 173 215 257
#     4   9  17  27  38  55  80 112 147 180 208 238
#     4   9  16  27  42  58  84 115 141 173 205 241
#     4   9  16  27  41  58  83 111 144 176 206 244
#
# _framework density 15.213257
#
# number of rings (size 3 to 8) (size 9 to 14) (size 15 to 20)
#    0.000    2.750    1.250    3.000    0.000    5.000 
#    0.000    1.250    0.000    0.000    0.000    0.000 
#    0.000    1.000    0.000    2.250    0.000    3.500 
#
# Total GULP energy -396477.427864 kJ/mol
# GULP energy per Si atom -12389.919621 kJ/mol
# Density = 1.517863 g / cm^3
# Si number density = 15.213257 Si / 1000 Ang^3
#
#
#
# Elastic Constant Matrix: (Units=GPa)
#
#
# Indices 1 2 3 4 5 6 
#
# 1 135.6413 41.9836 40.6289 0.0000 1.8386 0.0000
# 2 41.9836 53.8412 22.9764 0.0000 3.2218 0.0000
# 3 40.6289 22.9764 50.2198 0.0000 -3.0250 0.0000
# 4 0.0000 0.0000 0.0000 18.1770 0.0000 6.0450
# 5 1.8386 3.2218 -3.0250 0.0000 12.6455 0.0000
# 6 0.0000 0.0000 0.0000 6.0450 0.0000 25.3743
#
#
#
# Elastic Compliance Matrix: (Units=1/GPa)
#
#
# Indices 1 2 3 4 5 6 
#
# 1 0.011127 -0.005830 -0.006435 0.000000 -0.001672 0.000000
# 2 -0.005830 0.027078 -0.008154 0.000000 -0.008002 0.000000
# 3 -0.006435 -0.008154 0.029455 0.000000 0.010059 0.000000
# 4 0.000000 0.000000 0.000000 0.059748 0.000000 -0.014234
# 5 -0.001672 -0.008002 0.010059 0.000000 0.083768 0.000000
# 6 0.000000 0.000000 0.000000 -0.014234 0.000000 0.042801
#
#
# Mechanical properties :
#
#
# Convention : Reuss Voigt Hill
#
# Bulk Modulus (GPa) = 37.28363 50.09779 43.69071
# Shear Modulus (GPa) = 16.46058 20.18026 18.32042
#
# Velocity S-wave (km/s) = 3.29293 3.64605 3.47398
# Velocity P-wave (km/s) = 6.24647 7.12227 6.69870
#
# Compressibility (1/GPa) = 0.02682142
#
# Stress axis : x y z
#
# Youngs Moduli (GPa) = 89.86930 36.93071 33.94991
#
# Poissons Ratio (x) = 0.21532 0.21848
# Poissons Ratio (y) = 0.52397 0.27681
# Poissons Ratio (z) = 0.57835 0.30112
#
# Static dielectric constant tensor:
#      x y z
#    x 3.462450 0.000000 0.134730 
#    y 0.000000 2.931510 0.000000 
#    z 0.134730 0.000000 2.509740 
# 
# 
# High freq. dielectric constant tensor:
#      x y z
#    x 1.594990 0.000000 0.008840 
#    y 0.000000 1.582340 0.000000 
#    z 0.008840 0.000000 1.518790 
# 
# From -- ./inp_files/60670.got.cif
#   From: 2010.06.25/outbox.cif.g09.slc.cpg/sg11_31_cif.got.tgz:60670.got - 2010.06.27 23:14:04.
