data_PCOD8068030
_publ_section_title
;
Structure prediction by ZEFSAII (Michael W. Deem and Ramdas Pophale) SiO2 
 PCOD8068030
Probable space group: P 2/M
;
_chemical_formula_sum "Si O2"
_cell_formula_units_Z 24
_cell_length_a 19.709415
_cell_length_b 7.553249
_cell_length_c 25.257190
_cell_angle_alpha 90.000000
_cell_angle_beta 161.333239
_cell_angle_gamma 90.000000
_cell_volume 1203.451588
_symmetry_space_group_name_H-M "P 2/M"
_symmetry_group_IT_number 10
_symmetry_cell_setting 'monoclinic'
loop_
_space_group_symop_operation_xyz
x,y,z
-x,y,-z
-x,-y,-z
x,-y,z
loop_
_atom_site_type_symbol
_atom_site_label
_atom_site_fract_x
_atom_site_fract_y
_atom_site_fract_z
Si Si1 0.630804 0.289774 0.982951
Si Si2 0.039405 0.289777 0.687241
Si Si3 0.656534 0.000000 0.741479
Si Si4 0.427807 0.297322 0.627876
Si Si5 0.003735 0.000000 0.088662
Si Si6 0.771998 0.702677 0.972049
Si Si7 0.165656 0.711281 0.665648
O O1 0.624714 0.500000 0.980708
O O2 0.704313 0.227273 0.979512
O O3 0.794247 0.213756 0.147129
O O4 0.397787 0.213870 0.822993
O O5 0.048715 0.500000 0.692703
O O6 0.805096 0.227274 0.529872
O O7 0.098672 0.213865 0.673443
O O8 0.516496 0.176637 0.645850
O O9 0.755783 0.000000 0.755795
O O10 0.843817 0.000000 0.921912
O O11 0.426261 0.500000 0.606638
O O12 0.567857 0.276595 0.783941
O O13 0.966163 0.176633 0.095494
O O14 0.852311 0.500000 0.032668
O O15 0.166196 0.500000 0.666188
O O16 0.000000 0.783888 0.500000
#
# Coordination Sequence:
#
# PCOD8068030 Si02
#       7
#     4   4   2   4   2   4   4
#     4   9  16  26  42  66  97 132 168 204 243 287
#     4   9  16  26  42  66  97 132 168 204 243 287
#     4   9  18  32  51  76 101 124 157 203 250 295
#     4   9  17  30  49  72  98 129 164 201 243 291
#     4   9  18  32  51  76 101 124 157 203 250 295
#     4   9  17  30  49  72  98 129 164 201 243 291
#     4   9  15  23  39  66  99 132 168 207 243 284
#
# _framework density 19.942637999999999
#
# number of rings (size 3 to 8) (size 9 to 14) (size 15 to 20)
#    0.000    3.000    0.000    1.500    0.000    6.667 
#    0.000    4.167    0.000    3.000    0.000   11.667 
#    0.000    0.000    0.000    0.000    0.000    0.000 
#
# Total GULP energy -297560.181037 kJ/mol
# GULP energy per Si atom -12398.340877 kJ/mol
# Density = 1.989725 g / cm^3
# Si number density = 19.942638 Si / 1000 Ang^3
#
#
#
# Elastic Constant Matrix: (Units=GPa)
#
#
# Indices 1 2 3 4 5 6 
#
# 1 166.8779 52.7336 102.0040 0.0000 38.8922 0.0000
# 2 52.7336 71.2267 34.5105 0.0000 15.9273 0.0000
# 3 102.0040 34.5105 110.1874 0.0000 10.5830 0.0000
# 4 0.0000 0.0000 0.0000 -3.0818 0.0000 -11.0734
# 5 38.8922 15.9273 10.5830 0.0000 34.9300 0.0000
# 6 0.0000 0.0000 0.0000 -11.0734 0.0000 -15.7523
#
#
#
# Elastic Compliance Matrix: (Units=1/GPa)
#
#
# Indices 1 2 3 4 5 6 
#
# 1 0.021879 -0.003913 -0.017366 0.000000 -0.017315 0.000000
# 2 -0.003913 0.018644 -0.001874 0.000000 -0.003577 0.000000
# 3 -0.017366 -0.001874 0.024512 0.000000 0.012763 0.000000
# 4 0.000000 0.000000 0.000000 0.212654 0.000000 -0.149490
# 5 -0.017315 -0.003577 0.012763 0.000000 0.045672 0.000000
# 6 0.000000 0.000000 0.000000 -0.149490 0.000000 0.041604
#
#
# Mechanical properties :
#
#
# Convention : Reuss Voigt Hill
#
# Bulk Modulus (GPa) = 53.38547 80.75425 67.06986
# Shear Modulus (GPa) = 11.97567 13.82210 12.89888
#
# Velocity S-wave (km/s) = 2.45318 2.63552 2.54598
# Velocity P-wave (km/s) = 5.90354 7.05992 6.50747
#
# Compressibility (1/GPa) = 0.01873169
#
# Stress axis : x y z
#
# Youngs Moduli (GPa) = 45.70617 53.63603 40.79583
#
# Poissons Ratio (x) = 0.20985 0.70844
# Poissons Ratio (y) = 0.17883 0.07644
# Poissons Ratio (z) = 0.79371 0.10050
#
# Static dielectric constant tensor:
#      x y z
#    x 3.783590 0.000000 0.129800 
#    y 0.000000 3.324800 0.000000 
#    z 0.129800 0.000000 3.635050 
# 
# 
# High freq. dielectric constant tensor:
#      x y z
#    x 1.773810 0.000000 0.008700 
#    y 0.000000 1.757450 0.000000 
#    z 0.008700 0.000000 1.763850 
# 
# From -- ./inp_files/27383.got.cif
#   From: 2010.06.25/outbox.cif.g09.slc.cpg/sg10_14_cif.got.tgz:27383.got - 2010.06.27 22:07:45.
