data_PCOD8068602
_publ_section_title
;
Structure prediction by ZEFSAII (Michael W. Deem and Ramdas Pophale) SiO2 
 PCOD8068602
Probable space group: P 21/M
;
_chemical_formula_sum "Si O2"
_cell_formula_units_Z 28
_cell_length_a 11.769165
_cell_length_b 18.619458
_cell_length_c 20.024588
_cell_angle_alpha 90.000000
_cell_angle_beta 160.151284
_cell_angle_gamma 90.000000
_cell_volume 1489.924934
_symmetry_space_group_name_H-M "P 21/M"
_symmetry_group_IT_number 11
_symmetry_cell_setting 'monoclinic'
loop_
_space_group_symop_operation_xyz
x,y,z
-x,1/2+y,-z
-x,-y,-z
x,1/2-y,z
loop_
_atom_site_type_symbol
_atom_site_label
_atom_site_fract_x
_atom_site_fract_y
_atom_site_fract_z
Si Si1 0.718629 0.928294 0.742017
Si Si2 0.155960 0.550981 0.678679
Si Si3 0.195049 0.331473 0.760354
Si Si4 0.715499 0.045682 0.028799
Si Si5 0.293138 0.059904 0.453278
Si Si6 0.618722 0.167708 0.540833
Si Si7 0.775710 0.409441 0.425556
O O1 0.648928 0.854045 0.664027
O O2 0.604175 0.920344 0.755929
O O3 0.113357 0.945450 0.950923
O O4 0.490330 0.988142 0.579813
O O5 0.241774 0.603851 0.663973
O O6 0.902964 0.590228 0.589777
O O7 0.997194 0.478769 0.562421
O O8 0.490491 0.526146 0.903237
O O9 0.325711 0.250000 0.829052
O O10 0.989617 0.344710 0.715482
O O11 0.955245 0.344159 0.563390
O O12 0.511697 0.383472 0.935805
O O13 0.018414 0.035444 0.247445
O O14 0.550222 0.120445 0.569459
O O15 0.561826 0.250000 0.529217
#
# Coordination Sequence:
#
# PCOD8068602 Si02
#       7
#     4   4   4   4   4   4   4
#     4   9  18  31  49  70  97 128 160 194 238 285
#     4   9  17  29  47  69  96 123 156 197 231 273
#     4   9  18  32  50  69  91 121 157 201 243 282
#     4  10  18  27  46  74  99 123 155 199 242 278
#     4  10  19  31  47  71 101 132 159 190 239 290
#     4   9  17  30  46  65  91 122 157 194 235 283
#     4   8  16  32  48  67  91 123 160 191 232 280
#
# _framework density 18.792894
#
# number of rings (size 3 to 8) (size 9 to 14) (size 15 to 20)
#    0.000    2.857    0.000    3.000    0.000    4.000 
#    0.000    0.714    0.000    0.000    0.000    4.000 
#    0.000    0.000    0.000    0.000    0.000    0.000 
#
# Total GULP energy -346932.533625 kJ/mol
# GULP energy per Si atom -12390.447629 kJ/mol
# Density = 1.875012 g / cm^3
# Si number density = 18.792894 Si / 1000 Ang^3
#
#
#
# Elastic Constant Matrix: (Units=GPa)
#
#
# Indices 1 2 3 4 5 6 
#
# 1 144.0637 41.3696 37.7283 0.0000 23.1870 0.0000
# 2 41.3696 57.2094 22.4898 0.0000 9.4031 0.0000
# 3 37.7283 22.4898 50.9825 0.0000 23.9186 0.0000
# 4 0.0000 0.0000 0.0000 13.0395 0.0000 8.3676
# 5 23.1870 9.4031 23.9186 0.0000 28.2013 0.0000
# 6 0.0000 0.0000 0.0000 8.3676 0.0000 21.4648
#
#
#
# Elastic Compliance Matrix: (Units=1/GPa)
#
#
# Indices 1 2 3 4 5 6 
#
# 1 0.009898 -0.005262 -0.003336 0.000000 -0.003554 0.000000
# 2 -0.005262 0.023979 -0.008242 0.000000 0.003322 0.000000
# 3 -0.003336 -0.008242 0.038438 0.000000 -0.027109 0.000000
# 4 0.000000 0.000000 0.000000 0.102275 0.000000 -0.039870
# 5 -0.003554 0.003322 -0.027109 0.000000 0.060266 0.000000
# 6 0.000000 0.000000 0.000000 -0.039870 0.000000 0.062130
#
#
# Mechanical properties :
#
#
# Convention : Reuss Voigt Hill
#
# Bulk Modulus (GPa) = 25.88383 50.60345 38.24364
# Shear Modulus (GPa) = 14.55413 22.58565 18.56989
#
# Velocity S-wave (km/s) = 2.78591 3.47049 3.14687
# Velocity P-wave (km/s) = 4.91442 6.56082 5.79637
#
# Compressibility (1/GPa) = 0.03863415
#
# Stress axis : x y z
#
# Youngs Moduli (GPa) = 101.02894 41.70353 26.01613
#
# Poissons Ratio (x) = 0.21944 0.08680
# Poissons Ratio (y) = 0.53161 0.21443
# Poissons Ratio (z) = 0.33706 0.34372
#
# Static dielectric constant tensor:
#      x y z
#    x 4.058120 0.000000 0.387650 
#    y 0.000000 3.197430 0.000000 
#    z 0.387650 0.000000 3.298280 
# 
# 
# High freq. dielectric constant tensor:
#      x y z
#    x 1.742970 0.000000 0.035000 
#    y 0.000000 1.695160 0.000000 
#    z 0.035000 0.000000 1.703770 
# 
# From -- ./inp_files/64889.got.cif
#   From: 2010.06.25/outbox.cif.g09.slc.cpg/sg11_33_cif.got.tgz:64889.got - 2010.06.27 23:14:04.
