data_PCOD8068497
_publ_section_title
;
Structure prediction by ZEFSAII (Michael W. Deem and Ramdas Pophale) SiO2 
 PCOD8068497
Probable space group: P 21/M
;
_chemical_formula_sum "Si O2"
_cell_formula_units_Z 32
_cell_length_a 14.273098
_cell_length_b 9.045998
_cell_length_c 16.220740
_cell_angle_alpha 90.000000
_cell_angle_beta 98.085859
_cell_angle_gamma 90.000000
_cell_volume 2073.510373
_symmetry_space_group_name_H-M "P 21/M"
_symmetry_group_IT_number 11
_symmetry_cell_setting 'monoclinic'
loop_
_space_group_symop_operation_xyz
x,y,z
-x,1/2+y,-z
-x,-y,-z
x,1/2-y,z
loop_
_atom_site_type_symbol
_atom_site_label
_atom_site_fract_x
_atom_site_fract_y
_atom_site_fract_z
Si Si1 0.947934 0.079541 0.567435
Si Si2 0.217156 0.078347 0.515036
Si Si3 0.548063 0.082865 0.886320
Si Si4 0.738702 0.421528 0.188441
Si Si5 0.433177 0.075230 0.557620
Si Si6 0.355846 0.083392 0.964819
Si Si7 0.449525 0.923034 0.733237
Si Si8 0.129784 0.080336 0.678495
O O1 0.935856 0.250000 0.543556
O O2 0.015630 0.060292 0.655987
O O3 0.843514 0.007575 0.563038
O O4 0.000000 0.000000 0.500000
O O5 0.197733 0.250000 0.499385
O O6 0.326338 0.036795 0.517925
O O7 0.182501 0.029246 0.601417
O O8 0.577781 0.250000 0.866926
O O9 0.453930 0.083978 0.928622
O O10 0.531476 0.987792 0.801937
O O11 0.632246 0.006609 0.948603
O O12 0.748526 0.250000 0.169516
O O13 0.723997 0.505323 0.100369
O O14 0.652541 0.453849 0.239754
O O15 0.834785 0.479862 0.242017
O O16 0.450199 0.250000 0.562829
O O17 0.500000 0.000000 0.500000
O O18 0.456548 0.008287 0.648840
O O19 0.323490 0.250000 0.981136
O O20 0.467842 0.750000 0.721917
O O21 0.156308 0.250000 0.700717
#
# Coordination Sequence:
#
# PCOD8068497 Si02
#       8
#     4   4   4   4   4   4   4   4
#     4   9  17  27  41  60  81 105 136 171 208 251
#     4   9  18  31  45  59  79 106 137 175 216 256
#     4   9  16  26  40  56  76 103 136 172 207 245
#     4  10  18  25  38  59  82 109 141 174 205 245
#     4  11  22  35  48  63  83 108 142 183 225 261
#     4   9  16  25  37  54  78 107 136 169 205 243
#     4  10  19  30  43  60  79 105 141 176 214 255
#     4   9  16  27  40  58  82 109 138 170 208 249
#
# _framework density 15.432767
#
# number of rings (size 3 to 8) (size 9 to 14) (size 15 to 20)
#    0.000    2.500    1.250    3.000    0.000    7.500 
#    0.000    0.000    0.000    0.000    0.000    0.000 
#    0.000    0.000    0.000    1.125    0.000   15.250 
#
# Total GULP energy -396715.606207 kJ/mol
# GULP energy per Si atom -12397.362694 kJ/mol
# Density = 1.539764 g / cm^3
# Si number density = 15.432767 Si / 1000 Ang^3
#
#
#
# Elastic Constant Matrix: (Units=GPa)
#
#
# Indices 1 2 3 4 5 6 
#
# 1 63.6565 43.5612 48.2933 0.0000 20.9145 0.0000
# 2 43.5612 104.7652 60.2234 0.0000 21.1016 0.0000
# 3 48.2933 60.2234 87.1621 0.0000 30.3813 0.0000
# 4 0.0000 0.0000 0.0000 30.6637 0.0000 8.7903
# 5 20.9145 21.1016 30.3813 0.0000 24.1528 0.0000
# 6 0.0000 0.0000 0.0000 8.7903 0.0000 21.2814
#
#
#
# Elastic Compliance Matrix: (Units=1/GPa)
#
#
# Indices 1 2 3 4 5 6 
#
# 1 0.029381 -0.004727 -0.009944 0.000000 -0.008803 0.000000
# 2 -0.004727 0.016595 -0.009296 0.000000 0.001288 0.000000
# 3 -0.009944 -0.009296 0.031294 0.000000 -0.022631 0.000000
# 4 0.000000 0.000000 0.000000 0.036992 0.000000 -0.015280
# 5 -0.008803 0.001288 -0.022631 0.000000 0.076368 0.000000
# 6 0.000000 0.000000 0.000000 -0.015280 0.000000 0.053301
#
#
# Mechanical properties :
#
#
# Convention : Reuss Voigt Hill
#
# Bulk Modulus (GPa) = 34.08887 62.19330 48.14109
# Shear Modulus (GPa) = 16.57590 22.11998 19.34794
#
# Velocity S-wave (km/s) = 3.28086 3.79002 3.54459
# Velocity P-wave (km/s) = 6.04058 7.71617 6.92921
#
# Compressibility (1/GPa) = 0.02933508
#
# Stress axis : x y z
#
# Youngs Moduli (GPa) = 34.03613 60.25964 31.95500
#
# Poissons Ratio (x) = 0.28484 0.31777
# Poissons Ratio (y) = 0.16088 0.29705
# Poissons Ratio (z) = 0.33847 0.56016
#
# Static dielectric constant tensor:
#      x y z
#    x 3.095700 0.000000 0.705050 
#    y 0.000000 3.181290 0.000000 
#    z 0.705050 0.000000 2.902970 
# 
# 
# High freq. dielectric constant tensor:
#      x y z
#    x 1.542710 0.000000 0.046280 
#    y 0.000000 1.610960 0.000000 
#    z 0.046280 0.000000 1.572560 
# 
# From -- ./inp_files/51243.got.cif
#   From: 2010.06.25/outbox.cif.g09.slc.cpg/sg11_26_cif.got.tgz:51243.got - 2010.06.27 23:14:04.
