data_PCOD8068150
_publ_section_title
;
Structure prediction by ZEFSAII (Michael W. Deem and Ramdas Pophale) SiO2 
 PCOD8068150
Probable space group: P 21/M
;
_chemical_formula_sum "Si O2"
_cell_formula_units_Z 32
_cell_length_a 26.304434
_cell_length_b 14.795855
_cell_length_c 10.274428
_cell_angle_alpha 90.000000
_cell_angle_beta 154.256693
_cell_angle_gamma 90.000000
_cell_volume 1736.826943
_symmetry_space_group_name_H-M "P 21/M"
_symmetry_group_IT_number 11
_symmetry_cell_setting 'monoclinic'
loop_
_space_group_symop_operation_xyz
x,y,z
-x,1/2+y,-z
-x,-y,-z
x,1/2-y,z
loop_
_atom_site_type_symbol
_atom_site_label
_atom_site_fract_x
_atom_site_fract_y
_atom_site_fract_z
Si Si1 0.746234 0.644660 0.796890
Si Si2 0.262069 0.644433 0.249183
Si Si3 0.012014 0.653007 0.713077
Si Si4 0.994256 0.593223 0.405619
Si Si5 0.436733 0.004795 0.717921
Si Si6 0.758477 0.643849 0.129937
Si Si7 0.766750 0.145374 0.120880
Si Si8 0.593063 0.495432 0.829106
O O1 0.732689 0.750000 0.731615
O O2 0.650171 0.590040 0.493385
O O3 0.873668 0.606556 0.048235
O O4 0.730029 0.625454 0.913118
O O5 0.275062 0.750000 0.313701
O O6 0.367992 0.589562 0.553129
O O7 0.138426 0.604854 0.025604
O O8 0.266815 0.628779 0.106152
O O9 0.016370 0.750000 0.792939
O O10 0.002130 0.671212 0.533861
O O11 0.889463 0.605125 0.470686
O O12 0.000000 0.500000 0.500000
O O13 0.102139 0.606016 0.554438
O O14 0.533304 0.014343 0.829713
O O15 0.500000 0.000000 0.000000
O O16 0.748873 0.750000 0.140189
O O17 0.666121 0.588721 0.001501
O O18 0.758700 0.250000 0.142756
O O19 0.677355 0.090477 0.004566
O O20 0.500000 0.500000 0.500000
#
# Coordination Sequence:
#
# PCOD8068150 Si02
#       8
#     4   4   4   4   4   4   4   4
#     4  10  19  34  56  82 112 148 185 227 279 338
#     4   9  17  33  57  82 108 139 178 227 280 332
#     4   8  14  26  48  81 110 128 160 213 276 330
#     4  10  16  26  52  85 119 141 168 220 288 338
#     4  12  26  40  52  74 109 152 197 232 270 331
#     4   9  17  31  56  87 112 133 168 228 289 335
#     4  10  19  32  55  87 115 140 177 232 287 337
#     4  12  22  36  54  78 109 147 190 226 276 331
#
# _framework density 18.424403999999999
#
# number of rings (size 3 to 8) (size 9 to 14) (size 15 to 20)
#    0.000    2.000    2.500    5.625    0.000    2.000 
#    0.000    0.000    0.000    3.000    0.000    3.500 
#    0.000    0.000    0.000    0.000    0.000    0.000 
#
# Total GULP energy -396441.553363 kJ/mol
# GULP energy per Si atom -12388.798543 kJ/mol
# Density = 1.838247 g / cm^3
# Si number density = 18.424404 Si / 1000 Ang^3
#
#
#
# Elastic Constant Matrix: (Units=GPa)
#
#
# Indices 1 2 3 4 5 6 
#
# 1 89.3022 43.2644 74.1838 0.0000 22.6741 0.0000
# 2 43.2644 124.5415 64.9875 0.0000 17.0635 0.0000
# 3 74.1838 64.9875 129.2270 0.0000 25.2239 0.0000
# 4 0.0000 0.0000 0.0000 28.2934 0.0000 9.2225
# 5 22.6741 17.0635 25.2239 0.0000 31.5541 0.0000
# 6 0.0000 0.0000 0.0000 9.2225 0.0000 16.4715
#
#
#
# Elastic Compliance Matrix: (Units=1/GPa)
#
#
# Indices 1 2 3 4 5 6 
#
# 1 0.022747 -0.001151 -0.011150 0.000000 -0.006810 0.000000
# 2 -0.001151 0.011030 -0.004602 0.000000 -0.001460 0.000000
# 3 -0.011150 -0.004602 0.017067 0.000000 -0.003142 0.000000
# 4 0.000000 0.000000 0.000000 0.043235 0.000000 -0.024208
# 5 -0.006810 -0.001460 -0.003142 0.000000 0.039886 0.000000
# 6 0.000000 0.000000 0.000000 -0.024208 0.000000 0.074265
#
#
# Mechanical properties :
#
#
# Convention : Reuss Voigt Hill
#
# Bulk Modulus (GPa) = 58.68921 78.66024 68.67473
# Shear Modulus (GPa) = 20.18453 25.97280 23.07867
#
# Velocity S-wave (km/s) = 3.31347 3.75866 3.54307
# Velocity P-wave (km/s) = 6.82364 7.85003 7.35476
#
# Compressibility (1/GPa) = 0.01703891
#
# Stress axis : x y z
#
# Youngs Moduli (GPa) = 43.96188 90.65884 58.59395
#
# Poissons Ratio (x) = 0.10432 0.65333
# Poissons Ratio (y) = 0.05059 0.26963
# Poissons Ratio (z) = 0.49018 0.41718
#
# Static dielectric constant tensor:
#      x y z
#    x 2.645570 0.000000 0.504750 
#    y 0.000000 3.418350 0.000000 
#    z 0.504750 0.000000 3.493420 
# 
# 
# High freq. dielectric constant tensor:
#      x y z
#    x 1.664760 0.000000 0.055260 
#    y 0.000000 1.730310 0.000000 
#    z 0.055260 0.000000 1.700470 
# 
# From -- ./inp_files/27795.got.cif
#   From: 2010.06.25/outbox.cif.g09.slc.cpg/sg11_14_cif.got.tgz:27795.got - 2010.06.27 23:14:04.
