data_PCOD8068884
_publ_section_title
;
Structure prediction by ZEFSAII (Michael W. Deem and Ramdas Pophale) SiO2 
 PCOD8068884
Probable space group: P 21/M
;
_chemical_formula_sum "Si O2"
_cell_formula_units_Z 32
_cell_length_a 12.590791
_cell_length_b 9.285431
_cell_length_c 31.869031
_cell_angle_alpha 90.000000
_cell_angle_beta 27.313589
_cell_angle_gamma 90.000000
_cell_volume 1709.639026
_symmetry_space_group_name_H-M "P 21/M"
_symmetry_group_IT_number 11
_symmetry_cell_setting 'monoclinic'
loop_
_space_group_symop_operation_xyz
x,y,z
-x,1/2+y,-z
-x,-y,-z
x,1/2-y,z
loop_
_atom_site_type_symbol
_atom_site_label
_atom_site_fract_x
_atom_site_fract_y
_atom_site_fract_z
Si Si1 0.198469 0.091770 0.505511
Si Si2 0.103164 0.583057 0.002602
Si Si3 0.721810 0.078221 0.702955
Si Si4 0.033885 0.581253 0.243891
Si Si5 0.638502 0.579549 0.818652
Si Si6 0.294353 0.080944 0.798329
Si Si7 0.283731 0.095523 0.571934
Si Si8 0.636956 0.921164 0.318967
O O1 0.237482 0.250000 0.470994
O O2 0.202950 0.109025 0.553512
O O3 0.930344 0.039469 0.596147
O O4 0.392068 0.982839 0.421207
O O5 0.068597 0.750000 0.004753
O O6 0.367827 0.543221 0.917005
O O7 0.000000 0.500000 0.000000
O O8 0.957722 0.539722 0.095254
O O9 0.717436 0.250000 0.713582
O O10 0.491232 0.021852 0.760534
O O11 0.740327 0.994989 0.740765
O O12 0.095994 0.750000 0.217000
O O13 0.264587 0.486039 0.170699
O O14 0.918383 0.536294 0.328353
O O15 0.860061 0.529087 0.268055
O O16 0.687801 0.750000 0.799317
O O17 0.327477 0.250000 0.782365
O O18 0.320256 0.016268 0.742504
O O19 0.355286 0.250000 0.565731
O O20 0.500000 0.000000 0.500000
O O21 0.613775 0.750000 0.329323
#
# Coordination Sequence:
#
# PCOD8068884 Si02
#       8
#     4   4   4   4   4   4   4   4
#     4  10  20  32  49  77 110 144 182 224 274 322
#     4  10  20  36  60  87 111 138 174 222 277 328
#     4  10  19  35  57  80 110 148 181 214 274 337
#     4  10  20  35  53  75 108 148 187 222 265 326
#     4  11  22  33  53  88 116 134 173 231 282 319
#     4   9  19  37  60  80 106 145 183 222 268 328
#     4  10  18  29  47  73 102 136 181 227 268 312
#     4  10  21  37  56  78 105 148 197 224 255 319
#
# _framework density 18.717402
#
# number of rings (size 3 to 8) (size 9 to 14) (size 15 to 20)
#    0.000    2.000    3.750    0.375    0.000    2.500 
#    0.000    1.875    0.000    0.000    0.000    0.000 
#    0.000    0.000    0.000    0.000    0.000    0.000 
#
# Total GULP energy -396442.455227 kJ/mol
# GULP energy per Si atom -12388.826726 kJ/mol
# Density = 1.867480 g / cm^3
# Si number density = 18.717402 Si / 1000 Ang^3
#
#
#
# Elastic Constant Matrix: (Units=GPa)
#
#
# Indices 1 2 3 4 5 6 
#
# 1 92.8991 30.6488 47.3504 0.0000 -6.7841 0.0000
# 2 30.6488 48.1542 31.3813 0.0000 -10.4036 0.0000
# 3 47.3504 31.3813 99.8584 0.0000 -11.4442 0.0000
# 4 0.0000 0.0000 0.0000 22.9530 0.0000 -5.6895
# 5 -6.7841 -10.4036 -11.4442 0.0000 32.0173 0.0000
# 6 0.0000 0.0000 0.0000 -5.6895 0.0000 21.7759
#
#
#
# Elastic Compliance Matrix: (Units=1/GPa)
#
#
# Indices 1 2 3 4 5 6 
#
# 1 0.015654 -0.006582 -0.005442 0.000000 -0.000767 0.000000
# 2 -0.006582 0.029954 -0.005564 0.000000 0.006350 0.000000
# 3 -0.005442 -0.005564 0.014602 0.000000 0.002258 0.000000
# 4 0.000000 0.000000 0.000000 0.046584 0.000000 0.012171
# 5 -0.000767 0.006350 0.002258 0.000000 0.033941 0.000000
# 6 0.000000 0.000000 0.000000 0.012171 0.000000 0.049103
#
#
# Mechanical properties :
#
#
# Convention : Reuss Voigt Hill
#
# Bulk Modulus (GPa) = 39.94835 51.07476 45.51155
# Shear Modulus (GPa) = 21.42616 24.11797 22.77206
#
# Velocity S-wave (km/s) = 3.38704 3.59351 3.49180
# Velocity P-wave (km/s) = 6.05684 6.67565 6.37376
#
# Compressibility (1/GPa) = 0.02503232
#
# Stress axis : x y z
#
# Youngs Moduli (GPa) = 63.88244 33.38430 68.48344
#
# Poissons Ratio (x) = 0.21975 0.37268
# Poissons Ratio (y) = 0.42051 0.38107
# Poissons Ratio (z) = 0.34764 0.18576
#
# Static dielectric constant tensor:
#      x y z
#    x 3.546510 0.000000 -0.149490 
#    y 0.000000 3.302690 0.000000 
#    z -0.149490 0.000000 3.636680 
# 
# 
# High freq. dielectric constant tensor:
#      x y z
#    x 1.725950 0.000000 -0.016760 
#    y 0.000000 1.706150 0.000000 
#    z -0.016760 0.000000 1.726510 
# 
# From -- ./inp_files/73044.got.cif
#   From: 2010.06.25/outbox.cif.g09.slc.cpg/sg11_37_cif.got.tgz:73044.got - 2010.06.27 23:14:04.
