data_PCOD8068483
_publ_section_title
;
Structure prediction by ZEFSAII (Michael W. Deem and Ramdas Pophale) SiO2 
 PCOD8068483
Probable space group: P 21/M
;
_chemical_formula_sum "Si O2"
_cell_formula_units_Z 28
_cell_length_a 11.474182
_cell_length_b 14.911279
_cell_length_c 9.511362
_cell_angle_alpha 90.000000
_cell_angle_beta 115.703170
_cell_angle_gamma 90.000000
_cell_volume 1466.323151
_symmetry_space_group_name_H-M "P 21/M"
_symmetry_group_IT_number 11
_symmetry_cell_setting 'monoclinic'
loop_
_space_group_symop_operation_xyz
x,y,z
-x,1/2+y,-z
-x,-y,-z
x,1/2-y,z
loop_
_atom_site_type_symbol
_atom_site_label
_atom_site_fract_x
_atom_site_fract_y
_atom_site_fract_z
Si Si1 0.852704 0.032766 0.824662
Si Si2 0.633073 0.489935 0.486691
Si Si3 0.331909 0.576942 0.029931
Si Si4 0.343052 0.123933 0.983591
Si Si5 0.918821 0.646772 0.993308
Si Si6 0.614631 0.346203 0.231549
Si Si7 0.590491 0.848744 0.286379
O O1 0.746814 0.039113 0.648983
O O2 0.797648 0.068114 0.945747
O O3 0.899864 0.928248 0.859576
O O4 0.967964 0.103137 0.849885
O O5 0.500000 0.500000 0.500000
O O6 0.627972 0.417019 0.362073
O O7 0.661861 0.586306 0.433412
O O8 0.442309 0.623212 0.181103
O O9 0.380988 0.479397 0.013969
O O10 0.306823 0.627670 0.869591
O O11 0.328103 0.151869 0.814270
O O12 0.212471 0.153805 0.988921
O O13 0.464580 0.172005 0.117848
O O14 0.952263 0.750000 0.960440
O O15 0.670444 0.250000 0.311648
O O16 0.590724 0.750000 0.354317
#
# Coordination Sequence:
#
# PCOD8068483 Si02
#       7
#     4   4   4   4   4   4   4
#     4  10  23  38  62  86 115 156 192 235 296 339
#     4  12  22  39  54  87 127 150 179 238 302 352
#     4  10  17  37  59  82 117 151 194 236 282 343
#     4  10  17  35  60  83 112 153 197 240 279 337
#     4  10  21  39  61  84 111 152 204 243 274 337
#     4  11  21  34  59  89 117 153 191 235 294 349
#     4  11  20  32  57  87 116 152 191 235 290 345
#
# _framework density 19.095379999999999
#
# number of rings (size 3 to 8) (size 9 to 14) (size 15 to 20)
#    0.000    1.429    4.286    4.286    0.000    2.857 
#    0.000    0.714    0.000    0.000    0.000    0.000 
#    0.000    0.000    0.000    0.000    0.000    0.000 
#
# Total GULP energy -346977.392081 kJ/mol
# GULP energy per Si atom -12392.049717 kJ/mol
# Density = 1.905192 g / cm^3
# Si number density = 19.095380 Si / 1000 Ang^3
#
#
#
# Elastic Constant Matrix: (Units=GPa)
#
#
# Indices 1 2 3 4 5 6 
#
# 1 50.9642 30.2814 40.1643 0.0000 2.6619 0.0000
# 2 30.2814 163.3884 42.4520 0.0000 -13.2634 0.0000
# 3 40.1643 42.4520 107.8246 0.0000 2.6873 0.0000
# 4 0.0000 0.0000 0.0000 -2.4241 0.0000 9.1647
# 5 2.6619 -13.2634 2.6873 0.0000 14.8654 0.0000
# 6 0.0000 0.0000 0.0000 9.1647 0.0000 10.5007
#
#
#
# Elastic Compliance Matrix: (Units=1/GPa)
#
#
# Indices 1 2 3 4 5 6 
#
# 1 0.029524 -0.003574 -0.009422 0.000000 -0.006772 0.000000
# 2 -0.003574 0.007962 -0.002006 0.000000 0.008106 0.000000
# 3 -0.009422 -0.002006 0.013638 0.000000 -0.002568 0.000000
# 4 0.000000 0.000000 0.000000 -0.095944 0.000000 0.083737
# 5 -0.006772 0.008106 -0.002568 0.000000 0.076180 0.000000
# 6 0.000000 0.000000 0.000000 0.083737 0.000000 0.022149
#
#
# Mechanical properties :
#
#
# Convention : Reuss Voigt Hill
#
# Bulk Modulus (GPa) = 47.34540 60.88583 54.11562
# Shear Modulus (GPa) = 55.21807 18.54036 36.87921
#
# Velocity S-wave (km/s) = 5.38328 3.11936 4.39944
# Velocity P-wave (km/s) = 7.96791 6.70285 7.36260
#
# Compressibility (1/GPa) = 0.02112138
#
# Stress axis : x y z
#
# Youngs Moduli (GPa) = 33.87096 125.59936 73.32705
#
# Poissons Ratio (x) = 0.44883 0.69087
# Poissons Ratio (y) = 0.12104 0.14706
# Poissons Ratio (z) = 0.31913 0.25190
#
# Static dielectric constant tensor:
#      x y z
#    x 3.433470 0.000000 -0.046370 
#    y 0.000000 3.642460 0.000000 
#    z -0.046370 0.000000 3.387010 
# 
# 
# High freq. dielectric constant tensor:
#      x y z
#    x 1.728250 0.000000 -0.008660 
#    y 0.000000 1.767050 0.000000 
#    z -0.008660 0.000000 1.714580 
# 
# From -- ./inp_files/17822.got.cif
#   From: 2010.06.25/outbox.cif.g09.slc.cpg/sg11_9_cif.got.tgz:17822.got - 2010.06.27 23:14:04.
