data_PCOD8068209
_publ_section_title
;
Structure prediction by ZEFSAII (Michael W. Deem and Ramdas Pophale) SiO2 
 PCOD8068209
Probable space group: P 21/M
;
_chemical_formula_sum "Si O2"
_cell_formula_units_Z 32
_cell_length_a 27.909345
_cell_length_b 9.026888
_cell_length_c 23.106873
_cell_angle_alpha 90.000000
_cell_angle_beta 161.129196
_cell_angle_gamma 90.000000
_cell_volume 1882.852373
_symmetry_space_group_name_H-M "P 21/M"
_symmetry_group_IT_number 11
_symmetry_cell_setting 'monoclinic'
loop_
_space_group_symop_operation_xyz
x,y,z
-x,1/2+y,-z
-x,-y,-z
x,1/2-y,z
loop_
_atom_site_type_symbol
_atom_site_label
_atom_site_fract_x
_atom_site_fract_y
_atom_site_fract_z
Si Si1 0.290246 0.421582 0.532879
Si Si2 0.834093 0.422760 0.502564
Si Si3 0.372913 0.576244 0.519186
Si Si4 0.470389 0.922703 0.906013
Si Si5 0.123303 0.920150 0.812482
Si Si6 0.481824 0.082550 0.538987
Si Si7 0.402939 0.580094 0.054210
Si Si8 0.654316 0.416524 0.841455
O O1 0.252418 0.250000 0.481669
O O2 0.177364 0.489461 0.450346
O O3 0.261261 0.504689 0.438436
O O4 0.457660 0.449683 0.745146
O O5 0.841924 0.250000 0.525394
O O6 0.696793 0.460836 0.304215
O O7 0.982894 0.475929 0.640268
O O8 0.345078 0.750000 0.481820
O O9 0.358905 0.499179 0.439438
O O10 0.537540 0.537791 0.731929
O O11 0.496271 0.750000 0.943205
O O12 0.586402 0.980931 0.990983
O O13 0.500000 0.000000 0.000000
O O14 0.074845 0.750000 0.749309
O O15 0.253114 0.963664 0.916382
O O16 0.183944 0.950016 0.947609
O O17 0.428990 0.250000 0.466575
O O18 0.640738 0.080844 0.755417
O O19 0.500000 0.000000 0.500000
O O20 0.399370 0.750000 0.030130
O O21 0.606713 0.250000 0.809125
#
# Coordination Sequence:
#
# PCOD8068209 Si02
#       8
#     4   4   4   4   4   4   4   4
#     4  10  17  31  50  70  96 130 165 202 244 293
#     4  10  22  35  49  76 105 127 157 205 249 291
#     4  10  17  25  42  68  96 126 160 201 246 288
#     4  10  21  37  55  74  98 127 165 203 243 289
#     4  10  18  33  52  75 102 133 164 195 245 301
#     4   9  16  27  41  64  97 130 166 209 248 290
#     4   9  17  31  53  75  97 126 163 200 241 288
#     4   8  16  29  44  65  97 130 162 199 239 287
#
# _framework density 16.995491000000001
#
# number of rings (size 3 to 8) (size 9 to 14) (size 15 to 20)
#    0.750    1.750    1.250    2.250    0.000    3.000 
#    0.000    0.625    0.000    0.000    0.000    0.875 
#    0.000    0.000    0.000    0.000    0.000    0.000 
#
# Total GULP energy -396483.137442 kJ/mol
# GULP energy per Si atom -12390.098045 kJ/mol
# Density = 1.695681 g / cm^3
# Si number density = 16.995491 Si / 1000 Ang^3
#
#
#
# Elastic Constant Matrix: (Units=GPa)
#
#
# Indices 1 2 3 4 5 6 
#
# 1 118.3777 58.4936 33.1619 0.0000 -4.2582 0.0000
# 2 58.4936 105.9567 27.2458 0.0000 -1.2373 0.0000
# 3 33.1619 27.2458 54.8092 0.0000 10.1830 0.0000
# 4 0.0000 0.0000 0.0000 22.2715 0.0000 1.5380
# 5 -4.2582 -1.2373 10.1830 0.0000 21.9809 0.0000
# 6 0.0000 0.0000 0.0000 1.5380 0.0000 36.3681
#
#
#
# Elastic Compliance Matrix: (Units=1/GPa)
#
#
# Indices 1 2 3 4 5 6 
#
# 1 0.013104 -0.005613 -0.006074 0.000000 0.005036 0.000000
# 2 -0.005613 0.013462 -0.003539 0.000000 0.001310 0.000000
# 3 -0.006074 -0.003539 0.026189 0.000000 -0.013508 0.000000
# 4 0.000000 0.000000 0.000000 0.045032 0.000000 -0.001904
# 5 0.005036 0.001310 -0.013508 0.000000 0.052801 0.000000
# 6 0.000000 0.000000 0.000000 -0.001904 0.000000 0.027577
#
#
# Mechanical properties :
#
#
# Convention : Reuss Voigt Hill
#
# Bulk Modulus (GPa) = 44.83774 57.43846 51.13810
# Shear Modulus (GPa) = 23.14261 26.80691 24.97476
#
# Velocity S-wave (km/s) = 3.69411 3.97583 3.83756
# Velocity P-wave (km/s) = 6.68092 7.41255 7.05623
#
# Compressibility (1/GPa) = 0.02230264
#
# Stress axis : x y z
#
# Youngs Moduli (GPa) = 76.31318 74.28294 38.18411
#
# Poissons Ratio (x) = 0.41698 0.23192
# Poissons Ratio (y) = 0.42838 0.13513
# Poissons Ratio (z) = 0.46350 0.26289
#
# Static dielectric constant tensor:
#      x y z
#    x 3.204130 0.000000 -0.008780 
#    y 0.000000 3.194170 0.000000 
#    z -0.008780 0.000000 2.834050 
# 
# 
# High freq. dielectric constant tensor:
#      x y z
#    x 1.654890 0.000000 0.000040 
#    y 0.000000 1.664650 0.000000 
#    z 0.000040 0.000000 1.606600 
# 
# From -- ./inp_files/70339.got.cif
#   From: 2010.06.25/outbox.cif.g09.slc.cpg/sg11_36_cif.got.tgz:70339.got - 2010.06.27 23:14:04.
