data_PCOD8068092
_publ_section_title
;
Structure prediction by ZEFSAII (Michael W. Deem and Ramdas Pophale) SiO2 
 PCOD8068092
Probable space group: P 2/M
;
_chemical_formula_sum "Si O2"
_cell_formula_units_Z 32
_cell_length_a 27.000000
_cell_length_b 9.000000
_cell_length_c 21.000000
_cell_angle_alpha 90.000000
_cell_angle_beta 160.000000
_cell_angle_gamma 90.000000
_cell_volume 1745.328791
_symmetry_space_group_name_H-M "P 2/M"
_symmetry_group_IT_number 10
_symmetry_cell_setting 'monoclinic'
loop_
_space_group_symop_operation_xyz
x,y,z
-x,y,-z
-x,-y,-z
x,-y,z
loop_
_atom_site_type_symbol
_atom_site_label
_atom_site_fract_x
_atom_site_fract_y
_atom_site_fract_z
Si Si1 0.592662 0.322714 0.412586
Si Si2 0.882538 0.829329 0.546836
Si Si3 0.052402 0.675816 0.634629
Si Si4 0.873733 0.178589 0.684355
Si Si5 0.454682 0.171215 0.876847
Si Si6 0.085893 0.675505 0.038404
Si Si7 0.605568 0.822439 0.566805
Si Si8 0.385681 0.672846 0.046869
O O1 0.619160 0.500000 0.454171
O O2 0.730825 0.252477 0.543042
O O3 0.558782 0.248751 0.441296
O O4 0.455632 0.291165 0.200621
O O5 0.904012 0.775424 0.646713
O O6 0.715041 0.806326 0.331736
O O7 0.966821 0.742193 0.592410
O O8 0.930821 0.000000 0.599405
O O9 0.032222 0.500000 0.614521
O O10 0.000000 0.730221 0.500000
O O11 0.218946 0.725400 0.845018
O O12 0.859683 0.000000 0.673226
O O13 0.008839 0.240829 0.887129
O O14 0.530327 0.249339 0.908959
O O15 0.501263 0.000000 0.929385
O O16 0.500000 0.239864 0.000000
O O17 0.099488 0.500000 0.040401
O O18 0.241960 0.749854 0.232029
O O19 0.000000 0.703293 0.000000
O O20 0.500000 0.785966 0.500000
O O21 0.618303 0.000000 0.573215
O O22 0.396493 0.500000 0.045311
#
# Coordination Sequence:
#
# PCOD8068092 Si02
#       8
#     4   4   4   4   4   4   4   4
#     4  11  22  38  61  89 121 158 201 250 306 363
#     4  10  22  38  57  87 119 152 198 246 297 355
#     4  10  22  40  60  85 120 161 203 248 301 360
#     4  11  22  38  62  90 123 159 201 253 304 359
#     4  10  20  35  57  86 117 150 195 246 295 352
#     4  11  23  39  63  94 123 159 206 249 299 362
#     4  11  25  43  64  92 125 162 204 249 301 360
#     4  10  22  38  58  86 118 155 201 245 297 362
#
# _framework density 18.334654
#
# number of rings (size 3 to 8) (size 9 to 14) (size 15 to 20)
#    0.000    1.500    2.500    2.250    0.000    5.500 
#    0.000    2.500    0.000    0.000    0.000    0.000 
#    0.000    0.000    0.000    0.000    0.000    0.000 
#
# Total GULP energy -396596.857476 kJ/mol
# GULP energy per Si atom -12393.651796 kJ/mol
# Density = 1.829292 g / cm^3
# Si number density = 18.334654 Si / 1000 Ang^3
#
#
#
# Elastic Constant Matrix: (Units=GPa)
#
#
# Indices 1 2 3 4 5 6 
#
# 1 204.0453 62.4500 65.3445 0.0000 -12.5588 0.0000
# 2 62.4500 98.9496 40.2514 0.0000 -2.0575 0.0000
# 3 65.3445 40.2514 125.9483 0.0000 -16.6828 0.0000
# 4 0.0000 0.0000 0.0000 27.1980 0.0000 -3.0850
# 5 -12.5588 -2.0575 -16.6828 0.0000 46.9724 0.0000
# 6 0.0000 0.0000 0.0000 -3.0850 0.0000 43.1944
#
#
#
# Elastic Compliance Matrix: (Units=1/GPa)
#
#
# Indices 1 2 3 4 5 6 
#
# 1 0.006693 -0.003263 -0.002321 0.000000 0.000822 0.000000
# 2 -0.003263 0.013240 -0.002704 0.000000 -0.001253 0.000000
# 3 -0.002321 -0.002704 0.010399 0.000000 0.002955 0.000000
# 4 0.000000 0.000000 0.000000 0.037068 0.000000 0.002647
# 5 0.000822 -0.001253 0.002955 0.000000 0.022503 0.000000
# 6 0.000000 0.000000 0.000000 0.002647 0.000000 0.023340
#
#
# Mechanical properties :
#
#
# Convention : Reuss Voigt Hill
#
# Bulk Modulus (GPa) = 72.69549 85.00391 78.84970
# Shear Modulus (GPa) = 37.20075 40.86612 39.03343
#
# Velocity S-wave (km/s) = 4.50931 4.72624 4.61905
# Velocity P-wave (km/s) = 8.17601 8.73191 8.45853
#
# Compressibility (1/GPa) = 0.01375601
#
# Stress axis : x y z
#
# Youngs Moduli (GPa) = 149.39882 75.53071 96.15898
#
# Poissons Ratio (x) = 0.24648 0.22317
# Poissons Ratio (y) = 0.48753 0.26003
# Poissons Ratio (z) = 0.34674 0.20425
#
# Static dielectric constant tensor:
#      x y z
#    x 3.976900 0.000000 -0.196810 
#    y 0.000000 3.613320 0.000000 
#    z -0.196810 0.000000 3.713380 
# 
# 
# High freq. dielectric constant tensor:
#      x y z
#    x 1.751690 0.000000 -0.012700 
#    y 0.000000 1.725760 0.000000 
#    z -0.012700 0.000000 1.730360 
# 
# From -- ./inp_files/87041.got.cif
#   From: 2010.06.25/outbox.ucp.g09.slc.cvg/sg10_44_cif.got.tgz:87041.got - 2010.06.28 13:37:52.
