data_PCOD8068747
_publ_section_title
;
Structure prediction by ZEFSAII (Michael W. Deem and Ramdas Pophale) SiO2 
 PCOD8068747
Probable space group: P 21/M
;
_chemical_formula_sum "Si O2"
_cell_formula_units_Z 32
_cell_length_a 14.949042
_cell_length_b 14.115032
_cell_length_c 9.566466
_cell_angle_alpha 90.000000
_cell_angle_beta 124.832225
_cell_angle_gamma 90.000000
_cell_volume 1656.910204
_symmetry_space_group_name_H-M "P 21/M"
_symmetry_group_IT_number 11
_symmetry_cell_setting 'monoclinic'
loop_
_space_group_symop_operation_xyz
x,y,z
-x,1/2+y,-z
-x,-y,-z
x,1/2-y,z
loop_
_atom_site_type_symbol
_atom_site_label
_atom_site_fract_x
_atom_site_fract_y
_atom_site_fract_z
Si Si1 0.320148 0.355322 0.566071
Si Si2 0.901769 0.857007 0.761735
Si Si3 0.727927 0.466741 0.309379
Si Si4 0.042197 0.524686 0.385356
Si Si5 0.116139 0.359884 0.940686
Si Si6 0.516237 0.357942 0.093548
Si Si7 0.554909 0.144695 0.799418
Si Si8 0.314053 0.021904 0.023907
O O1 0.313590 0.250000 0.626537
O O2 0.229890 0.368021 0.364787
O O3 0.297415 0.425404 0.672518
O O4 0.442212 0.370133 0.611915
O O5 0.936444 0.750000 0.749356
O O6 0.962347 0.930205 0.714125
O O7 0.934681 0.877142 0.951212
O O8 0.835852 0.433041 0.488408
O O9 0.628626 0.397512 0.260741
O O10 0.748152 0.471289 0.160893
O O11 0.000000 0.500000 0.500000
O O12 0.969442 0.605591 0.250925
O O13 0.140366 0.250000 0.935144
O O14 0.230121 0.415163 0.034599
O O15 0.502755 0.250000 0.129569
O O16 0.416034 0.417444 0.062432
O O17 0.521791 0.368642 0.932126
O O18 0.603752 0.250000 0.815993
O O19 0.642460 0.063978 0.837288
#
# Coordination Sequence:
#
# PCOD8068747 Si02
#       8
#     4   4   4   4   4   4   4   4
#     4   9  15  28  53  78 104 140 186 229 275 334
#     4   9  21  40  61  85 115 153 192 234 292 353
#     4  10  18  32  51  79 116 140 185 241 293 338
#     4  11  22  39  62  88 114 145 196 251 295 337
#     4  11  24  40  58  83 116 157 194 234 292 354
#     4  10  18  28  47  78 115 154 183 227 295 346
#     4   9  16  27  48  78 111 148 186 231 286 339
#     4  11  18  32  52  80 119 146 190 236 283 350
#
# _framework density 19.313054999999999
#
# number of rings (size 3 to 8) (size 9 to 14) (size 15 to 20)
#    0.000    2.000    3.750    1.500    0.000    1.500 
#    0.000    1.250    0.000    0.750    0.000    0.000 
#    0.000    0.000    0.000    0.000    0.000    0.000 
#
# Total GULP energy -396669.665045 kJ/mol
# GULP energy per Si atom -12395.927033 kJ/mol
# Density = 1.926910 g / cm^3
# Si number density = 19.313055 Si / 1000 Ang^3
#
#
#
# Elastic Constant Matrix: (Units=GPa)
#
#
# Indices 1 2 3 4 5 6 
#
# 1 68.0229 41.9485 27.7385 0.0000 9.1774 0.0000
# 2 41.9485 112.0075 32.2252 0.0000 7.1714 0.0000
# 3 27.7385 32.2252 69.1267 0.0000 6.3277 0.0000
# 4 0.0000 0.0000 0.0000 28.2764 0.0000 4.9793
# 5 9.1774 7.1714 6.3277 0.0000 26.5787 0.0000
# 6 0.0000 0.0000 0.0000 4.9793 0.0000 30.7175
#
#
#
# Elastic Compliance Matrix: (Units=1/GPa)
#
#
# Indices 1 2 3 4 5 6 
#
# 1 0.021235 -0.006161 -0.005244 0.000000 -0.004422 0.000000
# 2 -0.006161 0.012172 -0.003165 0.000000 -0.000403 0.000000
# 3 -0.005244 -0.003165 0.018199 0.000000 -0.001668 0.000000
# 4 0.000000 0.000000 0.000000 0.036404 0.000000 -0.005901
# 5 -0.004422 -0.000403 -0.001668 0.000000 0.039657 0.000000
# 6 0.000000 0.000000 0.000000 -0.005901 0.000000 0.033511
#
#
# Mechanical properties :
#
#
# Convention : Reuss Voigt Hill
#
# Bulk Modulus (GPa) = 44.51334 50.33127 47.42230
# Shear Modulus (GPa) = 25.27711 26.93085 26.10398
#
# Velocity S-wave (km/s) = 3.62167 3.73827 3.68043
# Velocity P-wave (km/s) = 6.37080 6.68956 6.53212
#
# Compressibility (1/GPa) = 0.02246518
#
# Stress axis : x y z
#
# Youngs Moduli (GPa) = 47.09111 82.15699 54.94899
#
# Poissons Ratio (x) = 0.50618 0.28817
# Poissons Ratio (y) = 0.29013 0.17392
# Poissons Ratio (z) = 0.24696 0.26003
#
# Static dielectric constant tensor:
#      x y z
#    x 3.281710 0.000000 0.384510 
#    y 0.000000 3.739360 0.000000 
#    z 0.384510 0.000000 3.613680 
# 
# 
# High freq. dielectric constant tensor:
#      x y z
#    x 1.718630 0.000000 0.029650 
#    y 0.000000 1.758330 0.000000 
#    z 0.029650 0.000000 1.744890 
# 
# From -- ./inp_files/22238.got.cif
#   From: 2010.06.25/outbox.cif.g09.slc.cpg/sg11_12_cif.got.tgz:22238.got - 2010.06.27 23:14:04.
