data_PCOD8068223
_publ_section_title
;
Structure prediction by ZEFSAII (Michael W. Deem and Ramdas Pophale) SiO2 
 PCOD8068223
Probable space group: P 21/M
;
_chemical_formula_sum "Si O2"
_cell_formula_units_Z 32
_cell_length_a 24.314729
_cell_length_b 8.887740
_cell_length_c 33.528719
_cell_angle_alpha 90.000000
_cell_angle_beta 163.776681
_cell_angle_gamma 90.000000
_cell_volume 2024.305371
_symmetry_space_group_name_H-M "P 21/M"
_symmetry_group_IT_number 11
_symmetry_cell_setting 'monoclinic'
loop_
_space_group_symop_operation_xyz
x,y,z
-x,1/2+y,-z
-x,-y,-z
x,1/2-y,z
loop_
_atom_site_type_symbol
_atom_site_label
_atom_site_fract_x
_atom_site_fract_y
_atom_site_fract_z
Si Si1 0.149386 0.430345 0.917396
Si Si2 0.749382 0.574659 0.637049
Si Si3 0.688390 0.080902 0.352664
Si Si4 0.052280 0.569308 0.578517
Si Si5 0.640215 0.926225 0.651157
Si Si6 0.010996 0.074824 0.050180
Si Si7 0.456598 0.916946 0.838897
Si Si8 0.303296 0.926497 0.103811
O O1 0.153065 0.250000 0.921989
O O2 0.944080 0.489662 0.756968
O O3 0.326977 0.494136 0.012084
O O4 0.182773 0.493019 0.984876
O O5 0.775320 0.750000 0.647104
O O6 0.562788 0.514447 0.482325
O O7 0.722807 0.536072 0.664960
O O8 0.706214 0.250000 0.381994
O O9 0.625555 0.082597 0.263153
O O10 0.901096 0.998140 0.505872
O O11 0.523475 0.990880 0.262723
O O12 0.035696 0.750000 0.565592
O O13 0.000000 0.500000 0.500000
O O14 0.282402 0.516550 0.746187
O O15 0.598513 0.750000 0.626321
O O16 0.799568 0.986314 0.793736
O O17 0.038247 0.250000 0.062751
O O18 0.811552 0.039649 0.935307
O O19 0.000000 0.000000 0.000000
O O20 0.493353 0.750000 0.879964
O O21 0.311381 0.750000 0.099682
#
# Coordination Sequence:
#
# PCOD8068223 Si02
#       8
#     4   4   4   4   4   4   4   4
#     4  10  17  26  41  61  84 112 141 175 215 255
#     4  10  18  29  45  65  87 110 142 180 217 259
#     4   9  16  25  36  53  74 101 138 175 210 254
#     4   9  14  22  34  49  72 103 137 174 208 244
#     4   9  18  33  46  62  86 110 140 179 219 260
#     4  10  21  35  49  65  87 112 143 182 222 267
#     4   7  13  22  32  49  74 102 136 168 199 243
#     4  10  18  30  43  59  81 106 140 182 218 255
#
# _framework density 15.807891
#
# number of rings (size 3 to 8) (size 9 to 14) (size 15 to 20)
#    0.000    2.750    1.250    3.375    0.000    2.000 
#    0.000    1.875    0.000    0.000    0.000    0.000 
#    0.000    0.000    0.000    1.125    0.000   13.375 
#
# Total GULP energy -396429.969148 kJ/mol
# GULP energy per Si atom -12388.436536 kJ/mol
# Density = 1.577191 g / cm^3
# Si number density = 15.807891 Si / 1000 Ang^3
#
#
#
# Elastic Constant Matrix: (Units=GPa)
#
#
# Indices 1 2 3 4 5 6 
#
# 1 47.3770 27.5663 55.4943 0.0000 13.5393 0.0000
# 2 27.5663 74.0650 52.2454 0.0000 17.5778 0.0000
# 3 55.4943 52.2454 137.7434 0.0000 38.3781 0.0000
# 4 0.0000 0.0000 0.0000 26.5067 0.0000 5.3699
# 5 13.5393 17.5778 38.3781 0.0000 28.5979 0.0000
# 6 0.0000 0.0000 0.0000 5.3699 0.0000 17.4646
#
#
#
# Elastic Compliance Matrix: (Units=1/GPa)
#
#
# Indices 1 2 3 4 5 6 
#
# 1 0.041768 -0.005318 -0.016310 0.000000 0.005382 0.000000
# 2 -0.005318 0.019286 -0.004107 0.000000 -0.003825 0.000000
# 3 -0.016310 -0.004107 0.020019 0.000000 -0.016619 0.000000
# 4 0.000000 0.000000 0.000000 0.040232 0.000000 -0.012370
# 5 0.005382 -0.003825 -0.016619 0.000000 0.057074 0.000000
# 6 0.000000 0.000000 0.000000 -0.012370 0.000000 0.061062
#
#
# Mechanical properties :
#
#
# Convention : Reuss Voigt Hill
#
# Bulk Modulus (GPa) = 33.78000 58.86637 46.32318
# Shear Modulus (GPa) = 16.62358 22.77249 19.69803
#
# Velocity S-wave (km/s) = 3.24636 3.79961 3.53383
# Velocity P-wave (km/s) = 5.95544 7.52123 6.78366
#
# Compressibility (1/GPa) = 0.02960331
#
# Stress axis : x y z
#
# Youngs Moduli (GPa) = 23.94178 51.85219 49.95241
#
# Poissons Ratio (x) = 0.27574 0.81473
# Poissons Ratio (y) = 0.12732 0.20514
# Poissons Ratio (z) = 0.39049 0.21294
#
# Static dielectric constant tensor:
#      x y z
#    x 2.913190 0.000000 0.265970 
#    y 0.000000 3.060160 0.000000 
#    z 0.265970 0.000000 2.793040 
# 
# 
# High freq. dielectric constant tensor:
#      x y z
#    x 1.543090 0.000000 0.048990 
#    y 0.000000 1.609910 0.000000 
#    z 0.048990 0.000000 1.612220 
# 
# From -- ./inp_files/71184.got.cif
#   From: 2010.06.25/outbox.cif.g09.slc.cpg/sg11_36_cif.got.tgz:71184.got - 2010.06.27 23:14:04.
