data_PCOD8068285
_publ_section_title
;
Structure prediction by ZEFSAII (Michael W. Deem and Ramdas Pophale) SiO2 
 PCOD8068285
Probable space group: P 21/M
;
_chemical_formula_sum "Si O2"
_cell_formula_units_Z 20
_cell_length_a 8.450698
_cell_length_b 16.053120
_cell_length_c 8.450717
_cell_angle_alpha 90.000000
_cell_angle_beta 71.840689
_cell_angle_gamma 90.000000
_cell_volume 1089.325579
_symmetry_space_group_name_H-M "P 21/M"
_symmetry_group_IT_number 11
_symmetry_cell_setting 'monoclinic'
loop_
_space_group_symop_operation_xyz
x,y,z
-x,1/2+y,-z
-x,-y,-z
x,1/2-y,z
loop_
_atom_site_type_symbol
_atom_site_label
_atom_site_fract_x
_atom_site_fract_y
_atom_site_fract_z
Si Si1 0.775747 0.581926 0.353221
Si Si2 0.432916 0.657847 0.432918
Si Si3 0.304034 0.004871 0.304036
Si Si4 0.646779 0.418074 0.224252
Si Si5 0.906914 0.441769 0.906913
O O1 0.633969 0.650793 0.370706
O O2 0.794105 0.557030 0.531508
O O3 0.721111 0.500000 0.278889
O O4 0.954688 0.613702 0.229637
O O5 0.385351 0.750000 0.385353
O O6 0.348673 0.588567 0.348676
O O7 0.370706 0.650793 0.633971
O O8 0.187839 0.000930 0.187842
O O9 0.468490 0.057029 0.205896
O O10 0.770362 0.386298 0.045311
O O11 0.000000 0.500000 0.000000
#
# Coordination Sequence:
#
# PCOD8068285 Si02
#       5
#     4   4   4   4   4
#     4   8  16  29  47  69  91 115 150 192 231 270
#     4   9  17  32  48  62  87 125 158 187 225 276
#     4   9  16  29  48  70  92 121 158 188 222 276
#     4   8  16  29  47  69  91 115 150 192 231 270
#     4  10  17  27  47  74  97 116 144 195 240 268
#
# _framework density 18.359983
#
# number of rings (size 3 to 8) (size 9 to 14) (size 15 to 20)
#    0.000    3.200    0.000    3.600    0.000    0.000 
#    0.000    3.000    0.000    0.000    0.000    5.600 
#    0.000    0.000    0.000    0.000    0.000    0.000 
#
# Total GULP energy -247777.103477 kJ/mol
# GULP energy per Si atom -12388.855174 kJ/mol
# Density = 1.831819 g / cm^3
# Si number density = 18.359983 Si / 1000 Ang^3
#
#
#
# Elastic Constant Matrix: (Units=GPa)
#
#
# Indices 1 2 3 4 5 6 
#
# 1 95.2956 7.7168 63.2214 0.0000 -2.6261 0.0000
# 2 7.7168 60.2903 9.9681 0.0000 -3.0925 0.0000
# 3 63.2214 9.9681 118.0139 0.0000 -28.5808 0.0000
# 4 0.0000 0.0000 0.0000 6.4428 0.0000 4.8424
# 5 -2.6261 -3.0925 -28.5808 0.0000 52.6483 0.0000
# 6 0.0000 0.0000 0.0000 4.8424 0.0000 9.9680
#
#
#
# Elastic Compliance Matrix: (Units=1/GPa)
#
#
# Indices 1 2 3 4 5 6 
#
# 1 0.017302 -0.000747 -0.010371 0.000000 -0.004811 0.000000
# 2 -0.000747 0.016856 -0.000913 0.000000 0.000457 0.000000
# 3 -0.010371 -0.000913 0.016083 0.000000 0.008160 0.000000
# 4 0.000000 0.000000 0.000000 0.244473 0.000000 -0.118762
# 5 -0.004811 0.000457 0.008160 0.000000 0.023210 0.000000
# 6 0.000000 0.000000 0.000000 -0.118762 0.000000 0.158014
#
#
# Mechanical properties :
#
#
# Convention : Reuss Voigt Hill
#
# Bulk Modulus (GPa) = 38.19743 48.37916 43.28829
# Shear Modulus (GPa) = 9.82849 26.65805 18.24327
#
# Velocity S-wave (km/s) = 2.31621 3.81460 3.15563
# Velocity P-wave (km/s) = 5.29179 6.76824 6.07503
#
# Compressibility (1/GPa) = 0.02617977
#
# Stress axis : x y z
#
# Youngs Moduli (GPa) = 57.79760 59.32467 62.17918
#
# Poissons Ratio (x) = 0.04429 0.64484
# Poissons Ratio (y) = 0.04315 0.05677
# Poissons Ratio (z) = 0.59940 0.05417
#
# Static dielectric constant tensor:
#      x y z
#    x 3.752630 0.000000 -0.759460 
#    y 0.000000 2.746270 0.000000 
#    z -0.759460 0.000000 4.305480 
# 
# 
# High freq. dielectric constant tensor:
#      x y z
#    x 1.715200 0.000000 -0.015240 
#    y 0.000000 1.644580 0.000000 
#    z -0.015240 0.000000 1.726300 
# 
# From -- ./inp_files/12232.got.cif
#   From: 2010.06.25/outbox.cif.g09.slc.cpg/sg11_7_cif.got.tgz:12232.got - 2010.06.27 23:14:04.
