data_PCOD8068510
_publ_section_title
;
Structure prediction by ZEFSAII (Michael W. Deem and Ramdas Pophale) SiO2 
 PCOD8068510
Probable space group: P 21/M
;
_chemical_formula_sum "Si O2"
_cell_formula_units_Z 32
_cell_length_a 20.199645
_cell_length_b 8.899976
_cell_length_c 12.045310
_cell_angle_alpha 90.000000
_cell_angle_beta 115.678694
_cell_angle_gamma 90.000000
_cell_volume 1951.597059
_symmetry_space_group_name_H-M "P 21/M"
_symmetry_group_IT_number 11
_symmetry_cell_setting 'monoclinic'
loop_
_space_group_symop_operation_xyz
x,y,z
-x,1/2+y,-z
-x,-y,-z
x,1/2-y,z
loop_
_atom_site_type_symbol
_atom_site_label
_atom_site_fract_x
_atom_site_fract_y
_atom_site_fract_z
Si Si1 0.757789 0.579321 0.431158
Si Si2 0.964239 0.427881 0.866989
Si Si3 0.994810 0.422983 0.320674
Si Si4 0.890135 0.077120 0.439458
Si Si5 0.808809 0.923399 0.719707
Si Si6 0.528900 0.573547 0.632082
Si Si7 0.331337 0.920359 0.314440
Si Si8 0.621508 0.082681 0.396386
O O1 0.762915 0.750000 0.395314
O O2 0.805989 0.477952 0.382506
O O3 0.787778 0.555574 0.576532
O O4 0.672417 0.529684 0.362763
O O5 0.966473 0.250000 0.878366
O O6 0.011738 0.479533 0.795144
O O7 0.881078 0.481801 0.795319
O O8 0.000000 0.500000 0.000000
O O9 0.008824 0.250000 0.298584
O O10 0.063892 0.475012 0.443264
O O11 0.919889 0.443479 0.335943
O O12 0.896493 0.250000 0.481981
O O13 0.822076 0.750000 0.759516
O O14 0.744538 0.988156 0.751573
O O15 0.500000 0.500000 0.500000
O O16 0.540833 0.750000 0.621089
O O17 0.606902 0.497272 0.720158
O O18 0.465698 0.544693 0.679934
O O19 0.318601 0.750000 0.265465
O O20 0.359011 0.927507 0.460159
O O21 0.637573 0.250000 0.364133
#
# Coordination Sequence:
#
# PCOD8068510 Si02
#       8
#     4   4   4   4   4   4   4   4
#     4  10  18  26  41  62  87 115 147 186 223 264
#     4  12  24  37  53  69  90 119 150 189 233 277
#     4  10  20  34  49  69  91 114 149 187 227 274
#     4  10  19  30  48  68  91 119 147 186 229 270
#     4  10  19  31  45  63  86 112 147 188 224 266
#     4   9  15  23  34  50  73 104 141 180 217 258
#     4   9  16  25  38  55  76 106 142 180 219 261
#     4   8  15  24  34  50  77 109 144 178 215 261
#
# _framework density 16.396826000000001
#
# number of rings (size 3 to 8) (size 9 to 14) (size 15 to 20)
#    0.000    2.250    1.250    4.125    0.000    6.000 
#    0.000    0.000    0.000    0.000    0.000    0.000 
#    0.000    0.000    0.000    1.125    0.000   14.875 
#
# Total GULP energy -396689.281538 kJ/mol
# GULP energy per Si atom -12396.540048 kJ/mol
# Density = 1.635951 g / cm^3
# Si number density = 16.396826 Si / 1000 Ang^3
#
#
#
# Elastic Constant Matrix: (Units=GPa)
#
#
# Indices 1 2 3 4 5 6 
#
# 1 134.5812 67.5878 21.6305 0.0000 3.5187 0.0000
# 2 67.5878 131.8198 26.4704 0.0000 -0.0272 0.0000
# 3 21.6305 26.4704 32.2206 0.0000 -6.6858 0.0000
# 4 0.0000 0.0000 0.0000 16.0696 0.0000 2.6277
# 5 3.5187 -0.0272 -6.6858 0.0000 8.2958 0.0000
# 6 0.0000 0.0000 0.0000 2.6277 0.0000 33.6250
#
#
#
# Elastic Compliance Matrix: (Units=1/GPa)
#
#
# Indices 1 2 3 4 5 6 
#
# 1 0.010764 -0.004426 -0.005452 0.000000 -0.008974 0.000000
# 2 -0.004426 0.011276 -0.007079 0.000000 -0.003791 0.000000
# 3 -0.005452 -0.007079 0.049218 0.000000 0.041955 0.000000
# 4 0.000000 0.000000 0.000000 0.063035 0.000000 -0.004926
# 5 -0.008974 -0.003791 0.041955 0.000000 0.158149 0.000000
# 6 0.000000 0.000000 0.000000 -0.004926 0.000000 0.030125
#
#
# Mechanical properties :
#
#
# Convention : Reuss Voigt Hill
#
# Bulk Modulus (GPa) = 26.77858 58.88880 42.83369
# Shear Modulus (GPa) = 13.55271 23.79360 18.67316
#
# Velocity S-wave (km/s) = 2.87809 3.81348 3.37831
# Velocity P-wave (km/s) = 5.23560 7.44197 6.43407
#
# Compressibility (1/GPa) = 0.03734327
#
# Stress axis : x y z
#
# Youngs Moduli (GPa) = 92.90021 88.68167 20.31787
#
# Poissons Ratio (x) = 0.39252 0.11078
# Poissons Ratio (y) = 0.41119 0.14383
# Poissons Ratio (z) = 0.50651 0.62779
#
# Static dielectric constant tensor:
#      x y z
#    x 3.587780 0.000000 0.088200 
#    y 0.000000 3.296050 0.000000 
#    z 0.088200 0.000000 2.570480 
# 
# 
# High freq. dielectric constant tensor:
#      x y z
#    x 1.653290 0.000000 0.010610 
#    y 0.000000 1.651930 0.000000 
#    z 0.010610 0.000000 1.539650 
# 
# From -- ./inp_files/42499.got.cif
#   From: 2010.06.25/outbox.cif.g09.slc.cpg/sg11_22_cif.got.tgz:42499.got - 2010.06.27 23:14:04.
