data_PCOD8068088
_publ_section_title
;
Structure prediction by ZEFSAII (Michael W. Deem and Ramdas Pophale) SiO2 
 PCOD8068088
Probable space group: P 2/M
;
_chemical_formula_sum "Si O2"
_cell_formula_units_Z 28
_cell_length_a 21.000000
_cell_length_b 9.000000
_cell_length_c 15.000000
_cell_angle_alpha 90.000000
_cell_angle_beta 30.000000
_cell_angle_gamma 90.000000
_cell_volume 1417.500000
_symmetry_space_group_name_H-M "P 2/M"
_symmetry_group_IT_number 10
_symmetry_cell_setting 'monoclinic'
loop_
_space_group_symop_operation_xyz
x,y,z
-x,y,-z
-x,-y,-z
x,-y,z
loop_
_atom_site_type_symbol
_atom_site_label
_atom_site_fract_x
_atom_site_fract_y
_atom_site_fract_z
Si Si1 0.768221 0.832232 0.126827
Si Si2 0.229802 0.669680 0.694815
Si Si3 0.858670 0.323529 0.674064
Si Si4 0.778345 0.322612 0.579988
Si Si5 0.571395 0.332024 0.700915
Si Si6 0.693483 0.677710 0.037329
Si Si7 0.932250 0.832546 0.247619
O O1 0.727983 0.747003 0.264953
O O2 0.710331 0.748622 0.112827
O O3 0.714774 0.000000 0.195452
O O4 0.918050 0.832784 0.936576
O O5 0.188961 0.500000 0.762959
O O6 0.350370 0.678440 0.484600
O O7 0.113694 0.753272 0.787245
O O8 0.861524 0.500000 0.670071
O O9 0.782984 0.269896 0.677161
O O10 0.000000 0.256627 0.500000
O O11 0.798288 0.266920 0.839326
O O12 0.789960 0.500000 0.556570
O O13 0.648415 0.261684 0.691222
O O14 0.894692 0.254856 0.382801
O O15 0.542854 0.500000 0.762832
O O16 0.436436 0.255643 0.847106
O O17 0.691880 0.500000 0.050563
O O18 0.877178 0.000000 0.316853
#
# Coordination Sequence:
#
# PCOD8068088 Si02
#       7
#     4   4   4   4   4   4   4
#     4  11  23  36  50  74 107 139 173 214 260 308
#     4  10  20  35  56  79 103 133 172 215 258 308
#     4   9  17  29  50  81 108 132 170 216 256 300
#     4   9  17  32  54  78 106 137 172 214 257 305
#     4   8  17  33  52  77 103 131 172 217 257 301
#     4  10  20  35  54  74 102 139 176 215 258 304
#     4  10  20  34  52  77 108 137 169 211 258 310
#
# _framework density 19.753086
#
# number of rings (size 3 to 8) (size 9 to 14) (size 15 to 20)
#    0.000    2.429    0.000    3.429    0.000    6.286 
#    0.000   10.000    0.000    2.571    0.000    5.000 
#    0.000    0.000    0.000    0.000    0.000    0.000 
#
# Total GULP energy -347070.424245 kJ/mol
# GULP energy per Si atom -12395.372294 kJ/mol
# Density = 1.970813 g / cm^3
# Si number density = 19.753086 Si / 1000 Ang^3
#
#
#
# Elastic Constant Matrix: (Units=GPa)
#
#
# Indices 1 2 3 4 5 6 
#
# 1 139.7207 31.3570 9.6286 0.0000 2.6074 0.0000
# 2 31.3570 70.9440 1.9594 0.0000 -2.5334 0.0000
# 3 9.6286 1.9594 -33.0199 0.0000 -37.1770 0.0000
# 4 0.0000 0.0000 0.0000 9.4651 0.0000 -0.0631
# 5 2.6074 -2.5334 -37.1770 0.0000 20.3831 0.0000
# 6 0.0000 0.0000 0.0000 -0.0631 0.0000 13.6333
#
#
#
# Elastic Compliance Matrix: (Units=1/GPa)
#
#
# Indices 1 2 3 4 5 6 
#
# 1 0.007838 -0.003470 0.001210 0.000000 0.000773 0.000000
# 2 -0.003470 0.015681 -0.000909 0.000000 0.000735 0.000000
# 3 0.001210 -0.000909 -0.009721 0.000000 -0.017999 0.000000
# 4 0.000000 0.000000 0.000000 0.105654 0.000000 0.000489
# 5 0.000773 0.000735 -0.017999 0.000000 0.016225 0.000000
# 6 0.000000 0.000000 0.000000 0.000489 0.000000 0.073352
#
#
# Mechanical properties :
#
#
# Convention : Reuss Voigt Hill
#
# Bulk Modulus (GPa) = 134.06990 29.28163 81.67577
# Shear Modulus (GPa) = 22.95118 17.67630 20.31374
#
# Velocity S-wave (km/s) = 3.41237 2.99467 3.21032
# Velocity P-wave (km/s) = 9.14035 5.17817 7.42830
#
# Compressibility (1/GPa) = 0.00745880
#
# Stress axis : x y z
#
# Youngs Moduli (GPa) = 127.58084 63.77219 -102.86635
#
# Poissons Ratio (x) = 0.22131 0.12445
# Poissons Ratio (y) = 0.44274 -0.09350
# Poissons Ratio (z) = -0.15435 0.05797
#
# Static dielectric constant tensor:
#      x y z
#    x 3.884590 0.000000 0.016070 
#    y 0.000000 3.510940 0.000000 
#    z 0.016070 0.000000 3.521740 
# 
# 
# High freq. dielectric constant tensor:
#      x y z
#    x 1.785770 0.000000 0.006510 
#    y 0.000000 1.736670 0.000000 
#    z 0.006510 0.000000 1.757590 
# 
# From -- ./inp_files/49373.got.cif
#   From: 2010.06.25/outbox.ucp.g09.slc.cvg/sg10_25_cif.got.tgz:49373.got - 2010.06.28 13:37:52.
