data_PCOD8068997
_publ_section_title
;
Structure prediction by ZEFSAII (Michael W. Deem and Ramdas Pophale) SiO2 
 PCOD8068997
Probable space group: P 21/M
;
_chemical_formula_sum "Si O2"
_cell_formula_units_Z 32
_cell_length_a 20.143655
_cell_length_b 9.164323
_cell_length_c 18.986063
_cell_angle_alpha 90.000000
_cell_angle_beta 36.084756
_cell_angle_gamma 90.000000
_cell_volume 2064.311033
_symmetry_space_group_name_H-M "P 21/M"
_symmetry_group_IT_number 11
_symmetry_cell_setting 'monoclinic'
loop_
_space_group_symop_operation_xyz
x,y,z
-x,1/2+y,-z
-x,-y,-z
x,1/2-y,z
loop_
_atom_site_type_symbol
_atom_site_label
_atom_site_fract_x
_atom_site_fract_y
_atom_site_fract_z
Si Si1 0.779238 0.912069 0.091809
Si Si2 0.342283 0.418052 0.171810
Si Si3 0.914083 0.920139 0.623757
Si Si4 0.695497 0.423250 0.038576
Si Si5 0.465591 0.080927 0.920998
Si Si6 0.030488 0.588637 0.815706
Si Si7 0.896745 0.580069 0.124402
Si Si8 0.906249 0.921439 0.789786
O O1 0.728468 0.750000 0.123804
O O2 0.785875 0.948089 0.170376
O O3 0.906281 0.915799 0.954826
O O4 0.704245 0.028005 0.113187
O O5 0.361285 0.250000 0.176889
O O6 0.212548 0.465136 0.288349
O O7 0.410963 0.520243 0.166134
O O8 0.381435 0.443603 0.058298
O O9 0.932003 0.750000 0.598085
O O10 0.939958 0.965488 0.682025
O O11 0.000000 0.000000 0.500000
O O12 0.692420 0.250000 0.036761
O O13 0.799839 0.484102 0.904636
O O14 0.581033 0.490046 0.105160
O O15 0.475845 0.250000 0.891654
O O16 0.082613 0.750000 0.776964
O O17 0.115771 0.481947 0.785079
O O18 0.014337 0.544198 0.747330
O O19 0.924648 0.750000 0.104952
O O20 0.000000 0.500000 0.000000
O O21 0.871999 0.750000 0.824288
#
# Coordination Sequence:
#
# PCOD8068997 Si02
#       8
#     4   4   4   4   4   4   4   4
#     4   8  15  25  34  47  73 108 137 163 203 249
#     4   9  18  32  47  64  84 108 139 177 216 253
#     4  10  20  34  49  64  86 113 142 179 219 259
#     4  11  19  25  39  62  83 106 140 179 210 246
#     4  10  18  30  47  63  85 112 138 173 217 261
#     4   8  14  23  37  51  68  98 134 169 205 244
#     4   9  15  22  32  47  70  99 132 167 202 240
#     4   9  17  31  43  55  79 110 140 173 216 257
#
# _framework density 15.50154
#
# number of rings (size 3 to 8) (size 9 to 14) (size 15 to 20)
#    0.000    2.750    1.250    3.375    0.000    6.500 
#    0.000    0.000    0.000    0.000    0.000    0.000 
#    0.000    0.000    0.000    1.125    0.000   14.625 
#
# Total GULP energy -396570.753106 kJ/mol
# GULP energy per Si atom -12392.836035 kJ/mol
# Density = 1.546626 g / cm^3
# Si number density = 15.501540 Si / 1000 Ang^3
#
#
#
# Elastic Constant Matrix: (Units=GPa)
#
#
# Indices 1 2 3 4 5 6 
#
# 1 151.6359 78.7973 36.6067 0.0000 1.5882 0.0000
# 2 78.7973 101.4088 24.7178 0.0000 -2.2035 0.0000
# 3 36.6067 24.7178 44.9283 0.0000 -3.5301 0.0000
# 4 0.0000 0.0000 0.0000 15.7231 0.0000 -1.3054
# 5 1.5882 -2.2035 -3.5301 0.0000 10.1070 0.0000
# 6 0.0000 0.0000 0.0000 -1.3054 0.0000 31.8894
#
#
#
# Elastic Compliance Matrix: (Units=1/GPa)
#
#
# Indices 1 2 3 4 5 6 
#
# 1 0.012432 -0.008322 -0.006012 0.000000 -0.005868 0.000000
# 2 -0.008322 0.016960 -0.002218 0.000000 0.004231 0.000000
# 3 -0.006012 -0.002218 0.029214 0.000000 0.010665 0.000000
# 4 0.000000 0.000000 0.000000 0.063818 0.000000 0.002612
# 5 -0.005868 0.004231 0.010665 0.000000 0.104510 0.000000
# 6 0.000000 0.000000 0.000000 0.002612 0.000000 0.031465
#
#
# Mechanical properties :
#
#
# Convention : Reuss Voigt Hill
#
# Bulk Modulus (GPa) = 39.21134 64.24628 51.72881
# Shear Modulus (GPa) = 16.66642 22.06731 19.36687
#
# Velocity S-wave (km/s) = 3.28250 3.77710 3.53845
# Velocity P-wave (km/s) = 6.30210 7.78184 7.08073
#
# Compressibility (1/GPa) = 0.02550283
#
# Stress axis : x y z
#
# Youngs Moduli (GPa) = 80.43618 58.96175 34.23002
#
# Poissons Ratio (x) = 0.49070 0.20579
# Poissons Ratio (y) = 0.66941 0.07591
# Poissons Ratio (z) = 0.48358 0.13075
#
# Static dielectric constant tensor:
#      x y z
#    x 3.736490 0.000000 0.109690 
#    y 0.000000 3.118020 0.000000 
#    z 0.109690 0.000000 2.350890 
# 
# 
# High freq. dielectric constant tensor:
#      x y z
#    x 1.618810 0.000000 0.000620 
#    y 0.000000 1.600120 0.000000 
#    z 0.000620 0.000000 1.507600 
# 
# From -- ./inp_files/64979.got.cif
#   From: 2010.06.25/outbox.cif.g09.slc.cpg/sg11_33_cif.got.tgz:64979.got - 2010.06.27 23:14:04.
