data_PCOD8068178
_publ_section_title
;
Structure prediction by ZEFSAII (Michael W. Deem and Ramdas Pophale) SiO2 
 PCOD8068178
Probable space group: P 21/M
;
_chemical_formula_sum "Si O2"
_cell_formula_units_Z 32
_cell_length_a 12.659796
_cell_length_b 28.850747
_cell_length_c 9.461874
_cell_angle_alpha 90.000000
_cell_angle_beta 29.002805
_cell_angle_gamma 90.000000
_cell_volume 1675.600626
_symmetry_space_group_name_H-M "P 21/M"
_symmetry_group_IT_number 11
_symmetry_cell_setting 'monoclinic'
loop_
_space_group_symop_operation_xyz
x,y,z
-x,1/2+y,-z
-x,-y,-z
x,1/2-y,z
loop_
_atom_site_type_symbol
_atom_site_label
_atom_site_fract_x
_atom_site_fract_y
_atom_site_fract_z
Si Si1 0.360574 0.801965 0.908807
Si Si2 0.212464 0.041793 0.624457
Si Si3 0.788514 0.441125 0.304416
Si Si4 0.014769 0.301926 0.433107
Si Si5 0.371550 0.154727 0.166331
Si Si6 0.007370 0.416836 0.620376
Si Si7 0.812127 0.110761 0.565844
Si Si8 0.410028 0.605373 0.715281
O O1 0.387547 0.750000 0.816582
O O2 0.124455 0.808536 0.258360
O O3 0.542160 0.811096 0.814961
O O4 0.405668 0.838437 0.728915
O O5 0.136161 0.040818 0.547421
O O6 0.378584 0.083398 0.459843
O O7 0.315158 0.991508 0.538481
O O8 0.010148 0.052293 0.961682
O O9 0.843558 0.414135 0.381939
O O10 0.613294 0.411700 0.419073
O O11 0.986640 0.250000 0.406018
O O12 0.271228 0.312334 0.160583
O O13 0.922600 0.338356 0.426597
O O14 0.163539 0.126608 0.464537
O O15 0.556193 0.118455 0.898414
O O16 0.940227 0.420802 0.533639
O O17 0.785557 0.412323 0.962471
#
# Coordination Sequence:
#
# PCOD8068178 Si02
#       8
#     4   4   4   4   4   4   4   4
#     4  10  18  30  54  86 110 137 183 228 272 322
#     4  10  21  40  61  77 105 150 196 232 278 328
#     4  10  24  38  56  82 107 151 190 227 282 342
#     4   9  18  32  55  83 112 146 184 221 267 335
#     4  10  16  32  54  82 112 144 173 224 274 324
#     4  10  18  34  59  80 110 140 183 231 274 323
#     4  10  20  35  54  84 116 142 179 230 283 323
#     4  11  19  37  57  80 114 144 184 234 272 330
#
# _framework density 19.097628
#
# number of rings (size 3 to 8) (size 9 to 14) (size 15 to 20)
#    0.000    2.000    5.000    0.750    0.000    3.000 
#    0.000    3.125    0.000    2.250    0.000    0.000 
#    0.000    0.000    0.000    0.000    0.000    0.000 
#
# Total GULP energy -396424.244710 kJ/mol
# GULP energy per Si atom -12388.257647 kJ/mol
# Density = 1.905416 g / cm^3
# Si number density = 19.097628 Si / 1000 Ang^3
#
#
#
# Elastic Constant Matrix: (Units=GPa)
#
#
# Indices 1 2 3 4 5 6 
#
# 1 119.8828 47.7468 26.4078 0.0000 2.4942 0.0000
# 2 47.7468 116.4139 13.3148 0.0000 7.5888 0.0000
# 3 26.4078 13.3148 24.5325 0.0000 -12.6382 0.0000
# 4 0.0000 0.0000 0.0000 17.2614 0.0000 1.3672
# 5 2.4942 7.5888 -12.6382 0.0000 27.6267 0.0000
# 6 0.0000 0.0000 0.0000 1.3672 0.0000 28.3625
#
#
#
# Elastic Compliance Matrix: (Units=1/GPa)
#
#
# Indices 1 2 3 4 5 6 
#
# 1 0.013490 -0.003043 -0.017095 0.000000 -0.008202 0.000000
# 2 -0.003043 0.010757 -0.005159 0.000000 -0.005040 0.000000
# 3 -0.017095 -0.005159 0.083065 0.000000 0.040959 0.000000
# 4 0.000000 0.000000 0.000000 0.058155 0.000000 -0.002803
# 5 -0.008202 -0.005040 0.040959 0.000000 0.057059 0.000000
# 6 0.000000 0.000000 0.000000 -0.002803 0.000000 0.035393
#
#
# Mechanical properties :
#
#
# Convention : Reuss Voigt Hill
#
# Bulk Modulus (GPa) = 17.63131 48.41866 33.02498
# Shear Modulus (GPa) = 15.27104 26.20748 20.73926
#
# Velocity S-wave (km/s) = 2.83084 3.70846 3.29897
# Velocity P-wave (km/s) = 4.46510 6.61401 5.64280
#
# Compressibility (1/GPa) = 0.05671729
#
# Stress axis : x y z
#
# Youngs Moduli (GPa) = 74.13074 92.96554 12.03883
#
# Poissons Ratio (x) = 0.28288 0.20580
# Poissons Ratio (y) = 0.22557 0.06211
# Poissons Ratio (z) = 1.26725 0.47962
#
# Static dielectric constant tensor:
#      x y z
#    x 3.755180 0.000000 -0.315440 
#    y 0.000000 3.801210 0.000000 
#    z -0.315440 0.000000 3.322490 
# 
# 
# High freq. dielectric constant tensor:
#      x y z
#    x 1.738520 0.000000 -0.030500 
#    y 0.000000 1.741190 0.000000 
#    z -0.030500 0.000000 1.718940 
# 
# From -- ./inp_files/19872.got.cif
#   From: 2010.06.25/outbox.cif.g09.slc.cpg/sg11_10_cif.got.tgz:19872.got - 2010.06.27 23:14:04.
