data_PCOD8068244
_publ_section_title
;
Structure prediction by ZEFSAII (Michael W. Deem and Ramdas Pophale) SiO2 
 PCOD8068244
Probable space group: P 21/M
;
_chemical_formula_sum "Si O2"
_cell_formula_units_Z 32
_cell_length_a 11.915833
_cell_length_b 13.899348
_cell_length_c 11.207059
_cell_angle_alpha 90.000000
_cell_angle_beta 113.366026
_cell_angle_gamma 90.000000
_cell_volume 1703.916955
_symmetry_space_group_name_H-M "P 21/M"
_symmetry_group_IT_number 11
_symmetry_cell_setting 'monoclinic'
loop_
_space_group_symop_operation_xyz
x,y,z
-x,1/2+y,-z
-x,-y,-z
x,1/2-y,z
loop_
_atom_site_type_symbol
_atom_site_label
_atom_site_fract_x
_atom_site_fract_y
_atom_site_fract_z
Si Si1 0.649315 0.358656 0.866364
Si Si2 0.202056 0.999065 0.904913
Si Si3 0.427722 0.459170 0.859291
Si Si4 0.734827 0.139809 0.641551
Si Si5 0.105583 0.641309 0.673483
Si Si6 0.984344 0.861531 0.227493
Si Si7 0.868256 0.641288 0.432145
Si Si8 0.293183 0.535570 0.600956
O O1 0.692164 0.250000 0.919547
O O2 0.506486 0.369212 0.843759
O O3 0.657379 0.373473 0.728607
O O4 0.730249 0.443653 0.959449
O O5 0.132581 0.917332 0.802881
O O6 0.293287 0.061947 0.857443
O O7 0.098111 0.076075 0.901379
O O8 0.408342 0.536477 0.742114
O O9 0.500000 0.500000 0.000000
O O10 0.731163 0.250000 0.595097
O O11 0.670607 0.070971 0.515965
O O12 0.874601 0.108296 0.724820
O O13 0.141952 0.750000 0.716439
O O14 0.186293 0.607142 0.595930
O O15 0.963972 0.631097 0.580262
O O16 0.966964 0.750000 0.189038
O O17 0.937404 0.889308 0.339868
O O18 0.819032 0.750000 0.400936
O O19 0.753375 0.574776 0.415544
#
# Coordination Sequence:
#
# PCOD8068244 Si02
#       8
#     4   4   4   4   4   4   4   4
#     4  10  22  39  54  73 107 146 184 218 258 317
#     4  10  19  34  55  80 105 135 178 221 273 311
#     4   9  20  35  52  75  99 129 175 223 264 307
#     4  10  21  35  54  80 110 146 177 209 260 324
#     4  10  17  26  46  78 110 134 163 215 268 316
#     4  10  18  31  52  81 113 139 174 215 262 323
#     4  10  18  28  47  80 111 137 170 212 268 322
#     4  11  18  31  53  76 104 138 173 222 264 314
#
# _framework density 18.780256999999999
#
# number of rings (size 3 to 8) (size 9 to 14) (size 15 to 20)
#    0.000    2.000    3.750    1.875    0.000    2.000 
#    0.000    0.625    0.000    2.250    0.000    0.000 
#    0.000    0.000    0.000    0.000    0.000    0.000 
#
# Total GULP energy -396545.739668 kJ/mol
# GULP energy per Si atom -12392.054365 kJ/mol
# Density = 1.873751 g / cm^3
# Si number density = 18.780257 Si / 1000 Ang^3
#
#
#
# Elastic Constant Matrix: (Units=GPa)
#
#
# Indices 1 2 3 4 5 6 
#
# 1 56.3371 31.3589 35.4977 0.0000 -0.2151 0.0000
# 2 31.3589 85.3916 44.1808 0.0000 1.1908 0.0000
# 3 35.4977 44.1808 92.7974 0.0000 5.2995 0.0000
# 4 0.0000 0.0000 0.0000 26.6966 0.0000 0.1087
# 5 -0.2151 1.1908 5.2995 0.0000 25.3968 0.0000
# 6 0.0000 0.0000 0.0000 0.1087 0.0000 24.9733
#
#
#
# Elastic Compliance Matrix: (Units=1/GPa)
#
#
# Indices 1 2 3 4 5 6 
#
# 1 0.025407 -0.005667 -0.007133 0.000000 0.001969 0.000000
# 2 -0.005667 0.016819 -0.005862 0.000000 0.000387 0.000000
# 3 -0.007133 -0.005862 0.016480 0.000000 -0.003224 0.000000
# 4 0.000000 0.000000 0.000000 0.037459 0.000000 -0.000163
# 5 0.001969 0.000387 -0.003224 0.000000 0.040046 0.000000
# 6 0.000000 0.000000 0.000000 -0.000163 0.000000 0.040043
#
#
# Mechanical properties :
#
#
# Convention : Reuss Voigt Hill
#
# Bulk Modulus (GPa) = 46.76927 50.73342 48.75134
# Shear Modulus (GPa) = 22.65451 23.64591 23.15021
#
# Velocity S-wave (km/s) = 3.47694 3.55221 3.51478
# Velocity P-wave (km/s) = 6.40908 6.62549 6.51818
#
# Compressibility (1/GPa) = 0.02138156
#
# Stress axis : x y z
#
# Youngs Moduli (GPa) = 39.35936 59.45494 60.68014
#
# Poissons Ratio (x) = 0.33694 0.43285
# Poissons Ratio (y) = 0.22305 0.35571
# Poissons Ratio (z) = 0.28076 0.34852
#
# Static dielectric constant tensor:
#      x y z
#    x 3.536830 0.000000 0.224530 
#    y 0.000000 3.492030 0.000000 
#    z 0.224530 0.000000 3.452030 
# 
# 
# High freq. dielectric constant tensor:
#      x y z
#    x 1.704590 0.000000 0.015010 
#    y 0.000000 1.724160 0.000000 
#    z 0.015010 0.000000 1.724820 
# 
# From -- ./inp_files/35539.got.cif
#   From: 2010.06.25/outbox.cif.g09.slc.cpg/sg11_18_cif.got.tgz:35539.got - 2010.06.27 23:14:04.
