data_PCOD8068352
_publ_section_title
;
Structure prediction by ZEFSAII (Michael W. Deem and Ramdas Pophale) SiO2 
 PCOD8068352
Probable space group: P 21/M
;
_chemical_formula_sum "Si O2"
_cell_formula_units_Z 28
_cell_length_a 8.963287
_cell_length_b 18.896619
_cell_length_c 11.272334
_cell_angle_alpha 90.000000
_cell_angle_beta 61.896571
_cell_angle_gamma 90.000000
_cell_volume 1684.156430
_symmetry_space_group_name_H-M "P 21/M"
_symmetry_group_IT_number 11
_symmetry_cell_setting 'monoclinic'
loop_
_space_group_symop_operation_xyz
x,y,z
-x,1/2+y,-z
-x,-y,-z
x,1/2-y,z
loop_
_atom_site_type_symbol
_atom_site_label
_atom_site_fract_x
_atom_site_fract_y
_atom_site_fract_z
Si Si1 0.864817 0.977353 0.208398
Si Si2 0.758037 0.517163 0.992780
Si Si3 0.903970 0.591061 0.426731
Si Si4 0.614006 0.431657 0.437711
Si Si5 0.611141 0.831711 0.631578
Si Si6 0.434624 0.437662 0.148103
Si Si7 0.757936 0.043288 0.617627
O O1 0.851862 0.913809 0.307934
O O2 0.768439 0.047648 0.291965
O O3 0.784018 0.950586 0.114918
O O4 0.061594 0.995057 0.124583
O O5 0.673142 0.572832 0.932891
O O6 0.632685 0.449277 0.045694
O O7 0.807018 0.658508 0.518056
O O8 0.842960 0.520930 0.515755
O O9 0.106560 0.594086 0.367371
O O10 0.500000 0.500000 0.500000
O O11 0.511253 0.367806 0.418414
O O12 0.671101 0.407951 0.548681
O O13 0.565245 0.750000 0.658559
O O14 0.585894 0.866589 0.769489
O O15 0.371964 0.509109 0.239792
#
# Coordination Sequence:
#
# PCOD8068352 Si02
#       7
#     4   4   4   4   4   4   4
#     4  10  17  29  49  83 105 128 167 228 250 300
#     4  10  19  27  50  83 106 127 169 214 261 293
#     4   9  17  30  50  76 102 130 166 213 269 300
#     4  11  17  31  54  79 103 133 176 221 270 303
#     4  11  22  35  53  76 108 140 170 217 277 326
#     4  10  18  32  49  81 104 135 173 218 260 309
#     4   9  16  28  52  76 101 127 166 224 258 295
#
# _framework density 16.625533999999998
#
# number of rings (size 3 to 8) (size 9 to 14) (size 15 to 20)
#    0.000    2.000    7.143    0.000    2.000    0.000 
#    0.000    0.714    0.000    1.714    0.000    0.000 
#    0.000    0.000    0.000    0.000    0.000    0.000 
#
# Total GULP energy -346970.883478 kJ/mol
# GULP energy per Si atom -12391.817267 kJ/mol
# Density = 1.658769 g / cm^3
# Si number density = 16.625534 Si / 1000 Ang^3
#
#
#
# Elastic Constant Matrix: (Units=GPa)
#
#
# Indices 1 2 3 4 5 6 
#
# 1 117.6424 42.0035 42.5222 0.0000 8.9608 0.0000
# 2 42.0035 78.5121 33.5988 0.0000 4.2419 0.0000
# 3 42.5222 33.5988 83.7539 0.0000 2.1938 0.0000
# 4 0.0000 0.0000 0.0000 12.6881 0.0000 1.8090
# 5 8.9608 4.2419 2.1938 0.0000 42.5548 0.0000
# 6 0.0000 0.0000 0.0000 1.8090 0.0000 14.1639
#
#
#
# Elastic Compliance Matrix: (Units=1/GPa)
#
#
# Indices 1 2 3 4 5 6 
#
# 1 0.011700 -0.004394 -0.004130 0.000000 -0.001813 0.000000
# 2 -0.004394 0.017090 -0.004611 0.000000 -0.000541 0.000000
# 3 -0.004130 -0.004611 0.015873 0.000000 0.000511 0.000000
# 4 0.000000 0.000000 0.000000 0.080275 0.000000 -0.010252
# 5 -0.001813 -0.000541 0.000511 0.000000 0.023908 0.000000
# 6 0.000000 0.000000 0.000000 -0.010252 0.000000 0.071911
#
#
# Mechanical properties :
#
#
# Convention : Reuss Voigt Hill
#
# Bulk Modulus (GPa) = 54.36782 57.35084 55.85933
# Shear Modulus (GPa) = 19.75043 24.66696 22.20869
#
# Velocity S-wave (km/s) = 3.45042 3.85603 3.65885
# Velocity P-wave (km/s) = 6.97468 7.37535 7.17782
#
# Compressibility (1/GPa) = 0.01839323
#
# Stress axis : x y z
#
# Youngs Moduli (GPa) = 85.46936 58.51341 63.00078
#
# Poissons Ratio (x) = 0.25712 0.26019
# Poissons Ratio (y) = 0.37557 0.29048
# Poissons Ratio (z) = 0.35298 0.26979
#
# Static dielectric constant tensor:
#      x y z
#    x 3.906440 0.000000 0.101610 
#    y 0.000000 2.507070 0.000000 
#    z 0.101610 0.000000 3.482580 
# 
# 
# High freq. dielectric constant tensor:
#      x y z
#    x 1.668520 0.000000 0.003950 
#    y 0.000000 1.549420 0.000000 
#    z 0.003950 0.000000 1.659280 
# 
# From -- ./inp_files/32474.got.cif
#   From: 2010.06.25/outbox.cif.g09.slc.cpg/sg11_17_cif.got.tgz:32474.got - 2010.06.27 23:14:04.
