data_PCOD8068228
_publ_section_title
;
Structure prediction by ZEFSAII (Michael W. Deem and Ramdas Pophale) SiO2 
 PCOD8068228
Probable space group: P 21/M
;
_chemical_formula_sum "Si O2"
_cell_formula_units_Z 32
_cell_length_a 12.271588
_cell_length_b 8.808459
_cell_length_c 28.236668
_cell_angle_alpha 90.000000
_cell_angle_beta 40.701448
_cell_angle_gamma 90.000000
_cell_volume 1990.398556
_symmetry_space_group_name_H-M "P 21/M"
_symmetry_group_IT_number 11
_symmetry_cell_setting 'monoclinic'
loop_
_space_group_symop_operation_xyz
x,y,z
-x,1/2+y,-z
-x,-y,-z
x,1/2-y,z
loop_
_atom_site_type_symbol
_atom_site_label
_atom_site_fract_x
_atom_site_fract_y
_atom_site_fract_z
Si Si1 0.665390 0.070148 0.968109
Si Si2 0.298408 0.429346 0.262738
Si Si3 0.147622 0.070455 0.170092
Si Si4 0.000733 0.427651 0.696633
Si Si5 0.822887 0.073558 0.609771
Si Si6 0.820976 0.073192 0.503436
Si Si7 0.661537 0.573869 0.468989
Si Si8 0.475181 0.072162 0.116230
O O1 0.670515 0.250000 0.958085
O O2 0.832028 0.993165 0.890704
O O3 0.646662 0.030873 0.031268
O O4 0.500000 0.000000 0.000000
O O5 0.295109 0.250000 0.272246
O O6 0.316200 0.512607 0.307532
O O7 0.457897 0.480449 0.176956
O O8 0.127894 0.478609 0.293178
O O9 0.119685 0.250000 0.177848
O O10 0.314949 0.009879 0.140708
O O11 0.999658 0.990818 0.248901
O O12 0.955550 0.250000 0.710039
O O13 0.184035 0.459941 0.616340
O O14 0.855805 0.250000 0.607184
O O15 0.761351 0.039617 0.576866
O O16 0.993998 0.989105 0.565445
O O17 0.823980 0.250000 0.491285
O O18 0.691270 0.993574 0.511371
O O19 0.500000 0.500000 0.500000
O O20 0.628498 0.750000 0.486161
O O21 0.450024 0.250000 0.123933
#
# Coordination Sequence:
#
# PCOD8068228 Si02
#       8
#     4   4   4   4   4   4   4   4
#     4   9  14  22  34  49  72 103 139 176 210 249
#     4  10  17  26  42  62  85 115 145 179 219 260
#     4   9  16  25  37  53  74 103 138 176 215 256
#     4  10  19  30  43  61  82 107 143 184 218 261
#     4  10  19  30  45  67  91 115 146 184 224 267
#     4  10  20  33  49  66  87 115 147 184 226 266
#     4  11  23  36  51  68  89 114 147 186 228 275
#     4   7  13  22  32  50  75 104 139 171 205 248
#
# _framework density 16.077181
#
# number of rings (size 3 to 8) (size 9 to 14) (size 15 to 20)
#    0.000    2.500    1.250    4.125    0.000    3.000 
#    0.000    1.875    0.000    0.000    0.000    0.000 
#    0.000    0.000    0.000    1.125    0.000   13.625 
#
# Total GULP energy -396423.560276 kJ/mol
# GULP energy per Si atom -12388.236259 kJ/mol
# Density = 1.604059 g / cm^3
# Si number density = 16.077181 Si / 1000 Ang^3
#
#
#
# Elastic Constant Matrix: (Units=GPa)
#
#
# Indices 1 2 3 4 5 6 
#
# 1 58.0031 31.4676 38.8364 0.0000 12.3015 0.0000
# 2 31.4676 73.8861 50.5670 0.0000 11.0538 0.0000
# 3 38.8364 50.5670 133.3482 0.0000 34.5889 0.0000
# 4 0.0000 0.0000 0.0000 28.8392 0.0000 5.4305
# 5 12.3015 11.0538 34.5889 0.0000 16.8463 0.0000
# 6 0.0000 0.0000 0.0000 5.4305 0.0000 17.3685
#
#
#
# Elastic Compliance Matrix: (Units=1/GPa)
#
#
# Indices 1 2 3 4 5 6 
#
# 1 0.024678 -0.007892 -0.001847 0.000000 -0.009049 0.000000
# 2 -0.007892 0.020984 -0.007664 0.000000 0.007730 0.000000
# 3 -0.001847 -0.007664 0.019873 0.000000 -0.034426 0.000000
# 4 0.000000 0.000000 0.000000 0.036844 0.000000 -0.011520
# 5 -0.009049 0.007730 -0.034426 0.000000 0.131580 0.000000
# 6 0.000000 0.000000 0.000000 -0.011520 0.000000 0.061177
#
#
# Mechanical properties :
#
#
# Convention : Reuss Voigt Hill
#
# Bulk Modulus (GPa) = 32.54280 56.33106 44.43693
# Shear Modulus (GPa) = 14.69783 22.23523 18.46653
#
# Velocity S-wave (km/s) = 3.02686 3.72295 3.39280
# Velocity P-wave (km/s) = 5.70100 7.32082 6.56109
#
# Compressibility (1/GPa) = 0.03072876
#
# Stress axis : x y z
#
# Youngs Moduli (GPa) = 40.52174 47.65463 50.31942
#
# Poissons Ratio (x) = 0.37610 0.09295
# Poissons Ratio (y) = 0.31981 0.38565
# Poissons Ratio (z) = 0.07485 0.36522
#
# Static dielectric constant tensor:
#      x y z
#    x 2.516160 0.000000 0.440840 
#    y 0.000000 3.096720 0.000000 
#    z 0.440840 0.000000 3.828940 
# 
# 
# High freq. dielectric constant tensor:
#      x y z
#    x 1.533770 0.000000 0.037710 
#    y 0.000000 1.630650 0.000000 
#    z 0.037710 0.000000 1.639960 
# 
# From -- ./inp_files/71176.got.cif
#   From: 2010.06.25/outbox.cif.g09.slc.cpg/sg11_36_cif.got.tgz:71176.got - 2010.06.27 23:14:04.
