data_PCOD8068795
_publ_section_title
;
Structure prediction by ZEFSAII (Michael W. Deem and Ramdas Pophale) SiO2 
 PCOD8068795
Probable space group: P 21/M
;
_chemical_formula_sum "Si O2"
_cell_formula_units_Z 28
_cell_length_a 13.608080
_cell_length_b 8.965207
_cell_length_c 14.425598
_cell_angle_alpha 90.000000
_cell_angle_beta 105.827420
_cell_angle_gamma 90.000000
_cell_volume 1693.189662
_symmetry_space_group_name_H-M "P 21/M"
_symmetry_group_IT_number 11
_symmetry_cell_setting 'monoclinic'
loop_
_space_group_symop_operation_xyz
x,y,z
-x,1/2+y,-z
-x,-y,-z
x,1/2-y,z
loop_
_atom_site_type_symbol
_atom_site_label
_atom_site_fract_x
_atom_site_fract_y
_atom_site_fract_z
Si Si1 0.624483 0.076520 0.215241
Si Si2 0.746750 0.424346 0.076230
Si Si3 0.641978 0.923612 0.605652
Si Si4 0.890042 0.927456 0.976093
Si Si5 0.591103 0.075772 0.409911
Si Si6 0.743569 0.420577 0.793576
Si Si7 0.571942 0.082977 0.894410
O O1 0.605377 0.250000 0.219914
O O2 0.726516 0.043131 0.180436
O O3 0.633334 0.013187 0.322041
O O4 0.526677 0.018774 0.135137
O O5 0.771035 0.250000 0.063402
O O6 0.839465 0.522518 0.060874
O O7 0.643543 0.471293 0.996595
O O8 0.667747 0.750000 0.613001
O O9 0.529515 0.956566 0.616654
O O10 0.650893 0.984346 0.503538
O O11 0.727518 0.007255 0.688576
O O12 0.897385 0.750000 0.974351
O O13 0.826387 0.985797 0.872035
O O14 0.000000 0.000000 0.000000
O O15 0.614047 0.250000 0.430720
O O16 0.781822 0.250000 0.794012
O O17 0.634627 0.427998 0.815445
O O18 0.533573 0.250000 0.902117
#
# Coordination Sequence:
#
# PCOD8068795 Si02
#       7
#     4   4   4   4   4   4   4
#     4  10  18  29  45  65  95 132 168 202 237 281
#     4   9  19  33  47  68  96 127 161 199 242 288
#     4  10  18  29  45  67  95 130 172 209 243 284
#     4  11  22  37  56  76  98 123 156 199 245 294
#     4   9  18  29  42  64  96 134 172 207 242 279
#     4  10  19  32  50  72  99 129 162 202 246 290
#     4   9  17  27  41  64  95 128 162 197 236 282
#
# _framework density 16.536836000000001
#
# number of rings (size 3 to 8) (size 9 to 14) (size 15 to 20)
#    0.000    2.286    1.429    3.429    0.000    4.000 
#    0.000    0.000    0.000    0.000    0.000    1.000 
#    0.000    0.000    0.000    0.000    0.000    0.000 
#
# Total GULP energy -347132.146314 kJ/mol
# GULP energy per Si atom -12397.576654 kJ/mol
# Density = 1.649920 g / cm^3
# Si number density = 16.536836 Si / 1000 Ang^3
#
#
#
# Elastic Constant Matrix: (Units=GPa)
#
#
# Indices 1 2 3 4 5 6 
#
# 1 78.3727 45.6414 50.9580 0.0000 -8.3468 0.0000
# 2 45.6414 89.6605 47.4005 0.0000 -4.5421 0.0000
# 3 50.9580 47.4005 97.1128 0.0000 -20.9594 0.0000
# 4 0.0000 0.0000 0.0000 27.8781 0.0000 1.9558
# 5 -8.3468 -4.5421 -20.9594 0.0000 20.2302 0.0000
# 6 0.0000 0.0000 0.0000 1.9558 0.0000 22.8676
#
#
#
# Elastic Compliance Matrix: (Units=1/GPa)
#
#
# Indices 1 2 3 4 5 6 
#
# 1 0.022173 -0.006813 -0.008585 0.000000 -0.001275 0.000000
# 2 -0.006813 0.017606 -0.006146 0.000000 -0.005226 0.000000
# 3 -0.008585 -0.006146 0.021561 0.000000 0.017416 0.000000
# 4 0.000000 0.000000 0.000000 0.036087 0.000000 -0.003086
# 5 -0.001275 -0.005226 0.017416 0.000000 0.065775 0.000000
# 6 0.000000 0.000000 0.000000 -0.003086 0.000000 0.043994
#
#
# Mechanical properties :
#
#
# Convention : Reuss Voigt Hill
#
# Bulk Modulus (GPa) = 54.78978 61.46065 58.12522
# Shear Modulus (GPa) = 19.50317 22.27161 20.88739
#
# Velocity S-wave (km/s) = 3.43793 3.67384 3.55784
# Velocity P-wave (km/s) = 6.99736 7.43255 7.21823
#
# Compressibility (1/GPa) = 0.01825158
#
# Stress axis : x y z
#
# Youngs Moduli (GPa) = 45.09906 56.79857 46.38076
#
# Poissons Ratio (x) = 0.38700 0.39816
# Poissons Ratio (y) = 0.30728 0.28506
# Poissons Ratio (z) = 0.38716 0.34909
#
# Static dielectric constant tensor:
#      x y z
#    x 2.886350 0.000000 -0.249400 
#    y 0.000000 3.141280 0.000000 
#    z -0.249400 0.000000 3.197370 
# 
# 
# High freq. dielectric constant tensor:
#      x y z
#    x 1.594960 0.000000 -0.018360 
#    y 0.000000 1.642610 0.000000 
#    z -0.018360 0.000000 1.634600 
# 
# From -- ./inp_files/37427.got.cif
#   From: 2010.06.25/outbox.cif.g09.slc.cpg/sg11_19_cif.got.tgz:37427.got - 2010.06.27 23:14:04.
