data_PCOD8068117
_publ_section_title
;
Structure prediction by ZEFSAII (Michael W. Deem and Ramdas Pophale) SiO2 
 PCOD8068117
Probable space group: P 21/M
;
_chemical_formula_sum "Si O2"
_cell_formula_units_Z 32
_cell_length_a 9.119294
_cell_length_b 15.434834
_cell_length_c 18.404465
_cell_angle_alpha 90.000000
_cell_angle_beta 41.295181
_cell_angle_gamma 90.000000
_cell_volume 1709.581577
_symmetry_space_group_name_H-M "P 21/M"
_symmetry_group_IT_number 11
_symmetry_cell_setting 'monoclinic'
loop_
_space_group_symop_operation_xyz
x,y,z
-x,1/2+y,-z
-x,-y,-z
x,1/2-y,z
loop_
_atom_site_type_symbol
_atom_site_label
_atom_site_fract_x
_atom_site_fract_y
_atom_site_fract_z
Si Si1 0.716156 0.348650 0.745323
Si Si2 0.364396 0.496735 0.875574
Si Si3 0.229721 0.655367 0.732524
Si Si4 0.568827 0.906200 0.499139
Si Si5 0.415847 0.345692 0.270497
Si Si6 0.979596 0.505822 0.126849
Si Si7 0.109522 0.150415 0.505817
Si Si8 0.071898 0.347340 0.737560
O O1 0.629349 0.250000 0.780905
O O2 0.505180 0.409762 0.828462
O O3 0.848806 0.365804 0.619762
O O4 0.883183 0.368726 0.748937
O O5 0.524737 0.581004 0.810428
O O6 0.207491 0.489555 0.864690
O O7 0.223667 0.505553 0.001329
O O8 0.112608 0.750000 0.775642
O O9 0.348319 0.642241 0.610339
O O10 0.411296 0.652177 0.728101
O O11 0.047161 0.581015 0.814788
O O12 0.744602 0.914162 0.499479
O O13 0.683563 0.857018 0.388995
O O14 0.500000 0.000000 0.500000
O O15 0.418570 0.250000 0.232360
O O16 0.172035 0.364132 0.397497
O O17 0.955894 0.590159 0.184293
O O18 0.168772 0.250000 0.506775
O O19 0.047408 0.250000 0.776266
#
# Coordination Sequence:
#
# PCOD8068117 Si02
#       8
#     4   4   4   4   4   4   4   4
#     4   9  19  35  54  76 102 136 172 210 260 314
#     4  10  21  34  52  76 105 135 174 222 255 298
#     4   9  16  29  48  71 100 133 168 209 257 308
#     4  10  15  25  49  77 100 128 164 216 255 307
#     4   8  15  29  50  72  96 131 172 210 252 306
#     4  10  21  35  50  78 105 133 177 218 258 297
#     4   8  15  29  49  74 100 131 175 210 247 313
#     4  10  20  35  54  77 105 137 173 211 256 314
#
# _framework density 18.718031
#
# number of rings (size 3 to 8) (size 9 to 14) (size 15 to 20)
#    0.000    2.750    1.250    2.625    0.000    2.500 
#    0.000    2.500    0.000    0.750    0.000    0.000 
#    0.000    0.000    0.000    0.000    0.000    0.000 
#
# Total GULP energy -396613.985912 kJ/mol
# GULP energy per Si atom -12394.187060 kJ/mol
# Density = 1.867543 g / cm^3
# Si number density = 18.718031 Si / 1000 Ang^3
#
#
#
# Elastic Constant Matrix: (Units=GPa)
#
#
# Indices 1 2 3 4 5 6 
#
# 1 15.3545 26.5728 28.9481 0.0000 1.9477 0.0000
# 2 26.5728 133.2901 75.7561 0.0000 10.6210 0.0000
# 3 28.9481 75.7561 156.7481 0.0000 21.1765 0.0000
# 4 0.0000 0.0000 0.0000 22.4070 0.0000 -3.4785
# 5 1.9477 10.6210 21.1765 0.0000 10.7276 0.0000
# 6 0.0000 0.0000 0.0000 -3.4785 0.0000 26.2396
#
#
#
# Elastic Compliance Matrix: (Units=1/GPa)
#
#
# Indices 1 2 3 4 5 6 
#
# 1 0.127301 -0.016698 -0.019842 0.000000 0.032589 0.000000
# 2 -0.016698 0.012536 -0.002329 0.000000 -0.004783 0.000000
# 3 -0.019842 -0.002329 0.014143 0.000000 -0.022011 0.000000
# 4 0.000000 0.000000 0.000000 0.045567 0.000000 0.006041
# 5 0.032589 -0.004783 -0.022011 0.000000 0.135487 0.000000
# 6 0.000000 0.000000 0.000000 0.006041 0.000000 0.038911
#
#
# Mechanical properties :
#
#
# Convention : Reuss Voigt Hill
#
# Bulk Modulus (GPa) = 13.11619 63.10520 38.11069
# Shear Modulus (GPa) = 10.48006 23.48253 16.98130
#
# Velocity S-wave (km/s) = 2.36877 3.54579 3.01527
# Velocity P-wave (km/s) = 3.80840 7.10987 5.70325
#
# Compressibility (1/GPa) = 0.07624167
#
# Stress axis : x y z
#
# Youngs Moduli (GPa) = 7.85542 79.77017 70.70518
#
# Poissons Ratio (x) = 1.33201 1.40296
# Poissons Ratio (y) = 0.13117 0.16465
# Poissons Ratio (z) = 0.15587 0.18576
#
# Static dielectric constant tensor:
#      x y z
#    x 2.880420 0.000000 0.116160 
#    y 0.000000 3.559260 0.000000 
#    z 0.116160 0.000000 3.722220 
# 
# 
# High freq. dielectric constant tensor:
#      x y z
#    x 1.667520 0.000000 0.009430 
#    y 0.000000 1.735810 0.000000 
#    z 0.009430 0.000000 1.735430 
# 
# From -- ./inp_files/63800.got.cif
#   From: 2010.06.25/outbox.cif.g09.slc.cpg/sg11_32_cif.got.tgz:63800.got - 2010.06.27 23:14:04.
