data_PCOD8068524
_publ_section_title
;
Structure prediction by ZEFSAII (Michael W. Deem and Ramdas Pophale) SiO2 
 PCOD8068524
Probable space group: P 21/M
;
_chemical_formula_sum "Si O2"
_cell_formula_units_Z 32
_cell_length_a 13.682525
_cell_length_b 9.007136
_cell_length_c 26.818244
_cell_angle_alpha 90.000000
_cell_angle_beta 40.576493
_cell_angle_gamma 90.000000
_cell_volume 2149.837700
_symmetry_space_group_name_H-M "P 21/M"
_symmetry_group_IT_number 11
_symmetry_cell_setting 'monoclinic'
loop_
_space_group_symop_operation_xyz
x,y,z
-x,1/2+y,-z
-x,-y,-z
x,1/2-y,z
loop_
_atom_site_type_symbol
_atom_site_label
_atom_site_fract_x
_atom_site_fract_y
_atom_site_fract_z
Si Si1 0.246586 0.574660 0.260323
Si Si2 0.893641 0.423602 0.974850
Si Si3 0.694883 0.078051 0.960278
Si Si4 0.359662 0.077313 0.118125
Si Si5 0.972695 0.920183 0.590175
Si Si6 0.788318 0.925510 0.112291
Si Si7 0.467536 0.577665 0.261332
Si Si8 0.203396 0.921437 0.426216
O O1 0.243347 0.750000 0.257274
O O2 0.284181 0.508611 0.192494
O O3 0.080525 0.519475 0.342426
O O4 0.367488 0.515234 0.254109
O O5 0.874522 0.250000 0.993096
O O6 0.829112 0.464759 0.945738
O O7 0.068512 0.473434 0.909668
O O8 0.798371 0.509087 0.053133
O O9 0.700543 0.250000 0.942230
O O10 0.717283 0.978352 0.902912
O O11 0.536990 0.042117 0.048337
O O12 0.326527 0.250000 0.137316
O O13 0.942581 0.750000 0.616037
O O14 0.148886 0.944705 0.504977
O O15 0.881417 0.962776 0.576069
O O16 0.783821 0.750000 0.108859
O O17 0.635594 0.991128 0.196636
O O18 0.487590 0.750000 0.243417
O O19 0.381987 0.548577 0.347450
O O20 0.168025 0.750000 0.423584
#
# Coordination Sequence:
#
# PCOD8068524 Si02
#       8
#     4   4   4   4   4   4   4   4
#     4  10  18  27  39  55  79 107 131 159 194 228
#     4   9  17  28  41  57  78 103 129 159 194 227
#     4   9  18  31  43  56  78 104 128 159 198 233
#     4  10  19  29  42  59  76  98 132 166 193 228
#     4   9  15  23  36  53  74 101 132 161 188 224
#     4   9  16  26  41  59  78 102 132 161 187 222
#     4   8  14  24  38  56  77 103 133 159 185 221
#     4   8  14  24  36  51  74 103 131 159 191 225
#
# _framework density 14.884843999999999
#
# number of rings (size 3 to 8) (size 9 to 14) (size 15 to 20)
#    0.000    3.000    0.000    2.625    0.000    1.500 
#    0.000    2.500    0.000    0.000    0.000    0.000 
#    0.000    1.000    0.000    1.750    0.000    2.750 
#
# Total GULP energy -396471.077687 kJ/mol
# GULP energy per Si atom -12389.721178 kJ/mol
# Density = 1.485097 g / cm^3
# Si number density = 14.884844 Si / 1000 Ang^3
#
#
#
# Elastic Constant Matrix: (Units=GPa)
#
#
# Indices 1 2 3 4 5 6 
#
# 1 63.0609 22.9320 47.7579 0.0000 -1.6343 0.0000
# 2 22.9320 48.0814 42.3662 0.0000 5.2238 0.0000
# 3 47.7579 42.3662 147.0123 0.0000 -3.5522 0.0000
# 4 0.0000 0.0000 0.0000 23.3340 0.0000 4.5803
# 5 -1.6343 5.2238 -3.5522 0.0000 18.3721 0.0000
# 6 0.0000 0.0000 0.0000 4.5803 0.0000 14.9751
#
#
#
# Elastic Compliance Matrix: (Units=1/GPa)
#
#
# Indices 1 2 3 4 5 6 
#
# 1 0.022246 -0.006154 -0.005388 0.000000 0.002687 0.000000
# 2 -0.006154 0.031343 -0.007296 0.000000 -0.010870 0.000000
# 3 -0.005388 -0.007296 0.010744 0.000000 0.003672 0.000000
# 4 0.000000 0.000000 0.000000 0.045593 0.000000 -0.013945
# 5 0.002687 -0.010870 0.003672 0.000000 0.058470 0.000000
# 6 0.000000 0.000000 0.000000 -0.013945 0.000000 0.071043
#
#
# Mechanical properties :
#
#
# Convention : Reuss Voigt Hill
#
# Bulk Modulus (GPa) = 37.51493 53.80742 45.66118
# Shear Modulus (GPa) = 17.48248 21.00949 19.24599
#
# Velocity S-wave (km/s) = 3.43084 3.76103 3.59972
# Velocity P-wave (km/s) = 6.39940 7.42213 6.92966
#
# Compressibility (1/GPa) = 0.02665605
#
# Stress axis : x y z
#
# Youngs Moduli (GPa) = 44.95189 31.90527 93.07649
#
# Poissons Ratio (x) = 0.19635 0.50153
# Poissons Ratio (y) = 0.27664 0.67907
# Poissons Ratio (z) = 0.24222 0.23278
#
# Static dielectric constant tensor:
#      x y z
#    x 2.677070 0.000000 -0.206650 
#    y 0.000000 2.849790 0.000000 
#    z -0.206650 0.000000 3.284530 
# 
# 
# High freq. dielectric constant tensor:
#      x y z
#    x 1.517380 0.000000 -0.005040 
#    y 0.000000 1.569420 0.000000 
#    z -0.005040 0.000000 1.579520 
# 
# From -- ./inp_files/59862.got.cif
#   From: 2010.06.25/outbox.cif.g09.slc.cpg/sg11_30_cif.got.tgz:59862.got - 2010.06.27 23:14:04.
