data_PCOD8068978
_publ_section_title
;
Structure prediction by ZEFSAII (Michael W. Deem and Ramdas Pophale) SiO2 
 PCOD8068978
Probable space group: P 21/M
;
_chemical_formula_sum "Si O2"
_cell_formula_units_Z 32
_cell_length_a 23.735243
_cell_length_b 8.989245
_cell_length_c 11.967657
_cell_angle_alpha 90.000000
_cell_angle_beta 129.617759
_cell_angle_gamma 90.000000
_cell_volume 1966.956455
_symmetry_space_group_name_H-M "P 21/M"
_symmetry_group_IT_number 11
_symmetry_cell_setting 'monoclinic'
loop_
_space_group_symop_operation_xyz
x,y,z
-x,1/2+y,-z
-x,-y,-z
x,1/2-y,z
loop_
_atom_site_type_symbol
_atom_site_label
_atom_site_fract_x
_atom_site_fract_y
_atom_site_fract_z
Si Si1 0.040926 0.572979 0.949034
Si Si2 0.386659 0.582544 0.161064
Si Si3 0.990310 0.077726 0.664244
Si Si4 0.517051 0.076185 0.405468
Si Si5 0.329036 0.583809 0.339627
Si Si6 0.248248 0.421985 0.932041
Si Si7 0.107822 0.079340 0.624434
Si Si8 0.807075 0.923661 0.894049
O O1 0.038163 0.750000 0.953945
O O2 0.999935 0.520910 0.785681
O O3 0.124209 0.518678 0.057899
O O4 0.000000 0.500000 0.000000
O O5 0.399442 0.750000 0.137022
O O6 0.463885 0.494993 0.244083
O O7 0.361560 0.571881 0.256842
O O8 0.322818 0.511947 0.003890
O O9 0.983523 0.250000 0.689437
O O10 0.059725 0.048636 0.673373
O O11 0.916614 0.026668 0.507559
O O12 0.499742 0.250000 0.393753
O O13 0.603768 0.049319 0.489559
O O14 0.500000 0.000000 0.500000
O O15 0.298726 0.750000 0.322040
O O16 0.262619 0.468033 0.271285
O O17 0.269439 0.250000 0.963056
O O18 0.191784 0.457438 0.760736
O O19 0.210176 0.467198 0.000288
O O20 0.098350 0.250000 0.574868
O O21 0.824521 0.750000 0.901818
#
# Coordination Sequence:
#
# PCOD8068978 Si02
#       8
#     4   4   4   4   4   4   4   4
#     4  12  24  37  52  67  88 117 149 188 231 274
#     4   9  16  23  33  52  78 107 143 178 213 256
#     4  10  19  33  49  69  91 113 147 185 225 271
#     4   9  15  23  34  49  72 103 140 176 212 253
#     4   8  15  25  36  53  75 104 140 178 215 256
#     4   9  16  27  42  60  86 116 146 181 218 259
#     4   9  17  30  47  68  92 118 147 183 225 267
#     4  10  18  30  45  63  84 109 144 184 223 266
#
# _framework density 16.268789000000002
#
# number of rings (size 3 to 8) (size 9 to 14) (size 15 to 20)
#    0.000    2.500    1.250    3.375    0.000    5.000 
#    0.000    0.000    0.000    0.000    0.000    0.000 
#    0.000    0.000    0.000    1.125    0.000   14.875 
#
# Total GULP energy -396657.635923 kJ/mol
# GULP energy per Si atom -12395.551123 kJ/mol
# Density = 1.623176 g / cm^3
# Si number density = 16.268789 Si / 1000 Ang^3
#
#
#
# Elastic Constant Matrix: (Units=GPa)
#
#
# Indices 1 2 3 4 5 6 
#
# 1 38.2809 37.9818 42.8480 0.0000 11.6010 0.0000
# 2 37.9818 112.1517 56.0552 0.0000 15.1184 0.0000
# 3 42.8480 56.0552 102.7012 0.0000 31.2828 0.0000
# 4 0.0000 0.0000 0.0000 29.9372 0.0000 8.1232
# 5 11.6010 15.1184 31.2828 0.0000 22.2819 0.0000
# 6 0.0000 0.0000 0.0000 8.1232 0.0000 19.8919
#
#
#
# Elastic Compliance Matrix: (Units=1/GPa)
#
#
# Indices 1 2 3 4 5 6 
#
# 1 0.056506 -0.009995 -0.019610 0.000000 0.004894 0.000000
# 2 -0.009995 0.014075 -0.003823 0.000000 0.001022 0.000000
# 3 -0.019610 -0.003823 0.028139 0.000000 -0.026701 0.000000
# 4 0.000000 0.000000 0.000000 0.037566 0.000000 -0.015341
# 5 0.004894 0.001022 -0.026701 0.000000 0.079126 0.000000
# 6 0.000000 0.000000 0.000000 -0.015341 0.000000 0.056536
#
#
# Mechanical properties :
#
#
# Convention : Reuss Voigt Hill
#
# Bulk Modulus (GPa) = 31.38494 58.54486 44.96490
# Shear Modulus (GPa) = 14.30922 22.17212 18.24067
#
# Velocity S-wave (km/s) = 2.96894 3.69570 3.35207
# Velocity P-wave (km/s) = 5.57550 7.36716 6.53304
#
# Compressibility (1/GPa) = 0.03186242
#
# Stress axis : x y z
#
# Youngs Moduli (GPa) = 17.69717 71.04991 35.53825
#
# Poissons Ratio (x) = 0.71013 0.69692
# Poissons Ratio (y) = 0.17688 0.13588
# Poissons Ratio (z) = 0.34705 0.27165
#
# Static dielectric constant tensor:
#      x y z
#    x 3.090170 0.000000 1.043340 
#    y 0.000000 3.196860 0.000000 
#    z 1.043340 0.000000 4.216080 
# 
# 
# High freq. dielectric constant tensor:
#      x y z
#    x 1.562960 0.000000 0.046840 
#    y 0.000000 1.639160 0.000000 
#    z 0.046840 0.000000 1.623150 
# 
# From -- ./inp_files/43801.got.cif
#   From: 2010.06.25/outbox.cif.g09.slc.cpg/sg11_22_cif.got.tgz:43801.got - 2010.06.27 23:14:04.
