data_PCOD8068199
_publ_section_title
;
Structure prediction by ZEFSAII (Michael W. Deem and Ramdas Pophale) SiO2 
 PCOD8068199
Probable space group: P 21/M
;
_chemical_formula_sum "Si O2"
_cell_formula_units_Z 32
_cell_length_a 24.157149
_cell_length_b 9.112743
_cell_length_c 17.058885
_cell_angle_alpha 90.000000
_cell_angle_beta 33.650575
_cell_angle_gamma 90.000000
_cell_volume 2080.915301
_symmetry_space_group_name_H-M "P 21/M"
_symmetry_group_IT_number 11
_symmetry_cell_setting 'monoclinic'
loop_
_space_group_symop_operation_xyz
x,y,z
-x,1/2+y,-z
-x,-y,-z
x,1/2-y,z
loop_
_atom_site_type_symbol
_atom_site_label
_atom_site_fract_x
_atom_site_fract_y
_atom_site_fract_z
Si Si1 0.759455 0.922540 0.564935
Si Si2 0.899869 0.081864 0.101104
Si Si3 0.752434 0.415314 0.810641
Si Si4 0.102725 0.920225 0.232007
Si Si5 0.158817 0.922441 0.667305
Si Si6 0.048240 0.579715 0.124325
Si Si7 0.394716 0.077682 0.120979
Si Si8 0.911113 0.082120 0.491358
O O1 0.768229 0.750000 0.545001
O O2 0.664352 0.966048 0.730112
O O3 0.753601 0.997619 0.485953
O O4 0.860230 0.982877 0.484934
O O5 0.925974 0.250000 0.082598
O O6 0.821012 0.040024 0.263405
O O7 0.872945 0.050750 0.041227
O O8 0.000000 0.000000 0.000000
O O9 0.709645 0.250000 0.854720
O O10 0.788538 0.452060 0.856803
O O11 0.666046 0.524743 0.883984
O O12 0.852080 0.432870 0.641750
O O13 0.074543 0.750000 0.278628
O O14 0.106927 0.960568 0.134858
O O15 0.022146 0.020521 0.371684
O O16 0.164364 0.750000 0.643703
O O17 0.050112 0.981097 0.769045
O O18 0.014405 0.750000 0.164841
O O19 0.410309 0.250000 0.095492
O O20 0.500000 0.000000 0.000000
O O21 0.914022 0.250000 0.459070
#
# Coordination Sequence:
#
# PCOD8068199 Si02
#       8
#     4   4   4   4   4   4   4   4
#     4  10  19  30  44  63  85 111 143 175 214 261
#     4   8  15  25  36  53  78 111 148 181 212 246
#     4   9  19  32  44  62  86 113 144 176 211 253
#     4  10  18  27  41  60  86 118 149 178 208 247
#     4  10  17  25  39  59  83 111 147 185 215 246
#     4   9  16  26  39  55  82 119 151 179 212 247
#     4  10  21  36  53  68  84 108 137 175 220 265
#     4  10  18  27  40  58  84 115 146 181 213 241
#
# _framework density 15.377848
#
# number of rings (size 3 to 8) (size 9 to 14) (size 15 to 20)
#    0.000    2.500    1.250    1.875    0.000    3.000 
#    0.000    0.000    0.000    0.000    0.000    0.000 
#    0.000    1.000    0.000    2.000    0.000    2.625 
#
# Total GULP energy -396473.433706 kJ/mol
# GULP energy per Si atom -12389.794803 kJ/mol
# Density = 1.534285 g / cm^3
# Si number density = 15.377848 Si / 1000 Ang^3
#
#
#
# Elastic Constant Matrix: (Units=GPa)
#
#
# Indices 1 2 3 4 5 6 
#
# 1 91.1012 36.4661 50.7232 0.0000 11.2659 0.0000
# 2 36.4661 65.5495 38.7549 0.0000 2.2487 0.0000
# 3 50.7232 38.7549 66.2219 0.0000 4.5572 0.0000
# 4 0.0000 0.0000 0.0000 22.1588 0.0000 0.6274
# 5 11.2659 2.2487 4.5572 0.0000 20.4835 0.0000
# 6 0.0000 0.0000 0.0000 0.6274 0.0000 19.2169
#
#
#
# Elastic Compliance Matrix: (Units=1/GPa)
#
#
# Indices 1 2 3 4 5 6 
#
# 1 0.020778 -0.003366 -0.013390 0.000000 -0.008080 0.000000
# 2 -0.003366 0.023877 -0.011519 0.000000 0.001793 0.000000
# 3 -0.013390 -0.011519 0.031994 0.000000 0.001511 0.000000
# 4 0.000000 0.000000 0.000000 0.045171 0.000000 -0.001475
# 5 -0.008080 0.001793 0.001511 0.000000 0.052731 0.000000
# 6 0.000000 0.000000 0.000000 -0.001475 0.000000 0.052086
#
#
# Mechanical properties :
#
#
# Convention : Reuss Voigt Hill
#
# Bulk Modulus (GPa) = 49.74944 52.75124 51.25034
# Shear Modulus (GPa) = 17.24831 18.83374 18.04103
#
# Velocity S-wave (km/s) = 3.35271 3.50341 3.42889
# Velocity P-wave (km/s) = 6.88543 7.12342 7.00544
#
# Compressibility (1/GPa) = 0.02010073
#
# Stress axis : x y z
#
# Youngs Moduli (GPa) = 48.12741 41.88177 31.25621
#
# Poissons Ratio (x) = 0.14096 0.41851
# Poissons Ratio (y) = 0.16198 0.36003
# Poissons Ratio (z) = 0.64440 0.48242
#
# Static dielectric constant tensor:
#      x y z
#    x 3.242730 0.000000 0.555640 
#    y 0.000000 2.997670 0.000000 
#    z 0.555640 0.000000 2.911480 
# 
# 
# High freq. dielectric constant tensor:
#      x y z
#    x 1.575540 0.000000 0.037340 
#    y 0.000000 1.601630 0.000000 
#    z 0.037340 0.000000 1.550290 
# 
# From -- ./inp_files/42495.got.cif
#   From: 2010.06.25/outbox.cif.g09.slc.cpg/sg11_22_cif.got.tgz:42495.got - 2010.06.27 23:14:04.
