data_PCOD8068502
_publ_section_title
;
Structure prediction by ZEFSAII (Michael W. Deem and Ramdas Pophale) SiO2 
 PCOD8068502
Probable space group: P 21/M
;
_chemical_formula_sum "Si O2"
_cell_formula_units_Z 32
_cell_length_a 16.266318
_cell_length_b 9.192071
_cell_length_c 13.883928
_cell_angle_alpha 90.000000
_cell_angle_beta 96.197456
_cell_angle_gamma 90.000000
_cell_volume 2063.808580
_symmetry_space_group_name_H-M "P 21/M"
_symmetry_group_IT_number 11
_symmetry_cell_setting 'monoclinic'
loop_
_space_group_symop_operation_xyz
x,y,z
-x,1/2+y,-z
-x,-y,-z
x,1/2-y,z
loop_
_atom_site_type_symbol
_atom_site_label
_atom_site_fract_x
_atom_site_fract_y
_atom_site_fract_z
Si Si1 0.745084 0.080907 0.519621
Si Si2 0.576731 0.582778 0.965746
Si Si3 0.942050 0.914433 0.361772
Si Si4 0.782095 0.419936 0.305414
Si Si5 0.566817 0.420928 0.572657
Si Si6 0.097246 0.085853 0.418505
Si Si7 0.534927 0.419276 0.785871
Si Si8 0.649478 0.584875 0.170665
O O1 0.762704 0.250000 0.540841
O O2 0.746498 0.045324 0.406537
O O3 0.657207 0.030900 0.549362
O O4 0.814530 0.990882 0.585542
O O5 0.553087 0.750000 0.945291
O O6 0.596447 0.507517 0.865531
O O7 0.500000 0.500000 0.000000
O O8 0.650061 0.570163 0.053964
O O9 0.948208 0.750000 0.323100
O O10 0.925623 0.914667 0.472794
O O11 0.868210 0.997403 0.298203
O O12 0.027718 0.997666 0.350501
O O13 0.798145 0.250000 0.292942
O O14 0.716523 0.474065 0.219279
O O15 0.500000 0.500000 0.500000
O O16 0.553276 0.250000 0.558809
O O17 0.555557 0.470519 0.681095
O O18 0.101544 0.250000 0.379080
O O19 0.553175 0.250000 0.803592
O O20 0.439671 0.456593 0.796583
O O21 0.672093 0.750000 0.203772
#
# Coordination Sequence:
#
# PCOD8068502 Si02
#       8
#     4   4   4   4   4   4   4   4
#     4   9  18  30  41  57  83 114 146 177 210 247
#     4   9  17  29  45  63  82 106 138 176 217 261
#     4   9  16  26  40  57  80 109 136 167 209 251
#     4  10  18  26  39  60  85 112 142 173 205 248
#     4  10  20  32  45  62  86 116 150 185 217 250
#     4   9  16  26  41  59  78 104 140 176 207 244
#     4   9  18  31  45  61  83 112 146 183 218 252
#     4   9  17  28  41  59  83 109 137 171 214 258
#
# _framework density 15.505312999999999
#
# number of rings (size 3 to 8) (size 9 to 14) (size 15 to 20)
#    0.000    2.750    0.000    3.000    0.000    7.000 
#    0.000    0.000    0.000    0.000    0.000    0.000 
#    0.000    1.000    0.000    3.000    0.000    4.625 
#
# Total GULP energy -396738.882743 kJ/mol
# GULP energy per Si atom -12398.090086 kJ/mol
# Density = 1.547002 g / cm^3
# Si number density = 15.505313 Si / 1000 Ang^3
#
#
#
# Elastic Constant Matrix: (Units=GPa)
#
#
# Indices 1 2 3 4 5 6 
#
# 1 100.0391 55.1488 47.8900 0.0000 14.6340 0.0000
# 2 55.1488 99.1311 49.0729 0.0000 14.2818 0.0000
# 3 47.8900 49.0729 86.1488 0.0000 8.8582 0.0000
# 4 0.0000 0.0000 0.0000 25.2079 0.0000 8.7810
# 5 14.6340 14.2818 8.8582 0.0000 15.9855 0.0000
# 6 0.0000 0.0000 0.0000 8.7810 0.0000 26.7717
#
#
#
# Elastic Compliance Matrix: (Units=1/GPa)
#
#
# Indices 1 2 3 4 5 6 
#
# 1 0.016714 -0.005592 -0.005351 0.000000 -0.007340 0.000000
# 2 -0.005592 0.017134 -0.005942 0.000000 -0.006895 0.000000
# 3 -0.005351 -0.005942 0.017940 0.000000 0.000266 0.000000
# 4 0.000000 0.000000 0.000000 0.044787 0.000000 -0.014690
# 5 -0.007340 -0.006895 0.000266 0.000000 0.075289 0.000000
# 6 0.000000 0.000000 0.000000 -0.014690 0.000000 0.042171
#
#
# Mechanical properties :
#
#
# Convention : Reuss Voigt Hill
#
# Bulk Modulus (GPa) = 55.50364 65.50471 60.50417
# Shear Modulus (GPa) = 19.69964 22.47350 21.08657
#
# Velocity S-wave (km/s) = 3.56829 3.81124 3.69176
# Velocity P-wave (km/s) = 7.26988 7.85530 7.56825
#
# Compressibility (1/GPa) = 0.01801684
#
# Stress axis : x y z
#
# Youngs Moduli (GPa) = 59.82919 58.36488 55.74113
#
# Poissons Ratio (x) = 0.32638 0.29829
# Poissons Ratio (y) = 0.33456 0.33122
# Poissons Ratio (z) = 0.32017 0.34682
#
# Static dielectric constant tensor:
#      x y z
#    x 2.878560 0.000000 0.128000 
#    y 0.000000 3.143840 0.000000 
#    z 0.128000 0.000000 3.084880 
# 
# 
# High freq. dielectric constant tensor:
#      x y z
#    x 1.572830 0.000000 0.022170 
#    y 0.000000 1.607960 0.000000 
#    z 0.022170 0.000000 1.564370 
# 
# From -- ./inp_files/51181.got.cif
#   From: 2010.06.25/outbox.cif.g09.slc.cpg/sg11_26_cif.got.tgz:51181.got - 2010.06.27 23:14:04.
