data_PCOD8068198
_publ_section_title
;
Structure prediction by ZEFSAII (Michael W. Deem and Ramdas Pophale) SiO2 
 PCOD8068198
Probable space group: P 21/M
;
_chemical_formula_sum "Si O2"
_cell_formula_units_Z 32
_cell_length_a 30.698125
_cell_length_b 9.052033
_cell_length_c 14.270430
_cell_angle_alpha 90.000000
_cell_angle_beta 148.408494
_cell_angle_gamma 90.000000
_cell_volume 2077.351428
_symmetry_space_group_name_H-M "P 21/M"
_symmetry_group_IT_number 11
_symmetry_cell_setting 'monoclinic'
loop_
_space_group_symop_operation_xyz
x,y,z
-x,1/2+y,-z
-x,-y,-z
x,1/2-y,z
loop_
_atom_site_type_symbol
_atom_site_label
_atom_site_fract_x
_atom_site_fract_y
_atom_site_fract_z
Si Si1 0.260477 0.579326 0.471462
Si Si2 0.809977 0.077493 0.858423
Si Si3 0.112023 0.416520 0.273944
Si Si4 0.323498 0.417911 0.277935
Si Si5 0.513706 0.575867 0.303307
Si Si6 0.433554 0.421572 0.313785
Si Si7 0.962765 0.916898 0.069932
Si Si8 0.547688 0.075282 0.171671
O O1 0.240431 0.750000 0.451560
O O2 0.239767 0.535326 0.326893
O O3 0.203468 0.488633 0.439534
O O4 0.355435 0.539598 0.665308
O O5 0.825467 0.250000 0.896668
O O6 0.754755 0.021923 0.844059
O O7 0.899771 0.999404 0.024554
O O8 0.120262 0.250000 0.325530
O O9 0.052410 0.503803 0.236443
O O10 0.073499 0.423264 0.100457
O O11 0.297881 0.250000 0.253168
O O12 0.401616 0.461777 0.486341
O O13 0.345880 0.436558 0.208495
O O14 0.499603 0.750000 0.265872
O O15 0.435553 0.505420 0.217476
O O16 0.514462 0.498005 0.205013
O O17 0.500000 0.500000 0.500000
O O18 0.457064 0.250000 0.343310
O O19 0.974343 0.750000 0.126017
O O20 0.531168 0.250000 0.144576
O O21 0.500000 0.000000 0.000000
#
# Coordination Sequence:
#
# PCOD8068198 Si02
#       8
#     4   4   4   4   4   4   4   4
#     4   9  18  30  42  57  77 105 138 174 216 255
#     4  10  17  25  39  58  81 109 141 174 207 246
#     4   9  16  25  39  56  74 100 135 171 204 244
#     4   9  17  27  40  60  84 110 140 172 209 252
#     4  10  19  31  46  62  81 108 141 179 219 261
#     4   9  17  28  42  61  83 108 139 175 212 255
#     4   9  16  25  36  53  78 106 134 167 204 243
#     4  11  22  35  48  64  84 110 144 185 226 263
#
# _framework density 15.40423
#
# number of rings (size 3 to 8) (size 9 to 14) (size 15 to 20)
#    0.000    2.500    1.250    3.000    0.000    7.000 
#    0.000    0.000    0.000    0.000    0.000    0.000 
#    0.000    0.000    0.000    1.125    0.000   15.000 
#
# Total GULP energy -396717.113552 kJ/mol
# GULP energy per Si atom -12397.409799 kJ/mol
# Density = 1.536917 g / cm^3
# Si number density = 15.404230 Si / 1000 Ang^3
#
#
#
# Elastic Constant Matrix: (Units=GPa)
#
#
# Indices 1 2 3 4 5 6 
#
# 1 116.1301 71.4700 46.5340 0.0000 21.8165 0.0000
# 2 71.4700 115.9209 37.7277 0.0000 17.6277 0.0000
# 3 46.5340 37.7277 43.5945 0.0000 11.4496 0.0000
# 4 0.0000 0.0000 0.0000 19.3233 0.0000 6.7977
# 5 21.8165 17.6277 11.4496 0.0000 21.6393 0.0000
# 6 0.0000 0.0000 0.0000 6.7977 0.0000 31.2783
#
#
#
# Elastic Compliance Matrix: (Units=1/GPa)
#
#
# Indices 1 2 3 4 5 6 
#
# 1 0.019134 -0.006505 -0.012915 0.000000 -0.007159 0.000000
# 2 -0.006505 0.014700 -0.005058 0.000000 -0.002740 0.000000
# 3 -0.012915 -0.005058 0.042507 0.000000 -0.005350 0.000000
# 4 0.000000 0.000000 0.000000 0.056035 0.000000 -0.012178
# 5 -0.007159 -0.002740 -0.005350 0.000000 0.058492 0.000000
# 6 0.000000 0.000000 0.000000 -0.012178 0.000000 0.034618
#
#
# Mechanical properties :
#
#
# Convention : Reuss Voigt Hill
#
# Bulk Modulus (GPa) = 36.51658 65.23433 50.87545
# Shear Modulus (GPa) = 17.63224 22.44244 20.03734
#
# Velocity S-wave (km/s) = 3.38692 3.82108 3.61053
# Velocity P-wave (km/s) = 6.24916 7.86815 7.10492
#
# Compressibility (1/GPa) = 0.02738482
#
# Stress axis : x y z
#
# Youngs Moduli (GPa) = 52.26186 68.02549 23.52563
#
# Poissons Ratio (x) = 0.44253 0.30382
# Poissons Ratio (y) = 0.33998 0.11900
# Poissons Ratio (z) = 0.67494 0.34410
#
# Static dielectric constant tensor:
#      x y z
#    x 3.081340 0.000000 0.307980 
#    y 0.000000 3.163050 0.000000 
#    z 0.307980 0.000000 2.534590 
# 
# 
# High freq. dielectric constant tensor:
#      x y z
#    x 1.585430 0.000000 0.037920 
#    y 0.000000 1.610310 0.000000 
#    z 0.037920 0.000000 1.527500 
# 
# From -- ./inp_files/51267.got.cif
#   From: 2010.06.25/outbox.cif.g09.slc.cpg/sg11_26_cif.got.tgz:51267.got - 2010.06.27 23:14:04.
