data_PCOD8068844
_publ_section_title
;
Structure prediction by ZEFSAII (Michael W. Deem and Ramdas Pophale) SiO2 
 PCOD8068844
Probable space group: P 21/M
;
_chemical_formula_sum "Si O2"
_cell_formula_units_Z 28
_cell_length_a 9.320496
_cell_length_b 17.224672
_cell_length_c 22.190050
_cell_angle_alpha 90.000000
_cell_angle_beta 28.014468
_cell_angle_gamma 90.000000
_cell_volume 1673.261216
_symmetry_space_group_name_H-M "P 21/M"
_symmetry_group_IT_number 11
_symmetry_cell_setting 'monoclinic'
loop_
_space_group_symop_operation_xyz
x,y,z
-x,1/2+y,-z
-x,-y,-z
x,1/2-y,z
loop_
_atom_site_type_symbol
_atom_site_label
_atom_site_fract_x
_atom_site_fract_y
_atom_site_fract_z
Si Si1 0.498976 0.836899 0.049822
Si Si2 0.844423 0.837743 0.800272
Si Si3 0.948505 0.592999 0.193254
Si Si4 0.275109 0.591034 0.957364
Si Si5 0.179824 0.510747 0.650254
Si Si6 0.659117 0.839705 0.192224
Si Si7 0.587655 0.444047 0.810230
O O1 0.533984 0.750000 0.061793
O O2 0.566327 0.895213 0.079070
O O3 0.149721 0.845828 0.156417
O O4 0.742116 0.852548 0.906836
O O5 0.966364 0.750000 0.746099
O O6 0.556834 0.850274 0.862533
O O7 0.111695 0.897973 0.684196
O O8 0.804938 0.528252 0.289536
O O9 0.680248 0.638532 0.255700
O O10 0.177064 0.554246 0.058992
O O11 0.376312 0.519995 0.876988
O O12 0.986800 0.639879 0.038428
O O13 0.500000 0.500000 0.500000
O O14 0.927141 0.470189 0.701939
O O15 0.574720 0.750000 0.215529
O O16 0.402854 0.892319 0.254103
#
# Coordination Sequence:
#
# PCOD8068844 Si02
#       7
#     4   4   4   4   4   4   4
#     4   9  15  26  46  73 100 120 148 199 248 289
#     4   9  16  29  50  72  93 124 160 198 243 293
#     4   8  17  29  48  67  93 126 158 189 239 298
#     4   8  16  28  48  69  99 122 152 191 243 301
#     4  10  20  35  49  69  95 130 170 207 235 271
#     4  10  18  29  46  73 102 126 152 191 246 299
#     4  10  18  29  46  73  98 126 159 197 237 291
#
# _framework density 16.733788000000001
#
# number of rings (size 3 to 8) (size 9 to 14) (size 15 to 20)
#    0.857    2.000    0.000    2.571    0.000    3.429 
#    0.000    5.000    0.000    0.000    0.000    0.000 
#    0.000    0.000    0.000    0.000    0.000    0.000 
#
# Total GULP energy -346906.459113 kJ/mol
# GULP energy per Si atom -12389.516397 kJ/mol
# Density = 1.669570 g / cm^3
# Si number density = 16.733788 Si / 1000 Ang^3
#
#
#
# Elastic Constant Matrix: (Units=GPa)
#
#
# Indices 1 2 3 4 5 6 
#
# 1 64.5383 33.3231 10.3962 0.0000 -0.6310 0.0000
# 2 33.3231 114.9594 43.3851 0.0000 -1.4154 0.0000
# 3 10.3962 43.3851 69.6425 0.0000 -3.2796 0.0000
# 4 0.0000 0.0000 0.0000 14.6582 0.0000 -1.3491
# 5 -0.6310 -1.4154 -3.2796 0.0000 10.6474 0.0000
# 6 0.0000 0.0000 0.0000 -1.3491 0.0000 21.9719
#
#
#
# Elastic Compliance Matrix: (Units=1/GPa)
#
#
# Indices 1 2 3 4 5 6 
#
# 1 0.018255 -0.005578 0.000777 0.000000 0.000580 0.000000
# 2 -0.005578 0.013081 -0.007357 0.000000 -0.000858 0.000000
# 3 0.000777 -0.007357 0.019059 0.000000 0.004939 0.000000
# 4 0.000000 0.000000 0.000000 0.068609 0.000000 0.004213
# 5 0.000580 -0.000858 0.004939 0.000000 0.095362 0.000000
# 6 0.000000 0.000000 0.000000 0.004213 0.000000 0.045771
#
#
# Mechanical properties :
#
#
# Convention : Reuss Voigt Hill
#
# Bulk Modulus (GPa) = 38.34397 47.03877 42.69137
# Shear Modulus (GPa) = 17.05635 20.25789 18.65712
#
# Velocity S-wave (km/s) = 3.19607 3.48314 3.34269
# Velocity P-wave (km/s) = 6.04845 6.65939 6.36125
#
# Compressibility (1/GPa) = 0.02607972
#
# Stress axis : x y z
#
# Youngs Moduli (GPa) = 54.77926 76.44400 52.46891
#
# Poissons Ratio (x) = 0.42637 -0.04076
# Poissons Ratio (y) = 0.30554 0.38602
# Poissons Ratio (z) = -0.04256 0.56241
#
# Static dielectric constant tensor:
#      x y z
#    x 3.048620 0.000000 -0.005360 
#    y 0.000000 3.143520 0.000000 
#    z -0.005360 0.000000 2.639850 
# 
# 
# High freq. dielectric constant tensor:
#      x y z
#    x 1.636220 0.000000 -0.002990 
#    y 0.000000 1.651670 0.000000 
#    z -0.002990 0.000000 1.588400 
# 
# From -- ./inp_files/55873.got.cif
#   From: 2010.06.25/outbox.cif.g09.slc.cpg/sg11_28_cif.got.tgz:55873.got - 2010.06.27 23:14:04.
