data_PCOD8068208
_publ_section_title
;
Structure prediction by ZEFSAII (Michael W. Deem and Ramdas Pophale) SiO2 
 PCOD8068208
Probable space group: P 21/M
;
_chemical_formula_sum "Si O2"
_cell_formula_units_Z 24
_cell_length_a 12.150158
_cell_length_b 9.240043
_cell_length_c 14.399518
_cell_angle_alpha 90.000000
_cell_angle_beta 69.076796
_cell_angle_gamma 90.000000
_cell_volume 1510.005787
_symmetry_space_group_name_H-M "P 21/M"
_symmetry_group_IT_number 11
_symmetry_cell_setting 'monoclinic'
loop_
_space_group_symop_operation_xyz
x,y,z
-x,1/2+y,-z
-x,-y,-z
x,1/2-y,z
loop_
_atom_site_type_symbol
_atom_site_label
_atom_site_fract_x
_atom_site_fract_y
_atom_site_fract_z
Si Si1 0.246859 0.920079 0.683493
Si Si2 0.057982 0.417769 0.845094
Si Si3 0.401868 0.585861 0.477668
Si Si4 0.154970 0.416499 0.018196
Si Si5 0.452013 0.081410 0.730924
Si Si6 0.425052 0.081324 0.946765
O O1 0.234050 0.750000 0.709055
O O2 0.275737 0.949718 0.564267
O O3 0.124492 0.999876 0.741902
O O4 0.350538 0.984959 0.715720
O O5 0.046904 0.250000 0.823061
O O6 0.927436 0.482978 0.893885
O O7 0.131588 0.444429 0.916677
O O8 0.500000 0.500000 0.500000
O O9 0.431390 0.750000 0.491811
O O10 0.421496 0.558018 0.361086
O O11 0.128731 0.250000 0.050756
O O12 0.288457 0.460555 0.999482
O O13 0.411304 0.250000 0.739275
O O14 0.470703 0.033431 0.831309
O O15 0.444223 0.250000 0.956318
O O16 0.500000 0.000000 0.000000
#
# Coordination Sequence:
#
# PCOD8068208 Si02
#       6
#     4   4   4   4   4   4
#     4  10  17  25  41  68  94 118 147 180 221 270
#     4  10  18  29  46  66  90 121 150 180 225 274
#     4   8  15  25  40  61  87 117 147 178 218 266
#     4   9  18  32  45  63  89 118 152 187 223 263
#     4   9  16  30  45  60  88 122 152 185 222 263
#     4  10  20  33  48  66  90 121 155 188 223 262
#
# _framework density 15.893979
#
# number of rings (size 3 to 8) (size 9 to 14) (size 15 to 20)
#    0.000    2.667    1.667    1.000    0.000    2.667 
#    0.000    0.000    0.000    0.000    0.000    1.167 
#    0.000    0.000    0.000    0.000    0.000    0.000 
#
# Total GULP energy -297366.933122 kJ/mol
# GULP energy per Si atom -12390.288880 kJ/mol
# Density = 1.585780 g / cm^3
# Si number density = 15.893979 Si / 1000 Ang^3
#
#
#
# Elastic Constant Matrix: (Units=GPa)
#
#
# Indices 1 2 3 4 5 6 
#
# 1 73.8659 37.2791 57.1820 0.0000 -9.6926 0.0000
# 2 37.2791 73.7502 61.1601 0.0000 -16.2376 0.0000
# 3 57.1820 61.1601 144.4896 0.0000 -26.6783 0.0000
# 4 0.0000 0.0000 0.0000 22.8803 0.0000 -4.1719
# 5 -9.6926 -16.2376 -26.6783 0.0000 22.8430 0.0000
# 6 0.0000 0.0000 0.0000 -4.1719 0.0000 24.0956
#
#
#
# Elastic Compliance Matrix: (Units=1/GPa)
#
#
# Indices 1 2 3 4 5 6 
#
# 1 0.021105 -0.006043 -0.006291 0.000000 -0.002687 0.000000
# 2 -0.006043 0.023237 -0.006206 0.000000 0.006705 0.000000
# 3 -0.006291 -0.006206 0.013680 0.000000 0.008896 0.000000
# 4 0.000000 0.000000 0.000000 0.045130 0.000000 0.007814
# 5 -0.002687 0.006705 0.008896 0.000000 0.057793 0.000000
# 6 0.000000 0.000000 0.000000 0.007814 0.000000 0.042854
#
#
# Mechanical properties :
#
#
# Convention : Reuss Voigt Hill
#
# Bulk Modulus (GPa) = 47.75055 67.03870 57.39462
# Shear Modulus (GPa) = 20.17267 23.06275 21.61771
#
# Velocity S-wave (km/s) = 3.56645 3.81338 3.69198
# Velocity P-wave (km/s) = 6.86060 7.85235 7.37317
#
# Compressibility (1/GPa) = 0.02094217
#
# Stress axis : x y z
#
# Youngs Moduli (GPa) = 47.38205 43.03493 73.09944
#
# Poissons Ratio (x) = 0.26006 0.45984
# Poissons Ratio (y) = 0.28633 0.45367
# Poissons Ratio (z) = 0.29806 0.26709
#
# Static dielectric constant tensor:
#      x y z
#    x 2.599310 0.000000 -0.359230 
#    y 0.000000 3.089980 0.000000 
#    z -0.359230 0.000000 3.590970 
# 
# 
# High freq. dielectric constant tensor:
#      x y z
#    x 1.555640 0.000000 -0.034040 
#    y 0.000000 1.619900 0.000000 
#    z -0.034040 0.000000 1.621190 
# 
# From -- ./inp_files/36875.got.cif
#   From: 2010.06.25/outbox.cif.g09.slc.cpg/sg11_19_cif.got.tgz:36875.got - 2010.06.27 23:14:04.
