data_PCOD8068509
_publ_section_title
;
Structure prediction by ZEFSAII (Michael W. Deem and Ramdas Pophale) SiO2 
 PCOD8068509
Probable space group: P 21/M
;
_chemical_formula_sum "Si O2"
_cell_formula_units_Z 28
_cell_length_a 19.102466
_cell_length_b 9.277937
_cell_length_c 24.339969
_cell_angle_alpha 90.000000
_cell_angle_beta 22.364633
_cell_angle_gamma 90.000000
_cell_volume 1641.402497
_symmetry_space_group_name_H-M "P 21/M"
_symmetry_group_IT_number 11
_symmetry_cell_setting 'monoclinic'
loop_
_space_group_symop_operation_xyz
x,y,z
-x,1/2+y,-z
-x,-y,-z
x,1/2-y,z
loop_
_atom_site_type_symbol
_atom_site_label
_atom_site_fract_x
_atom_site_fract_y
_atom_site_fract_z
Si Si1 0.390399 0.420259 0.850103
Si Si2 0.595623 0.080155 0.597015
Si Si3 0.377270 0.921349 0.544837
Si Si4 0.745749 0.415498 0.656708
Si Si5 0.035922 0.078761 0.166275
Si Si6 0.072865 0.915987 0.364602
Si Si7 0.985116 0.918692 0.695871
O O1 0.371158 0.250000 0.858433
O O2 0.451885 0.485005 0.746038
O O3 0.540106 0.458535 0.788102
O O4 0.193435 0.485809 0.011756
O O5 0.576178 0.250000 0.609353
O O6 0.557767 0.023756 0.562731
O O7 0.800423 0.041888 0.468177
O O8 0.398356 0.750000 0.535462
O O9 0.165569 0.970311 0.707806
O O10 0.500000 0.000000 0.500000
O O11 0.789879 0.250000 0.607765
O O12 0.763706 0.435412 0.709479
O O13 0.886349 0.517923 0.523691
O O14 0.041008 0.250000 0.163251
O O15 0.075482 0.026763 0.199823
O O16 0.036336 0.750000 0.377802
O O17 0.130290 0.996315 0.266666
O O18 0.947785 0.750000 0.715691
#
# Coordination Sequence:
#
# PCOD8068509 Si02
#       7
#     4   4   4   4   4   4   4
#     4   9  14  26  48  70  87 113 154 195 222 251
#     4   8  14  25  46  68  86 113 152 184 212 256
#     4   9  17  31  49  71  93 115 144 181 220 264
#     4   9  17  28  44  64  89 120 154 190 229 265
#     4   8  16  28  47  71  91 113 151 191 219 257
#     4  10  18  26  40  66  93 118 152 192 229 267
#     4   9  15  28  46  65  87 116 154 192 222 258
#
# _framework density 17.058582999999999
#
# number of rings (size 3 to 8) (size 9 to 14) (size 15 to 20)
#    0.000    3.143    1.429    2.143    0.000    0.571 
#    0.000    4.286    0.000    1.714    0.000    0.000 
#    0.000    0.000    0.000    0.000    0.000    0.000 
#
# Total GULP energy -346959.169637 kJ/mol
# GULP energy per Si atom -12391.398916 kJ/mol
# Density = 1.701976 g / cm^3
# Si number density = 17.058583 Si / 1000 Ang^3
#
#
#
# Elastic Constant Matrix: (Units=GPa)
#
#
# Indices 1 2 3 4 5 6 
#
# 1 138.3654 35.4325 66.8890 0.0000 1.9054 0.0000
# 2 35.4325 37.4896 17.9116 0.0000 -0.1173 0.0000
# 3 66.8890 17.9116 123.0468 0.0000 13.2575 0.0000
# 4 0.0000 0.0000 0.0000 9.7336 0.0000 -0.6591
# 5 1.9054 -0.1173 13.2575 0.0000 21.7133 0.0000
# 6 0.0000 0.0000 0.0000 -0.6591 0.0000 29.6030
#
#
#
# Elastic Compliance Matrix: (Units=1/GPa)
#
#
# Indices 1 2 3 4 5 6 
#
# 1 0.012141 -0.008810 -0.005564 0.000000 0.002284 0.000000
# 2 -0.008810 0.035231 -0.000474 0.000000 0.001253 0.000000
# 3 -0.005564 -0.000474 0.011955 0.000000 -0.006813 0.000000
# 4 0.000000 0.000000 0.000000 0.102892 0.000000 0.002291
# 5 0.002284 0.001253 -0.006813 0.000000 0.050021 0.000000
# 6 0.000000 0.000000 0.000000 0.002291 0.000000 0.033831
#
#
# Mechanical properties :
#
#
# Convention : Reuss Voigt Hill
#
# Bulk Modulus (GPa) = 33.74843 59.92978 46.83910
# Shear Modulus (GPa) = 17.50423 24.12122 20.81272
#
# Velocity S-wave (km/s) = 3.20679 3.76443 3.49674
# Velocity P-wave (km/s) = 5.79121 7.35545 6.61970
#
# Compressibility (1/GPa) = 0.02963101
#
# Stress axis : x y z
#
# Youngs Moduli (GPa) = 82.36222 28.38404 83.64906
#
# Poissons Ratio (x) = 0.25006 0.46541
# Poissons Ratio (y) = 0.72560 0.03969
# Poissons Ratio (z) = 0.45825 0.01347
#
# Static dielectric constant tensor:
#      x y z
#    x 3.428190 0.000000 0.259280 
#    y 0.000000 2.793420 0.000000 
#    z 0.259280 0.000000 3.417400 
# 
# 
# High freq. dielectric constant tensor:
#      x y z
#    x 1.665980 0.000000 0.011000 
#    y 0.000000 1.611910 0.000000 
#    z 0.011000 0.000000 1.637420 
# 
# From -- ./inp_files/29030.got.cif
#   From: 2010.06.25/outbox.cif.g09.slc.cpg/sg11_15_cif.got.tgz:29030.got - 2010.06.27 23:14:04.
