data_PCOD8068005
_publ_section_title
;
Structure prediction by ZEFSAII (Michael W. Deem and Ramdas Pophale) SiO2 
 PCOD8068005
Probable space group: P 2/M
;
_chemical_formula_sum "Si O2"
_cell_formula_units_Z 32
_cell_length_a 26.353804
_cell_length_b 9.408735
_cell_length_c 21.113878
_cell_angle_alpha 90.000000
_cell_angle_beta 159.357841
_cell_angle_gamma 90.000000
_cell_volume 1845.606152
_symmetry_space_group_name_H-M "P 2/M"
_symmetry_group_IT_number 10
_symmetry_cell_setting 'monoclinic'
loop_
_space_group_symop_operation_xyz
x,y,z
-x,y,-z
-x,-y,-z
x,-y,z
loop_
_atom_site_type_symbol
_atom_site_label
_atom_site_fract_x
_atom_site_fract_y
_atom_site_fract_z
Si Si1 0.359512 0.334761 0.798060
Si Si2 0.660593 0.830745 0.852322
Si Si3 0.945909 0.833892 0.253716
Si Si4 0.947118 0.664183 0.506658
Si Si5 0.749674 0.166545 0.446522
Si Si6 0.839791 0.830483 0.806920
Si Si7 0.650759 0.830736 0.700017
Si Si8 0.651041 0.169082 0.469240
O O1 0.372732 0.500000 0.795392
O O2 0.222706 0.305956 0.683499
O O3 0.346039 0.247713 0.717220
O O4 0.500000 0.281972 0.000000
O O5 0.679446 0.770125 0.803442
O O6 0.511568 0.774531 0.708952
O O7 0.658766 0.000000 0.848818
O O8 0.798773 0.774742 0.051750
O O9 0.960936 0.754854 0.337237
O O10 0.080992 0.800755 0.365515
O O11 0.935683 0.000000 0.255942
O O12 0.983026 0.500000 0.560434
O O13 0.000000 0.714287 0.500000
O O14 0.706205 0.222846 0.465354
O O15 0.716921 0.000000 0.400884
O O16 0.767662 0.774608 0.787044
O O17 0.756728 0.771352 0.647751
O O18 0.838931 0.000000 0.802701
O O19 0.000000 0.769395 0.000000
O O20 0.500000 0.770715 0.500000
O O21 0.649265 0.000000 0.700062
O O22 0.653069 0.000000 0.473815
#
# Coordination Sequence:
#
# PCOD8068005 Si02
#       8
#     4   4   4   4   4   4   4   4
#     4   9  18  33  51  69  89 115 147 180 216 260
#     4   9  16  25  38  56  83 118 151 182 220 264
#     4   9  18  30  44  65  91 119 148 178 217 264
#     4   9  18  33  51  69  90 115 144 181 220 258
#     4   9  18  30  44  64  92 120 145 179 221 262
#     4   9  16  22  32  52  78 112 152 186 218 258
#     4   9  14  22  34  50  76 112 150 184 217 257
#     4   9  16  26  37  55  85 118 150 183 220 262
#
# _framework density 17.338476
#
# number of rings (size 3 to 8) (size 9 to 14) (size 15 to 20)
#    0.000    3.000    1.250    0.000    1.750    1.500 
#    0.000    0.000    0.000    0.000    0.000    0.000 
#    0.000    2.000    0.000    0.125    0.000    0.000 
#
# Total GULP energy -396684.562606 kJ/mol
# GULP energy per Si atom -12396.392581 kJ/mol
# Density = 1.729901 g / cm^3
# Si number density = 17.338476 Si / 1000 Ang^3
#
#
#
# Elastic Constant Matrix: (Units=GPa)
#
#
# Indices 1 2 3 4 5 6 
#
# 1 179.2371 29.3771 95.3717 0.0000 -6.2128 0.0000
# 2 29.3771 17.9311 29.0395 0.0000 -5.3067 0.0000
# 3 95.3717 29.0395 180.8787 0.0000 -6.8513 0.0000
# 4 0.0000 0.0000 0.0000 3.9553 0.0000 7.3154
# 5 -6.2128 -5.3067 -6.8513 0.0000 26.2759 0.0000
# 6 0.0000 0.0000 0.0000 7.3154 0.0000 3.6459
#
#
#
# Elastic Compliance Matrix: (Units=1/GPa)
#
#
# Indices 1 2 3 4 5 6 
#
# 1 0.008780 -0.009516 -0.003126 0.000000 -0.000661 0.000000
# 2 -0.009516 0.089751 -0.008878 0.000000 0.013561 0.000000
# 3 -0.003126 -0.008878 0.008591 0.000000 -0.000292 0.000000
# 4 0.000000 0.000000 0.000000 -0.093257 0.000000 0.187119
# 5 -0.000661 0.013561 -0.000292 0.000000 0.040564 0.000000
# 6 0.000000 0.000000 0.000000 0.187119 0.000000 -0.101171
#
#
# Mechanical properties :
#
#
# Convention : Reuss Voigt Hill
#
# Bulk Modulus (GPa) = 15.60538 76.18041 45.89290
# Shear Modulus (GPa) = 283.13855 21.72599 152.43227
#
# Velocity S-wave (km/s) = 12.79278 3.54369 9.38650
# Velocity P-wave (km/s) = 15.07405 7.79591 12.00007
#
# Compressibility (1/GPa) = 0.06408046
#
# Stress axis : x y z
#
# Youngs Moduli (GPa) = 113.90077 11.14195 116.39683
#
# Poissons Ratio (x) = 0.10603 0.36391
# Poissons Ratio (y) = 1.08391 1.03336
# Poissons Ratio (z) = 0.35610 0.09892
#
# Static dielectric constant tensor:
#      x y z
#    x 3.432200 0.000000 0.038320 
#    y 0.000000 2.662820 0.000000 
#    z 0.038320 0.000000 3.417620 
# 
# 
# High freq. dielectric constant tensor:
#      x y z
#    x 1.680940 0.000000 0.001680 
#    y 0.000000 1.604480 0.000000 
#    z 0.001680 0.000000 1.679530 
# 
# From -- ./inp_files/34839.got.cif
#   From: 2010.06.25/outbox.cif.g09.slc.cpg/sg10_18_cif.got.tgz:34839.got - 2010.06.27 22:07:45.
