data_PCOD8068575
_publ_section_title
;
Structure prediction by ZEFSAII (Michael W. Deem and Ramdas Pophale) SiO2 
 PCOD8068575
Probable space group: P 21/M
;
_chemical_formula_sum "Si O2"
_cell_formula_units_Z 32
_cell_length_a 30.066581
_cell_length_b 8.976967
_cell_length_c 24.023852
_cell_angle_alpha 90.000000
_cell_angle_beta 163.921205
_cell_angle_gamma 90.000000
_cell_volume 1795.857542
_symmetry_space_group_name_H-M "P 21/M"
_symmetry_group_IT_number 11
_symmetry_cell_setting 'monoclinic'
loop_
_space_group_symop_operation_xyz
x,y,z
-x,1/2+y,-z
-x,-y,-z
x,1/2-y,z
loop_
_atom_site_type_symbol
_atom_site_label
_atom_site_fract_x
_atom_site_fract_y
_atom_site_fract_z
Si Si1 0.439261 0.575907 0.107504
Si Si2 0.358878 0.079625 0.121042
Si Si3 0.652736 0.078448 0.539680
Si Si4 0.240312 0.574165 0.530677
Si Si5 0.919209 0.424773 0.350493
Si Si6 0.993319 0.923095 0.326971
Si Si7 0.876422 0.925016 0.720177
Si Si8 0.111540 0.921857 0.090381
O O1 0.474507 0.750000 0.147988
O O2 0.438275 0.524616 0.170080
O O3 0.582276 0.492508 0.247411
O O4 0.269737 0.535046 0.875240
O O5 0.375999 0.250000 0.121101
O O6 0.460766 0.052920 0.300510
O O7 0.172031 0.040292 0.905244
O O8 0.696385 0.250000 0.577886
O O9 0.705293 0.044094 0.667726
O O10 0.744919 0.973167 0.607364
O O11 0.252364 0.750000 0.538575
O O12 0.147963 0.511432 0.366243
O O13 0.139953 0.528002 0.464461
O O14 0.947903 0.250000 0.387600
O O15 0.002228 0.484244 0.394371
O O16 0.000000 0.500000 0.500000
O O17 0.003160 0.750000 0.354586
O O18 0.857792 0.750000 0.685756
O O19 0.055881 0.967678 0.960762
O O20 0.071417 0.750000 0.047240
O O21 0.000000 0.000000 0.000000
#
# Coordination Sequence:
#
# PCOD8068575 Si02
#       8
#     4   4   4   4   4   4   4   4
#     4  10  20  33  52  79 106 131 165 206 246 291
#     4   9  16  29  50  73  97 128 166 211 259 301
#     4   9  15  25  44  68  93 123 166 211 259 311
#     4  11  21  33  50  73 103 138 173 210 251 297
#     4  10  21  38  61  85 108 135 164 198 241 292
#     4   9  20  36  53  76 105 135 170 209 249 295
#     4  10  18  27  42  65  97 132 166 209 261 304
#     4   8  15  25  37  60  92 125 161 207 257 306
#
# _framework density 17.818784999999998
#
# number of rings (size 3 to 8) (size 9 to 14) (size 15 to 20)
#    0.000    2.500    1.250    1.500    0.000    3.000 
#    0.000    0.625    0.000    0.750    0.000    0.000 
#    0.000    0.000    0.000    0.000    0.000    0.750 
#
# Total GULP energy -396463.931556 kJ/mol
# GULP energy per Si atom -12389.497861 kJ/mol
# Density = 1.777823 g / cm^3
# Si number density = 17.818785 Si / 1000 Ang^3
#
#
#
# Elastic Constant Matrix: (Units=GPa)
#
#
# Indices 1 2 3 4 5 6 
#
# 1 88.1138 47.7269 67.7284 0.0000 0.0625 0.0000
# 2 47.7269 69.7342 50.1780 0.0000 -1.6897 0.0000
# 3 67.7284 50.1780 135.4488 0.0000 -14.5266 0.0000
# 4 0.0000 0.0000 0.0000 25.4395 0.0000 -2.3084
# 5 0.0625 -1.6897 -14.5266 0.0000 30.2731 0.0000
# 6 0.0000 0.0000 0.0000 -2.3084 0.0000 19.8849
#
#
#
# Elastic Compliance Matrix: (Units=1/GPa)
#
#
# Indices 1 2 3 4 5 6 
#
# 1 0.023207 -0.009936 -0.008421 0.000000 -0.004644 0.000000
# 2 -0.009936 0.023989 -0.003978 0.000000 -0.000549 0.000000
# 3 -0.008421 -0.003978 0.013753 0.000000 0.006395 0.000000
# 4 0.000000 0.000000 0.000000 0.039727 0.000000 0.004612
# 5 -0.004644 -0.000549 0.006395 0.000000 0.036080 0.000000
# 6 0.000000 0.000000 0.000000 0.004612 0.000000 0.050825
#
#
# Mechanical properties :
#
#
# Convention : Reuss Voigt Hill
#
# Bulk Modulus (GPa) = 61.42664 69.39592 65.41128
# Shear Modulus (GPa) = 21.03679 23.63040 22.33360
#
# Velocity S-wave (km/s) = 3.43971 3.64559 3.54414
# Velocity P-wave (km/s) = 7.09389 7.53328 7.31688
#
# Compressibility (1/GPa) = 0.01627958
#
# Stress axis : x y z
#
# Youngs Moduli (GPa) = 43.09004 41.68518 72.71045
#
# Poissons Ratio (x) = 0.41419 0.61232
# Poissons Ratio (y) = 0.42815 0.28921
# Poissons Ratio (z) = 0.36288 0.16581
#
# Static dielectric constant tensor:
#      x y z
#    x 2.976430 0.000000 -0.203790 
#    y 0.000000 3.343830 0.000000 
#    z -0.203790 0.000000 3.775310 
# 
# 
# High freq. dielectric constant tensor:
#      x y z
#    x 1.641550 0.000000 -0.018320 
#    y 0.000000 1.697500 0.000000 
#    z -0.018320 0.000000 1.704670 
# 
# From -- ./inp_files/67241.got.cif
#   From: 2010.06.25/outbox.cif.g09.slc.cpg/sg11_34_cif.got.tgz:67241.got - 2010.06.27 23:14:04.
