data_PCOD8068994
_publ_section_title
;
Structure prediction by ZEFSAII (Michael W. Deem and Ramdas Pophale) SiO2 
 PCOD8068994
Probable space group: P 21/M
;
_chemical_formula_sum "Si O2"
_cell_formula_units_Z 32
_cell_length_a 30.518355
_cell_length_b 8.857000
_cell_length_c 21.294606
_cell_angle_alpha 90.000000
_cell_angle_beta 19.352718
_cell_angle_gamma 90.000000
_cell_volume 1907.423532
_symmetry_space_group_name_H-M "P 21/M"
_symmetry_group_IT_number 11
_symmetry_cell_setting 'monoclinic'
loop_
_space_group_symop_operation_xyz
x,y,z
-x,1/2+y,-z
-x,-y,-z
x,1/2-y,z
loop_
_atom_site_type_symbol
_atom_site_label
_atom_site_fract_x
_atom_site_fract_y
_atom_site_fract_z
Si Si1 0.199010 0.925009 0.231269
Si Si2 0.886451 0.429118 0.435293
Si Si3 0.498335 0.073333 0.186338
Si Si4 0.287227 0.928419 0.552818
Si Si5 0.018992 0.424747 0.573341
Si Si6 0.050373 0.926700 0.786417
Si Si7 0.878891 0.572562 0.127438
Si Si8 0.396773 0.071092 0.187054
O O1 0.188021 0.750000 0.265973
O O2 0.118093 0.957320 0.277068
O O3 0.142627 0.024019 0.364083
O O4 0.348977 0.974327 0.017387
O O5 0.869680 0.250000 0.458808
O O6 0.985173 0.480914 0.356700
O O7 0.949156 0.490248 0.285023
O O8 0.745461 0.505174 0.637370
O O9 0.480111 0.250000 0.222301
O O10 0.436285 0.023061 0.204018
O O11 0.428306 0.985281 0.337798
O O12 0.287779 0.750000 0.557846
O O13 0.175202 0.992454 0.656552
O O14 0.256225 0.996588 0.664386
O O15 0.036806 0.250000 0.565367
O O16 0.074420 0.750000 0.750899
O O17 0.910382 0.961782 0.010926
O O18 0.873846 0.750000 0.147063
O O19 0.000000 0.500000 0.000000
O O20 0.396825 0.250000 0.178769
O O21 0.500000 0.000000 0.000000
#
# Coordination Sequence:
#
# PCOD8068994 Si02
#       8
#     4   4   4   4   4   4   4   4
#     4   9  19  36  54  71  95 126 163 207 253 295
#     4  11  20  33  50  69  98 133 164 198 241 287
#     4  10  20  33  49  70  95 127 162 199 242 290
#     4  10  18  30  46  69  98 129 161 195 238 288
#     4  10  20  34  52  74  96 123 164 210 251 291
#     4   8  16  29  45  66  94 128 161 192 232 283
#     4   9  16  28  45  67  94 127 163 196 235 283
#     4  11  22  33  47  70  98 129 164 198 240 294
#
# _framework density 16.776555999999999
#
# number of rings (size 3 to 8) (size 9 to 14) (size 15 to 20)
#    0.000    2.250    1.250    3.375    0.000    2.500 
#    0.000    1.875    0.000    0.000    0.000    0.875 
#    0.000    0.000    0.000    0.000    0.000    0.000 
#
# Total GULP energy -396720.307900 kJ/mol
# GULP energy per Si atom -12397.509622 kJ/mol
# Density = 1.673837 g / cm^3
# Si number density = 16.776556 Si / 1000 Ang^3
#
#
#
# Elastic Constant Matrix: (Units=GPa)
#
#
# Indices 1 2 3 4 5 6 
#
# 1 77.6426 29.0157 38.9363 0.0000 12.7581 0.0000
# 2 29.0157 64.2815 32.9364 0.0000 10.2338 0.0000
# 3 38.9363 32.9364 77.4352 0.0000 16.9237 0.0000
# 4 0.0000 0.0000 0.0000 27.2651 0.0000 3.6261
# 5 12.7581 10.2338 16.9237 0.0000 27.9848 0.0000
# 6 0.0000 0.0000 0.0000 3.6261 0.0000 22.5988
#
#
#
# Elastic Compliance Matrix: (Units=1/GPa)
#
#
# Indices 1 2 3 4 5 6 
#
# 1 0.018358 -0.004387 -0.006783 0.000000 -0.002663 0.000000
# 2 -0.004387 0.021091 -0.006357 0.000000 -0.001869 0.000000
# 3 -0.006783 -0.006357 0.020562 0.000000 -0.007018 0.000000
# 4 0.000000 0.000000 0.000000 0.037477 0.000000 -0.006013
# 5 -0.002663 -0.001869 -0.007018 0.000000 0.041875 0.000000
# 6 0.000000 0.000000 0.000000 -0.006013 0.000000 0.045215
#
#
# Mechanical properties :
#
#
# Convention : Reuss Voigt Hill
#
# Bulk Modulus (GPa) = 40.06683 46.79291 43.42987
# Shear Modulus (GPa) = 21.93447 23.46778 22.70113
#
# Velocity S-wave (km/s) = 3.61979 3.74417 3.68250
# Velocity P-wave (km/s) = 6.43467 6.82965 6.63510
#
# Compressibility (1/GPa) = 0.02495830
#
# Stress axis : x y z
#
# Youngs Moduli (GPa) = 54.47171 47.41263 48.63299
#
# Poissons Ratio (x) = 0.20801 0.32987
# Poissons Ratio (y) = 0.23898 0.30914
# Poissons Ratio (z) = 0.36947 0.30139
#
# Static dielectric constant tensor:
#      x y z
#    x 3.246830 0.000000 0.284960 
#    y 0.000000 3.147790 0.000000 
#    z 0.284960 0.000000 3.309430 
# 
# 
# High freq. dielectric constant tensor:
#      x y z
#    x 1.625070 0.000000 0.024080 
#    y 0.000000 1.649950 0.000000 
#    z 0.024080 0.000000 1.638530 
# 
# From -- ./inp_files/42564.got.cif
#   From: 2010.06.25/outbox.cif.g09.slc.cpg/sg11_22_cif.got.tgz:42564.got - 2010.06.27 23:14:04.
