data_PCOD8068946
_publ_section_title
;
Structure prediction by ZEFSAII (Michael W. Deem and Ramdas Pophale) SiO2 
 PCOD8068946
Probable space group: P 21/M
;
_chemical_formula_sum "Si O2"
_cell_formula_units_Z 32
_cell_length_a 24.976424
_cell_length_b 8.745764
_cell_length_c 16.106802
_cell_angle_alpha 90.000000
_cell_angle_beta 153.307080
_cell_angle_gamma 90.000000
_cell_volume 1580.466869
_symmetry_space_group_name_H-M "P 21/M"
_symmetry_group_IT_number 11
_symmetry_cell_setting 'monoclinic'
loop_
_space_group_symop_operation_xyz
x,y,z
-x,1/2+y,-z
-x,-y,-z
x,1/2-y,z
loop_
_atom_site_type_symbol
_atom_site_label
_atom_site_fract_x
_atom_site_fract_y
_atom_site_fract_z
Si Si1 0.261585 0.082813 0.998437
Si Si2 0.287501 0.930474 0.463009
Si Si3 0.892098 0.570422 0.901191
Si Si4 0.305778 0.926794 0.798764
Si Si5 0.883918 0.917511 0.366739
Si Si6 0.455580 0.570059 0.165679
Si Si7 0.192176 0.070030 0.495651
Si Si8 0.058936 0.430357 0.841634
O O1 0.307376 0.250000 0.094100
O O2 0.372066 0.971443 0.129208
O O3 0.196268 0.111903 0.822813
O O4 0.168651 0.010453 0.935937
O O5 0.277246 0.750000 0.447083
O O6 0.232215 0.999008 0.302238
O O7 0.423608 0.978777 0.657806
O O8 0.209509 0.991531 0.431181
O O9 0.890642 0.750000 0.884214
O O10 0.905144 0.528260 0.015305
O O11 0.000000 0.500000 0.000000
O O12 0.319796 0.750000 0.796615
O O13 0.175338 0.963191 0.653020
O O14 0.304936 0.021281 0.711027
O O15 0.402247 0.978834 0.001382
O O16 0.906613 0.750000 0.440443
O O17 0.000000 0.000000 0.500000
O O18 0.478790 0.750000 0.199540
O O19 0.195544 0.250000 0.488845
O O20 0.063459 0.016446 0.352703
O O21 0.038983 0.250000 0.800358
#
# Coordination Sequence:
#
# PCOD8068946 Si02
#       8
#     4   4   4   4   4   4   4   4
#     4   9  19  36  57  83 116 156 196 239 293 353
#     4  12  25  42  64  87 118 159 200 248 303 360
#     4  11  22  39  64  93 124 157 196 244 300 361
#     4  10  21  37  56  80 116 157 198 245 297 354
#     4  10  18  29  49  77 112 153 198 244 293 349
#     4  10  22  41  63  87 117 157 204 250 294 350
#     4  12  24  37  59  90 123 156 200 251 300 360
#     4  10  21  38  62  91 125 159 195 244 303 359
#
# _framework density 20.247181999999999
#
# number of rings (size 3 to 8) (size 9 to 14) (size 15 to 20)
#    0.000    1.500    1.250    4.500    0.000    4.500 
#    0.000    0.625    0.000    0.000    0.000    0.000 
#    0.000    0.000    0.000    0.000    0.000    0.000 
#
# Total GULP energy -396672.798689 kJ/mol
# GULP energy per Si atom -12396.024959 kJ/mol
# Density = 2.020110 g / cm^3
# Si number density = 20.247182 Si / 1000 Ang^3
#
#
#
# Elastic Constant Matrix: (Units=GPa)
#
#
# Indices 1 2 3 4 5 6 
#
# 1 78.0620 24.8991 27.2191 0.0000 -4.3049 0.0000
# 2 24.8991 100.9594 46.8685 0.0000 -7.8894 0.0000
# 3 27.2191 46.8685 100.3959 0.0000 -1.9600 0.0000
# 4 0.0000 0.0000 0.0000 32.7027 0.0000 -0.2644
# 5 -4.3049 -7.8894 -1.9600 0.0000 25.7165 0.0000
# 6 0.0000 0.0000 0.0000 -0.2644 0.0000 24.6852
#
#
#
# Elastic Compliance Matrix: (Units=1/GPa)
#
#
# Indices 1 2 3 4 5 6 
#
# 1 0.014596 -0.002112 -0.002941 0.000000 0.001571 0.000000
# 2 -0.002112 0.013261 -0.005554 0.000000 0.003292 0.000000
# 3 -0.002941 -0.005554 0.013328 0.000000 -0.001180 0.000000
# 4 0.000000 0.000000 0.000000 0.030581 0.000000 0.000328
# 5 0.001571 0.003292 -0.001180 0.000000 0.040068 0.000000
# 6 0.000000 0.000000 0.000000 0.000328 0.000000 0.040514
#
#
# Mechanical properties :
#
#
# Convention : Reuss Voigt Hill
#
# Bulk Modulus (GPa) = 50.07047 53.04344 51.55695
# Shear Modulus (GPa) = 27.74408 28.64958 28.19683
#
# Velocity S-wave (km/s) = 3.70573 3.76572 3.73584
# Velocity P-wave (km/s) = 6.56454 6.72029 6.64287
#
# Compressibility (1/GPa) = 0.01997185
#
# Stress axis : x y z
#
# Youngs Moduli (GPa) = 68.51217 75.40686 75.03197
#
# Poissons Ratio (x) = 0.15924 0.22065
# Poissons Ratio (y) = 0.14468 0.41674
# Poissons Ratio (z) = 0.20147 0.41882
#
# Static dielectric constant tensor:
#      x y z
#    x 3.785290 0.000000 -0.086340 
#    y 0.000000 3.997200 0.000000 
#    z -0.086340 0.000000 3.066350 
# 
# 
# High freq. dielectric constant tensor:
#      x y z
#    x 1.788200 0.000000 -0.002910 
#    y 0.000000 1.797490 0.000000 
#    z -0.002910 0.000000 1.783960 
# 
# From -- ./inp_files/55715.got.cif
#   From: 2010.06.25/outbox.cif.g09.slc.cpg/sg11_28_cif.got.tgz:55715.got - 2010.06.27 23:14:04.
