data_PCOD8068339
_publ_section_title
;
Structure prediction by ZEFSAII (Michael W. Deem and Ramdas Pophale) SiO2 
 PCOD8068339
Probable space group: P 21/M
;
_chemical_formula_sum "Si O2"
_cell_formula_units_Z 28
_cell_length_a 17.304464
_cell_length_b 8.912415
_cell_length_c 14.493796
_cell_angle_alpha 90.000000
_cell_angle_beta 128.965284
_cell_angle_gamma 90.000000
_cell_volume 1738.005907
_symmetry_space_group_name_H-M "P 21/M"
_symmetry_group_IT_number 11
_symmetry_cell_setting 'monoclinic'
loop_
_space_group_symop_operation_xyz
x,y,z
-x,1/2+y,-z
-x,-y,-z
x,1/2-y,z
loop_
_atom_site_type_symbol
_atom_site_label
_atom_site_fract_x
_atom_site_fract_y
_atom_site_fract_z
Si Si1 0.414838 0.578409 0.795302
Si Si2 0.585347 0.073771 0.680494
Si Si3 0.107358 0.570738 0.574831
Si Si4 0.254906 0.074955 0.554849
Si Si5 0.261560 0.581010 0.835571
Si Si6 0.632631 0.924687 0.537395
Si Si7 0.616427 0.428771 0.909344
O O1 0.413858 0.750000 0.758351
O O2 0.355271 0.472312 0.681147
O O3 0.364789 0.569735 0.857901
O O4 0.524996 0.515740 0.885949
O O5 0.591541 0.250000 0.675631
O O6 0.471418 0.016706 0.585079
O O7 0.629167 0.022510 0.812403
O O8 0.653172 0.004045 0.650617
O O9 0.101663 0.750000 0.570346
O O10 0.160502 0.519429 0.519839
O O11 0.171944 0.503993 0.710070
O O12 0.000000 0.500000 0.500000
O O13 0.234567 0.250000 0.556805
O O14 0.275098 0.041302 0.461715
O O15 0.225120 0.750000 0.818526
O O16 0.286084 0.519793 0.957361
O O17 0.622945 0.750000 0.549341
O O18 0.599077 0.250000 0.905514
#
# Coordination Sequence:
#
# PCOD8068339 Si02
#       7
#     4   4   4   4   4   4   4
#     4  10  18  27  40  64  93 123 156 189 222 265
#     4   9  17  27  41  62  88 123 160 190 223 261
#     4  10  20  35  52  74  95 117 148 186 234 278
#     4  10  18  31  49  68  91 123 157 191 230 272
#     4   8  17  30  45  64  89 118 152 187 222 271
#     4   9  17  29  42  62  89 121 158 191 226 265
#     4  10  17  29  44  61  89 125 158 188 221 264
#
# _framework density 16.110417000000002
#
# number of rings (size 3 to 8) (size 9 to 14) (size 15 to 20)
#    0.000    2.571    1.429    2.571    0.000    1.714 
#    0.000    3.571    0.000    0.000    0.000    1.000 
#    0.000    0.000    0.000    0.000    0.000    0.000 
#
# Total GULP energy -346958.106698 kJ/mol
# GULP energy per Si atom -12391.360953 kJ/mol
# Density = 1.607375 g / cm^3
# Si number density = 16.110417 Si / 1000 Ang^3
#
#
#
# Elastic Constant Matrix: (Units=GPa)
#
#
# Indices 1 2 3 4 5 6 
#
# 1 87.8850 34.2166 67.3146 0.0000 -3.2380 0.0000
# 2 34.2166 45.2730 32.3912 0.0000 -3.1528 0.0000
# 3 67.3146 32.3912 109.1639 0.0000 -11.7267 0.0000
# 4 0.0000 0.0000 0.0000 17.0923 0.0000 -2.4543
# 5 -3.2380 -3.1528 -11.7267 0.0000 21.3798 0.0000
# 6 0.0000 0.0000 0.0000 -2.4543 0.0000 26.8185
#
#
#
# Elastic Compliance Matrix: (Units=1/GPa)
#
#
# Indices 1 2 3 4 5 6 
#
# 1 0.025034 -0.009954 -0.013000 0.000000 -0.004807 0.000000
# 2 -0.009954 0.032003 -0.003202 0.000000 0.001456 0.000000
# 3 -0.013000 -0.003202 0.018983 0.000000 0.007971 0.000000
# 4 0.000000 0.000000 0.000000 0.059285 0.000000 0.005426
# 5 -0.004807 0.001456 0.007971 0.000000 0.050632 0.000000
# 6 0.000000 0.000000 0.000000 0.005426 0.000000 0.037784
#
#
# Mechanical properties :
#
#
# Convention : Reuss Voigt Hill
#
# Bulk Modulus (GPa) = 42.17729 56.68519 49.43124
# Shear Modulus (GPa) = 17.60969 20.28475 18.94722
#
# Velocity S-wave (km/s) = 3.30974 3.55224 3.43313
# Velocity P-wave (km/s) = 6.39084 7.21709 6.81649
#
# Compressibility (1/GPa) = 0.02370944
#
# Stress axis : x y z
#
# Youngs Moduli (GPa) = 39.94610 31.24673 52.67933
#
# Poissons Ratio (x) = 0.31103 0.68481
# Poissons Ratio (y) = 0.39763 0.16866
# Poissons Ratio (z) = 0.51928 0.10004
#
# Static dielectric constant tensor:
#      x y z
#    x 2.929160 0.000000 -0.223740 
#    y 0.000000 2.977190 0.000000 
#    z -0.223740 0.000000 3.142730 
# 
# 
# High freq. dielectric constant tensor:
#      x y z
#    x 1.592590 0.000000 -0.023370 
#    y 0.000000 1.614470 0.000000 
#    z -0.023370 0.000000 1.603310 
# 
# From -- ./inp_files/51021.got.cif
#   From: 2010.06.25/outbox.cif.g09.slc.cpg/sg11_26_cif.got.tgz:51021.got - 2010.06.27 23:14:04.
