data_PCOD8068665
_publ_section_title
;
Structure prediction by ZEFSAII (Michael W. Deem and Ramdas Pophale) SiO2 
 PCOD8068665
Probable space group: P 21/M
;
_chemical_formula_sum "Si O2"
_cell_formula_units_Z 28
_cell_length_a 19.166634
_cell_length_b 8.547857
_cell_length_c 11.864022
_cell_angle_alpha 90.000000
_cell_angle_beta 51.764301
_cell_angle_gamma 90.000000
_cell_volume 1526.741235
_symmetry_space_group_name_H-M "P 21/M"
_symmetry_group_IT_number 11
_symmetry_cell_setting 'monoclinic'
loop_
_space_group_symop_operation_xyz
x,y,z
-x,1/2+y,-z
-x,-y,-z
x,1/2-y,z
loop_
_atom_site_type_symbol
_atom_site_label
_atom_site_fract_x
_atom_site_fract_y
_atom_site_fract_z
Si Si1 0.161981 0.435994 0.503775
Si Si2 0.755028 0.930890 0.356237
Si Si3 0.696615 0.431521 0.071603
Si Si4 0.032909 0.565001 0.242235
Si Si5 0.195039 0.065082 0.221539
Si Si6 0.593648 0.935404 0.368912
Si Si7 0.856353 0.930468 0.043395
O O1 0.161205 0.250000 0.514268
O O2 0.223573 0.506757 0.543149
O O3 0.201283 0.491273 0.345070
O O4 0.061321 0.497350 0.618341
O O5 0.733887 0.750000 0.394510
O O6 0.668570 0.003725 0.380500
O O7 0.844035 0.952606 0.189899
O O8 0.676996 0.250000 0.073916
O O9 0.613890 0.508019 0.221027
O O10 0.784792 0.458914 0.055314
O O11 0.714334 0.510011 0.931329
O O12 0.033874 0.750000 0.227978
O O13 0.107982 0.512231 0.254755
O O14 0.049506 0.487703 0.101135
O O15 0.184609 0.250000 0.223676
O O16 0.593503 0.750000 0.369664
O O17 0.500000 0.000000 0.500000
O O18 0.837902 0.750000 0.028408
#
# Coordination Sequence:
#
# PCOD8068665 Si02
#       7
#     4   4   4   4   4   4   4
#     4   9  18  30  45  66  93 128 165 200 238 278
#     4   8  16  31  48  68  95 125 155 189 236 288
#     4  10  18  30  49  72  98 124 155 194 234 277
#     4  10  18  28  44  66  93 125 165 208 241 273
#     4  10  18  30  48  67  92 127 167 204 235 273
#     4  10  19  33  56  81 102 121 146 185 232 285
#     4   9  16  28  46  66  92 125 160 199 241 284
#
# _framework density 18.339715999999999
#
# number of rings (size 3 to 8) (size 9 to 14) (size 15 to 20)
#    0.000    2.571    0.000    6.000    0.000    0.571 
#    0.000    2.143    0.000   20.571    0.000    0.000 
#    0.000    0.000    0.000    0.000    0.000    0.000 
#
# Total GULP energy -346950.085760 kJ/mol
# GULP energy per Si atom -12391.074491 kJ/mol
# Density = 1.829797 g / cm^3
# Si number density = 18.339716 Si / 1000 Ang^3
#
#
#
# Elastic Constant Matrix: (Units=GPa)
#
#
# Indices 1 2 3 4 5 6 
#
# 1 69.8945 20.4708 72.4056 0.0000 12.3232 0.0000
# 2 20.4708 52.7837 31.4555 0.0000 -0.2969 0.0000
# 3 72.4056 31.4555 184.6087 0.0000 5.3089 0.0000
# 4 0.0000 0.0000 0.0000 25.7144 0.0000 -5.0788
# 5 12.3232 -0.2969 5.3089 0.0000 26.9474 0.0000
# 6 0.0000 0.0000 0.0000 -5.0788 0.0000 11.7982
#
#
#
# Elastic Compliance Matrix: (Units=1/GPa)
#
#
# Indices 1 2 3 4 5 6 
#
# 1 0.027760 -0.005036 -0.009718 0.000000 -0.010836 0.000000
# 2 -0.005036 0.022024 -0.001861 0.000000 0.002912 0.000000
# 3 -0.009718 -0.001861 0.009472 0.000000 0.002558 0.000000
# 4 0.000000 0.000000 0.000000 0.042502 0.000000 0.018296
# 5 -0.010836 0.002912 0.002558 0.000000 0.041593 0.000000
# 6 0.000000 0.000000 0.000000 0.018296 0.000000 0.092635
#
#
# Mechanical properties :
#
#
# Convention : Reuss Voigt Hill
#
# Bulk Modulus (GPa) = 38.42374 61.77231 50.09802
# Shear Modulus (GPa) = 17.99271 25.08899 21.54085
#
# Velocity S-wave (km/s) = 3.13562 3.70268 3.43088
# Velocity P-wave (km/s) = 5.84004 7.21354 6.56282
#
# Compressibility (1/GPa) = 0.02602558
#
# Stress axis : x y z
#
# Youngs Moduli (GPa) = 36.02341 45.40543 105.57415
#
# Poissons Ratio (x) = 0.22864 1.02598
# Poissons Ratio (y) = 0.18140 0.19652
# Poissons Ratio (z) = 0.35008 0.08452
#
# Static dielectric constant tensor:
#      x y z
#    x 3.106830 0.000000 0.199150 
#    y 0.000000 3.191210 0.000000 
#    z 0.199150 0.000000 3.939500 
# 
# 
# High freq. dielectric constant tensor:
#      x y z
#    x 1.663760 0.000000 0.011670 
#    y 0.000000 1.696610 0.000000 
#    z 0.011670 0.000000 1.727670 
# 
# From -- ./inp_files/42310.got.cif
#   From: 2010.06.25/outbox.cif.g09.slc.cpg/sg11_22_cif.got.tgz:42310.got - 2010.06.27 23:14:04.
