data_PCOD8068504
_publ_section_title
;
Structure prediction by ZEFSAII (Michael W. Deem and Ramdas Pophale) SiO2 
 PCOD8068504
Probable space group: P 21/M
;
_chemical_formula_sum "Si O2"
_cell_formula_units_Z 32
_cell_length_a 13.878527
_cell_length_b 9.185704
_cell_length_c 23.065166
_cell_angle_alpha 90.000000
_cell_angle_beta 134.301411
_cell_angle_gamma 90.000000
_cell_volume 2104.401373
_symmetry_space_group_name_H-M "P 21/M"
_symmetry_group_IT_number 11
_symmetry_cell_setting 'monoclinic'
loop_
_space_group_symop_operation_xyz
x,y,z
-x,1/2+y,-z
-x,-y,-z
x,1/2-y,z
loop_
_atom_site_type_symbol
_atom_site_label
_atom_site_fract_x
_atom_site_fract_y
_atom_site_fract_z
Si Si1 0.326615 0.583888 0.452922
Si Si2 0.418366 0.083482 0.380996
Si Si3 0.951219 0.084471 0.703104
Si Si4 0.212795 0.580674 0.824637
Si Si5 0.532406 0.581897 0.072191
Si Si6 0.808483 0.081309 0.763833
Si Si7 0.019454 0.077444 0.947590
Si Si8 0.760656 0.085121 0.028257
O O1 0.350622 0.750000 0.439613
O O2 0.417567 0.560858 0.549541
O O3 0.370688 0.466995 0.424100
O O4 0.165652 0.564292 0.395153
O O5 0.379228 0.250000 0.355349
O O6 0.338467 0.995838 0.297594
O O7 0.004815 0.250000 0.727128
O O8 0.888995 0.041815 0.739301
O O9 0.073928 0.978420 0.739396
O O10 0.227059 0.750000 0.816719
O O11 0.336763 0.496541 0.845135
O O12 0.214951 0.547679 0.894086
O O13 0.566000 0.750000 0.073300
O O14 0.500000 0.500000 0.000000
O O15 0.397891 0.569398 0.055016
O O16 0.778586 0.250000 0.755762
O O17 0.895595 0.027800 0.854934
O O18 0.024360 0.250000 0.957761
O O19 0.158871 0.027106 0.977504
O O20 0.000000 0.000000 0.000000
O O21 0.809203 0.250000 0.036060
#
# Coordination Sequence:
#
# PCOD8068504 Si02
#       8
#     4   4   4   4   4   4   4   4
#     4   8  15  25  34  51  77 103 132 163 199 237
#     4   9  15  23  38  55  72  98 132 168 199 235
#     4   9  15  25  39  54  78 109 138 166 199 240
#     4  10  18  26  39  61  84 107 137 170 200 239
#     4   9  17  28  42  60  80 103 132 166 202 242
#     4   9  18  30  41  55  75 103 134 167 210 250
#     4  11  22  34  47  61  79 105 137 176 217 252
#     4   9  18  31  44  59  79 102 133 172 207 245
#
# _framework density 15.206225
#
# number of rings (size 3 to 8) (size 9 to 14) (size 15 to 20)
#    0.000    2.750    1.250    3.000    0.000    6.000 
#    0.000    0.000    0.000    0.000    0.000    0.000 
#    0.000    0.000    0.000    1.125    0.000   13.500 
#
# Total GULP energy -396485.728992 kJ/mol
# GULP energy per Si atom -12390.179031 kJ/mol
# Density = 1.517161 g / cm^3
# Si number density = 15.206225 Si / 1000 Ang^3
#
#
#
# Elastic Constant Matrix: (Units=GPa)
#
#
# Indices 1 2 3 4 5 6 
#
# 1 41.2730 33.3555 43.8705 0.0000 15.1699 0.0000
# 2 33.3555 81.2076 52.0880 0.0000 17.7158 0.0000
# 3 43.8705 52.0880 111.3674 0.0000 32.1324 0.0000
# 4 0.0000 0.0000 0.0000 25.7026 0.0000 7.2223
# 5 15.1699 17.7158 32.1324 0.0000 23.1480 0.0000
# 6 0.0000 0.0000 0.0000 7.2223 0.0000 20.3599
#
#
#
# Elastic Compliance Matrix: (Units=1/GPa)
#
#
# Indices 1 2 3 4 5 6 
#
# 1 0.048011 -0.010527 -0.012070 0.000000 -0.006653 0.000000
# 2 -0.010527 0.020062 -0.004665 0.000000 -0.001979 0.000000
# 3 -0.012070 -0.004665 0.021024 0.000000 -0.017703 0.000000
# 4 0.000000 0.000000 0.000000 0.043214 0.000000 -0.015329
# 5 -0.006653 -0.001979 -0.017703 0.000000 0.073649 0.000000
# 6 0.000000 0.000000 0.000000 -0.015329 0.000000 0.054554
#
#
# Mechanical properties :
#
#
# Convention : Reuss Voigt Hill
#
# Bulk Modulus (GPa) = 28.92452 54.71954 41.82203
# Shear Modulus (GPa) = 15.31096 20.81105 18.06101
#
# Velocity S-wave (km/s) = 3.17659 3.70346 3.45010
# Velocity P-wave (km/s) = 5.70238 7.37228 6.59043
#
# Compressibility (1/GPa) = 0.03457275
#
# Stress axis : x y z
#
# Youngs Moduli (GPa) = 20.82850 49.84456 47.56520
#
# Poissons Ratio (x) = 0.52473 0.57409
# Poissons Ratio (y) = 0.21927 0.22191
# Poissons Ratio (z) = 0.25139 0.23255
#
# Static dielectric constant tensor:
#      x y z
#    x 2.783920 0.000000 0.533750 
#    y 0.000000 3.041700 0.000000 
#    z 0.533750 0.000000 3.297040 
# 
# 
# High freq. dielectric constant tensor:
#      x y z
#    x 1.517570 0.000000 0.046900 
#    y 0.000000 1.597310 0.000000 
#    z 0.046900 0.000000 1.579380 
# 
# From -- ./inp_files/68335.got.cif
#   From: 2010.06.25/outbox.cif.g09.slc.cpg/sg11_35_cif.got.tgz:68335.got - 2010.06.27 23:14:04.
