data_PCOD8068583
_publ_section_title
;
Structure prediction by ZEFSAII (Michael W. Deem and Ramdas Pophale) SiO2 
 PCOD8068583
Probable space group: P 21/M
;
_chemical_formula_sum "Si O2"
_cell_formula_units_Z 28
_cell_length_a 15.989914
_cell_length_b 9.004269
_cell_length_c 17.582850
_cell_angle_alpha 90.000000
_cell_angle_beta 42.167637
_cell_angle_gamma 90.000000
_cell_volume 1699.424326
_symmetry_space_group_name_H-M "P 21/M"
_symmetry_group_IT_number 11
_symmetry_cell_setting 'monoclinic'
loop_
_space_group_symop_operation_xyz
x,y,z
-x,1/2+y,-z
-x,-y,-z
x,1/2-y,z
loop_
_atom_site_type_symbol
_atom_site_label
_atom_site_fract_x
_atom_site_fract_y
_atom_site_fract_z
Si Si1 0.368849 0.078078 0.596164
Si Si2 0.077494 0.921629 0.054238
Si Si3 0.164921 0.584364 0.449225
Si Si4 0.172838 0.577675 0.827985
Si Si5 0.072293 0.073888 0.204967
Si Si6 0.870173 0.915180 0.670605
Si Si7 0.182843 0.078706 0.585626
O O1 0.386752 0.250000 0.604686
O O2 0.297816 0.058136 0.564581
O O3 0.500000 0.000000 0.500000
O O4 0.296266 0.000507 0.714277
O O5 0.049039 0.750000 0.090110
O O6 0.138955 0.998258 0.087226
O O7 0.171188 0.941343 0.920543
O O8 0.946956 0.000740 0.127047
O O9 0.219733 0.750000 0.418531
O O10 0.199848 0.520851 0.342198
O O11 0.224832 0.483619 0.474976
O O12 0.017218 0.584906 0.557625
O O13 0.171556 0.750000 0.805510
O O14 0.066121 0.250000 0.199638
O O15 0.150427 0.030910 0.228339
O O16 0.931926 0.013488 0.303792
O O17 0.816571 0.750000 0.695295
O O18 0.143341 0.250000 0.603476
#
# Coordination Sequence:
#
# PCOD8068583 Si02
#       7
#     4   4   4   4   4   4   4
#     4  11  23  36  51  69  91 121 158 198 239 278
#     4  10  19  30  46  69  94 122 154 190 232 277
#     4   9  16  25  39  58  81 114 150 183 223 267
#     4  10  20  33  49  67  91 121 155 194 233 275
#     4  10  18  27  43  65  90 122 154 187 225 270
#     4   8  15  25  36  56  85 116 149 181 219 264
#     4  10  19  30  44  62  86 117 153 190 229 275
#
# _framework density 16.476168000000001
#
# number of rings (size 3 to 8) (size 9 to 14) (size 15 to 20)
#    0.000    2.286    1.429    3.429    0.000    7.429 
#    0.000    0.000    0.000    0.000    0.000    0.000 
#    0.000    1.143    0.000    3.714    0.000    4.857 
#
# Total GULP energy -347137.827646 kJ/mol
# GULP energy per Si atom -12397.779559 kJ/mol
# Density = 1.643867 g / cm^3
# Si number density = 16.476168 Si / 1000 Ang^3
#
#
#
# Elastic Constant Matrix: (Units=GPa)
#
#
# Indices 1 2 3 4 5 6 
#
# 1 75.0323 55.1602 44.2176 0.0000 33.1090 0.0000
# 2 55.1602 131.5967 54.4623 0.0000 22.3290 0.0000
# 3 44.2176 54.4623 80.1240 0.0000 18.3774 0.0000
# 4 0.0000 0.0000 0.0000 24.7513 0.0000 8.6260
# 5 33.1090 22.3290 18.3774 0.0000 31.5357 0.0000
# 6 0.0000 0.0000 0.0000 8.6260 0.0000 28.6182
#
#
#
# Elastic Compliance Matrix: (Units=1/GPa)
#
#
# Indices 1 2 3 4 5 6 
#
# 1 0.035449 -0.006555 -0.008814 0.000000 -0.027440 0.000000
# 2 -0.006555 0.012197 -0.004930 0.000000 0.001119 0.000000
# 3 -0.008814 -0.004930 0.020514 0.000000 0.000789 0.000000
# 4 0.000000 0.000000 0.000000 0.045144 0.000000 -0.013607
# 5 -0.027440 0.001119 0.000789 0.000000 0.059267 0.000000
# 6 0.000000 0.000000 0.000000 -0.013607 0.000000 0.039044
#
#
# Mechanical properties :
#
#
# Convention : Reuss Voigt Hill
#
# Bulk Modulus (GPa) = 36.28004 66.04815 51.16410
# Shear Modulus (GPa) = 19.12774 25.84189 22.48482
#
# Velocity S-wave (km/s) = 3.41094 3.96465 3.69817
# Velocity P-wave (km/s) = 6.13027 7.81870 7.02539
#
# Compressibility (1/GPa) = 0.02756336
#
# Stress axis : x y z
#
# Youngs Moduli (GPa) = 28.20957 81.98726 48.74636
#
# Poissons Ratio (x) = 0.53746 0.42963
# Poissons Ratio (y) = 0.18492 0.24030
# Poissons Ratio (z) = 0.24863 0.40416
#
# Static dielectric constant tensor:
#      x y z
#    x 3.854290 0.000000 -0.364330 
#    y 0.000000 3.370880 0.000000 
#    z -0.364330 0.000000 4.170280 
# 
# 
# High freq. dielectric constant tensor:
#      x y z
#    x 1.618910 0.000000 0.050170 
#    y 0.000000 1.655670 0.000000 
#    z 0.050170 0.000000 1.587970 
# 
# From -- ./inp_files/42617.got.cif
#   From: 2010.06.25/outbox.cif.g09.slc.cpg/sg11_22_cif.got.tgz:42617.got - 2010.06.27 23:14:04.
