data_PCOD8068415
_publ_section_title
;
Structure prediction by ZEFSAII (Michael W. Deem and Ramdas Pophale) SiO2 
 PCOD8068415
Probable space group: P 21/M
;
_chemical_formula_sum "Si O2"
_cell_formula_units_Z 28
_cell_length_a 16.868888
_cell_length_b 8.613918
_cell_length_c 19.821012
_cell_angle_alpha 90.000000
_cell_angle_beta 148.477098
_cell_angle_gamma 90.000000
_cell_volume 1505.848453
_symmetry_space_group_name_H-M "P 21/M"
_symmetry_group_IT_number 11
_symmetry_cell_setting 'monoclinic'
loop_
_space_group_symop_operation_xyz
x,y,z
-x,1/2+y,-z
-x,-y,-z
x,1/2-y,z
loop_
_atom_site_type_symbol
_atom_site_label
_atom_site_fract_x
_atom_site_fract_y
_atom_site_fract_z
Si Si1 0.854342 0.066116 0.356799
Si Si2 0.304454 0.433038 0.641354
Si Si3 0.985651 0.066306 0.644136
Si Si4 0.092412 0.434158 0.004272
Si Si5 0.408150 0.933671 0.494606
Si Si6 0.439331 0.433746 0.257044
Si Si7 0.069270 0.933932 0.246758
O O1 0.847845 0.250000 0.355222
O O2 0.710706 0.994509 0.292240
O O3 0.871349 0.009299 0.291771
O O4 0.000000 0.000000 0.500000
O O5 0.283124 0.250000 0.624189
O O6 0.471683 0.482127 0.738842
O O7 0.177188 0.508921 0.500961
O O8 0.989001 0.250000 0.637204
O O9 0.006874 0.016640 0.737577
O O10 0.081992 0.250000 0.999930
O O11 0.265861 0.490396 0.132343
O O12 0.000000 0.500000 0.000000
O O13 0.023464 0.500228 0.884219
O O14 0.408137 0.750000 0.491052
O O15 0.485652 0.990882 0.619324
O O16 0.238928 0.002078 0.367766
O O17 0.500000 0.000000 0.500000
O O18 0.451789 0.250000 0.255697
O O19 0.076135 0.750000 0.247297
#
# Coordination Sequence:
#
# PCOD8068415 Si02
#       7
#     4   4   4   4   4   4   4
#     4  10  18  29  47  75 110 141 171 210 258 311
#     4  11  20  31  50  78 107 137 176 216 260 310
#     4  10  17  31  52  75 107 141 174 213 260 311
#     4  10  21  37  56  77 103 139 179 216 261 316
#     4  10  19  32  49  72 100 131 166 210 262 307
#     4  10  20  35  53  74 104 139 174 215 263 311
#     4   9  18  33  53  74 103 138 172 211 260 313
#
# _framework density 18.594168
#
# number of rings (size 3 to 8) (size 9 to 14) (size 15 to 20)
#    0.000    2.000    1.429    5.571    0.000    1.143 
#    0.000    1.429    0.000    0.857    0.000    0.000 
#    0.000    0.000    0.000    0.000    0.000    0.000 
#
# Total GULP energy -347142.679471 kJ/mol
# GULP energy per Si atom -12397.952838 kJ/mol
# Density = 1.855185 g / cm^3
# Si number density = 18.594168 Si / 1000 Ang^3
#
#
#
# Elastic Constant Matrix: (Units=GPa)
#
#
# Indices 1 2 3 4 5 6 
#
# 1 199.7818 44.5576 72.9140 0.0000 2.5300 0.0000
# 2 44.5576 69.8082 21.6174 0.0000 3.8417 0.0000
# 3 72.9140 21.6174 114.2793 0.0000 0.0470 0.0000
# 4 0.0000 0.0000 0.0000 9.5510 0.0000 3.0718
# 5 2.5300 3.8417 0.0470 0.0000 28.8412 0.0000
# 6 0.0000 0.0000 0.0000 3.0718 0.0000 37.1182
#
#
#
# Elastic Compliance Matrix: (Units=1/GPa)
#
#
# Indices 1 2 3 4 5 6 
#
# 1 0.007202 -0.003361 -0.003960 0.000000 -0.000178 0.000000
# 2 -0.003361 0.016904 -0.001052 0.000000 -0.001955 0.000000
# 3 -0.003960 -0.001052 0.011476 0.000000 0.000469 0.000000
# 4 0.000000 0.000000 0.000000 0.107564 0.000000 -0.008902
# 5 -0.000178 -0.001955 0.000469 0.000000 0.034948 0.000000
# 6 0.000000 0.000000 0.000000 -0.008902 0.000000 0.027678
#
#
# Mechanical properties :
#
#
# Convention : Reuss Voigt Hill
#
# Bulk Modulus (GPa) = 53.08981 73.56080 63.32530
# Shear Modulus (GPa) = 21.85350 31.42077 26.63713
#
# Velocity S-wave (km/s) = 3.43197 4.11520 3.78901
# Velocity P-wave (km/s) = 6.65720 7.88840 7.29881
#
# Compressibility (1/GPa) = 0.01883601
#
# Stress axis : x y z
#
# Youngs Moduli (GPa) = 138.84081 59.15815 87.14117
#
# Poissons Ratio (x) = 0.19885 0.34504
# Poissons Ratio (y) = 0.46669 0.09168
# Poissons Ratio (z) = 0.54974 0.06224
#
# Static dielectric constant tensor:
#      x y z
#    x 4.068910 0.000000 -0.094680 
#    y 0.000000 3.144670 0.000000 
#    z -0.094680 0.000000 3.403960 
# 
# 
# High freq. dielectric constant tensor:
#      x y z
#    x 1.747980 0.000000 0.000240 
#    y 0.000000 1.710250 0.000000 
#    z 0.000240 0.000000 1.683580 
# 
# From -- ./inp_files/42316.got.cif
#   From: 2010.06.25/outbox.cif.g09.slc.cpg/sg11_22_cif.got.tgz:42316.got - 2010.06.27 23:14:04.
