data_PCOD8068313
_publ_section_title
;
Structure prediction by ZEFSAII (Michael W. Deem and Ramdas Pophale) SiO2 
 PCOD8068313
Probable space group: P 21/M
;
_chemical_formula_sum "Si O2"
_cell_formula_units_Z 28
_cell_length_a 5.598107
_cell_length_b 31.391550
_cell_length_c 7.311401
_cell_angle_alpha 90.000000
_cell_angle_beta 123.994239
_cell_angle_gamma 90.000000
_cell_volume 1065.266387
_symmetry_space_group_name_H-M "P 21/M"
_symmetry_group_IT_number 11
_symmetry_cell_setting 'monoclinic'
loop_
_space_group_symop_operation_xyz
x,y,z
-x,1/2+y,-z
-x,-y,-z
x,1/2-y,z
loop_
_atom_site_type_symbol
_atom_site_label
_atom_site_fract_x
_atom_site_fract_y
_atom_site_fract_z
Si Si1 0.176753 0.341868 0.584856
Si Si2 0.805086 0.119627 0.094934
Si Si3 0.743045 0.466869 0.567441
Si Si4 0.633387 0.750000 0.835915
Si Si5 0.294257 0.156186 0.081025
Si Si6 0.059144 0.250000 0.426377
Si Si7 0.216516 0.524449 0.836336
Si Si8 0.323091 0.870268 0.408794
O O1 0.514004 0.355965 0.709627
O O2 0.991700 0.364868 0.347867
O O3 0.175759 0.291259 0.578277
O O4 0.013750 0.354722 0.707392
O O5 0.473371 0.135487 0.986985
O O6 0.809881 0.068718 0.066712
O O7 0.972043 0.136475 0.982688
O O8 0.500000 0.500000 0.500000
O O9 0.827221 0.462668 0.392571
O O10 0.652998 0.420715 0.595231
O O11 0.992888 0.487648 0.797169
O O12 0.739178 0.706549 0.977722
O O13 0.286478 0.750000 0.703930
O O14 0.793121 0.750000 0.708681
O O15 0.488663 0.149699 0.346048
O O16 0.500000 0.500000 0.000000
#
# Coordination Sequence:
#
# PCOD8068313 Si02
#       8
#     4   4   4   2   4   2   4   4
#     4  10  17  28  46  75 109 152 186 240 294 358
#     4  10  18  33  49  72 110 154 184 243 304 343
#     4  11  23  40  63  85 119 166 204 258 311 366
#     4  12  16  24  40  74 110 146 187 235 290 360
#     4  10  17  28  47  74 111 150 188 239 297 355
#     4  12  16  24  40  72 114 144 187 235 294 354
#     4  11  25  41  61  90 121 161 214 260 311 370
#     4  10  18  30  50  72 106 151 191 233 302 348
#
# _framework density 26.284504999999999
#
# number of rings (size 3 to 8) (size 9 to 14) (size 15 to 20)
#    0.000    1.429    8.571    1.714    2.000    0.571 
#    0.000    0.000    0.000    0.000    0.000    0.000 
#    0.000   12.571    0.000    0.000    0.000    0.000 
#
# Total GULP energy -347084.574201 kJ/mol
# GULP energy per Si atom -12395.877650 kJ/mol
# Density = 2.622468 g / cm^3
# Si number density = 26.284505 Si / 1000 Ang^3
#
#
#
# Elastic Constant Matrix: (Units=GPa)
#
#
# Indices 1 2 3 4 5 6 
#
# 1 244.2936 67.2083 75.5654 0.0000 22.7063 0.0000
# 2 67.2083 251.9874 31.9532 0.0000 22.7069 0.0000
# 3 75.5654 31.9532 73.3585 0.0000 3.4772 0.0000
# 4 0.0000 0.0000 0.0000 -0.4187 0.0000 11.0311
# 5 22.7063 22.7069 3.4772 0.0000 64.3819 0.0000
# 6 0.0000 0.0000 0.0000 11.0311 0.0000 56.6841
#
#
#
# Elastic Compliance Matrix: (Units=1/GPa)
#
#
# Indices 1 2 3 4 5 6 
#
# 1 0.006354 -0.000770 -0.006133 0.000000 -0.001638 0.000000
# 2 -0.000770 0.004421 -0.001075 0.000000 -0.001230 0.000000
# 3 -0.006133 -0.001075 0.020349 0.000000 0.001443 0.000000
# 4 0.000000 0.000000 0.000000 -0.389793 0.000000 0.075857
# 5 -0.001638 -0.001230 0.001443 0.000000 0.016466 0.000000
# 6 0.000000 0.000000 0.000000 0.075857 0.000000 0.002879
#
#
# Mechanical properties :
#
#
# Convention : Reuss Voigt Hill
#
# Bulk Modulus (GPa) = 65.91945 102.12148 84.02046
# Shear Modulus (GPa) = -15.70779 50.45696 17.37458
#
# Velocity S-wave (km/s) = -2.44725 4.38613 2.57382
# Velocity P-wave (km/s) = 4.14105 8.03664 6.39280
#
# Compressibility (1/GPa) = 0.01517003
#
# Stress axis : x y z
#
# Youngs Moduli (GPa) = 157.37094 226.20483 49.14343
#
# Poissons Ratio (x) = 0.17406 0.30138
# Poissons Ratio (y) = 0.12110 0.05281
# Poissons Ratio (z) = 0.96511 0.24309
#
# Static dielectric constant tensor:
#      x y z
#    x 6.063110 0.000000 -0.267160 
#    y 0.000000 5.237700 0.000000 
#    z -0.267160 0.000000 4.994060 
# 
# 
# High freq. dielectric constant tensor:
#      x y z
#    x 2.103090 0.000000 -0.001600 
#    y 0.000000 2.056560 0.000000 
#    z -0.001600 0.000000 2.083760 
# 
# From -- ./inp_files/10815.got.cif
#   From: 2010.06.25/outbox.cif.g09.slc.cpg/sg11_6_cif.got.tgz:10815.got - 2010.06.27 23:14:04.
