data_PCOD8068968
_publ_section_title
;
Structure prediction by ZEFSAII (Michael W. Deem and Ramdas Pophale) SiO2 
 PCOD8068968
Probable space group: P 21/M
;
_chemical_formula_sum "Si O2"
_cell_formula_units_Z 32
_cell_length_a 19.913872
_cell_length_b 8.510476
_cell_length_c 28.558651
_cell_angle_alpha 90.000000
_cell_angle_beta 20.703889
_cell_angle_gamma 90.000000
_cell_volume 1711.132999
_symmetry_space_group_name_H-M "P 21/M"
_symmetry_group_IT_number 11
_symmetry_cell_setting 'monoclinic'
loop_
_space_group_symop_operation_xyz
x,y,z
-x,1/2+y,-z
-x,-y,-z
x,1/2-y,z
loop_
_atom_site_type_symbol
_atom_site_label
_atom_site_fract_x
_atom_site_fract_y
_atom_site_fract_z
Si Si1 0.776747 0.431696 0.328402
Si Si2 0.897578 0.566068 0.654132
Si Si3 0.696779 0.566887 0.629885
Si Si4 0.527952 0.429885 0.406726
Si Si5 0.824876 0.932039 0.891064
Si Si6 0.637292 0.068615 0.571238
Si Si7 0.962023 0.066370 0.708619
Si Si8 0.570542 0.067251 0.805912
O O1 0.728736 0.250000 0.371019
O O2 0.715288 0.471415 0.315027
O O3 0.659242 0.539128 0.440410
O O4 0.998793 0.468836 0.189534
O O5 0.938529 0.750000 0.631742
O O6 0.848919 0.495428 0.736902
O O7 0.723271 0.536430 0.733610
O O8 0.083556 0.483076 0.512050
O O9 0.680940 0.750000 0.651129
O O10 0.603514 0.529741 0.640471
O O11 0.580920 0.470952 0.744312
O O12 0.526146 0.250000 0.392323
O O13 0.526122 0.531679 0.360269
O O14 0.821497 0.750000 0.878912
O O15 0.836067 0.033069 0.836397
O O16 0.637029 0.982333 0.041045
O O17 0.634766 0.250000 0.586373
O O18 0.838661 0.024267 0.416560
O O19 0.002728 0.250000 0.676438
O O20 0.611528 0.250000 0.788143
#
# Coordination Sequence:
#
# PCOD8068968 Si02
#       8
#     4   4   4   4   4   4   4   4
#     4   9  18  32  51  77 111 146 179 216 263 317
#     4  11  22  38  59  81 107 139 178 225 274 319
#     4  11  22  38  59  82 107 136 178 228 275 317
#     4  10  18  29  50  82 112 141 177 220 266 314
#     4  10  21  37  56  77 109 150 182 217 262 322
#     4  11  20  33  54  80 111 143 177 220 272 322
#     4  11  21  34  54  81 110 141 178 222 271 319
#     4  11  23  39  57  79 107 142 184 222 267 320
#
# _framework density 18.701059999999998
#
# number of rings (size 3 to 8) (size 9 to 14) (size 15 to 20)
#    0.000    1.500    1.250    7.125    0.000    2.000 
#    0.000    0.000    0.000    0.750    0.000    0.000 
#    0.000    0.000    0.000    0.000    0.000    0.000 
#
# Total GULP energy -396923.145209 kJ/mol
# GULP energy per Si atom -12403.848288 kJ/mol
# Density = 1.865850 g / cm^3
# Si number density = 18.701060 Si / 1000 Ang^3
#
#
#
# Elastic Constant Matrix: (Units=GPa)
#
#
# Indices 1 2 3 4 5 6 
#
# 1 115.7681 18.3857 41.6909 0.0000 8.7032 0.0000
# 2 18.3857 73.0014 13.7596 0.0000 -0.5675 0.0000
# 3 41.6909 13.7596 65.7462 0.0000 18.7746 0.0000
# 4 0.0000 0.0000 0.0000 19.7590 0.0000 3.3057
# 5 8.7032 -0.5675 18.7746 0.0000 17.0631 0.0000
# 6 0.0000 0.0000 0.0000 3.3057 0.0000 32.7023
#
#
#
# Elastic Compliance Matrix: (Units=1/GPa)
#
#
# Indices 1 2 3 4 5 6 
#
# 1 0.011440 -0.001410 -0.007698 0.000000 0.002589 0.000000
# 2 -0.001410 0.014795 -0.003716 0.000000 0.005299 0.000000
# 3 -0.007698 -0.003716 0.028847 0.000000 -0.027937 0.000000
# 4 0.000000 0.000000 0.000000 0.051481 0.000000 -0.005204
# 5 0.002589 0.005299 -0.027937 0.000000 0.088201 0.000000
# 6 0.000000 0.000000 0.000000 -0.005204 0.000000 0.031105
#
#
# Mechanical properties :
#
#
# Convention : Reuss Voigt Hill
#
# Bulk Modulus (GPa) = 33.97415 44.68756 39.33086
# Shear Modulus (GPa) = 19.13310 25.95018 22.54164
#
# Velocity S-wave (km/s) = 3.20207 3.72913 3.47561
# Velocity P-wave (km/s) = 5.64601 6.51840 6.09782
#
# Compressibility (1/GPa) = 0.02943415
#
# Stress axis : x y z
#
# Youngs Moduli (GPa) = 87.41592 67.59038 34.66569
#
# Poissons Ratio (x) = 0.09530 0.26686
# Poissons Ratio (y) = 0.12326 0.12880
# Poissons Ratio (z) = 0.67294 0.25114
#
# Static dielectric constant tensor:
#      x y z
#    x 3.665400 0.000000 -0.042230 
#    y 0.000000 3.466430 0.000000 
#    z -0.042230 0.000000 3.151770 
# 
# 
# High freq. dielectric constant tensor:
#      x y z
#    x 1.741620 0.000000 -0.000790 
#    y 0.000000 1.737590 0.000000 
#    z -0.000790 0.000000 1.683620 
# 
# From -- ./inp_files/73629.got.cif
#   From: 2010.06.25/outbox.cif.g09.slc.cpg/sg11_37_cif.got.tgz:73629.got - 2010.06.27 23:14:04.
