data_PCOD8068022
_publ_section_title
;
Structure prediction by ZEFSAII (Michael W. Deem and Ramdas Pophale) SiO2 
 PCOD8068022
Probable space group: P 2/M
;
_chemical_formula_sum "Si O2"
_cell_formula_units_Z 28
_cell_length_a 9.701686
_cell_length_b 8.013774
_cell_length_c 24.678686
_cell_angle_alpha 90.000000
_cell_angle_beta 126.134280
_cell_angle_gamma 90.000000
_cell_volume 1549.610907
_symmetry_space_group_name_H-M "P 2/M"
_symmetry_group_IT_number 10
_symmetry_cell_setting 'monoclinic'
loop_
_space_group_symop_operation_xyz
x,y,z
-x,y,-z
-x,-y,-z
x,-y,z
loop_
_atom_site_type_symbol
_atom_site_label
_atom_site_fract_x
_atom_site_fract_y
_atom_site_fract_z
Si Si1 0.403160 0.815539 0.659397
Si Si2 0.285759 0.688448 0.799566
Si Si3 0.491290 0.803802 0.058198
Si Si4 0.949440 0.500000 0.575931
Si Si5 0.075032 0.184460 0.659397
Si Si6 0.816697 0.196198 0.941802
Si Si7 0.721647 0.500000 0.424069
Si Si8 0.612940 0.688448 0.799566
O O1 0.238544 0.804904 0.659029
O O2 0.389939 0.667810 0.611879
O O3 0.572606 0.790646 0.735414
O O4 0.413670 0.000000 0.634346
O O5 0.222254 0.500000 0.791278
O O6 0.333084 0.762127 0.869385
O O7 0.133636 0.790647 0.735414
O O8 0.451682 0.700719 0.801121
O O9 0.327770 0.726297 0.051846
O O10 0.469394 0.000000 0.049395
O O11 0.500000 0.725521 0.000000
O O12 0.780561 0.500000 0.500000
O O13 0.945698 0.332190 0.611879
O O14 0.117336 0.500000 0.578224
O O15 0.989368 0.000000 0.634346
O O16 0.775071 0.237872 0.869385
O O17 0.821206 0.000000 0.950606
O O18 0.000000 0.274478 0.000000
O O19 0.651581 0.500000 0.791278
#
# Coordination Sequence:
#
# PCOD8068022 Si02
#       8
#     4   4   4   2   4   4   2   4
#     4   9  15  23  35  49  67  94 128 165 204 244
#     4   9  15  24  38  54  72  95 128 169 206 243
#     4   9  17  28  41  58  80 106 138 176 216 256
#     4   9  16  24  32  46  69  94 125 165 205 247
#     4   9  15  23  35  49  67  94 128 165 204 244
#     4   9  17  28  41  58  80 106 138 176 216 256
#     4   9  16  24  32  46  69  94 125 165 205 247
#     4   9  15  24  38  54  72  95 128 169 206 243
#
# _framework density 18.069050000000001
#
# number of rings (size 3 to 8) (size 9 to 14) (size 15 to 20)
#    0.000    3.000    1.429    0.857    0.000    4.571 
#    0.000    2.857    0.000    0.000    0.000    0.000 
#    0.000    0.000    0.000    0.000    0.000    2.857 
#
# Total GULP energy -346958.377790 kJ/mol
# GULP energy per Si atom -12391.370635 kJ/mol
# Density = 1.802792 g / cm^3
# Si number density = 18.069050 Si / 1000 Ang^3
#
#
#
# Elastic Constant Matrix: (Units=GPa)
#
#
# Indices 1 2 3 4 5 6 
#
# 1 14.2952 12.3995 21.6966 0.0000 2.0549 0.0000
# 2 12.3995 114.8900 69.0067 0.0000 3.3967 0.0000
# 3 21.6966 69.0067 166.8055 0.0000 7.0959 0.0000
# 4 0.0000 0.0000 0.0000 30.3814 0.0000 1.5895
# 5 2.0549 3.3967 7.0959 0.0000 13.7266 0.0000
# 6 0.0000 0.0000 0.0000 1.5895 0.0000 3.8911
#
#
#
# Elastic Compliance Matrix: (Units=1/GPa)
#
#
# Indices 1 2 3 4 5 6 
#
# 1 0.088929 -0.003487 -0.009811 0.000000 -0.007378 0.000000
# 2 -0.003487 0.011721 -0.004391 0.000000 -0.000109 0.000000
# 3 -0.009811 -0.004391 0.009181 0.000000 -0.002191 0.000000
# 4 0.000000 0.000000 0.000000 0.033634 0.000000 -0.013739
# 5 -0.007378 -0.000109 -0.002191 0.000000 0.075115 0.000000
# 6 0.000000 0.000000 0.000000 -0.013739 0.000000 0.262609
#
#
# Mechanical properties :
#
#
# Convention : Reuss Voigt Hill
#
# Bulk Modulus (GPa) = 13.43116 55.79961 34.61538
# Shear Modulus (GPa) = 9.23561 22.45901 15.84731
#
# Velocity S-wave (km/s) = 2.26327 3.52938 2.96470
# Velocity P-wave (km/s) = 3.77879 6.89616 5.56041
#
# Compressibility (1/GPa) = 0.07445372
#
# Stress axis : x y z
#
# Youngs Moduli (GPa) = 11.24495 85.31941 108.92456
#
# Poissons Ratio (x) = 0.29750 1.06863
# Poissons Ratio (y) = 0.03921 0.47825
# Poissons Ratio (z) = 0.11032 0.37460
#
# Static dielectric constant tensor:
#      x y z
#    x 2.696530 0.000000 0.055470 
#    y 0.000000 3.462210 0.000000 
#    z 0.055470 0.000000 3.621000 
# 
# 
# High freq. dielectric constant tensor:
#      x y z
#    x 1.594770 0.000000 0.007000 
#    y 0.000000 1.708990 0.000000 
#    z 0.007000 0.000000 1.711420 
# 
# From -- ./inp_files/88434.got.cif
#   From: 2010.06.25/outbox.cif.g09.slc.cpg/sg10_45_cif.got.tgz:88434.got - 2010.06.27 22:07:45.
