data_PCOD8068687
_publ_section_title
;
Structure prediction by ZEFSAII (Michael W. Deem and Ramdas Pophale) SiO2 
 PCOD8068687
Probable space group: P 21/M
;
_chemical_formula_sum "Si O2"
_cell_formula_units_Z 32
_cell_length_a 11.028122
_cell_length_b 9.034820
_cell_length_c 20.666842
_cell_angle_alpha 90.000000
_cell_angle_beta 114.271526
_cell_angle_gamma 90.000000
_cell_volume 1877.168066
_symmetry_space_group_name_H-M "P 21/M"
_symmetry_group_IT_number 11
_symmetry_cell_setting 'monoclinic'
loop_
_space_group_symop_operation_xyz
x,y,z
-x,1/2+y,-z
-x,-y,-z
x,1/2-y,z
loop_
_atom_site_type_symbol
_atom_site_label
_atom_site_fract_x
_atom_site_fract_y
_atom_site_fract_z
Si Si1 0.205673 0.921262 0.529077
Si Si2 0.002459 0.078010 0.729841
Si Si3 0.708311 0.421466 0.710409
Si Si4 0.138542 0.923204 0.016890
Si Si5 0.771073 0.916800 0.847458
Si Si6 0.473778 0.075096 0.562375
Si Si7 0.072348 0.914728 0.865536
Si Si8 0.993862 0.078953 0.399353
O O1 0.233919 0.750000 0.519293
O O2 0.129136 0.942050 0.579443
O O3 0.341770 0.010309 0.565909
O O4 0.121021 0.987235 0.451402
O O5 0.025147 0.250000 0.721368
O O6 0.848887 0.037676 0.708806
O O7 0.091416 0.030434 0.811331
O O8 0.052296 0.985218 0.679389
O O9 0.703513 0.250000 0.727403
O O10 0.683681 0.509803 0.771549
O O11 0.595106 0.467350 0.635452
O O12 0.126147 0.750000 0.029827
O O13 0.248555 0.995704 0.088693
O O14 0.172197 0.948910 0.947792
O O15 0.000000 0.000000 0.000000
O O16 0.721277 0.750000 0.846712
O O17 0.924025 0.924783 0.860666
O O18 0.459924 0.250000 0.550072
O O19 0.500000 0.000000 0.500000
O O20 0.099060 0.750000 0.844287
O O21 0.034989 0.250000 0.402345
#
# Coordination Sequence:
#
# PCOD8068687 Si02
#       8
#     4   4   4   4   4   4   4   4
#     4  10  21  36  52  71  93 118 153 193 232 276
#     4  10  18  28  45  67  92 121 153 191 230 270
#     4   9  19  32  44  63  91 122 154 187 225 270
#     4   9  15  23  36  54  80 114 149 185 222 264
#     4   9  16  25  39  58  81 114 152 187 223 264
#     4  11  22  35  52  72  96 125 155 190 231 274
#     4   8  15  25  36  55  84 117 151 183 220 268
#     4  10  20  34  52  70  91 120 152 190 234 279
#
# _framework density 17.046955000000001
#
# number of rings (size 3 to 8) (size 9 to 14) (size 15 to 20)
#    0.000    2.500    0.000    3.750    0.000    7.500 
#    0.000    0.000    0.000    0.000    0.000    0.000 
#    0.000    1.000    0.000    3.250    0.000    4.875 
#
# Total GULP energy -396736.052659 kJ/mol
# GULP energy per Si atom -12398.001646 kJ/mol
# Density = 1.700816 g / cm^3
# Si number density = 17.046955 Si / 1000 Ang^3
#
#
#
# Elastic Constant Matrix: (Units=GPa)
#
#
# Indices 1 2 3 4 5 6 
#
# 1 33.8919 29.8056 31.7786 0.0000 -2.8422 0.0000
# 2 29.8056 112.7734 77.3933 0.0000 -7.8666 0.0000
# 3 31.7786 77.3933 148.4821 0.0000 -15.5803 0.0000
# 4 0.0000 0.0000 0.0000 36.2750 0.0000 -3.9261
# 5 -2.8422 -7.8666 -15.5803 0.0000 15.6706 0.0000
# 6 0.0000 0.0000 0.0000 -3.9261 0.0000 20.5640
#
#
#
# Elastic Compliance Matrix: (Units=1/GPa)
#
#
# Indices 1 2 3 4 5 6 
#
# 1 0.040559 -0.007410 -0.004953 0.000000 -0.001288 0.000000
# 2 -0.007410 0.015160 -0.006318 0.000000 -0.000015 0.000000
# 3 -0.004953 -0.006318 0.011903 0.000000 0.007764 0.000000
# 4 0.000000 0.000000 0.000000 0.028149 0.000000 0.005374
# 5 -0.001288 -0.000015 0.007764 0.000000 0.071292 0.000000
# 6 0.000000 0.000000 0.000000 0.005374 0.000000 0.049655
#
#
# Mechanical properties :
#
#
# Convention : Reuss Voigt Hill
#
# Bulk Modulus (GPa) = 33.04742 63.67805 48.36274
# Shear Modulus (GPa) = 18.92750 24.91325 21.92037
#
# Velocity S-wave (km/s) = 3.33575 3.82704 3.58981
# Velocity P-wave (km/s) = 5.85359 7.54744 6.75383
#
# Compressibility (1/GPa) = 0.03025955
#
# Stress axis : x y z
#
# Youngs Moduli (GPa) = 24.65564 65.96131 84.01516
#
# Poissons Ratio (x) = 0.48877 0.41616
# Poissons Ratio (y) = 0.18270 0.53078
# Poissons Ratio (z) = 0.12213 0.41672
#
# Static dielectric constant tensor:
#      x y z
#    x 2.747090 0.000000 -0.161640 
#    y 0.000000 3.355030 0.000000 
#    z -0.161640 0.000000 3.664680 
# 
# 
# High freq. dielectric constant tensor:
#      x y z
#    x 1.591390 0.000000 -0.017640 
#    y 0.000000 1.674660 0.000000 
#    z -0.017640 0.000000 1.672730 
# 
# From -- ./inp_files/64240.got.cif
#   From: 2010.06.25/outbox.cif.g09.slc.cpg/sg11_33_cif.got.tgz:64240.got - 2010.06.27 23:14:04.
