data_PCOD8068319
_publ_section_title
;
Structure prediction by ZEFSAII (Michael W. Deem and Ramdas Pophale) SiO2 
 PCOD8068319
Probable space group: P 21/M
;
_chemical_formula_sum "Si O2"
_cell_formula_units_Z 32
_cell_length_a 12.807414
_cell_length_b 9.229311
_cell_length_c 26.016556
_cell_angle_alpha 90.000000
_cell_angle_beta 34.492747
_cell_angle_gamma 90.000000
_cell_volume 1741.520370
_symmetry_space_group_name_H-M "P 21/M"
_symmetry_group_IT_number 11
_symmetry_cell_setting 'monoclinic'
loop_
_space_group_symop_operation_xyz
x,y,z
-x,1/2+y,-z
-x,-y,-z
x,1/2-y,z
loop_
_atom_site_type_symbol
_atom_site_label
_atom_site_fract_x
_atom_site_fract_y
_atom_site_fract_z
Si Si1 0.755124 0.077820 0.216559
Si Si2 0.615693 0.078171 0.167233
Si Si3 0.767206 0.579964 0.639782
Si Si4 0.364653 0.080439 0.416509
Si Si5 0.591051 0.421619 0.064023
Si Si6 0.075002 0.578211 0.590334
Si Si7 0.825306 0.921038 0.783970
Si Si8 0.877500 0.922326 0.878548
O O1 0.757444 0.250000 0.216902
O O2 0.750070 0.022969 0.158838
O O3 0.573347 0.025285 0.321321
O O4 0.937689 0.016205 0.169522
O O5 0.603913 0.250000 0.175717
O O6 0.412897 0.012417 0.259661
O O7 0.677365 0.033384 0.084721
O O8 0.760237 0.750000 0.651666
O O9 0.761491 0.542561 0.581893
O O10 0.949202 0.521422 0.593925
O O11 0.364225 0.250000 0.429035
O O12 0.275260 0.996043 0.501195
O O13 0.606131 0.250000 0.048272
O O14 0.379538 0.475760 0.147107
O O15 0.700881 0.505341 0.975848
O O16 0.103206 0.750000 0.579645
O O17 0.978813 0.520902 0.681692
O O18 0.823220 0.750000 0.780830
O O19 0.882933 0.972586 0.817271
O O20 0.859767 0.750000 0.890984
#
# Coordination Sequence:
#
# PCOD8068319 Si02
#       8
#     4   4   4   4   4   4   4   4
#     4   8  16  31  49  67  93 128 160 185 221 278
#     4   8  13  25  47  71  92 120 155 188 222 274
#     4   8  13  24  44  67  92 120 150 182 222 276
#     4   9  17  29  46  69  93 120 153 188 227 271
#     4  10  18  31  52  74  93 117 154 196 236 276
#     4  10  17  28  47  70  92 119 154 189 227 272
#     4   9  18  32  50  70  94 124 157 189 227 280
#     4  10  20  34  50  68  92 125 160 193 229 273
#
# _framework density 18.374749000000001
#
# number of rings (size 3 to 8) (size 9 to 14) (size 15 to 20)
#    0.000    3.000    1.250    2.250    0.000    0.500 
#    0.000    2.500    0.000    3.000    0.000    0.000 
#    0.000    0.000    0.000    0.000    0.000    0.000 
#
# Total GULP energy -396501.650366 kJ/mol
# GULP energy per Si atom -12390.676574 kJ/mol
# Density = 1.833293 g / cm^3
# Si number density = 18.374749 Si / 1000 Ang^3
#
#
#
# Elastic Constant Matrix: (Units=GPa)
#
#
# Indices 1 2 3 4 5 6 
#
# 1 103.0672 16.3701 41.3724 0.0000 6.4877 0.0000
# 2 16.3701 20.5191 25.1115 0.0000 7.1324 0.0000
# 3 41.3724 25.1115 91.6583 0.0000 19.4756 0.0000
# 4 0.0000 0.0000 0.0000 27.7670 0.0000 2.2866
# 5 6.4877 7.1324 19.4756 0.0000 21.4240 0.0000
# 6 0.0000 0.0000 0.0000 2.2866 0.0000 9.5309
#
#
#
# Elastic Compliance Matrix: (Units=1/GPa)
#
#
# Indices 1 2 3 4 5 6 
#
# 1 0.012193 -0.004781 -0.004644 0.000000 0.002121 0.000000
# 2 -0.004781 0.076210 -0.016903 0.000000 -0.008558 0.000000
# 3 -0.004644 -0.016903 0.020007 0.000000 -0.011154 0.000000
# 4 0.000000 0.000000 0.000000 0.036740 0.000000 -0.008815
# 5 0.002121 -0.008558 -0.011154 0.000000 0.059023 0.000000
# 6 0.000000 0.000000 0.000000 -0.008815 0.000000 0.107037
#
#
# Mechanical properties :
#
#
# Convention : Reuss Voigt Hill
#
# Bulk Modulus (GPa) = 17.93597 42.32808 30.13203
# Shear Modulus (GPa) = 13.07362 20.57041 16.82202
#
# Velocity S-wave (km/s) = 2.67029 3.34951 3.02900
# Velocity P-wave (km/s) = 4.39200 6.16806 5.35419
#
# Compressibility (1/GPa) = 0.05575387
#
# Stress axis : x y z
#
# Youngs Moduli (GPa) = 82.01754 13.12170 49.98167
#
# Poissons Ratio (x) = 0.06273 0.23214
# Poissons Ratio (y) = 0.39210 0.84482
# Poissons Ratio (z) = 0.38092 0.22179
#
# Static dielectric constant tensor:
#      x y z
#    x 3.727530 0.000000 0.055920 
#    y 0.000000 2.812980 0.000000 
#    z 0.055920 0.000000 3.445260 
# 
# 
# High freq. dielectric constant tensor:
#      x y z
#    x 1.708280 0.000000 0.006900 
#    y 0.000000 1.650630 0.000000 
#    z 0.006900 0.000000 1.718770 
# 
# From -- ./inp_files/49820.got.cif
#   From: 2010.06.25/outbox.cif.g09.slc.cpg/sg11_25_cif.got.tgz:49820.got - 2010.06.27 23:14:04.
