data_PCOD8068762
_publ_section_title
;
Structure prediction by ZEFSAII (Michael W. Deem and Ramdas Pophale) SiO2 
 PCOD8068762
Probable space group: P 21/M
;
_chemical_formula_sum "Si O2"
_cell_formula_units_Z 32
_cell_length_a 11.774554
_cell_length_b 9.143646
_cell_length_c 21.196540
_cell_angle_alpha 90.000000
_cell_angle_beta 128.284668
_cell_angle_gamma 90.000000
_cell_volume 1791.292544
_symmetry_space_group_name_H-M "P 21/M"
_symmetry_group_IT_number 11
_symmetry_cell_setting 'monoclinic'
loop_
_space_group_symop_operation_xyz
x,y,z
-x,1/2+y,-z
-x,-y,-z
x,1/2-y,z
loop_
_atom_site_type_symbol
_atom_site_label
_atom_site_fract_x
_atom_site_fract_y
_atom_site_fract_z
Si Si1 0.984769 0.082996 0.402478
Si Si2 0.512083 0.081146 0.283609
Si Si3 0.575007 0.082440 0.160995
Si Si4 0.101030 0.581329 0.764491
Si Si5 0.939176 0.577903 0.124855
Si Si6 0.232305 0.919968 0.157194
Si Si7 0.295741 0.921244 0.036483
Si Si8 0.772657 0.581765 0.419131
O O1 0.930403 0.250000 0.394775
O O2 0.989945 0.048063 0.330085
O O3 0.145357 0.060767 0.485951
O O4 0.873057 0.975774 0.397430
O O5 0.498464 0.250000 0.296395
O O6 0.575488 0.054044 0.235853
O O7 0.354185 0.010205 0.236174
O O8 0.622121 0.005844 0.370556
O O9 0.533729 0.250000 0.132595
O O10 0.731408 0.041418 0.188431
O O11 0.459373 0.979038 0.086747
O O12 0.084675 0.750000 0.778968
O O13 0.035177 0.478247 0.795510
O O14 0.913266 0.750000 0.115891
O O15 0.077659 0.533950 0.131089
O O16 0.799065 0.499702 0.048715
O O17 0.265801 0.750000 0.179066
O O18 0.232203 0.960457 0.083308
O O19 0.294715 0.750000 0.022302
O O20 0.737976 0.750000 0.393232
#
# Coordination Sequence:
#
# PCOD8068762 Si02
#       8
#     4   4   4   4   4   4   4   4
#     4   9  18  33  50  74 107 141 173 209 251 299
#     4  10  18  31  53  79 107 136 169 211 258 307
#     4   9  18  33  52  74 103 137 168 208 257 300
#     4  10  20  36  54  72 104 142 176 210 248 305
#     4  11  23  37  53  75 103 135 172 214 261 308
#     4   9  20  37  55  77 103 130 169 220 262 301
#     4  10  20  35  56  78 100 129 169 215 260 309
#     4  10  18  28  50  80 109 137 168 208 256 305
#
# _framework density 17.864196
#
# number of rings (size 3 to 8) (size 9 to 14) (size 15 to 20)
#    0.000    2.250    1.250    1.875    0.000    4.000 
#    0.000    0.000    0.000    0.750    0.000    0.000 
#    0.000    0.000    0.000    0.000    0.000    0.000 
#
# Total GULP energy -396911.022146 kJ/mol
# GULP energy per Si atom -12403.469442 kJ/mol
# Density = 1.782354 g / cm^3
# Si number density = 17.864196 Si / 1000 Ang^3
#
#
#
# Elastic Constant Matrix: (Units=GPa)
#
#
# Indices 1 2 3 4 5 6 
#
# 1 33.9447 21.7892 22.9053 0.0000 -5.7711 0.0000
# 2 21.7892 82.2230 52.9811 0.0000 5.4579 0.0000
# 3 22.9053 52.9811 114.8480 0.0000 4.1390 0.0000
# 4 0.0000 0.0000 0.0000 31.2617 0.0000 2.0626
# 5 -5.7711 5.4579 4.1390 0.0000 19.9701 0.0000
# 6 0.0000 0.0000 0.0000 2.0626 0.0000 26.3540
#
#
#
# Elastic Compliance Matrix: (Units=1/GPa)
#
#
# Indices 1 2 3 4 5 6 
#
# 1 0.040835 -0.008863 -0.004602 0.000000 0.015177 0.000000
# 2 -0.008863 0.019423 -0.006961 0.000000 -0.006427 0.000000
# 3 -0.004602 -0.006961 0.012912 0.000000 -0.002104 0.000000
# 4 0.000000 0.000000 0.000000 0.032154 0.000000 -0.002517
# 5 0.015177 -0.006427 -0.002104 0.000000 0.056653 0.000000
# 6 0.000000 0.000000 0.000000 -0.002517 0.000000 0.038142
#
#
# Mechanical properties :
#
#
# Convention : Reuss Voigt Hill
#
# Bulk Modulus (GPa) = 30.94342 47.37412 39.15877
# Shear Modulus (GPa) = 19.86150 24.40648 22.13399
#
# Velocity S-wave (km/s) = 3.33799 3.70026 3.52378
# Velocity P-wave (km/s) = 5.67585 6.69570 6.20676
#
# Compressibility (1/GPa) = 0.03231705
#
# Stress axis : x y z
#
# Youngs Moduli (GPa) = 24.48885 51.48658 77.44774
#
# Poissons Ratio (x) = 0.45633 0.35645
# Poissons Ratio (y) = 0.21705 0.53908
# Poissons Ratio (z) = 0.11271 0.35838
#
# Static dielectric constant tensor:
#      x y z
#    x 3.077860 0.000000 0.092300 
#    y 0.000000 3.349690 0.000000 
#    z 0.092300 0.000000 3.409760 
# 
# 
# High freq. dielectric constant tensor:
#      x y z
#    x 1.662210 0.000000 0.012720 
#    y 0.000000 1.699160 0.000000 
#    z 0.012720 0.000000 1.695420 
# 
# From -- ./inp_files/42909.got.cif
#   From: 2010.06.25/outbox.cif.g09.slc.cpg/sg11_22_cif.got.tgz:42909.got - 2010.06.27 23:14:04.
