data_PCOD8068370
_publ_section_title
;
Structure prediction by ZEFSAII (Michael W. Deem and Ramdas Pophale) SiO2 
 PCOD8068370
Probable space group: P 21/M
;
_chemical_formula_sum "Si O2"
_cell_formula_units_Z 28
_cell_length_a 12.264509
_cell_length_b 13.339506
_cell_length_c 20.266148
_cell_angle_alpha 90.000000
_cell_angle_beta 152.746023
_cell_angle_gamma 90.000000
_cell_volume 1518.327825
_symmetry_space_group_name_H-M "P 21/M"
_symmetry_group_IT_number 11
_symmetry_cell_setting 'monoclinic'
loop_
_space_group_symop_operation_xyz
x,y,z
-x,1/2+y,-z
-x,-y,-z
x,1/2-y,z
loop_
_atom_site_type_symbol
_atom_site_label
_atom_site_fract_x
_atom_site_fract_y
_atom_site_fract_z
Si Si1 0.894979 0.136444 0.700629
Si Si2 0.278137 0.136859 0.064492
Si Si3 0.661234 0.984361 0.023416
Si Si4 0.458954 0.004452 0.701871
Si Si5 0.568002 0.635628 0.187127
Si Si6 0.280570 0.861644 0.259214
Si Si7 0.103663 0.637648 0.445154
O O1 0.009625 0.250000 0.769970
O O2 0.687815 0.125630 0.644375
O O3 0.786345 0.125621 0.569153
O O4 0.079754 0.045511 0.811245
O O5 0.353372 0.250000 0.118581
O O6 0.416534 0.100964 0.072058
O O7 0.349940 0.073432 0.167057
O O8 0.997417 0.122301 0.905279
O O9 0.642935 0.086607 0.970392
O O10 0.500000 0.000000 0.000000
O O11 0.218735 0.944425 0.554923
O O12 0.402186 0.089294 0.724440
O O13 0.561768 0.055785 0.691793
O O14 0.494336 0.750000 0.156477
O O15 0.820202 0.621014 0.286142
O O16 0.360124 0.750000 0.279747
O O17 0.154820 0.750000 0.499956
#
# Coordination Sequence:
#
# PCOD8068370 Si02
#       7
#     4   4   4   4   4   4   4
#     4   9  18  34  55  79 104 133 169 208 254 305
#     4   9  19  33  50  76 103 129 168 213 256 303
#     4  10  17  29  54  78  96 126 169 210 249 297
#     4  11  20  32  52  76 103 135 174 208 251 301
#     4  10  21  34  50  74 105 136 168 210 257 303
#     4   9  18  33  53  73  98 132 169 211 257 303
#     4  10  20  34  52  73 101 136 173 211 251 301
#
# _framework density 18.44134
#
# number of rings (size 3 to 8) (size 9 to 14) (size 15 to 20)
#    0.000    2.286    1.429    3.000    0.000    1.143 
#    0.000    0.000    0.000    7.714    0.000    0.000 
#    0.000    0.000    0.000    0.000    0.000    0.000 
#
# Total GULP energy -346961.418477 kJ/mol
# GULP energy per Si atom -12391.479231 kJ/mol
# Density = 1.839937 g / cm^3
# Si number density = 18.441340 Si / 1000 Ang^3
#
#
#
# Elastic Constant Matrix: (Units=GPa)
#
#
# Indices 1 2 3 4 5 6 
#
# 1 87.9591 39.2164 4.2917 0.0000 -5.3928 0.0000
# 2 39.2164 121.8600 29.9052 0.0000 -2.9163 0.0000
# 3 4.2917 29.9052 33.3957 0.0000 -5.8892 0.0000
# 4 0.0000 0.0000 0.0000 27.6897 0.0000 -0.0774
# 5 -5.3928 -2.9163 -5.8892 0.0000 20.0762 0.0000
# 6 0.0000 0.0000 0.0000 -0.0774 0.0000 28.2106
#
#
#
# Elastic Compliance Matrix: (Units=1/GPa)
#
#
# Indices 1 2 3 4 5 6 
#
# 1 0.013765 -0.005220 0.003611 0.000000 0.003999 0.000000
# 2 -0.005220 0.012530 -0.011047 0.000000 -0.002823 0.000000
# 3 0.003611 -0.011047 0.041402 0.000000 0.011510 0.000000
# 4 0.000000 0.000000 0.000000 0.036115 0.000000 0.000099
# 5 0.003999 -0.002823 0.011510 0.000000 0.053851 0.000000
# 6 0.000000 0.000000 0.000000 0.000099 0.000000 0.035448
#
#
# Mechanical properties :
#
#
# Convention : Reuss Voigt Hill
#
# Bulk Modulus (GPa) = 23.59376 43.33794 33.46585
# Shear Modulus (GPa) = 21.50066 26.51540 24.00803
#
# Velocity S-wave (km/s) = 3.41822 3.79598 3.61204
# Velocity P-wave (km/s) = 5.32923 6.53942 5.96510
#
# Compressibility (1/GPa) = 0.04238409
#
# Stress axis : x y z
#
# Youngs Moduli (GPa) = 72.64606 79.81145 24.15348
#
# Poissons Ratio (x) = 0.41664 -0.08721
# Poissons Ratio (y) = 0.37924 0.26682
# Poissons Ratio (z) = -0.26231 0.88166
#
# Static dielectric constant tensor:
#      x y z
#    x 3.581130 0.000000 -0.215240 
#    y 0.000000 3.533360 0.000000 
#    z -0.215240 0.000000 3.028660 
# 
# 
# High freq. dielectric constant tensor:
#      x y z
#    x 1.724340 0.000000 -0.023130 
#    y 0.000000 1.721940 0.000000 
#    z -0.023130 0.000000 1.676030 
# 
# From -- ./inp_files/43194.got.cif
#   From: 2010.06.25/outbox.cif.g09.slc.cpg/sg11_22_cif.got.tgz:43194.got - 2010.06.27 23:14:04.
