data_PCOD8068569
_publ_section_title
;
Structure prediction by ZEFSAII (Michael W. Deem and Ramdas Pophale) SiO2 
 PCOD8068569
Probable space group: P 21/M
;
_chemical_formula_sum "Si O2"
_cell_formula_units_Z 28
_cell_length_a 16.214915
_cell_length_b 9.127790
_cell_length_c 17.569750
_cell_angle_alpha 90.000000
_cell_angle_beta 137.948857
_cell_angle_gamma 90.000000
_cell_volume 1741.754512
_symmetry_space_group_name_H-M "P 21/M"
_symmetry_group_IT_number 11
_symmetry_cell_setting 'monoclinic'
loop_
_space_group_symop_operation_xyz
x,y,z
-x,1/2+y,-z
-x,-y,-z
x,1/2-y,z
loop_
_atom_site_type_symbol
_atom_site_label
_atom_site_fract_x
_atom_site_fract_y
_atom_site_fract_z
Si Si1 0.174627 0.419695 0.159150
Si Si2 0.945559 0.923598 0.215015
Si Si3 0.805978 0.578545 0.569957
Si Si4 0.371939 0.419573 0.416645
Si Si5 0.876589 0.912112 0.330340
Si Si6 0.094950 0.919692 0.961716
Si Si7 0.833995 0.086339 0.441435
O O1 0.189222 0.250000 0.146839
O O2 0.282563 0.475782 0.288268
O O3 0.047298 0.445085 0.115865
O O4 0.180763 0.516344 0.087184
O O5 0.964814 0.750000 0.218638
O O6 0.861548 0.958732 0.231746
O O7 0.875012 0.991710 0.094667
O O8 0.078312 0.997876 0.313641
O O9 0.838045 0.750000 0.584708
O O10 0.688997 0.550798 0.543308
O O11 0.771809 0.513440 0.463826
O O12 0.500000 0.500000 0.500000
O O13 0.397464 0.250000 0.422064
O O14 0.822568 0.750000 0.306876
O O15 0.020928 0.912039 0.446725
O O16 0.804670 0.021424 0.337512
O O17 0.126726 0.750000 0.971557
O O18 0.779115 0.250000 0.408239
#
# Coordination Sequence:
#
# PCOD8068569 Si02
#       7
#     4   4   4   4   4   4   4
#     4   9  18  33  46  63  89 116 150 187 227 269
#     4  10  18  27  42  64  89 118 151 183 219 266
#     4  10  18  30  44  60  85 116 150 187 226 267
#     4  10  21  35  49  66  89 118 153 193 231 268
#     4   8  15  25  36  55  83 115 146 176 214 259
#     4  10  18  29  46  67  90 117 150 185 225 271
#     4   9  16  25  38  58  81 111 148 181 217 262
#
# _framework density 16.075742999999999
#
# number of rings (size 3 to 8) (size 9 to 14) (size 15 to 20)
#    0.000    2.571    1.429    2.571    0.000    6.286 
#    0.000    0.000    0.000    0.000    0.000    0.000 
#    0.000    1.143    0.000    3.714    0.000    4.857 
#
# Total GULP energy -347140.139289 kJ/mol
# GULP energy per Si atom -12397.862117 kJ/mol
# Density = 1.603915 g / cm^3
# Si number density = 16.075743 Si / 1000 Ang^3
#
#
#
# Elastic Constant Matrix: (Units=GPa)
#
#
# Indices 1 2 3 4 5 6 
#
# 1 91.9575 63.5073 51.8463 0.0000 -32.6169 0.0000
# 2 63.5073 108.5545 44.0131 0.0000 -23.8001 0.0000
# 3 51.8463 44.0131 71.9201 0.0000 -17.9994 0.0000
# 4 0.0000 0.0000 0.0000 23.5129 0.0000 -7.1212
# 5 -32.6169 -23.8001 -17.9994 0.0000 29.3156 0.0000
# 6 0.0000 0.0000 0.0000 -7.1212 0.0000 28.3271
#
#
#
# Elastic Compliance Matrix: (Units=1/GPa)
#
#
# Indices 1 2 3 4 5 6 
#
# 1 0.030505 -0.008805 -0.011694 0.000000 0.019611 0.000000
# 2 -0.008805 0.015869 -0.003062 0.000000 0.001207 0.000000
# 3 -0.011694 -0.003062 0.024021 0.000000 -0.000748 0.000000
# 4 0.000000 0.000000 0.000000 0.046035 0.000000 0.011573
# 5 0.019611 0.001207 -0.000748 0.000000 0.056452 0.000000
# 6 0.000000 0.000000 0.000000 0.011573 0.000000 0.038211
#
#
# Mechanical properties :
#
#
# Convention : Reuss Voigt Hill
#
# Bulk Modulus (GPa) = 42.96830 65.68507 54.32668
# Shear Modulus (GPa) = 18.79896 23.76883 21.28389
#
# Velocity S-wave (km/s) = 3.42336 3.84937 3.64259
# Velocity P-wave (km/s) = 6.51249 7.79136 7.18045
#
# Compressibility (1/GPa) = 0.02327297
#
# Stress axis : x y z
#
# Youngs Moduli (GPa) = 32.78186 63.01485 41.63042
#
# Poissons Ratio (x) = 0.55485 0.48682
# Poissons Ratio (y) = 0.28865 0.12747
# Poissons Ratio (z) = 0.38335 0.19295
#
# Static dielectric constant tensor:
#      x y z
#    x 3.074700 0.000000 -0.444960 
#    y 0.000000 3.200420 0.000000 
#    z -0.444960 0.000000 2.792840 
# 
# 
# High freq. dielectric constant tensor:
#      x y z
#    x 1.604760 0.000000 -0.044820 
#    y 0.000000 1.631480 0.000000 
#    z -0.044820 0.000000 1.571460 
# 
# From -- ./inp_files/53292.got.cif
#   From: 2010.06.25/outbox.cif.g09.slc.cpg/sg11_27_cif.got.tgz:53292.got - 2010.06.27 23:14:04.
