data_PCOD8068298
_publ_section_title
;
Structure prediction by ZEFSAII (Michael W. Deem and Ramdas Pophale) SiO2 
 PCOD8068298
Probable space group: P 21/M
;
_chemical_formula_sum "Si O2"
_cell_formula_units_Z 24
_cell_length_a 14.352208
_cell_length_b 9.017381
_cell_length_c 12.165111
_cell_angle_alpha 90.000000
_cell_angle_beta 110.912182
_cell_angle_gamma 90.000000
_cell_volume 1470.692531
_symmetry_space_group_name_H-M "P 21/M"
_symmetry_group_IT_number 11
_symmetry_cell_setting 'monoclinic'
loop_
_space_group_symop_operation_xyz
x,y,z
-x,1/2+y,-z
-x,-y,-z
x,1/2-y,z
loop_
_atom_site_type_symbol
_atom_site_label
_atom_site_fract_x
_atom_site_fract_y
_atom_site_fract_z
Si Si1 0.729670 0.422364 0.543087
Si Si2 0.158166 0.421751 0.077902
Si Si3 0.519259 0.076275 0.392719
Si Si4 0.996585 0.419729 0.838228
Si Si5 0.336975 0.925553 0.245250
Si Si6 0.056278 0.922046 0.425941
O O1 0.750087 0.250000 0.569650
O O2 0.637755 0.449377 0.419026
O O3 0.703609 0.483651 0.653672
O O4 0.832016 0.491936 0.539254
O O5 0.182772 0.250000 0.105835
O O6 0.086913 0.474370 0.146326
O O7 0.261281 0.513807 0.121013
O O8 0.103999 0.451348 0.938419
O O9 0.494799 0.250000 0.389405
O O10 0.500000 0.000000 0.500000
O O11 0.447187 0.997867 0.272862
O O12 0.963043 0.250000 0.847011
O O13 0.005064 0.450146 0.712157
O O14 0.347277 0.750000 0.240827
O O15 0.062284 0.750000 0.457951
O O16 0.000000 0.000000 0.500000
#
# Coordination Sequence:
#
# PCOD8068298 Si02
#       6
#     4   4   4   4   4   4
#     4   8  15  28  44  59  87 123 149 178 227 270
#     4  10  18  27  45  70  91 118 154 188 223 277
#     4   9  16  26  41  64  89 119 152 184 223 277
#     4   9  18  32  46  62  92 125 150 185 235 275
#     4  10  17  28  44  64  92 126 148 179 232 278
#     4  10  19  33  48  65  90 124 158 188 224 267
#
# _framework density 16.318843000000001
#
# number of rings (size 3 to 8) (size 9 to 14) (size 15 to 20)
#    0.000    2.667    1.667    2.500    0.000    1.333 
#    0.000    1.667    0.000    0.000    0.000    1.167 
#    0.000    0.000    0.000    0.000    0.000    0.000 
#
# Total GULP energy -297423.776324 kJ/mol
# GULP energy per Si atom -12392.657347 kJ/mol
# Density = 1.628170 g / cm^3
# Si number density = 16.318843 Si / 1000 Ang^3
#
#
#
# Elastic Constant Matrix: (Units=GPa)
#
#
# Indices 1 2 3 4 5 6 
#
# 1 88.7698 36.9108 55.6051 0.0000 24.9939 0.0000
# 2 36.9108 76.9230 41.4162 0.0000 16.6128 0.0000
# 3 55.6051 41.4162 88.2157 0.0000 23.1184 0.0000
# 4 0.0000 0.0000 0.0000 23.2350 0.0000 5.6889
# 5 24.9939 16.6128 23.1184 0.0000 34.3498 0.0000
# 6 0.0000 0.0000 0.0000 5.6889 0.0000 24.5030
#
#
#
# Elastic Compliance Matrix: (Units=1/GPa)
#
#
# Indices 1 2 3 4 5 6 
#
# 1 0.020601 -0.003177 -0.009674 0.000000 -0.006942 0.000000
# 2 -0.003177 0.018250 -0.005899 0.000000 -0.002545 0.000000
# 3 -0.009674 -0.005899 0.021382 0.000000 -0.004499 0.000000
# 4 0.000000 0.000000 0.000000 0.045633 0.000000 -0.010595
# 5 -0.006942 -0.002545 -0.004499 0.000000 0.038422 0.000000
# 6 0.000000 0.000000 0.000000 -0.010595 0.000000 0.043271
#
#
# Mechanical properties :
#
#
# Convention : Reuss Voigt Hill
#
# Bulk Modulus (GPa) = 43.98963 57.97477 50.98220
# Shear Modulus (GPa) = 21.49277 24.41598 22.95437
#
# Velocity S-wave (km/s) = 3.63306 3.87225 3.75456
# Velocity P-wave (km/s) = 6.67935 7.45626 7.07847
#
# Compressibility (1/GPa) = 0.02273263
#
# Stress axis : x y z
#
# Youngs Moduli (GPa) = 48.54192 54.79463 46.76772
#
# Poissons Ratio (x) = 0.17408 0.45245
# Poissons Ratio (y) = 0.15422 0.27587
# Poissons Ratio (z) = 0.46962 0.32322
#
# Static dielectric constant tensor:
#      x y z
#    x 3.411730 0.000000 0.745140 
#    y 0.000000 3.070260 0.000000 
#    z 0.745140 0.000000 3.325700 
# 
# 
# High freq. dielectric constant tensor:
#      x y z
#    x 1.606010 0.000000 0.048750 
#    y 0.000000 1.625860 0.000000 
#    z 0.048750 0.000000 1.603110 
# 
# From -- ./inp_files/33818.got.cif
#   From: 2010.06.25/outbox.cif.g09.slc.cpg/sg11_17_cif.got.tgz:33818.got - 2010.06.27 23:14:04.
