data_PCOD8068951
_publ_section_title
;
Structure prediction by ZEFSAII (Michael W. Deem and Ramdas Pophale) SiO2 
 PCOD8068951
Probable space group: P 21/M
;
_chemical_formula_sum "Si O2"
_cell_formula_units_Z 32
_cell_length_a 11.848284
_cell_length_b 8.514958
_cell_length_c 21.740662
_cell_angle_alpha 90.000000
_cell_angle_beta 128.455914
_cell_angle_gamma 90.000000
_cell_volume 1717.594726
_symmetry_space_group_name_H-M "P 21/M"
_symmetry_group_IT_number 11
_symmetry_cell_setting 'monoclinic'
loop_
_space_group_symop_operation_xyz
x,y,z
-x,1/2+y,-z
-x,-y,-z
x,1/2-y,z
loop_
_atom_site_type_symbol
_atom_site_label
_atom_site_fract_x
_atom_site_fract_y
_atom_site_fract_z
Si Si1 0.131816 0.565131 0.270900
Si Si2 0.337975 0.936902 0.092654
Si Si3 0.475454 0.567033 0.678687
Si Si4 0.231265 0.567683 0.179119
Si Si5 0.342998 0.563826 0.959272
Si Si6 0.643701 0.934308 0.248294
Si Si7 0.544944 0.066229 0.580279
Si Si8 0.154735 0.933771 0.782387
O O1 0.099058 0.750000 0.262329
O O2 0.127558 0.499717 0.197865
O O3 0.286904 0.526698 0.352282
O O4 0.013956 0.471934 0.269976
O O5 0.335108 0.750000 0.093947
O O6 0.224984 0.002701 0.106937
O O7 0.500983 0.992615 0.163061
O O8 0.292139 0.998093 0.009603
O O9 0.513711 0.750000 0.696572
O O10 0.605831 0.456191 0.743835
O O11 0.346154 0.522586 0.681941
O O12 0.444586 0.520278 0.597423
O O13 0.198449 0.750000 0.165188
O O14 0.349718 0.750000 0.961436
O O15 0.233005 0.501023 0.870575
O O16 0.500000 0.500000 0.000000
O O17 0.643381 0.750000 0.259816
O O18 0.783209 0.980040 0.256166
O O19 0.514553 0.250000 0.573355
O O20 0.500000 0.000000 0.500000
O O21 0.179814 0.750000 0.783223
#
# Coordination Sequence:
#
# PCOD8068951 Si02
#       8
#     4   4   4   4   4   4   4   4
#     4   9  19  35  53  73 102 138 174 206 247 313
#     4   8  14  27  48  69  91 125 168 218 266 305
#     4  10  18  29  49  79 110 134 164 211 257 299
#     4   8  15  30  50  70  93 129 176 217 256 307
#     4  10  19  31  46  69  99 132 173 222 269 312
#     4  10  18  31  51  71  97 137 179 216 259 310
#     4  10  20  36  59  86 110 136 170 207 250 301
#     4  11  22  32  47  73 105 137 175 222 266 308
#
# _framework density 18.630704000000001
#
# number of rings (size 3 to 8) (size 9 to 14) (size 15 to 20)
#    0.000    2.500    1.250    3.750    0.000    3.000 
#    0.000    0.625    0.000    0.750    0.000    0.000 
#    0.000    0.000    0.000    0.000    0.000    0.000 
#
# Total GULP energy -396483.934538 kJ/mol
# GULP energy per Si atom -12390.122954 kJ/mol
# Density = 1.858830 g / cm^3
# Si number density = 18.630704 Si / 1000 Ang^3
#
#
#
# Elastic Constant Matrix: (Units=GPa)
#
#
# Indices 1 2 3 4 5 6 
#
# 1 118.6018 26.0025 51.7324 0.0000 -29.9326 0.0000
# 2 26.0025 39.6614 25.2159 0.0000 -5.1513 0.0000
# 3 51.7324 25.2159 89.5944 0.0000 -31.4360 0.0000
# 4 0.0000 0.0000 0.0000 20.0787 0.0000 -4.4018
# 5 -29.9326 -5.1513 -31.4360 0.0000 33.2000 0.0000
# 6 0.0000 0.0000 0.0000 -4.4018 0.0000 25.2389
#
#
#
# Elastic Compliance Matrix: (Units=1/GPa)
#
#
# Indices 1 2 3 4 5 6 
#
# 1 0.013013 -0.005461 -0.003231 0.000000 0.007826 0.000000
# 2 -0.005461 0.033592 -0.009284 0.000000 -0.008502 0.000000
# 3 -0.003231 -0.009284 0.021134 0.000000 0.015657 0.000000
# 4 0.000000 0.000000 0.000000 0.051784 0.000000 0.009031
# 5 0.007826 -0.008502 0.015657 0.000000 0.050682 0.000000
# 6 0.000000 0.000000 0.000000 0.009031 0.000000 0.041197
#
#
# Mechanical properties :
#
#
# Convention : Reuss Voigt Hill
#
# Bulk Modulus (GPa) = 31.46019 50.41767 40.93893
# Shear Modulus (GPa) = 19.38357 25.36396 22.37377
#
# Velocity S-wave (km/s) = 3.22904 3.69373 3.46917
# Velocity P-wave (km/s) = 5.55204 6.73141 6.16997
#
# Compressibility (1/GPa) = 0.03178620
#
# Stress axis : x y z
#
# Youngs Moduli (GPa) = 76.84460 29.76881 47.31754
#
# Poissons Ratio (x) = 0.16256 0.15289
# Poissons Ratio (y) = 0.41964 0.43932
# Poissons Ratio (z) = 0.24830 0.27639
#
# Static dielectric constant tensor:
#      x y z
#    x 3.665450 0.000000 -0.566410 
#    y 0.000000 3.219560 0.000000 
#    z -0.566410 0.000000 3.478660 
# 
# 
# High freq. dielectric constant tensor:
#      x y z
#    x 1.722420 0.000000 -0.042110 
#    y 0.000000 1.710840 0.000000 
#    z -0.042110 0.000000 1.692520 
# 
# From -- ./inp_files/64242.got.cif
#   From: 2010.06.25/outbox.cif.g09.slc.cpg/sg11_33_cif.got.tgz:64242.got - 2010.06.27 23:14:04.
