data_PCOD8068923
_publ_section_title
;
Structure prediction by ZEFSAII (Michael W. Deem and Ramdas Pophale) SiO2 
 PCOD8068923
Probable space group: P 21/M
;
_chemical_formula_sum "Si O2"
_cell_formula_units_Z 32
_cell_length_a 16.720381
_cell_length_b 8.773026
_cell_length_c 16.815170
_cell_angle_alpha 90.000000
_cell_angle_beta 129.047474
_cell_angle_gamma 90.000000
_cell_volume 1915.613096
_symmetry_space_group_name_H-M "P 21/M"
_symmetry_group_IT_number 11
_symmetry_cell_setting 'monoclinic'
loop_
_space_group_symop_operation_xyz
x,y,z
-x,1/2+y,-z
-x,-y,-z
x,1/2-y,z
loop_
_atom_site_type_symbol
_atom_site_label
_atom_site_fract_x
_atom_site_fract_y
_atom_site_fract_z
Si Si1 0.523395 0.430707 0.600488
Si Si2 0.180439 0.422317 0.311383
Si Si3 0.910296 0.570545 0.998225
Si Si4 0.053835 0.578519 0.812642
Si Si5 0.857797 0.571363 0.457542
Si Si6 0.315493 0.070122 0.539003
Si Si7 0.942366 0.572521 0.344596
Si Si8 0.253478 0.928384 0.206410
O O1 0.500000 0.500000 0.500000
O O2 0.526259 0.250000 0.591643
O O3 0.434532 0.482822 0.607860
O O4 0.630988 0.489778 0.704267
O O5 0.211331 0.250000 0.304663
O O6 0.067828 0.422508 0.277962
O O7 0.257281 0.492684 0.424662
O O8 0.182739 0.534444 0.237935
O O9 0.919490 0.750000 0.995058
O O10 0.797274 0.515152 0.899609
O O11 0.000000 0.500000 0.000000
O O12 0.918005 0.524006 0.094599
O O13 0.094912 0.750000 0.852322
O O14 0.101664 0.511387 0.761298
O O15 0.876888 0.750000 0.485766
O O16 0.744977 0.516998 0.419122
O O17 0.863256 0.535695 0.367046
O O18 0.944255 0.480873 0.559644
O O19 0.309415 0.250000 0.531045
O O20 0.947646 0.750000 0.328694
O O21 0.252394 0.750000 0.187722
#
# Coordination Sequence:
#
# PCOD8068923 Si02
#       8
#     4   4   4   4   4   4   4   4
#     4  10  20  32  49  72  98 131 170 209 246 290
#     4  10  18  29  49  69  95 134 171 200 238 288
#     4  12  24  37  53  73  98 130 168 206 247 293
#     4  11  21  34  51  72  99 133 168 202 245 296
#     4   9  17  31  48  68  97 134 170 204 246 296
#     4   9  16  30  49  69  95 132 172 202 237 288
#     4  10  19  29  46  72 101 130 164 206 250 296
#     4  11  22  34  48  71 102 132 167 209 250 290
#
# _framework density 16.704834000000002
#
# number of rings (size 3 to 8) (size 9 to 14) (size 15 to 20)
#    0.000    1.750    3.750    2.250    0.000    1.500 
#    0.000    0.625    0.000    0.000    0.000    0.875 
#    0.000    0.000    0.000    0.000    0.000    0.000 
#
# Total GULP energy -396687.362032 kJ/mol
# GULP energy per Si atom -12396.480064 kJ/mol
# Density = 1.666681 g / cm^3
# Si number density = 16.704834 Si / 1000 Ang^3
#
#
#
# Elastic Constant Matrix: (Units=GPa)
#
#
# Indices 1 2 3 4 5 6 
#
# 1 104.1246 28.2391 44.7677 0.0000 -9.4116 0.0000
# 2 28.2391 73.4052 37.5211 0.0000 -2.8334 0.0000
# 3 44.7677 37.5211 98.3225 0.0000 -4.8205 0.0000
# 4 0.0000 0.0000 0.0000 26.4256 0.0000 -4.0811
# 5 -9.4116 -2.8334 -4.8205 0.0000 26.7990 0.0000
# 6 0.0000 0.0000 0.0000 -4.0811 0.0000 17.2379
#
#
#
# Elastic Compliance Matrix: (Units=1/GPa)
#
#
# Indices 1 2 3 4 5 6 
#
# 1 0.012535 -0.002311 -0.004663 0.000000 0.003319 0.000000
# 2 -0.002311 0.017361 -0.005572 0.000000 0.000022 0.000000
# 3 -0.004663 -0.005572 0.014438 0.000000 0.000370 0.000000
# 4 0.000000 0.000000 0.000000 0.039278 0.000000 0.009299
# 5 0.003319 0.000022 0.000370 0.000000 0.038550 0.000000
# 6 0.000000 0.000000 0.000000 0.009299 0.000000 0.060213
#
#
# Mechanical properties :
#
#
# Convention : Reuss Voigt Hill
#
# Bulk Modulus (GPa) = 51.96664 55.21199 53.58932
# Shear Modulus (GPa) = 23.37743 25.11411 24.24577
#
# Velocity S-wave (km/s) = 3.74497 3.88158 3.81389
# Velocity P-wave (km/s) = 7.06229 7.29467 7.17942
#
# Compressibility (1/GPa) = 0.01924311
#
# Stress axis : x y z
#
# Youngs Moduli (GPa) = 79.77390 57.60064 69.26063
#
# Poissons Ratio (x) = 0.13310 0.32296
# Poissons Ratio (y) = 0.18434 0.38592
# Poissons Ratio (z) = 0.37199 0.32095
#
# Static dielectric constant tensor:
#      x y z
#    x 3.389160 0.000000 0.047320 
#    y 0.000000 3.119280 0.000000 
#    z 0.047320 0.000000 3.123310 
# 
# 
# High freq. dielectric constant tensor:
#      x y z
#    x 1.632130 0.000000 -0.009350 
#    y 0.000000 1.641030 0.000000 
#    z -0.009350 0.000000 1.623200 
# 
# From -- ./inp_files/60699.got.cif
#   From: 2010.06.25/outbox.cif.g09.slc.cpg/sg11_31_cif.got.tgz:60699.got - 2010.06.27 23:14:04.
