data_PCOD8068784
_publ_section_title
;
Structure prediction by ZEFSAII (Michael W. Deem and Ramdas Pophale) SiO2 
 PCOD8068784
Probable space group: P 21/M
;
_chemical_formula_sum "Si O2"
_cell_formula_units_Z 28
_cell_length_a 13.427097
_cell_length_b 9.005997
_cell_length_c 21.714219
_cell_angle_alpha 90.000000
_cell_angle_beta 139.367929
_cell_angle_gamma 90.000000
_cell_volume 1709.904827
_symmetry_space_group_name_H-M "P 21/M"
_symmetry_group_IT_number 11
_symmetry_cell_setting 'monoclinic'
loop_
_space_group_symop_operation_xyz
x,y,z
-x,1/2+y,-z
-x,-y,-z
x,1/2-y,z
loop_
_atom_site_type_symbol
_atom_site_label
_atom_site_fract_x
_atom_site_fract_y
_atom_site_fract_z
Si Si1 0.444442 0.082365 0.705423
Si Si2 0.222818 0.925179 0.437878
Si Si3 0.235715 0.924386 0.107036
Si Si4 0.023512 0.422021 0.102621
Si Si5 0.145963 0.576124 0.539751
Si Si6 0.529596 0.419952 0.603813
Si Si7 0.836549 0.923944 0.706980
O O1 0.395658 0.250000 0.699837
O O2 0.586300 0.025132 0.814495
O O3 0.504287 0.073987 0.664382
O O4 0.297941 0.978013 0.646631
O O5 0.240529 0.750000 0.439900
O O6 0.153311 0.968908 0.471333
O O7 0.386763 0.001700 0.503263
O O8 0.114551 0.990924 0.332937
O O9 0.233774 0.750000 0.117754
O O10 0.156727 0.993164 0.129689
O O11 0.143889 0.969752 0.001784
O O12 0.052750 0.250000 0.102920
O O13 0.033410 0.455411 0.180238
O O14 0.131760 0.750000 0.542406
O O15 0.000000 0.500000 0.500000
O O16 0.545023 0.250000 0.587860
O O17 0.678620 0.512637 0.658255
O O18 0.820212 0.750000 0.685736
#
# Coordination Sequence:
#
# PCOD8068784 Si02
#       7
#     4   4   4   4   4   4   4
#     4   9  17  29  48  70  94 124 157 190 230 276
#     4  10  21  34  47  65  89 120 154 189 228 278
#     4   9  16  29  45  65  92 126 163 196 230 268
#     4   9  18  28  42  64  94 128 163 198 229 263
#     4  10  21  36  54  73  93 115 146 189 238 285
#     4  10  18  29  44  64  91 125 160 193 225 267
#     4  11  20  29  42  64  94 129 161 192 227 266
#
# _framework density 16.375181000000001
#
# number of rings (size 3 to 8) (size 9 to 14) (size 15 to 20)
#    0.000    2.286    1.429    2.143    0.000    3.429 
#    0.000    0.000    0.000    0.000    0.000    1.000 
#    0.000    0.000    0.000    0.000    0.000    0.000 
#
# Total GULP energy -347104.914964 kJ/mol
# GULP energy per Si atom -12396.604106 kJ/mol
# Density = 1.633791 g / cm^3
# Si number density = 16.375181 Si / 1000 Ang^3
#
#
#
# Elastic Constant Matrix: (Units=GPa)
#
#
# Indices 1 2 3 4 5 6 
#
# 1 64.9621 32.3938 49.0499 0.0000 11.3910 0.0000
# 2 32.3938 63.1344 44.8183 0.0000 2.9448 0.0000
# 3 49.0499 44.8183 127.7494 0.0000 5.2426 0.0000
# 4 0.0000 0.0000 0.0000 23.4247 0.0000 0.0756
# 5 11.3910 2.9448 5.2426 0.0000 18.0812 0.0000
# 6 0.0000 0.0000 0.0000 0.0756 0.0000 24.1224
#
#
#
# Elastic Compliance Matrix: (Units=1/GPa)
#
#
# Indices 1 2 3 4 5 6 
#
# 1 0.027247 -0.008406 -0.006947 0.000000 -0.013782 0.000000
# 2 -0.008406 0.023716 -0.005214 0.000000 0.002945 0.000000
# 3 -0.006947 -0.005214 0.012256 0.000000 0.001672 0.000000
# 4 0.000000 0.000000 0.000000 0.042690 0.000000 -0.000134
# 5 -0.013782 0.002945 0.001672 0.000000 0.063024 0.000000
# 6 0.000000 0.000000 0.000000 -0.000134 0.000000 0.041456
#
#
# Mechanical properties :
#
#
# Convention : Reuss Voigt Hill
#
# Bulk Modulus (GPa) = 45.27808 56.48556 50.88182
# Shear Modulus (GPa) = 19.31362 21.76459 20.53910
#
# Velocity S-wave (km/s) = 3.43803 3.64967 3.54543
# Velocity P-wave (km/s) = 6.59322 7.23392 6.92099
#
# Compressibility (1/GPa) = 0.02208574
#
# Stress axis : x y z
#
# Youngs Moduli (GPa) = 36.70072 42.16570 81.59485
#
# Poissons Ratio (x) = 0.35444 0.56685
# Poissons Ratio (y) = 0.30850 0.42541
# Poissons Ratio (z) = 0.25496 0.21984
#
# Static dielectric constant tensor:
#      x y z
#    x 2.765600 0.000000 -0.086890 
#    y 0.000000 3.231350 0.000000 
#    z -0.086890 0.000000 3.592760 
# 
# 
# High freq. dielectric constant tensor:
#      x y z
#    x 1.581320 0.000000 -0.006640 
#    y 0.000000 1.640880 0.000000 
#    z -0.006640 0.000000 1.638790 
# 
# From -- ./inp_files/51025.got.cif
#   From: 2010.06.25/outbox.cif.g09.slc.cpg/sg11_26_cif.got.tgz:51025.got - 2010.06.27 23:14:04.
