data_PCOD8068342
_publ_section_title
;
Structure prediction by ZEFSAII (Michael W. Deem and Ramdas Pophale) SiO2 
 PCOD8068342
Probable space group: P 21/M
;
_chemical_formula_sum "Si O2"
_cell_formula_units_Z 24
_cell_length_a 12.241424
_cell_length_b 8.640283
_cell_length_c 14.347601
_cell_angle_alpha 90.000000
_cell_angle_beta 69.346043
_cell_angle_gamma 90.000000
_cell_volume 1420.001237
_symmetry_space_group_name_H-M "P 21/M"
_symmetry_group_IT_number 11
_symmetry_cell_setting 'monoclinic'
loop_
_space_group_symop_operation_xyz
x,y,z
-x,1/2+y,-z
-x,-y,-z
x,1/2-y,z
loop_
_atom_site_type_symbol
_atom_site_label
_atom_site_fract_x
_atom_site_fract_y
_atom_site_fract_z
Si Si1 0.163441 0.067694 0.011338
Si Si2 0.736190 0.567705 0.335163
Si Si3 0.604418 0.433736 0.530079
Si Si4 0.469778 0.933741 0.726543
Si Si5 0.573718 0.565663 0.062022
Si Si6 0.945072 0.930935 0.147810
O O1 0.164496 0.250000 0.011556
O O2 0.293441 0.006595 0.992302
O O3 0.122214 0.003871 0.923075
O O4 0.072839 0.008613 0.117567
O O5 0.713090 0.750000 0.346741
O O6 0.721832 0.492497 0.442537
O O7 0.646067 0.498519 0.287656
O O8 0.867443 0.529313 0.261802
O O9 0.500000 0.500000 0.500000
O O10 0.602287 0.250000 0.534933
O O11 0.586738 0.504541 0.638407
O O12 0.467309 0.750000 0.725034
O O13 0.478753 0.995194 0.828190
O O14 0.566005 0.750000 0.068863
O O15 0.500000 0.500000 0.000000
O O16 0.964293 0.750000 0.131912
#
# Coordination Sequence:
#
# PCOD8068342 Si02
#       6
#     4   4   4   4   4   4
#     4   9  18  32  47  67  96 127 160 200 241 284
#     4  10  17  29  46  69 100 130 159 197 241 290
#     4  10  18  28  43  66  95 127 160 197 239 291
#     4  11  20  31  47  68  94 129 164 200 243 289
#     4  11  22  37  52  71  97 129 167 206 244 283
#     4   9  17  29  47  70  97 129 159 195 241 288
#
# _framework density 16.901392999999999
#
# number of rings (size 3 to 8) (size 9 to 14) (size 15 to 20)
#    0.000    2.000    1.667    6.000    0.000    2.667 
#    0.000    0.000    0.000    0.000    0.000    1.167 
#    0.000    0.000    0.000    0.000    0.000    0.000 
#
# Total GULP energy -297510.256312 kJ/mol
# GULP energy per Si atom -12396.260680 kJ/mol
# Density = 1.686292 g / cm^3
# Si number density = 16.901393 Si / 1000 Ang^3
#
#
#
# Elastic Constant Matrix: (Units=GPa)
#
#
# Indices 1 2 3 4 5 6 
#
# 1 74.7999 28.4953 61.8449 0.0000 -13.4084 0.0000
# 2 28.4953 98.3170 54.6607 0.0000 -7.1634 0.0000
# 3 61.8449 54.6607 153.1910 0.0000 -22.0553 0.0000
# 4 0.0000 0.0000 0.0000 32.7766 0.0000 -4.2200
# 5 -13.4084 -7.1634 -22.0553 0.0000 23.7948 0.0000
# 6 0.0000 0.0000 0.0000 -4.2200 0.0000 21.1889
#
#
#
# Elastic Compliance Matrix: (Units=1/GPa)
#
#
# Indices 1 2 3 4 5 6 
#
# 1 0.020705 -0.001730 -0.007082 0.000000 0.004582 0.000000
# 2 -0.001730 0.012837 -0.004000 0.000000 -0.000818 0.000000
# 3 -0.007082 -0.004000 0.011616 0.000000 0.005572 0.000000
# 4 0.000000 0.000000 0.000000 0.031312 0.000000 0.006236
# 5 0.004582 -0.000818 0.005572 0.000000 0.049527 0.000000
# 6 0.000000 0.000000 0.000000 0.006236 0.000000 0.048436
#
#
# Mechanical properties :
#
#
# Convention : Reuss Voigt Hill
#
# Bulk Modulus (GPa) = 51.19011 68.47886 59.83448
# Shear Modulus (GPa) = 24.20517 27.63919 25.92218
#
# Velocity S-wave (km/s) = 3.78847 4.04830 3.92054
# Velocity P-wave (km/s) = 7.03491 7.90293 7.48152
#
# Compressibility (1/GPa) = 0.01953502
#
# Stress axis : x y z
#
# Youngs Moduli (GPa) = 48.29845 77.90214 86.08675
#
# Poissons Ratio (x) = 0.13475 0.60965
# Poissons Ratio (y) = 0.08354 0.34432
# Poissons Ratio (z) = 0.34204 0.31158
#
# Static dielectric constant tensor:
#      x y z
#    x 2.893850 0.000000 -0.382090 
#    y 0.000000 3.231910 0.000000 
#    z -0.382090 0.000000 3.728550 
# 
# 
# High freq. dielectric constant tensor:
#      x y z
#    x 1.597660 0.000000 -0.033970 
#    y 0.000000 1.664420 0.000000 
#    z -0.033970 0.000000 1.660560 
# 
# From -- ./inp_files/48698.got.cif
#   From: 2010.06.25/outbox.cif.g09.slc.cpg/sg11_25_cif.got.tgz:48698.got - 2010.06.27 23:14:04.
