data_PCOD8068617
_publ_section_title
;
Structure prediction by ZEFSAII (Michael W. Deem and Ramdas Pophale) SiO2 
 PCOD8068617
Probable space group: P 21/M
;
_chemical_formula_sum "Si O2"
_cell_formula_units_Z 32
_cell_length_a 27.065845
_cell_length_b 8.790202
_cell_length_c 18.680673
_cell_angle_alpha 90.000000
_cell_angle_beta 152.071376
_cell_angle_gamma 90.000000
_cell_volume 2081.628435
_symmetry_space_group_name_H-M "P 21/M"
_symmetry_group_IT_number 11
_symmetry_cell_setting 'monoclinic'
loop_
_space_group_symop_operation_xyz
x,y,z
-x,1/2+y,-z
-x,-y,-z
x,1/2-y,z
loop_
_atom_site_type_symbol
_atom_site_label
_atom_site_fract_x
_atom_site_fract_y
_atom_site_fract_z
Si Si1 0.935530 0.927872 0.518306
Si Si2 0.402028 0.425763 0.281902
Si Si3 0.026169 0.929639 0.141448
Si Si4 0.381455 0.427096 0.420550
Si Si5 0.773513 0.429162 0.036205
Si Si6 0.011621 0.430309 0.746995
Si Si7 0.148529 0.071758 0.733540
Si Si8 0.839672 0.929590 0.800862
O O1 0.952364 0.750000 0.553145
O O2 0.840510 0.955792 0.338835
O O3 0.919865 0.010007 0.575048
O O4 0.039958 0.998161 0.618901
O O5 0.388587 0.250000 0.244053
O O6 0.365380 0.457364 0.315890
O O7 0.523068 0.474120 0.426152
O O8 0.331780 0.527506 0.140167
O O9 0.035755 0.750000 0.150821
O O10 0.020144 0.988219 0.215014
O O11 0.921468 0.986775 0.966143
O O12 0.129683 0.999735 0.236527
O O13 0.404978 0.250000 0.464626
O O14 0.276782 0.484479 0.326721
O O15 0.787604 0.250000 0.055298
O O16 0.761566 0.491305 0.103126
O O17 0.874342 0.503477 0.126936
O O18 0.019008 0.250000 0.753460
O O19 0.146973 0.250000 0.748811
O O20 0.843377 0.750000 0.799475
#
# Coordination Sequence:
#
# PCOD8068617 Si02
#       8
#     4   4   4   4   4   4   4   4
#     4   9  16  25  38  57  80 107 140 173 204 245
#     4  10  19  31  46  63  85 111 140 174 211 251
#     4   9  18  30  43  62  85 110 142 175 208 248
#     4   9  18  32  47  63  84 110 141 175 212 251
#     4  11  20  28  41  61  85 112 144 178 208 246
#     4  10  18  28  42  59  84 115 143 175 212 248
#     4   9  16  26  39  55  79 110 140 170 206 246
#     4   9  17  30  46  61  82 111 140 175 213 246
#
# _framework density 15.372579999999999
#
# number of rings (size 3 to 8) (size 9 to 14) (size 15 to 20)
#    0.000    2.500    0.000    4.875    0.000    5.500 
#    0.000    2.500    0.000    0.000    0.000    0.000 
#    0.000    1.000    0.000    3.250    0.000    5.250 
#
# Total GULP energy -396610.945964 kJ/mol
# GULP energy per Si atom -12394.092061 kJ/mol
# Density = 1.533759 g / cm^3
# Si number density = 15.372580 Si / 1000 Ang^3
#
#
#
# Elastic Constant Matrix: (Units=GPa)
#
#
# Indices 1 2 3 4 5 6 
#
# 1 104.3200 35.5353 56.6030 0.0000 -13.1538 0.0000
# 2 35.5353 70.6461 34.0830 0.0000 -10.1977 0.0000
# 3 56.6030 34.0830 77.3872 0.0000 -13.0720 0.0000
# 4 0.0000 0.0000 0.0000 24.6140 0.0000 -2.8418
# 5 -13.1538 -10.1977 -13.0720 0.0000 28.6179 0.0000
# 6 0.0000 0.0000 0.0000 -2.8418 0.0000 22.0988
#
#
#
# Elastic Compliance Matrix: (Units=1/GPa)
#
#
# Indices 1 2 3 4 5 6 
#
# 1 0.016500 -0.003007 -0.010450 0.000000 0.001739 0.000000
# 2 -0.003007 0.018767 -0.005602 0.000000 0.002746 0.000000
# 3 -0.010450 -0.005602 0.023714 0.000000 0.004033 0.000000
# 4 0.000000 0.000000 0.000000 0.041240 0.000000 0.005303
# 5 0.001739 0.002746 0.004033 0.000000 0.038563 0.000000
# 6 0.000000 0.000000 0.000000 0.005303 0.000000 0.045933
#
#
# Mechanical properties :
#
#
# Convention : Reuss Voigt Hill
#
# Bulk Modulus (GPa) = 47.93382 56.08843 52.01113
# Shear Modulus (GPa) = 21.75915 23.47494 22.61704
#
# Velocity S-wave (km/s) = 3.76633 3.91201 3.83986
# Velocity P-wave (km/s) = 7.08257 7.54787 7.31892
#
# Compressibility (1/GPa) = 0.02086210
#
# Stress axis : x y z
#
# Youngs Moduli (GPa) = 60.60777 53.28610 42.16898
#
# Poissons Ratio (x) = 0.16021 0.44068
# Poissons Ratio (y) = 0.18223 0.23624
# Poissons Ratio (z) = 0.63337 0.29852
#
# Static dielectric constant tensor:
#      x y z
#    x 3.147770 0.000000 -0.471630 
#    y 0.000000 3.070830 0.000000 
#    z -0.471630 0.000000 3.096840 
# 
# 
# High freq. dielectric constant tensor:
#      x y z
#    x 1.567140 0.000000 -0.030440 
#    y 0.000000 1.601610 0.000000 
#    z -0.030440 0.000000 1.567740 
# 
# From -- ./inp_files/61808.got.cif
#   From: 2010.06.25/outbox.cif.g09.slc.cpg/sg11_31_cif.got.tgz:61808.got - 2010.06.27 23:14:04.
