data_PCOD8068445
_publ_section_title
;
Structure prediction by ZEFSAII (Michael W. Deem and Ramdas Pophale) SiO2 
 PCOD8068445
Probable space group: P 21/M
;
_chemical_formula_sum "Si O2"
_cell_formula_units_Z 32
_cell_length_a 14.385296
_cell_length_b 17.571549
_cell_length_c 12.020128
_cell_angle_alpha 90.000000
_cell_angle_beta 147.239806
_cell_angle_gamma 90.000000
_cell_volume 1644.124947
_symmetry_space_group_name_H-M "P 21/M"
_symmetry_group_IT_number 11
_symmetry_cell_setting 'monoclinic'
loop_
_space_group_symop_operation_xyz
x,y,z
-x,1/2+y,-z
-x,-y,-z
x,1/2-y,z
loop_
_atom_site_type_symbol
_atom_site_label
_atom_site_fract_x
_atom_site_fract_y
_atom_site_fract_z
Si Si1 0.113173 0.659300 0.651803
Si Si2 0.002091 0.159725 0.226285
Si Si3 0.198073 0.159309 0.809639
Si Si4 0.493496 0.659685 0.028835
Si Si5 0.391876 0.159684 0.614198
Si Si6 0.853161 0.160197 0.845331
Si Si7 0.807287 0.839963 0.943231
Si Si8 0.503888 0.410314 0.505207
O O1 0.104263 0.750000 0.646506
O O2 0.077143 0.626757 0.739319
O O3 0.971190 0.627424 0.423328
O O4 0.302180 0.632093 0.802628
O O5 0.002394 0.250000 0.231520
O O6 0.196538 0.131519 0.407757
O O7 0.893037 0.131814 0.010895
O O8 0.196449 0.250000 0.804350
O O9 0.367967 0.126698 0.919176
O O10 0.197307 0.130219 0.934984
O O11 0.505888 0.750000 0.039876
O O12 0.535051 0.631113 0.194576
O O13 0.410091 0.250000 0.618676
O O14 0.501524 0.120214 0.628606
O O15 0.822743 0.250000 0.809903
O O16 0.681868 0.118606 0.629451
O O17 0.009903 0.136117 0.923628
O O18 0.779733 0.750000 0.906499
O O19 0.655571 0.879161 0.724058
O O20 0.500000 0.500000 0.500000
#
# Coordination Sequence:
#
# PCOD8068445 Si02
#       8
#     4   4   4   4   4   4   4   4
#     4   9  15  24  41  73 108 133 162 209 272 329
#     4   9  15  27  51  80 108 133 168 223 279 323
#     4   9  17  29  47  76 111 141 172 217 271 323
#     4   9  16  26  48  80 112 138 167 221 281 326
#     4  10  17  32  56  81 109 141 180 229 281 330
#     4  10  20  36  60  85 107 141 185 229 276 330
#     4  10  21  38  58  80 111 150 189 228 270 327
#     4  12  25  38  55  81 114 150 186 234 285 334
#
# _framework density 19.463239000000002
#
# number of rings (size 3 to 8) (size 9 to 14) (size 15 to 20)
#    0.000    2.250    2.500    1.875    0.000    3.500 
#    0.000    3.750    0.000    0.750    0.000    2.625 
#    0.000    0.000    0.000    0.000    0.000    0.000 
#
# Total GULP energy -396765.157211 kJ/mol
# GULP energy per Si atom -12398.911163 kJ/mol
# Density = 1.941894 g / cm^3
# Si number density = 19.463239 Si / 1000 Ang^3
#
#
#
# Elastic Constant Matrix: (Units=GPa)
#
#
# Indices 1 2 3 4 5 6 
#
# 1 164.3039 33.5529 100.2447 0.0000 2.1755 0.0000
# 2 33.5529 33.5219 31.7205 0.0000 4.2130 0.0000
# 3 100.2447 31.7205 111.5287 0.0000 21.2294 0.0000
# 4 0.0000 0.0000 0.0000 6.6298 0.0000 1.0478
# 5 2.1755 4.2130 21.2294 0.0000 40.4513 0.0000
# 6 0.0000 0.0000 0.0000 1.0478 0.0000 3.0528
#
#
#
# Elastic Compliance Matrix: (Units=1/GPa)
#
#
# Indices 1 2 3 4 5 6 
#
# 1 0.015237 -0.002618 -0.014272 0.000000 0.006943 0.000000
# 2 -0.002618 0.041419 -0.009591 0.000000 0.000860 0.000000
# 3 -0.014272 -0.009591 0.026870 0.000000 -0.012335 0.000000
# 4 0.000000 0.000000 0.000000 0.159485 0.000000 -0.054739
# 5 0.006943 0.000860 -0.012335 0.000000 0.030732 0.000000
# 6 0.000000 0.000000 0.000000 -0.054739 0.000000 0.346356
#
#
# Mechanical properties :
#
#
# Convention : Reuss Voigt Hill
#
# Bulk Modulus (GPa) = 32.71831 71.15452 51.93641
# Shear Modulus (GPa) = 7.31798 19.61587 13.46693
#
# Velocity S-wave (km/s) = 1.94115 3.17810 2.63328
# Velocity P-wave (km/s) = 4.67663 7.07848 5.99899
#
# Compressibility (1/GPa) = 0.03056393
#
# Stress axis : x y z
#
# Youngs Moduli (GPa) = 65.63097 24.14346 37.21593
#
# Poissons Ratio (x) = 0.06321 0.53115
# Poissons Ratio (y) = 0.17184 0.35692
# Poissons Ratio (z) = 0.93669 0.23155
#
# Static dielectric constant tensor:
#      x y z
#    x 3.835390 0.000000 0.064790 
#    y 0.000000 2.901420 0.000000 
#    z 0.064790 0.000000 3.753980 
# 
# 
# High freq. dielectric constant tensor:
#      x y z
#    x 1.770340 0.000000 0.008690 
#    y 0.000000 1.682540 0.000000 
#    z 0.008690 0.000000 1.772800 
# 
# From -- ./inp_files/32253.got.cif
#   From: 2010.06.25/outbox.cif.g09.slc.cpg/sg11_17_cif.got.tgz:32253.got - 2010.06.27 23:14:04.
