data_PCOD8068721
_publ_section_title
;
Structure prediction by ZEFSAII (Michael W. Deem and Ramdas Pophale) SiO2 
 PCOD8068721
Probable space group: P 21/M
;
_chemical_formula_sum "Si O2"
_cell_formula_units_Z 32
_cell_length_a 20.015567
_cell_length_b 9.299488
_cell_length_c 28.683276
_cell_angle_alpha 90.000000
_cell_angle_beta 20.944464
_cell_angle_gamma 90.000000
_cell_volume 1908.475686
_symmetry_space_group_name_H-M "P 21/M"
_symmetry_group_IT_number 11
_symmetry_cell_setting 'monoclinic'
loop_
_space_group_symop_operation_xyz
x,y,z
-x,1/2+y,-z
-x,-y,-z
x,1/2-y,z
loop_
_atom_site_type_symbol
_atom_site_label
_atom_site_fract_x
_atom_site_fract_y
_atom_site_fract_z
Si Si1 0.786351 0.418259 0.317875
Si Si2 0.863314 0.586945 0.675880
Si Si3 0.706976 0.417844 0.617380
Si Si4 0.492710 0.414566 0.436777
Si Si5 0.823753 0.919123 0.902543
Si Si6 0.668464 0.916593 0.552986
Si Si7 0.966884 0.915347 0.709871
Si Si8 0.570059 0.079299 0.806946
O O1 0.786740 0.250000 0.328476
O O2 0.696553 0.453483 0.325685
O O3 0.665598 0.488085 0.437329
O O4 0.999209 0.476742 0.182594
O O5 0.819025 0.750000 0.689494
O O6 0.724007 0.480294 0.741531
O O7 0.073702 0.545237 0.524082
O O8 0.838393 0.567681 0.747773
O O9 0.674996 0.250000 0.629003
O O10 0.607962 0.502915 0.639658
O O11 0.613484 0.470384 0.726107
O O12 0.442643 0.250000 0.481628
O O13 0.494462 0.437487 0.379756
O O14 0.807446 0.750000 0.919043
O O15 0.846997 0.961146 0.833074
O O16 0.631890 0.986188 0.047379
O O17 0.702330 0.750000 0.542358
O O18 0.856192 0.981504 0.408911
O O19 0.037218 0.750000 0.668161
O O20 0.578446 0.250000 0.805627
#
# Coordination Sequence:
#
# PCOD8068721 Si02
#       8
#     4   4   4   4   4   4   4   4
#     4   9  16  28  47  68  94 128 153 177 221 274
#     4   9  18  31  47  67  91 119 152 194 239 277
#     4   9  19  34  50  67  90 120 157 198 233 271
#     4   9  17  27  43  72 100 118 148 189 226 267
#     4   9  17  30  49  69  93 126 159 186 219 273
#     4  10  18  28  46  72  98 119 148 194 236 271
#     4   9  17  31  48  68  95 125 154 183 224 281
#     4  10  20  33  49  69  90 119 161 199 227 267
#
# _framework density 16.767308
#
# number of rings (size 3 to 8) (size 9 to 14) (size 15 to 20)
#    0.000    2.750    1.250    1.500    0.000    3.500 
#    0.000    1.250    0.000    0.750    0.000    0.000 
#    0.000    0.000    0.000    0.000    0.000    0.125 
#
# Total GULP energy -396661.140922 kJ/mol
# GULP energy per Si atom -12395.660654 kJ/mol
# Density = 1.672914 g / cm^3
# Si number density = 16.767308 Si / 1000 Ang^3
#
#
#
# Elastic Constant Matrix: (Units=GPa)
#
#
# Indices 1 2 3 4 5 6 
#
# 1 146.8348 42.3536 72.2509 0.0000 1.8311 0.0000
# 2 42.3536 39.5943 25.6994 0.0000 -2.7623 0.0000
# 3 72.2509 25.6994 94.5808 0.0000 13.3024 0.0000
# 4 0.0000 0.0000 0.0000 13.4423 0.0000 -1.2538
# 5 1.8311 -2.7623 13.3024 0.0000 14.2651 0.0000
# 6 0.0000 0.0000 0.0000 -1.2538 0.0000 22.8164
#
#
#
# Elastic Compliance Matrix: (Units=1/GPa)
#
#
# Indices 1 2 3 4 5 6 
#
# 1 0.013431 -0.008442 -0.008625 0.000000 0.004684 0.000000
# 2 -0.008442 0.039401 -0.006310 0.000000 0.014597 0.000000
# 3 -0.008625 -0.006310 0.021744 0.000000 -0.020391 0.000000
# 4 0.000000 0.000000 0.000000 0.074775 0.000000 0.004109
# 5 0.004684 0.014597 -0.020391 0.000000 0.091342 0.000000
# 6 0.000000 0.000000 0.000000 0.004109 0.000000 0.044054
#
#
# Mechanical properties :
#
#
# Convention : Reuss Voigt Hill
#
# Bulk Modulus (GPa) = 35.94319 62.40196 49.17258
# Shear Modulus (GPa) = 14.67247 19.48518 17.07882
#
# Velocity S-wave (km/s) = 2.96136 3.41265 3.19498
# Velocity P-wave (km/s) = 5.75985 7.26811 6.55749
#
# Compressibility (1/GPa) = 0.02782168
#
# Stress axis : x y z
#
# Youngs Moduli (GPa) = 74.45487 25.38037 45.98936
#
# Poissons Ratio (x) = 0.21426 0.39666
# Poissons Ratio (y) = 0.62855 0.29019
# Poissons Ratio (z) = 0.64217 0.16015
#
# Static dielectric constant tensor:
#      x y z
#    x 3.417930 0.000000 -0.011470 
#    y 0.000000 3.029860 0.000000 
#    z -0.011470 0.000000 3.141100 
# 
# 
# High freq. dielectric constant tensor:
#      x y z
#    x 1.659930 0.000000 -0.002020 
#    y 0.000000 1.634250 0.000000 
#    z -0.002020 0.000000 1.613210 
# 
# From -- ./inp_files/40618.got.cif
#   From: 2010.06.25/outbox.cif.g09.slc.cpg/sg11_21_cif.got.tgz:40618.got - 2010.06.27 23:14:04.
