data_PCOD8068161
_publ_section_title
;
Structure prediction by ZEFSAII (Michael W. Deem and Ramdas Pophale) SiO2 
 PCOD8068161
Probable space group: P 21/M
;
_chemical_formula_sum "Si O2"
_cell_formula_units_Z 24
_cell_length_a 9.319481
_cell_length_b 18.719368
_cell_length_c 9.276514
_cell_angle_alpha 90.000000
_cell_angle_beta 44.172596
_cell_angle_gamma 90.000000
_cell_volume 1127.689793
_symmetry_space_group_name_H-M "P 21/M"
_symmetry_group_IT_number 11
_symmetry_cell_setting 'monoclinic'
loop_
_space_group_symop_operation_xyz
x,y,z
-x,1/2+y,-z
-x,-y,-z
x,1/2-y,z
loop_
_atom_site_type_symbol
_atom_site_label
_atom_site_fract_x
_atom_site_fract_y
_atom_site_fract_z
Si Si1 0.367194 0.900111 0.584247
Si Si2 0.234769 0.039716 0.558315
Si Si3 0.451279 0.250000 0.973664
Si Si4 0.407768 0.373955 0.202682
Si Si5 0.525229 0.250000 0.593375
Si Si6 0.667729 0.750000 0.551662
Si Si7 0.887164 0.250000 0.808436
Si Si8 0.167078 0.899349 0.028732
O O1 0.603072 0.916530 0.459502
O O2 0.341698 0.821609 0.531589
O O3 0.296831 0.956480 0.511790
O O4 0.210895 0.913057 0.829325
O O5 0.238382 0.070636 0.389012
O O6 0.007890 0.047752 0.787554
O O7 0.425409 0.250000 0.822580
O O8 0.691973 0.250000 0.842871
O O9 0.343965 0.323378 0.112949
O O10 0.456542 0.318088 0.298692
O O11 0.625371 0.414847 0.025322
O O12 0.335029 0.250000 0.619056
O O13 0.903643 0.750000 0.438922
O O14 0.901314 0.318145 0.900458
#
# Coordination Sequence:
#
# PCOD8068161 Si02
#       8
#     4   4   2   4   2   2   2   4
#     4  10  21  31  52  82 118 145 180 239 293 323
#     4  10  18  32  54  85 109 142 194 238 270 335
#     4   9  22  33  56  80 118 149 185 228 292 331
#     4   9  18  34  54  82 103 148 191 229 265 339
#     4  12  19  38  54  82 121 147 171 245 294 321
#     4  11  16  33  61  80 105 139 197 230 274 321
#     4  10  17  30  57  80  98 151 189 223 270 343
#     4  10  16  29  53  80 104 137 187 227 277 323
#
# _framework density 21.282449
#
# number of rings (size 3 to 8) (size 9 to 14) (size 15 to 20)
#    0.000    2.000    5.000    1.500    0.000    0.000 
#    0.000    0.833   14.667    4.000    0.000    0.000 
#    0.000    0.000    0.000    0.000    0.000    0.000 
#
# Total GULP energy -297331.600814 kJ/mol
# GULP energy per Si atom -12388.816701 kJ/mol
# Density = 2.123401 g / cm^3
# Si number density = 21.282449 Si / 1000 Ang^3
#
#
#
# Elastic Constant Matrix: (Units=GPa)
#
#
# Indices 1 2 3 4 5 6 
#
# 1 25.6237 1.1033 27.0909 0.0000 3.0304 0.0000
# 2 1.1033 103.1236 17.8653 0.0000 1.7465 0.0000
# 3 27.0909 17.8653 120.6337 0.0000 -2.9686 0.0000
# 4 0.0000 0.0000 0.0000 27.2419 0.0000 -4.7624
# 5 3.0304 1.7465 -2.9686 0.0000 37.7647 0.0000
# 6 0.0000 0.0000 0.0000 -4.7624 0.0000 8.3917
#
#
#
# Elastic Compliance Matrix: (Units=1/GPa)
#
#
# Indices 1 2 3 4 5 6 
#
# 1 0.052411 0.001631 -0.012140 0.000000 -0.005235 0.000000
# 2 0.001631 0.010016 -0.001868 0.000000 -0.000741 0.000000
# 3 -0.012140 -0.001868 0.011341 0.000000 0.001952 0.000000
# 4 0.000000 0.000000 0.000000 0.040751 0.000000 0.023127
# 5 -0.005235 -0.000741 0.001952 0.000000 0.027088 0.000000
# 6 0.000000 0.000000 0.000000 0.023127 0.000000 0.132290
#
#
# Mechanical properties :
#
#
# Convention : Reuss Voigt Hill
#
# Bulk Modulus (GPa) = 20.40269 37.94446 29.17357
# Shear Modulus (GPa) = 15.87361 28.23443 22.05402
#
# Velocity S-wave (km/s) = 2.73400 3.64628 3.22258
# Velocity P-wave (km/s) = 4.42422 5.96614 5.25207
#
# Compressibility (1/GPa) = 0.04901314
#
# Stress axis : x y z
#
# Youngs Moduli (GPa) = 19.07999 99.84239 88.17863
#
# Poissons Ratio (x) = -0.16286 1.07053
# Poissons Ratio (y) = -0.03112 0.16470
# Poissons Ratio (z) = 0.23164 0.18649
#
# Static dielectric constant tensor:
#      x y z
#    x 3.264400 0.000000 -0.186110 
#    y 0.000000 4.200080 0.000000 
#    z -0.186110 0.000000 3.941330 
# 
# 
# High freq. dielectric constant tensor:
#      x y z
#    x 1.772650 0.000000 -0.016820 
#    y 0.000000 1.840570 0.000000 
#    z -0.016820 0.000000 1.837510 
# 
# From -- ./inp_files/19099.got.cif
#   From: 2010.06.25/outbox.cif.g09.slc.cpg/sg11_10_cif.got.tgz:19099.got - 2010.06.27 23:14:04.
