data_PCOD8068094
_publ_section_title
;
Structure prediction by ZEFSAII (Michael W. Deem and Ramdas Pophale) SiO2 
 PCOD8068094
Probable space group: P 2/M
;
_chemical_formula_sum "Si O2"
_cell_formula_units_Z 32
_cell_length_a 21.000000
_cell_length_b 9.000000
_cell_length_c 27.000000
_cell_angle_alpha 90.000000
_cell_angle_beta 160.000000
_cell_angle_gamma 90.000000
_cell_volume 1745.328791
_symmetry_space_group_name_H-M "P 2/M"
_symmetry_group_IT_number 10
_symmetry_cell_setting 'monoclinic'
loop_
_space_group_symop_operation_xyz
x,y,z
-x,y,-z
-x,-y,-z
x,-y,z
loop_
_atom_site_type_symbol
_atom_site_label
_atom_site_fract_x
_atom_site_fract_y
_atom_site_fract_z
Si Si1 0.509253 0.170790 0.950703
Si Si2 0.703226 0.667147 0.797512
Si Si3 0.154143 0.677869 0.952933
Si Si4 0.484869 0.823263 0.254361
Si Si5 0.131598 0.674214 0.824271
Si Si6 0.905754 0.828736 0.379185
Si Si7 0.918568 0.663838 0.866170
Si Si8 0.119932 0.323965 0.450383
O O1 0.316545 0.193809 0.780197
O O2 0.570801 0.000000 0.995820
O O3 0.500000 0.230097 0.000000
O O4 0.666382 0.261956 0.038311
O O5 0.615538 0.500000 0.729046
O O6 0.567649 0.777130 0.727766
O O7 0.755276 0.737613 0.780902
O O8 0.892970 0.652836 0.965498
O O9 0.179455 0.500000 0.978045
O O10 0.347003 0.753889 0.112058
O O11 0.091953 0.721003 0.852068
O O12 0.979574 0.739831 0.858825
O O13 0.692522 0.763137 0.398821
O O14 0.480869 0.000000 0.245806
O O15 0.147718 0.500000 0.830224
O O16 0.969927 0.729251 0.668127
O O17 0.000000 0.784016 0.500000
O O18 0.975544 0.718626 0.387672
O O19 0.952963 0.000000 0.400140
O O20 0.842327 0.500000 0.798878
O O21 0.157614 0.500000 0.478014
#
# Coordination Sequence:
#
# PCOD8068094 Si02
#       8
#     4   4   4   4   4   4   4   4
#     4  10  20  36  57  78 104 139 174 210 256 312
#     4   8  13  26  48  74 102 137 174 213 260 309
#     4   9  18  35  55  80 109 138 173 218 266 312
#     4  11  22  34  51  78 109 142 178 218 263 314
#     4  10  22  37  57  81 106 137 176 221 263 308
#     4  10  22  39  57  80 108 138 173 214 259 311
#     4   7  11  23  48  75 102 134 170 211 259 309
#     4  11  23  39  56  77 106 142 179 218 263 313
#
# _framework density 18.334654
#
# number of rings (size 3 to 8) (size 9 to 14) (size 15 to 20)
#    0.000    2.500    1.250    3.000    1.750    2.000 
#    0.000    5.000    0.000    0.750    0.000    5.250 
#    0.000    0.000    0.000    0.000    0.000    0.000 
#
# Total GULP energy -396437.847773 kJ/mol
# GULP energy per Si atom -12388.682743 kJ/mol
# Density = 1.829292 g / cm^3
# Si number density = 18.334654 Si / 1000 Ang^3
#
#
#
# Elastic Constant Matrix: (Units=GPa)
#
#
# Indices 1 2 3 4 5 6 
#
# 1 111.9118 26.8510 24.0481 0.0000 -20.0857 0.0000
# 2 26.8510 54.1038 21.9971 0.0000 -5.9200 0.0000
# 3 24.0481 21.9971 63.8535 0.0000 -22.2475 0.0000
# 4 0.0000 0.0000 0.0000 20.4748 0.0000 10.8764
# 5 -20.0857 -5.9200 -22.2475 0.0000 27.4959 0.0000
# 6 0.0000 0.0000 0.0000 10.8764 0.0000 -25.4098
#
#
#
# Elastic Compliance Matrix: (Units=1/GPa)
#
#
# Indices 1 2 3 4 5 6 
#
# 1 0.011412 -0.004824 -0.000130 0.000000 0.007192 0.000000
# 2 -0.004824 0.023604 -0.008038 0.000000 -0.004945 0.000000
# 3 -0.000130 -0.008038 0.024847 0.000000 0.018279 0.000000
# 4 0.000000 0.000000 0.000000 0.039793 0.000000 0.017033
# 5 0.007192 -0.004945 0.018279 0.000000 0.055348 0.000000
# 6 0.000000 0.000000 0.000000 0.017033 0.000000 -0.032064
#
#
# Mechanical properties :
#
#
# Convention : Reuss Voigt Hill
#
# Bulk Modulus (GPa) = 29.51588 41.74017 35.62802
# Shear Modulus (GPa) = 31.20793 14.97702 23.09247
#
# Velocity S-wave (km/s) = 4.13016 2.86119 3.55279
# Velocity P-wave (km/s) = 6.23520 5.80779 6.02528
#
# Compressibility (1/GPa) = 0.03388007
#
# Stress axis : x y z
#
# Youngs Moduli (GPa) = 87.62864 42.36635 40.24561
#
# Poissons Ratio (x) = 0.20436 0.00524
# Poissons Ratio (y) = 0.42268 0.32348
# Poissons Ratio (z) = 0.01141 0.34052
#
# Static dielectric constant tensor:
#      x y z
#    x 4.047700 0.000000 0.012820 
#    y 0.000000 3.220130 0.000000 
#    z 0.012820 0.000000 3.311370 
# 
# 
# High freq. dielectric constant tensor:
#      x y z
#    x 1.725510 0.000000 0.000660 
#    y 0.000000 1.689590 0.000000 
#    z 0.000660 0.000000 1.693020 
# 
# From -- ./inp_files/93776.got.cif
#   From: 2010.06.25/outbox.ucp.g09.slc.cvg/sg10_47_cif.got.tgz:93776.got - 2010.06.28 13:37:52.
