data_PCOD8068786
_publ_section_title
;
Structure prediction by ZEFSAII (Michael W. Deem and Ramdas Pophale) SiO2 
 PCOD8068786
Probable space group: P 21/M
;
_chemical_formula_sum "Si O2"
_cell_formula_units_Z 32
_cell_length_a 31.534438
_cell_length_b 9.195726
_cell_length_c 20.354300
_cell_angle_alpha 90.000000
_cell_angle_beta 161.052269
_cell_angle_gamma 90.000000
_cell_volume 1916.535523
_symmetry_space_group_name_H-M "P 21/M"
_symmetry_group_IT_number 11
_symmetry_cell_setting 'monoclinic'
loop_
_space_group_symop_operation_xyz
x,y,z
-x,1/2+y,-z
-x,-y,-z
x,1/2-y,z
loop_
_atom_site_type_symbol
_atom_site_label
_atom_site_fract_x
_atom_site_fract_y
_atom_site_fract_z
Si Si1 0.640744 0.413624 0.953715
Si Si2 0.424512 0.588806 0.806237
Si Si3 0.060103 0.921929 0.414156
Si Si4 0.894120 0.077680 0.800912
Si Si5 0.097932 0.075661 0.694717
Si Si6 0.862580 0.422251 0.609517
Si Si7 0.602169 0.088345 0.388451
Si Si8 0.335685 0.588411 0.856931
O O1 0.654502 0.250000 0.945154
O O2 0.501251 0.481386 0.727211
O O3 0.756342 0.516325 0.097766
O O4 0.643341 0.408958 0.035265
O O5 0.447407 0.750000 0.867574
O O6 0.284565 0.524111 0.624893
O O7 0.423242 0.592550 0.725852
O O8 0.546310 0.490945 0.008411
O O9 0.070857 0.750000 0.435260
O O10 0.040140 0.968100 0.307994
O O11 0.197399 0.989634 0.640134
O O12 0.945288 0.971920 0.294683
O O13 0.915357 0.250000 0.834779
O O14 0.910949 0.016817 0.750601
O O15 0.750823 0.035351 0.618547
O O16 0.000000 0.000000 0.000000
O O17 0.094254 0.250000 0.678609
O O18 0.000000 0.000000 0.500000
O O19 0.852573 0.250000 0.603023
O O20 0.582591 0.250000 0.389160
O O21 0.334331 0.750000 0.825517
#
# Coordination Sequence:
#
# PCOD8068786 Si02
#       8
#     4   4   4   4   4   4   4   4
#     4  10  18  29  44  65  91 120 156 197 237 268
#     4   8  14  25  41  60  82 113 150 183 215 254
#     4   9  17  29  43  60  85 119 157 192 226 266
#     4   9  17  30  51  76  99 122 148 179 222 276
#     4  11  20  31  46  64  87 120 162 204 239 269
#     4   8  15  29  46  63  88 120 151 182 218 270
#     4   8  15  28  44  66  93 121 150 181 222 272
#     4   9  16  26  39  58  84 116 152 188 223 259
#
# _framework density 16.696795000000002
#
# number of rings (size 3 to 8) (size 9 to 14) (size 15 to 20)
#    0.000    3.000    1.250    2.250    0.000    1.500 
#    0.000    1.875    0.000    3.750    0.000    0.875 
#    0.000    0.000    0.000    0.000    0.000    0.000 
#
# Total GULP energy -396460.384384 kJ/mol
# GULP energy per Si atom -12389.387012 kJ/mol
# Density = 1.665879 g / cm^3
# Si number density = 16.696795 Si / 1000 Ang^3
#
#
#
# Elastic Constant Matrix: (Units=GPa)
#
#
# Indices 1 2 3 4 5 6 
#
# 1 80.1973 31.6231 44.8339 0.0000 21.7882 0.0000
# 2 31.6231 63.7514 41.3719 0.0000 11.1853 0.0000
# 3 44.8339 41.3719 100.1799 0.0000 14.9768 0.0000
# 4 0.0000 0.0000 0.0000 27.9120 0.0000 1.1682
# 5 21.7882 11.1853 14.9768 0.0000 21.2608 0.0000
# 6 0.0000 0.0000 0.0000 1.1682 0.0000 8.2909
#
#
#
# Elastic Compliance Matrix: (Units=1/GPa)
#
#
# Indices 1 2 3 4 5 6 
#
# 1 0.021586 -0.004352 -0.005475 0.000000 -0.015975 0.000000
# 2 -0.004352 0.022927 -0.007136 0.000000 -0.002576 0.000000
# 3 -0.005475 -0.007136 0.015625 0.000000 -0.001641 0.000000
# 4 0.000000 0.000000 0.000000 0.036039 0.000000 -0.005078
# 5 -0.015975 -0.002576 -0.001641 0.000000 0.065918 0.000000
# 6 0.000000 0.000000 0.000000 -0.005078 0.000000 0.121329
#
#
# Mechanical properties :
#
#
# Convention : Reuss Voigt Hill
#
# Bulk Modulus (GPa) = 38.14890 53.30959 45.72924
# Shear Modulus (GPa) = 15.33329 19.91271 17.62300
#
# Velocity S-wave (km/s) = 3.03370 3.45716 3.25233
# Velocity P-wave (km/s) = 5.93032 6.92339 6.44601
#
# Compressibility (1/GPa) = 0.02621308
#
# Stress axis : x y z
#
# Youngs Moduli (GPa) = 46.32579 43.61621 64.00120
#
# Poissons Ratio (x) = 0.18980 0.35042
# Poissons Ratio (y) = 0.20159 0.45670
# Poissons Ratio (z) = 0.25364 0.31124
#
# Static dielectric constant tensor:
#      x y z
#    x 3.173760 0.000000 0.262120 
#    y 0.000000 3.172600 0.000000 
#    z 0.262120 0.000000 3.132610 
# 
# 
# High freq. dielectric constant tensor:
#      x y z
#    x 1.626870 0.000000 0.021710 
#    y 0.000000 1.621780 0.000000 
#    z 0.021710 0.000000 1.623970 
# 
# From -- ./inp_files/51208.got.cif
#   From: 2010.06.25/outbox.cif.g09.slc.cpg/sg11_26_cif.got.tgz:51208.got - 2010.06.27 23:14:04.
