data_PCOD8068843
_publ_section_title
;
Structure prediction by ZEFSAII (Michael W. Deem and Ramdas Pophale) SiO2 
 PCOD8068843
Probable space group: P 21/M
;
_chemical_formula_sum "Si O2"
_cell_formula_units_Z 28
_cell_length_a 14.458834
_cell_length_b 9.177871
_cell_length_c 16.619165
_cell_angle_alpha 90.000000
_cell_angle_beta 39.836303
_cell_angle_gamma 90.000000
_cell_volume 1412.761618
_symmetry_space_group_name_H-M "P 21/M"
_symmetry_group_IT_number 11
_symmetry_cell_setting 'monoclinic'
loop_
_space_group_symop_operation_xyz
x,y,z
-x,1/2+y,-z
-x,-y,-z
x,1/2-y,z
loop_
_atom_site_type_symbol
_atom_site_label
_atom_site_fract_x
_atom_site_fract_y
_atom_site_fract_z
Si Si1 0.437058 0.423341 0.464660
Si Si2 0.061544 0.583623 0.535099
Si Si3 0.351264 0.582042 0.094117
Si Si4 0.412612 0.921629 0.797136
Si Si5 0.832415 0.078314 0.930145
Si Si6 0.642108 0.089167 0.734422
Si Si7 0.106832 0.421452 0.662281
O O1 0.500000 0.500000 0.500000
O O2 0.448022 0.250000 0.466616
O O3 0.533363 0.482535 0.325094
O O4 0.270186 0.473406 0.568350
O O5 0.002816 0.750000 0.576386
O O6 0.234843 0.580835 0.414613
O O7 0.028908 0.500933 0.639856
O O8 0.000000 0.500000 0.500000
O O9 0.381128 0.750000 0.054621
O O10 0.248545 0.512903 0.094449
O O11 0.282095 0.560343 0.229356
O O12 0.500000 0.500000 0.000000
O O13 0.423289 0.750000 0.785640
O O14 0.518651 0.972581 0.797347
O O15 0.249590 0.974083 0.932532
O O16 0.815800 0.250000 0.937924
O O17 0.003619 0.039001 0.808847
O O18 0.570148 0.250000 0.782074
O O19 0.103475 0.250000 0.645898
#
# Coordination Sequence:
#
# PCOD8068843 Si02
#       7
#     4   4   4   4   4   4   4
#     4  10  22  39  63  88 111 142 186 236 291 351
#     4  11  22  35  53  79 114 156 195 237 283 331
#     4  10  18  29  46  72 107 150 189 224 265 318
#     4  10  19  35  58  83 106 141 187 227 274 337
#     4   9  18  33  55  79 113 151 185 230 282 328
#     4  10  20  32  49  76 110 147 189 235 280 320
#     4  10  20  38  60  84 113 148 189 236 287 343
#
# _framework density 19.819336
#
# number of rings (size 3 to 8) (size 9 to 14) (size 15 to 20)
#    0.000    2.000    2.857    1.286    0.000    4.000 
#    0.000    3.571    0.000    0.000    0.000    0.000 
#    0.000    0.000    0.000    0.000    0.000    0.000 
#
# Total GULP energy -346899.853825 kJ/mol
# GULP energy per Si atom -12389.280494 kJ/mol
# Density = 1.977423 g / cm^3
# Si number density = 19.819336 Si / 1000 Ang^3
#
#
#
# Elastic Constant Matrix: (Units=GPa)
#
#
# Indices 1 2 3 4 5 6 
#
# 1 92.9681 26.3581 58.5218 0.0000 6.6535 0.0000
# 2 26.3581 37.1273 22.1932 0.0000 0.9532 0.0000
# 3 58.5218 22.1932 172.0624 0.0000 5.1181 0.0000
# 4 0.0000 0.0000 0.0000 17.9916 0.0000 2.5675
# 5 6.6535 0.9532 5.1181 0.0000 20.7458 0.0000
# 6 0.0000 0.0000 0.0000 2.5675 0.0000 29.4099
#
#
#
# Elastic Compliance Matrix: (Units=1/GPa)
#
#
# Indices 1 2 3 4 5 6 
#
# 1 0.016223 -0.008874 -0.004262 0.000000 -0.003744 0.000000
# 2 -0.008874 0.034042 -0.001421 0.000000 0.001632 0.000000
# 3 -0.004262 -0.001421 0.007457 0.000000 -0.000408 0.000000
# 4 0.000000 0.000000 0.000000 0.056283 0.000000 -0.004913
# 5 -0.003744 0.001632 -0.000408 0.000000 0.049429 0.000000
# 6 0.000000 0.000000 0.000000 -0.004913 0.000000 0.034431
#
#
# Mechanical properties :
#
#
# Convention : Reuss Voigt Hill
#
# Bulk Modulus (GPa) = 34.95521 57.36708 46.16115
# Shear Modulus (GPa) = 21.14048 26.63513 23.88780
#
# Velocity S-wave (km/s) = 3.26952 3.66990 3.47548
# Velocity P-wave (km/s) = 5.65051 6.85313 6.28067
#
# Compressibility (1/GPa) = 0.02860804
#
# Stress axis : x y z
#
# Youngs Moduli (GPa) = 61.64145 29.37575 134.10549
#
# Poissons Ratio (x) = 0.26067 0.57153
# Poissons Ratio (y) = 0.54698 0.19060
# Poissons Ratio (z) = 0.26270 0.04175
#
# Static dielectric constant tensor:
#      x y z
#    x 3.333760 0.000000 0.177900 
#    y 0.000000 3.403300 0.000000 
#    z 0.177900 0.000000 4.428970 
# 
# 
# High freq. dielectric constant tensor:
#      x y z
#    x 1.735160 0.000000 0.003010 
#    y 0.000000 1.748060 0.000000 
#    z 0.003010 0.000000 1.797120 
# 
# From -- ./inp_files/48900.got.cif
#   From: 2010.06.25/outbox.cif.g09.slc.cpg/sg11_25_cif.got.tgz:48900.got - 2010.06.27 23:14:04.
