data_PCOD8068418
_publ_section_title
;
Structure prediction by ZEFSAII (Michael W. Deem and Ramdas Pophale) SiO2 
 PCOD8068418
Probable space group: P 21/M
;
_chemical_formula_sum "Si O2"
_cell_formula_units_Z 32
_cell_length_a 23.912250
_cell_length_b 9.076185
_cell_length_c 12.471081
_cell_angle_alpha 90.000000
_cell_angle_beta 46.269977
_cell_angle_gamma 90.000000
_cell_volume 1955.819892
_symmetry_space_group_name_H-M "P 21/M"
_symmetry_group_IT_number 11
_symmetry_cell_setting 'monoclinic'
loop_
_space_group_symop_operation_xyz
x,y,z
-x,1/2+y,-z
-x,-y,-z
x,1/2-y,z
loop_
_atom_site_type_symbol
_atom_site_label
_atom_site_fract_x
_atom_site_fract_y
_atom_site_fract_z
Si Si1 0.155145 0.576727 0.417905
Si Si2 0.992488 0.922211 0.396554
Si Si3 0.320972 0.923524 0.278315
Si Si4 0.422359 0.423063 0.563706
Si Si5 0.410532 0.924726 0.952289
Si Si6 0.161082 0.921024 0.168348
Si Si7 0.418657 0.078102 0.319630
Si Si8 0.317562 0.574914 0.866553
O O1 0.138491 0.750000 0.439742
O O2 0.230574 0.536394 0.386636
O O3 0.166503 0.513986 0.281887
O O4 0.079878 0.495873 0.570236
O O5 0.976823 0.750000 0.432757
O O6 0.076109 0.948656 0.227857
O O7 0.000000 0.000000 0.500000
O O8 0.332963 0.750000 0.269309
O O9 0.350430 0.995682 0.348246
O O10 0.368445 0.988166 0.113717
O O11 0.500000 0.500000 0.500000
O O12 0.429849 0.250000 0.575821
O O13 0.409560 0.457151 0.456309
O O14 0.348606 0.490165 0.721869
O O15 0.407871 0.750000 0.957447
O O16 0.498579 0.982338 0.831905
O O17 0.366579 0.978262 0.904281
O O18 0.178726 0.750000 0.159822
O O19 0.229118 0.981481 0.001648
O O20 0.411323 0.250000 0.305725
O O21 0.324461 0.750000 0.838415
#
# Coordination Sequence:
#
# PCOD8068418 Si02
#       8
#     4   4   4   4   4   4   4   4
#     4   9  16  28  45  67  96 129 159 189 231 283
#     4   9  16  26  42  66  95 128 161 190 228 282
#     4  10  19  31  50  72  95 126 166 197 227 284
#     4  11  22  36  52  70  93 124 162 204 245 285
#     4   9  16  30  50  69  93 128 159 191 238 283
#     4   8  14  26  46  68  93 126 158 186 229 287
#     4  10  21  35  48  65  94 127 159 198 245 281
#     4  10  17  31  53  72  94 127 161 195 239 284
#
# _framework density 16.361424
#
# number of rings (size 3 to 8) (size 9 to 14) (size 15 to 20)
#    0.000    2.500    2.500    1.875    0.000    1.500 
#    0.000    3.750    0.000    0.000    0.000    0.875 
#    0.000    0.000    0.000    0.000    0.000    0.000 
#
# Total GULP energy -396629.480539 kJ/mol
# GULP energy per Si atom -12394.671267 kJ/mol
# Density = 1.632418 g / cm^3
# Si number density = 16.361424 Si / 1000 Ang^3
#
#
#
# Elastic Constant Matrix: (Units=GPa)
#
#
# Indices 1 2 3 4 5 6 
#
# 1 122.7255 50.0692 71.1013 0.0000 -21.5079 0.0000
# 2 50.0692 51.2841 41.0956 0.0000 -7.3520 0.0000
# 3 71.1013 41.0956 95.0739 0.0000 -19.9958 0.0000
# 4 0.0000 0.0000 0.0000 23.3186 0.0000 -2.2711
# 5 -21.5079 -7.3520 -19.9958 0.0000 29.3957 0.0000
# 6 0.0000 0.0000 0.0000 -2.2711 0.0000 27.2518
#
#
#
# Elastic Compliance Matrix: (Units=1/GPa)
#
#
# Indices 1 2 3 4 5 6 
#
# 1 0.017768 -0.010448 -0.007687 0.000000 0.005158 0.000000
# 2 -0.010448 0.036035 -0.008723 0.000000 -0.004565 0.000000
# 3 -0.007687 -0.008723 0.021467 0.000000 0.006796 0.000000
# 4 0.000000 0.000000 0.000000 0.043235 0.000000 0.003603
# 5 0.005158 -0.004565 0.006796 0.000000 0.041274 0.000000
# 6 0.000000 0.000000 0.000000 0.003603 0.000000 0.036995
#
#
# Mechanical properties :
#
#
# Convention : Reuss Voigt Hill
#
# Bulk Modulus (GPa) = 46.39399 65.95733 56.17566
# Shear Modulus (GPa) = 19.40428 23.11437 21.25933
#
# Velocity S-wave (km/s) = 3.44754 3.76272 3.60857
# Velocity P-wave (km/s) = 6.65317 7.69919 7.19521
#
# Compressibility (1/GPa) = 0.02155452
#
# Stress axis : x y z
#
# Youngs Moduli (GPa) = 56.27976 27.75071 46.58381
#
# Poissons Ratio (x) = 0.28994 0.35809
# Poissons Ratio (y) = 0.58802 0.40634
# Poissons Ratio (z) = 0.43262 0.24206
#
# Static dielectric constant tensor:
#      x y z
#    x 3.168250 0.000000 -0.358310 
#    y 0.000000 2.942110 0.000000 
#    z -0.358310 0.000000 3.274570 
# 
# 
# High freq. dielectric constant tensor:
#      x y z
#    x 1.618480 0.000000 -0.027040 
#    y 0.000000 1.610010 0.000000 
#    z -0.027040 0.000000 1.616220 
# 
# From -- ./inp_files/42526.got.cif
#   From: 2010.06.25/outbox.cif.g09.slc.cpg/sg11_22_cif.got.tgz:42526.got - 2010.06.27 23:14:04.
