data_PCOD8068197
_publ_section_title
;
Structure prediction by ZEFSAII (Michael W. Deem and Ramdas Pophale) SiO2 
 PCOD8068197
Probable space group: P 21/M
;
_chemical_formula_sum "Si O2"
_cell_formula_units_Z 24
_cell_length_a 21.557209
_cell_length_b 9.056107
_cell_length_c 9.596468
_cell_angle_alpha 90.000000
_cell_angle_beta 132.903562
_cell_angle_gamma 90.000000
_cell_volume 1372.313920
_symmetry_space_group_name_H-M "P 21/M"
_symmetry_group_IT_number 11
_symmetry_cell_setting 'monoclinic'
loop_
_space_group_symop_operation_xyz
x,y,z
-x,1/2+y,-z
-x,-y,-z
x,1/2-y,z
loop_
_atom_site_type_symbol
_atom_site_label
_atom_site_fract_x
_atom_site_fract_y
_atom_site_fract_z
Si Si1 0.933946 0.082509 0.493343
Si Si2 0.570425 0.413551 0.938170
Si Si3 0.410218 0.583878 0.700645
Si Si4 0.249480 0.579702 0.758575
Si Si5 0.925116 0.074705 0.802032
Si Si6 0.755059 0.575548 0.534581
O O1 0.961818 0.250000 0.525209
O O2 0.837573 0.058036 0.287652
O O3 0.937255 0.031413 0.658815
O O4 0.000000 0.000000 0.500000
O O5 0.540003 0.250000 0.850634
O O6 0.498852 0.523975 0.771999
O O7 0.583226 0.425853 0.123311
O O8 0.664802 0.446834 0.018692
O O9 0.397910 0.750000 0.628609
O O10 0.330854 0.486969 0.525147
O O11 0.250632 0.750000 0.700399
O O12 0.248871 0.461581 0.634330
O O13 0.923878 0.250000 0.823538
O O14 0.837345 0.005142 0.725142
O O15 0.000000 0.000000 0.000000
O O16 0.761010 0.750000 0.568021
#
# Coordination Sequence:
#
# PCOD8068197 Si02
#       6
#     4   4   4   4   4   4
#     4   9  18  31  47  67  92 120 151 187 226 268
#     4   8  13  21  33  49  72 104 140 175 213 257
#     4   9  15  22  32  49  76 107 138 174 214 258
#     4   8  15  27  39  54  80 112 144 181 221 260
#     4  10  20  34  49  67  91 119 152 190 229 268
#     4  10  17  25  39  58  80 110 145 178 217 265
#
# _framework density 17.488709
#
# number of rings (size 3 to 8) (size 9 to 14) (size 15 to 20)
#    0.000    3.000    0.000    4.500    0.000    7.333 
#    0.000    0.000    0.000    0.000    0.000    0.000 
#    0.000    1.333    0.000    4.000    0.000   12.500 
#
# Total GULP energy -297318.870189 kJ/mol
# GULP energy per Si atom -12388.286258 kJ/mol
# Density = 1.744890 g / cm^3
# Si number density = 17.488709 Si / 1000 Ang^3
#
#
#
# Elastic Constant Matrix: (Units=GPa)
#
#
# Indices 1 2 3 4 5 6 
#
# 1 104.5107 51.1716 54.3920 0.0000 46.4403 0.0000
# 2 51.1716 116.6633 50.2404 0.0000 31.0812 0.0000
# 3 54.3920 50.2404 69.1669 0.0000 41.0414 0.0000
# 4 0.0000 0.0000 0.0000 24.3593 0.0000 11.8883
# 5 46.4403 31.0812 41.0414 0.0000 37.4940 0.0000
# 6 0.0000 0.0000 0.0000 11.8883 0.0000 28.5845
#
#
#
# Elastic Compliance Matrix: (Units=1/GPa)
#
#
# Indices 1 2 3 4 5 6 
#
# 1 0.022152 -0.002849 -0.001345 0.000000 -0.023603 0.000000
# 2 -0.002849 0.012859 -0.008185 0.000000 0.001828 0.000000
# 3 -0.001345 -0.008185 0.046923 0.000000 -0.042912 0.000000
# 4 0.000000 0.000000 0.000000 0.051507 0.000000 -0.021422
# 5 -0.023603 0.001828 -0.042912 0.000000 0.101363 0.000000
# 6 0.000000 0.000000 0.000000 -0.021422 0.000000 0.043893
#
#
# Mechanical properties :
#
#
# Convention : Reuss Voigt Hill
#
# Bulk Modulus (GPa) = 17.48968 66.88321 42.18645
# Shear Modulus (GPa) = 15.50330 27.05670 21.28000
#
# Velocity S-wave (km/s) = 2.98060 3.93758 3.49203
# Velocity P-wave (km/s) = 4.67628 7.68111 6.35873
#
# Compressibility (1/GPa) = 0.05717656
#
# Stress axis : x y z
#
# Youngs Moduli (GPa) = 45.14347 77.76720 21.31147
#
# Poissons Ratio (x) = 0.22153 0.02867
# Poissons Ratio (y) = 0.12860 0.17443
# Poissons Ratio (z) = 0.06072 0.63650
#
# Static dielectric constant tensor:
#      x y z
#    x 3.365010 0.000000 0.715570 
#    y 0.000000 3.299520 0.000000 
#    z 0.715570 0.000000 3.058780 
# 
# 
# High freq. dielectric constant tensor:
#      x y z
#    x 1.653530 0.000000 0.067990 
#    y 0.000000 1.682320 0.000000 
#    z 0.067990 0.000000 1.630620 
# 
# From -- ./inp_files/25734.got.cif
#   From: 2010.06.25/outbox.cif.g09.slc.cpg/sg11_13_cif.got.tgz:25734.got - 2010.06.27 23:14:04.
