data_PCOD8068327
_publ_section_title
;
Structure prediction by ZEFSAII (Michael W. Deem and Ramdas Pophale) SiO2 
 PCOD8068327
Probable space group: P 21/M
;
_chemical_formula_sum "Si O2"
_cell_formula_units_Z 32
_cell_length_a 12.250979
_cell_length_b 17.584502
_cell_length_c 18.058534
_cell_angle_alpha 90.000000
_cell_angle_beta 151.871592
_cell_angle_gamma 90.000000
_cell_volume 1834.079924
_symmetry_space_group_name_H-M "P 21/M"
_symmetry_group_IT_number 11
_symmetry_cell_setting 'monoclinic'
loop_
_space_group_symop_operation_xyz
x,y,z
-x,1/2+y,-z
-x,-y,-z
x,1/2-y,z
loop_
_atom_site_type_symbol
_atom_site_label
_atom_site_fract_x
_atom_site_fract_y
_atom_site_fract_z
Si Si1 0.380502 0.929577 0.467086
Si Si2 0.450311 0.666247 0.923396
Si Si3 0.696613 0.839081 0.562951
Si Si4 0.340735 0.470992 0.575972
Si Si5 0.195081 0.833560 0.919468
Si Si6 0.819335 0.021746 0.269723
Si Si7 0.428795 0.535428 0.133481
Si Si8 0.149303 0.435652 0.863155
O O1 0.524357 0.854440 0.529734
O O2 0.118049 0.918080 0.283021
O O3 0.500000 0.000000 0.500000
O O4 0.384316 0.950749 0.556236
O O5 0.415884 0.750000 0.867059
O O6 0.389221 0.668969 0.972892
O O7 0.285723 0.606192 0.783300
O O8 0.719399 0.642455 0.077968
O O9 0.684437 0.750000 0.532866
O O10 0.627384 0.893370 0.452671
O O11 0.954183 0.864107 0.740898
O O12 0.524198 0.472628 0.751604
O O13 0.082509 0.475993 0.455111
O O14 0.152110 0.750000 0.927650
O O15 0.290315 0.885880 0.041751
O O16 0.668717 0.964866 0.230335
O O17 0.805899 0.996989 0.175484
O O18 0.258352 0.468900 0.003708
#
# Coordination Sequence:
#
# PCOD8068327 Si02
#       8
#     4   4   4   4   4   4   4   4
#     4   9  19  36  53  72  96 131 176 212 241 300
#     4  10  17  28  50  74  97 129 168 207 243 290
#     4  10  20  37  57  72  95 134 173 208 249 299
#     4  10  20  31  51  77 104 128 165 210 253 295
#     4  10  18  31  51  74 100 131 168 204 245 299
#     4  10  17  32  48  74 103 140 169 196 240 306
#     4  11  18  30  50  78 107 132 158 207 258 295
#     4  10  18  32  52  74 102 134 173 208 242 299
#
# _framework density 17.447441000000001
#
# number of rings (size 3 to 8) (size 9 to 14) (size 15 to 20)
#    0.000    2.000    3.750    2.625    0.000    1.000 
#    0.000    5.625    0.000    3.000    0.000    0.000 
#    0.000    0.000    0.000    0.000    0.000    0.000 
#
# Total GULP energy -396662.172621 kJ/mol
# GULP energy per Si atom -12395.692894 kJ/mol
# Density = 1.740773 g / cm^3
# Si number density = 17.447441 Si / 1000 Ang^3
#
#
#
# Elastic Constant Matrix: (Units=GPa)
#
#
# Indices 1 2 3 4 5 6 
#
# 1 67.0879 29.2706 55.1623 0.0000 6.9219 0.0000
# 2 29.2706 81.1522 38.6329 0.0000 0.1636 0.0000
# 3 55.1623 38.6329 109.3738 0.0000 -7.3018 0.0000
# 4 0.0000 0.0000 0.0000 21.1076 0.0000 3.6484
# 5 6.9219 0.1636 -7.3018 0.0000 34.6864 0.0000
# 6 0.0000 0.0000 0.0000 3.6484 0.0000 16.8043
#
#
#
# Elastic Compliance Matrix: (Units=1/GPa)
#
#
# Indices 1 2 3 4 5 6 
#
# 1 0.028742 -0.003817 -0.013722 0.000000 -0.008606 0.000000
# 2 -0.003817 0.015369 -0.003507 0.000000 -0.000049 0.000000
# 3 -0.013722 -0.003507 0.017736 0.000000 0.006488 0.000000
# 4 0.000000 0.000000 0.000000 0.049224 0.000000 -0.010687
# 5 -0.008606 -0.000049 0.006488 0.000000 0.031913 0.000000
# 6 0.000000 0.000000 0.000000 -0.010687 0.000000 0.061829
#
#
# Mechanical properties :
#
#
# Convention : Reuss Voigt Hill
#
# Bulk Modulus (GPa) = 50.62162 55.97170 53.29666
# Shear Modulus (GPa) = 19.72468 23.48952 21.60710
#
# Velocity S-wave (km/s) = 3.36597 3.67318 3.52292
# Velocity P-wave (km/s) = 6.64704 7.08092 6.86741
#
# Compressibility (1/GPa) = 0.01975441
#
# Stress axis : x y z
#
# Youngs Moduli (GPa) = 34.79198 65.06705 56.38383
#
# Poissons Ratio (x) = 0.24836 0.77372
# Poissons Ratio (y) = 0.13280 0.19772
# Poissons Ratio (z) = 0.47743 0.22817
#
# Static dielectric constant tensor:
#      x y z
#    x 3.257830 0.000000 0.304050 
#    y 0.000000 3.388960 0.000000 
#    z 0.304050 0.000000 3.195380 
# 
# 
# High freq. dielectric constant tensor:
#      x y z
#    x 1.652600 0.000000 0.023180 
#    y 0.000000 1.665910 0.000000 
#    z 0.023180 0.000000 1.667340 
# 
# From -- ./inp_files/36044.got.cif
#   From: 2010.06.25/outbox.cif.g09.slc.cpg/sg11_19_cif.got.tgz:36044.got - 2010.06.27 23:14:04.
