data_PCOD8068693
_publ_section_title
;
Structure prediction by ZEFSAII (Michael W. Deem and Ramdas Pophale) SiO2 
 PCOD8068693
Probable space group: P 21/M
;
_chemical_formula_sum "Si O2"
_cell_formula_units_Z 28
_cell_length_a 11.251181
_cell_length_b 8.702441
_cell_length_c 21.465497
_cell_angle_alpha 90.000000
_cell_angle_beta 130.041419
_cell_angle_gamma 90.000000
_cell_volume 1609.053501
_symmetry_space_group_name_H-M "P 21/M"
_symmetry_group_IT_number 11
_symmetry_cell_setting 'monoclinic'
loop_
_space_group_symop_operation_xyz
x,y,z
-x,1/2+y,-z
-x,-y,-z
x,1/2-y,z
loop_
_atom_site_type_symbol
_atom_site_label
_atom_site_fract_x
_atom_site_fract_y
_atom_site_fract_z
Si Si1 0.979357 0.429989 0.403563
Si Si2 0.337384 0.069698 0.925480
Si Si3 0.534536 0.072632 0.267439
Si Si4 0.867837 0.071912 0.040365
Si Si5 0.247400 0.426451 0.574668
Si Si6 0.203249 0.072693 0.110129
Si Si7 0.758812 0.931174 0.242896
O O1 0.942600 0.250000 0.402044
O O2 0.880335 0.535901 0.416394
O O3 0.922303 0.483858 0.315942
O O4 0.163641 0.460814 0.479413
O O5 0.358589 0.250000 0.931541
O O6 0.290040 0.008307 0.841446
O O7 0.201974 0.025662 0.927295
O O8 0.500000 0.000000 0.000000
O O9 0.569805 0.250000 0.266341
O O10 0.351406 0.037612 0.203406
O O11 0.598499 0.026520 0.358134
O O12 0.621907 0.974278 0.244489
O O13 0.838365 0.250000 0.043996
O O14 0.050243 0.030365 0.097869
O O15 0.783977 0.029402 0.947437
O O16 0.296851 0.250000 0.595941
O O17 0.197113 0.250000 0.086951
O O18 0.786327 0.750000 0.252585
#
# Coordination Sequence:
#
# PCOD8068693 Si02
#       7
#     4   4   4   4   4   4   4
#     4   9  16  26  41  61  87 120 153 184 223 270
#     4  11  23  36  50  70  95 124 157 192 231 275
#     4  10  18  28  45  68  94 123 153 186 226 271
#     4  10  20  34  52  71  92 122 157 193 234 274
#     4   9  16  25  39  62  91 119 149 185 224 269
#     4   9  19  34  50  70  95 122 155 193 231 275
#     4  10  20  31  44  65  93 123 155 189 226 271
#
# _framework density 17.401534999999999
#
# number of rings (size 3 to 8) (size 9 to 14) (size 15 to 20)
#    0.000    2.286    0.000    5.143    0.000    8.000 
#    0.000    0.000    0.000    0.000    0.000    1.000 
#    0.000    0.000    0.000    0.000    0.000    0.000 
#
# Total GULP energy -347037.505898 kJ/mol
# GULP energy per Si atom -12394.196639 kJ/mol
# Density = 1.736193 g / cm^3
# Si number density = 17.401535 Si / 1000 Ang^3
#
#
#
# Elastic Constant Matrix: (Units=GPa)
#
#
# Indices 1 2 3 4 5 6 
#
# 1 57.6282 16.6824 49.3624 0.0000 8.2195 0.0000
# 2 16.6824 44.3887 40.0303 0.0000 4.7433 0.0000
# 3 49.3624 40.0303 170.9964 0.0000 22.7165 0.0000
# 4 0.0000 0.0000 0.0000 30.7861 0.0000 1.7607
# 5 8.2195 4.7433 22.7165 0.0000 24.3259 0.0000
# 6 0.0000 0.0000 0.0000 1.7607 0.0000 20.9125
#
#
#
# Elastic Compliance Matrix: (Units=1/GPa)
#
#
# Indices 1 2 3 4 5 6 
#
# 1 0.023538 -0.003478 -0.005724 0.000000 -0.001929 0.000000
# 2 -0.003478 0.029083 -0.005945 0.000000 0.001056 0.000000
# 3 -0.005724 -0.005945 0.009682 0.000000 -0.005948 0.000000
# 4 0.000000 0.000000 0.000000 0.032639 0.000000 -0.002748
# 5 -0.001929 0.001056 -0.005948 0.000000 0.047110 0.000000
# 6 0.000000 0.000000 0.000000 -0.002748 0.000000 0.048050
#
#
# Mechanical properties :
#
#
# Convention : Reuss Voigt Hill
#
# Bulk Modulus (GPa) = 31.23994 53.90705 42.57349
# Shear Modulus (GPa) = 21.63884 26.33410 23.98647
#
# Velocity S-wave (km/s) = 3.53016 3.89436 3.71672
# Velocity P-wave (km/s) = 5.88280 7.16010 6.55265
#
# Compressibility (1/GPa) = 0.03201031
#
# Stress axis : x y z
#
# Youngs Moduli (GPa) = 42.48483 34.38376 103.27941
#
# Poissons Ratio (x) = 0.11957 0.59121
# Poissons Ratio (y) = 0.14775 0.61397
# Poissons Ratio (z) = 0.24320 0.20440
#
# Static dielectric constant tensor:
#      x y z
#    x 2.869860 0.000000 0.194290 
#    y 0.000000 3.304250 0.000000 
#    z 0.194290 0.000000 3.988060 
# 
# 
# High freq. dielectric constant tensor:
#      x y z
#    x 1.613420 0.000000 0.022770 
#    y 0.000000 1.685910 0.000000 
#    z 0.022770 0.000000 1.691140 
# 
# From -- ./inp_files/53195.got.cif
#   From: 2010.06.25/outbox.cif.g09.slc.cpg/sg11_27_cif.got.tgz:53195.got - 2010.06.27 23:14:04.
