data_PCOD8068794
_publ_section_title
;
Structure prediction by ZEFSAII (Michael W. Deem and Ramdas Pophale) SiO2 
 PCOD8068794
Probable space group: P 21/M
;
_chemical_formula_sum "Si O2"
_cell_formula_units_Z 32
_cell_length_a 21.142238
_cell_length_b 9.486163
_cell_length_c 11.722017
_cell_angle_alpha 90.000000
_cell_angle_beta 127.939371
_cell_angle_gamma 90.000000
_cell_volume 1854.106547
_symmetry_space_group_name_H-M "P 21/M"
_symmetry_group_IT_number 11
_symmetry_cell_setting 'monoclinic'
loop_
_space_group_symop_operation_xyz
x,y,z
-x,1/2+y,-z
-x,-y,-z
x,1/2-y,z
loop_
_atom_site_type_symbol
_atom_site_label
_atom_site_fract_x
_atom_site_fract_y
_atom_site_fract_z
Si Si1 0.961273 0.085786 0.355741
Si Si2 0.344128 0.094001 0.551908
Si Si3 0.182812 0.093278 0.228334
Si Si4 0.425350 0.915059 0.464416
Si Si5 0.752264 0.914991 0.339239
Si Si6 0.222813 0.585852 0.850226
Si Si7 0.733667 0.411557 0.852208
Si Si8 0.899957 0.915439 0.648636
O O1 0.970413 0.250000 0.395355
O O2 0.869825 0.041605 0.235802
O O3 0.010453 0.049126 0.294306
O O4 0.000000 0.000000 0.500000
O O5 0.384380 0.250000 0.591303
O O6 0.262966 0.098034 0.391063
O O7 0.322310 0.055046 0.658313
O O8 0.403666 0.977395 0.565131
O O9 0.159886 0.250000 0.160041
O O10 0.114705 0.027461 0.238208
O O11 0.195538 0.996810 0.132059
O O12 0.445451 0.750000 0.499279
O O13 0.353131 0.942626 0.296500
O O14 0.500000 0.000000 0.500000
O O15 0.759387 0.750000 0.318867
O O16 0.834860 0.975508 0.485885
O O17 0.735701 0.998037 0.204184
O O18 0.230610 0.750000 0.829075
O O19 0.269076 0.546918 0.017918
O O20 0.758458 0.250000 0.864991
O O21 0.882298 0.750000 0.636808
#
# Coordination Sequence:
#
# PCOD8068794 Si02
#       8
#     4   4   4   4   4   4   4   4
#     4  10  18  29  45  65  92 125 161 201 238 276
#     4   8  15  28  47  72  98 121 152 192 232 275
#     4   8  14  27  47  66  85 118 160 196 230 273
#     4  10  19  32  53  76  98 123 151 189 233 278
#     4   9  16  28  47  69  94 125 160 198 234 270
#     4  10  20  31  45  67  96 130 161 191 234 284
#     4   9  19  34  47  66  98 128 152 185 235 285
#     4   8  14  26  44  65  90 118 154 201 244 271
#
# _framework density 17.258987000000001
#
# number of rings (size 3 to 8) (size 9 to 14) (size 15 to 20)
#    0.000    3.000    1.250    1.875    0.000    1.500 
#    0.000    3.125    0.000    0.750    0.000    0.000 
#    0.000    0.000    0.000    0.000    0.000    0.000 
#
# Total GULP energy -396629.178485 kJ/mol
# GULP energy per Si atom -12394.661828 kJ/mol
# Density = 1.721971 g / cm^3
# Si number density = 17.258987 Si / 1000 Ang^3
#
#
#
# Elastic Constant Matrix: (Units=GPa)
#
#
# Indices 1 2 3 4 5 6 
#
# 1 130.9190 66.7663 42.8391 0.0000 -22.2135 0.0000
# 2 66.7663 77.7360 38.1405 0.0000 -14.4665 0.0000
# 3 42.8391 38.1405 59.6852 0.0000 -20.8623 0.0000
# 4 0.0000 0.0000 0.0000 20.1828 0.0000 -7.8440
# 5 -22.2135 -14.4665 -20.8623 0.0000 24.1235 0.0000
# 6 0.0000 0.0000 0.0000 -7.8440 0.0000 29.3294
#
#
#
# Elastic Compliance Matrix: (Units=1/GPa)
#
#
# Indices 1 2 3 4 5 6 
#
# 1 0.014565 -0.010634 -0.001720 0.000000 0.005548 0.000000
# 2 -0.010634 0.026530 -0.010294 0.000000 -0.002785 0.000000
# 3 -0.001720 -0.010294 0.031325 0.000000 0.019333 0.000000
# 4 0.000000 0.000000 0.000000 0.055295 0.000000 0.014788
# 5 0.005548 -0.002785 0.019333 0.000000 0.061612 0.000000
# 6 0.000000 0.000000 0.000000 0.014788 0.000000 0.038051
#
#
# Mechanical properties :
#
#
# Convention : Reuss Voigt Hill
#
# Bulk Modulus (GPa) = 36.86719 62.64799 49.75759
# Shear Modulus (GPa) = 17.74848 22.76676 20.25762
#
# Velocity S-wave (km/s) = 3.21029 3.63592 3.42971
# Velocity P-wave (km/s) = 5.92864 7.34875 6.67656
#
# Compressibility (1/GPa) = 0.02712439
#
# Stress axis : x y z
#
# Youngs Moduli (GPa) = 68.65569 37.69358 31.92331
#
# Poissons Ratio (x) = 0.40082 0.05490
# Poissons Ratio (y) = 0.73007 0.32863
# Poissons Ratio (z) = 0.11808 0.38803
#
# Static dielectric constant tensor:
#      x y z
#    x 3.478970 0.000000 -0.217950 
#    y 0.000000 3.241310 0.000000 
#    z -0.217950 0.000000 2.996830 
# 
# 
# High freq. dielectric constant tensor:
#      x y z
#    x 1.673520 0.000000 -0.019070 
#    y 0.000000 1.654710 0.000000 
#    z -0.019070 0.000000 1.626490 
# 
# From -- ./inp_files/42454.got.cif
#   From: 2010.06.25/outbox.cif.g09.slc.cpg/sg11_22_cif.got.tgz:42454.got - 2010.06.27 23:14:04.
