data_PCOD8068708
_publ_section_title
;
Structure prediction by ZEFSAII (Michael W. Deem and Ramdas Pophale) SiO2 
 PCOD8068708
Probable space group: P 21/M
;
_chemical_formula_sum "Si O2"
_cell_formula_units_Z 32
_cell_length_a 22.756354
_cell_length_b 9.474545
_cell_length_c 15.558448
_cell_angle_alpha 90.000000
_cell_angle_beta 31.058863
_cell_angle_gamma 90.000000
_cell_volume 1730.646417
_symmetry_space_group_name_H-M "P 21/M"
_symmetry_group_IT_number 11
_symmetry_cell_setting 'monoclinic'
loop_
_space_group_symop_operation_xyz
x,y,z
-x,1/2+y,-z
-x,-y,-z
x,1/2-y,z
loop_
_atom_site_type_symbol
_atom_site_label
_atom_site_fract_x
_atom_site_fract_y
_atom_site_fract_z
Si Si1 0.746861 0.911702 0.701869
Si Si2 0.770136 0.086418 0.991738
Si Si3 0.768884 0.915220 0.344124
Si Si4 0.361966 0.582390 0.010569
Si Si5 0.956418 0.087265 0.187459
Si Si6 0.970995 0.910280 0.331887
Si Si7 0.380738 0.416722 0.310325
Si Si8 0.778023 0.908713 0.144848
O O1 0.711582 0.750000 0.765388
O O2 0.883979 0.924703 0.520622
O O3 0.686159 0.966144 0.690687
O O4 0.711086 0.011091 0.823783
O O5 0.752536 0.250000 0.032091
O O6 0.689428 0.034478 0.016293
O O7 0.733182 0.009668 0.125929
O O8 0.900382 0.051559 0.801183
O O9 0.797903 0.750000 0.320932
O O10 0.680030 0.972412 0.526754
O O11 0.716926 0.939514 0.313213
O O12 0.885044 0.004764 0.204808
O O13 0.353513 0.750000 0.033201
O O14 0.490732 0.524743 0.854146
O O15 0.919304 0.250000 0.236060
O O16 0.926028 0.016510 0.316408
O O17 0.089031 0.068495 0.002552
O O18 0.965853 0.750000 0.301800
O O19 0.384158 0.250000 0.311107
O O20 0.753898 0.750000 0.143755
#
# Coordination Sequence:
#
# PCOD8068708 Si02
#       8
#     4   4   4   4   4   4   4   4
#     4  10  19  33  54  77  98 128 169 208 251 301
#     4   9  19  35  53  72 101 137 169 204 247 295
#     4  10  18  32  52  73 100 137 171 200 243 302
#     4  10  21  36  53  74  99 132 171 210 253 295
#     4  10  18  28  45  76 109 131 159 204 254 294
#     4   9  17  32  52  73 100 135 169 198 243 306
#     4   9  18  34  54  74 100 133 169 204 245 301
#     4   9  19  32  50  75 102 133 169 205 245 294
#
# _framework density 18.490200000000002
#
# number of rings (size 3 to 8) (size 9 to 14) (size 15 to 20)
#    0.000    2.500    1.250    1.125    0.000    2.500 
#    0.000    1.250    0.000    0.000    0.000    0.000 
#    0.000    0.000    0.000    0.000    0.000    0.000 
#
# Total GULP energy -396730.792198 kJ/mol
# GULP energy per Si atom -12397.837256 kJ/mol
# Density = 1.844812 g / cm^3
# Si number density = 18.490200 Si / 1000 Ang^3
#
#
#
# Elastic Constant Matrix: (Units=GPa)
#
#
# Indices 1 2 3 4 5 6 
#
# 1 85.7768 33.4544 20.0273 0.0000 16.6446 0.0000
# 2 33.4544 54.8890 22.6337 0.0000 13.0572 0.0000
# 3 20.0273 22.6337 37.7026 0.0000 21.4956 0.0000
# 4 0.0000 0.0000 0.0000 21.8126 0.0000 7.4130
# 5 16.6446 13.0572 21.4956 0.0000 29.5205 0.0000
# 6 0.0000 0.0000 0.0000 7.4130 0.0000 25.5165
#
#
#
# Elastic Compliance Matrix: (Units=1/GPa)
#
#
# Indices 1 2 3 4 5 6 
#
# 1 0.016004 -0.008287 -0.000806 0.000000 -0.004771 0.000000
# 2 -0.008287 0.028504 -0.013996 0.000000 0.002256 0.000000
# 3 -0.000806 -0.013996 0.053971 0.000000 -0.032655 0.000000
# 4 0.000000 0.000000 0.000000 0.050867 0.000000 -0.014778
# 5 -0.004771 0.002256 -0.032655 0.000000 0.059345 0.000000
# 6 0.000000 0.000000 0.000000 -0.014778 0.000000 0.043483
#
#
# Mechanical properties :
#
#
# Convention : Reuss Voigt Hill
#
# Bulk Modulus (GPa) = 19.11999 36.73324 27.92662
# Shear Modulus (GPa) = 15.83346 22.18680 19.01013
#
# Velocity S-wave (km/s) = 2.92946 3.46775 3.20991
# Velocity P-wave (km/s) = 4.66962 5.99526 5.37348
#
# Compressibility (1/GPa) = 0.05230128
#
# Stress axis : x y z
#
# Youngs Moduli (GPa) = 62.48308 35.08273 18.52842
#
# Poissons Ratio (x) = 0.29073 0.01494
# Poissons Ratio (y) = 0.51780 0.25932
# Poissons Ratio (z) = 0.05037 0.49101
#
# Static dielectric constant tensor:
#      x y z
#    x 3.380930 0.000000 -0.021240 
#    y 0.000000 3.269580 0.000000 
#    z -0.021240 0.000000 3.472520 
# 
# 
# High freq. dielectric constant tensor:
#      x y z
#    x 1.706480 0.000000 0.007810 
#    y 0.000000 1.700030 0.000000 
#    z 0.007810 0.000000 1.712870 
# 
# From -- ./inp_files/51735.got.cif
#   From: 2010.06.25/outbox.cif.g09.slc.cpg/sg11_26_cif.got.tgz:51735.got - 2010.06.27 23:14:04.
