data_PCOD8068820
_publ_section_title
;
Structure prediction by ZEFSAII (Michael W. Deem and Ramdas Pophale) SiO2 
 PCOD8068820
Probable space group: P 21/M
;
_chemical_formula_sum "Si O2"
_cell_formula_units_Z 32
_cell_length_a 21.464332
_cell_length_b 20.172122
_cell_length_c 9.474550
_cell_angle_alpha 90.000000
_cell_angle_beta 28.011949
_cell_angle_gamma 90.000000
_cell_volume 1926.669154
_symmetry_space_group_name_H-M "P 21/M"
_symmetry_group_IT_number 11
_symmetry_cell_setting 'monoclinic'
loop_
_space_group_symop_operation_xyz
x,y,z
-x,1/2+y,-z
-x,-y,-z
x,1/2-y,z
loop_
_atom_site_type_symbol
_atom_site_label
_atom_site_fract_x
_atom_site_fract_y
_atom_site_fract_z
Si Si1 0.173023 0.956342 0.065273
Si Si2 0.826966 0.043653 0.257367
Si Si3 0.335868 0.176834 0.911578
Si Si4 0.465181 0.934568 0.483795
Si Si5 0.534806 0.065430 0.844545
Si Si6 0.889838 0.582832 0.306351
Si Si7 0.889828 0.917174 0.634300
Si Si8 0.335851 0.176835 0.245010
O O1 0.046579 0.909635 0.356812
O O2 0.174744 0.021324 0.156684
O O3 0.161118 0.980314 0.927774
O O4 0.309656 0.916450 0.816109
O O5 0.690336 0.083549 0.554741
O O6 0.825281 0.978672 0.355593
O O7 0.953399 0.090363 0.043171
O O8 0.352041 0.250000 0.810688
O O9 0.450206 0.127428 0.626113
O O10 0.190123 0.148816 0.161076
O O11 0.349490 0.182927 0.051030
O O12 0.498302 0.947798 0.253397
O O13 0.500000 0.000000 0.500000
O O14 0.450207 0.127434 0.073063
O O15 0.500000 0.000000 0.000000
O O16 0.866774 0.568293 0.516443
O O17 0.809894 0.648817 0.421507
O O18 0.352059 0.250000 0.281131
#
# Coordination Sequence:
#
# PCOD8068820 Si02
#       8
#     4   4   4   4   4   4   4   4
#     4   9  17  27  43  68  92 110 142 189 226 257
#     4   9  17  27  43  68  92 110 142 189 226 257
#     4   9  17  29  45  65  91 123 154 183 222 273
#     4  10  18  29  46  68  92 118 150 188 227 266
#     4  10  18  29  46  68  92 118 150 188 227 266
#     4   9  16  28  45  65  88 116 147 180 221 267
#     4   9  16  28  45  65  88 116 147 180 221 267
#     4   9  17  29  45  65  91 123 154 183 222 273
#
# _framework density 16.608975999999998
#
# number of rings (size 3 to 8) (size 9 to 14) (size 15 to 20)
#    0.000    2.750    2.500    0.000    0.000    0.000 
#    0.000    1.250    0.000   10.500    0.000    0.000 
#    0.000    6.000    0.000    0.000    0.000    0.000 
#
# Total GULP energy -396558.632341 kJ/mol
# GULP energy per Si atom -12392.457261 kJ/mol
# Density = 1.657117 g / cm^3
# Si number density = 16.608976 Si / 1000 Ang^3
#
#
#
# Elastic Constant Matrix: (Units=GPa)
#
#
# Indices 1 2 3 4 5 6 
#
# 1 46.4888 40.3912 33.9182 0.0000 -19.6075 0.0000
# 2 40.3912 137.2206 67.6047 0.0000 -24.6169 0.0000
# 3 33.9182 67.6047 102.1056 0.0000 -30.7191 0.0000
# 4 0.0000 0.0000 0.0000 21.9863 0.0000 -3.7029
# 5 -19.6075 -24.6169 -30.7191 0.0000 27.1873 0.0000
# 6 0.0000 0.0000 0.0000 -3.7029 0.0000 17.8984
#
#
#
# Elastic Compliance Matrix: (Units=1/GPa)
#
#
# Indices 1 2 3 4 5 6 
#
# 1 0.036230 -0.006218 -0.002653 0.000000 0.017502 0.000000
# 2 -0.006218 0.012003 -0.006001 0.000000 -0.000397 0.000000
# 3 -0.002653 -0.006001 0.018844 0.000000 0.013945 0.000000
# 4 0.000000 0.000000 0.000000 0.047125 0.000000 0.009749
# 5 0.017502 -0.000397 0.013945 0.000000 0.064801 0.000000
# 6 0.000000 0.000000 0.000000 0.009749 0.000000 0.057888
#
#
# Mechanical properties :
#
#
# Convention : Reuss Voigt Hill
#
# Bulk Modulus (GPa) = 26.78574 63.29369 45.03971
# Shear Modulus (GPa) = 17.91609 23.00779 20.46194
#
# Velocity S-wave (km/s) = 3.28792 3.72595 3.51377
# Velocity P-wave (km/s) = 5.52957 7.53001 6.60595
#
# Compressibility (1/GPa) = 0.03733329
#
# Stress axis : x y z
#
# Youngs Moduli (GPa) = 27.60157 83.31090 53.06759
#
# Poissons Ratio (x) = 0.51799 0.14078
# Poissons Ratio (y) = 0.17161 0.31848
# Poissons Ratio (z) = 0.07322 0.49998
#
# Static dielectric constant tensor:
#      x y z
#    x 3.113380 0.000000 -0.294290 
#    y 0.000000 3.134610 0.000000 
#    z -0.294290 0.000000 3.438320 
# 
# 
# High freq. dielectric constant tensor:
#      x y z
#    x 1.625830 0.000000 -0.022050 
#    y 0.000000 1.606300 0.000000 
#    z -0.022050 0.000000 1.650170 
# 
# From -- ./inp_files/26288.got.cif
#   From: 2010.06.25/outbox.cif.g09.slc.cpg/sg11_14_cif.got.tgz:26288.got - 2010.06.27 23:14:04.
