data_PCOD8068324
_publ_section_title
;
Structure prediction by ZEFSAII (Michael W. Deem and Ramdas Pophale) SiO2 
 PCOD8068324
Probable space group: P 21/M
;
_chemical_formula_sum "Si O2"
_cell_formula_units_Z 32
_cell_length_a 16.680232
_cell_length_b 8.909587
_cell_length_c 16.987335
_cell_angle_alpha 90.000000
_cell_angle_beta 50.373179
_cell_angle_gamma 90.000000
_cell_volume 1944.449884
_symmetry_space_group_name_H-M "P 21/M"
_symmetry_group_IT_number 11
_symmetry_cell_setting 'monoclinic'
loop_
_space_group_symop_operation_xyz
x,y,z
-x,1/2+y,-z
-x,-y,-z
x,1/2-y,z
loop_
_atom_site_type_symbol
_atom_site_label
_atom_site_fract_x
_atom_site_fract_y
_atom_site_fract_z
Si Si1 0.682655 0.083779 0.689996
Si Si2 0.571744 0.928685 0.348366
Si Si3 0.349995 0.927759 0.553258
Si Si4 0.774546 0.577479 0.770448
Si Si5 0.551185 0.921662 0.191301
Si Si6 0.016057 0.926664 0.404486
Si Si7 0.172649 0.579119 0.548324
Si Si8 0.589948 0.926600 0.995793
O O1 0.687845 0.250000 0.726008
O O2 0.571934 0.060152 0.719167
O O3 0.770581 0.070050 0.570191
O O4 0.699455 0.955756 0.743931
O O5 0.579503 0.750000 0.347640
O O6 0.454986 0.981954 0.443921
O O7 0.599233 0.988332 0.242482
O O8 0.654295 0.001100 0.356812
O O9 0.347863 0.750000 0.560979
O O10 0.248593 0.984227 0.568895
O O11 0.810384 0.750000 0.745632
O O12 0.705800 0.541809 0.890736
O O13 0.874594 0.471567 0.703126
O O14 0.585429 0.750000 0.164975
O O15 0.587423 0.996742 0.086196
O O16 0.011946 0.750000 0.419333
O O17 0.929427 0.976943 0.395490
O O18 0.000000 0.000000 0.500000
O O19 0.139438 0.750000 0.587774
O O20 0.564941 0.750000 0.012724
O O21 0.500000 0.000000 0.000000
#
# Coordination Sequence:
#
# PCOD8068324 Si02
#       8
#     4   4   4   4   4   4   4   4
#     4  10  17  28  49  69  94 132 167 197 236 284
#     4   9  16  28  46  68  95 129 164 193 229 285
#     4   9  17  29  45  69  99 128 157 194 240 286
#     4  11  22  34  47  70 100 129 165 207 245 284
#     4   9  16  29  48  70  96 132 169 197 235 286
#     4  12  24  36  51  71  96 128 165 203 244 289
#     4  10  19  32  50  72  97 130 166 198 239 290
#     4  10  20  32  49  72  98 129 167 206 242 286
#
# _framework density 16.457097999999998
#
# number of rings (size 3 to 8) (size 9 to 14) (size 15 to 20)
#    0.000    2.000    3.750    1.500    0.000    1.000 
#    0.000    1.250    0.000    0.000    0.000    0.875 
#    0.000    0.000    0.000    0.000    0.000    0.000 
#
# Total GULP energy -396626.683548 kJ/mol
# GULP energy per Si atom -12394.583861 kJ/mol
# Density = 1.641964 g / cm^3
# Si number density = 16.457098 Si / 1000 Ang^3
#
#
#
# Elastic Constant Matrix: (Units=GPa)
#
#
# Indices 1 2 3 4 5 6 
#
# 1 104.5855 34.8016 46.1920 0.0000 19.4641 0.0000
# 2 34.8016 53.7799 27.5080 0.0000 0.1683 0.0000
# 3 46.1920 27.5080 84.8487 0.0000 11.0816 0.0000
# 4 0.0000 0.0000 0.0000 17.8046 0.0000 0.5867
# 5 19.4641 0.1683 11.0816 0.0000 26.9847 0.0000
# 6 0.0000 0.0000 0.0000 0.5867 0.0000 27.5386
#
#
#
# Elastic Compliance Matrix: (Units=1/GPa)
#
#
# Indices 1 2 3 4 5 6 
#
# 1 0.016171 -0.007876 -0.005001 0.000000 -0.009561 0.000000
# 2 -0.007876 0.026357 -0.005260 0.000000 0.007677 0.000000
# 3 -0.005001 -0.005260 0.016630 0.000000 -0.003189 0.000000
# 4 0.000000 0.000000 0.000000 0.056205 0.000000 -0.001197
# 5 -0.009561 0.007677 -0.003189 0.000000 0.045216 0.000000
# 6 0.000000 0.000000 0.000000 -0.001197 0.000000 0.036338
#
#
# Mechanical properties :
#
#
# Convention : Reuss Voigt Hill
#
# Bulk Modulus (GPa) = 43.69930 51.13526 47.41728
# Shear Modulus (GPa) = 20.76240 23.44640 22.10440
#
# Velocity S-wave (km/s) = 3.55576 3.77861 3.66888
# Velocity P-wave (km/s) = 6.59311 7.08354 6.84272
#
# Compressibility (1/GPa) = 0.02288366
#
# Stress axis : x y z
#
# Youngs Moduli (GPa) = 61.84040 37.93993 60.13176
#
# Poissons Ratio (x) = 0.29882 0.30073
# Poissons Ratio (y) = 0.48707 0.31628
# Poissons Ratio (z) = 0.30928 0.19956
#
# Static dielectric constant tensor:
#      x y z
#    x 3.182090 0.000000 0.145290 
#    y 0.000000 3.002410 0.000000 
#    z 0.145290 0.000000 3.160850 
# 
# 
# High freq. dielectric constant tensor:
#      x y z
#    x 1.624030 0.000000 0.009470 
#    y 0.000000 1.619310 0.000000 
#    z 0.009470 0.000000 1.614660 
# 
# From -- ./inp_files/60683.got.cif
#   From: 2010.06.25/outbox.cif.g09.slc.cpg/sg11_31_cif.got.tgz:60683.got - 2010.06.27 23:14:04.
