data_PCOD8068110
_publ_section_title
;
Structure prediction by ZEFSAII (Michael W. Deem and Ramdas Pophale) SiO2 
 PCOD8068110
Probable space group: P 2/M
;
_chemical_formula_sum "Si O2"
_cell_formula_units_Z 32
_cell_length_a 12.000000
_cell_length_b 9.000000
_cell_length_c 30.000000
_cell_angle_alpha 90.000000
_cell_angle_beta 30.000000
_cell_angle_gamma 90.000000
_cell_volume 1620.000000
_symmetry_space_group_name_H-M "P 2/M"
_symmetry_group_IT_number 10
_symmetry_cell_setting 'monoclinic'
loop_
_space_group_symop_operation_xyz
x,y,z
-x,y,-z
-x,-y,-z
x,-y,z
loop_
_atom_site_type_symbol
_atom_site_label
_atom_site_fract_x
_atom_site_fract_y
_atom_site_fract_z
Si Si1 0.883768 0.673576 0.175423
Si Si2 0.364273 0.822916 0.001491
Si Si3 0.484925 0.672687 0.768133
Si Si4 0.701235 0.823622 0.325669
Si Si5 0.268727 0.674090 0.515827
Si Si6 0.064585 0.668575 0.679956
Si Si7 0.091898 0.824364 0.418506
Si Si8 0.449081 0.670926 0.153230
O O1 0.922724 0.500000 0.172432
O O2 0.753548 0.693196 0.173633
O O3 0.738890 0.745824 0.265212
O O4 0.118810 0.756123 0.090997
O O5 0.350514 0.000000 0.002627
O O6 0.500000 0.778247 0.000000
O O7 0.468603 0.763336 0.918590
O O8 0.560958 0.500000 0.740851
O O9 0.656945 0.769387 0.678638
O O10 0.459027 0.723535 0.829498
O O11 0.474617 0.767597 0.426402
O O12 0.897019 0.780327 0.292236
O O13 0.693212 0.000000 0.321379
O O14 0.305517 0.500000 0.493463
O O15 0.233353 0.702578 0.580808
O O16 0.051792 0.731487 0.566245
O O17 0.104688 0.500000 0.682841
O O18 0.814344 0.690518 0.750193
O O19 0.000000 0.788340 0.500000
O O20 0.076555 0.000000 0.414683
O O21 0.517827 0.500000 0.120734
#
# Coordination Sequence:
#
# PCOD8068110 Si02
#       8
#     4   4   4   4   4   4   4   4
#     4  11  24  43  68  93 122 164 211 258 309 370
#     4  11  25  44  66  96 130 164 204 254 315 380
#     4  10  22  42  65  92 123 162 212 260 310 370
#     4  12  25  39  58  89 129 165 205 261 320 377
#     4  11  22  39  61  87 120 163 215 262 308 371
#     4  10  21  39  63  89 121 163 211 260 309 370
#     4  11  23  37  57  88 126 168 212 260 316 373
#     4  10  21  41  67  94 124 161 208 260 312 372
#
# _framework density 19.753086
#
# number of rings (size 3 to 8) (size 9 to 14) (size 15 to 20)
#    0.000    1.250    1.250    4.500    0.000   11.000 
#    0.000    2.500    0.000    0.000    0.000    0.000 
#    0.000    0.000    0.000    0.000    0.000    0.000 
#
# Total GULP energy -396763.553131 kJ/mol
# GULP energy per Si atom -12398.861035 kJ/mol
# Density = 1.970813 g / cm^3
# Si number density = 19.753086 Si / 1000 Ang^3
#
#
#
# Elastic Constant Matrix: (Units=GPa)
#
#
# Indices 1 2 3 4 5 6 
#
# 1 148.4295 52.4280 52.8020 0.0000 14.1026 0.0000
# 2 52.4280 119.7123 45.4817 0.0000 10.5649 0.0000
# 3 52.8020 45.4817 124.7849 0.0000 17.8146 0.0000
# 4 0.0000 0.0000 0.0000 39.3946 0.0000 3.5892
# 5 14.1026 10.5649 17.8146 0.0000 43.8674 0.0000
# 6 0.0000 0.0000 0.0000 3.5892 0.0000 32.7292
#
#
#
# Elastic Compliance Matrix: (Units=1/GPa)
#
#
# Indices 1 2 3 4 5 6 
#
# 1 0.008715 -0.002760 -0.002523 0.000000 -0.001112 0.000000
# 2 -0.002760 0.010608 -0.002612 0.000000 -0.000607 0.000000
# 3 -0.002523 -0.002612 0.010433 0.000000 -0.002797 0.000000
# 4 0.000000 0.000000 0.000000 0.025640 0.000000 -0.002812
# 5 -0.001112 -0.000607 -0.002797 0.000000 0.024435 0.000000
# 6 0.000000 0.000000 0.000000 -0.002812 0.000000 0.030862
#
#
# Mechanical properties :
#
#
# Convention : Reuss Voigt Hill
#
# Bulk Modulus (GPa) = 71.60270 77.15004 74.37637
# Shear Modulus (GPa) = 38.12739 39.34590 38.73665
#
# Velocity S-wave (km/s) = 4.39817 4.46790 4.43317
# Velocity P-wave (km/s) = 7.88159 8.10914 7.99617
#
# Compressibility (1/GPa) = 0.01396595
#
# Stress axis : x y z
#
# Youngs Moduli (GPa) = 114.73972 94.26815 95.85336
#
# Poissons Ratio (x) = 0.26020 0.24184
# Poissons Ratio (y) = 0.31670 0.25035
# Poissons Ratio (z) = 0.28949 0.24621
#
# Static dielectric constant tensor:
#      x y z
#    x 4.026240 0.000000 0.150170 
#    y 0.000000 3.780370 0.000000 
#    z 0.150170 0.000000 3.768240 
# 
# 
# High freq. dielectric constant tensor:
#      x y z
#    x 1.798810 0.000000 0.009940 
#    y 0.000000 1.781490 0.000000 
#    z 0.009940 0.000000 1.787230 
# 
# From -- ./inp_files/94987.got.cif
#   From: 2010.06.25/outbox.ucp.g09.slc.cvg/sg10_48_cif.got.tgz:94987.got - 2010.06.28 13:37:52.
