data_PCOD8068315
_publ_section_title
;
Structure prediction by ZEFSAII (Michael W. Deem and Ramdas Pophale) SiO2 
 PCOD8068315
Probable space group: P 21/M
;
_chemical_formula_sum "Si O2"
_cell_formula_units_Z 32
_cell_length_a 12.638153
_cell_length_b 9.040472
_cell_length_c 24.175315
_cell_angle_alpha 90.000000
_cell_angle_beta 133.979198
_cell_angle_gamma 90.000000
_cell_volume 1987.619079
_symmetry_space_group_name_H-M "P 21/M"
_symmetry_group_IT_number 11
_symmetry_cell_setting 'monoclinic'
loop_
_space_group_symop_operation_xyz
x,y,z
-x,1/2+y,-z
-x,-y,-z
x,1/2-y,z
loop_
_atom_site_type_symbol
_atom_site_label
_atom_site_fract_x
_atom_site_fract_y
_atom_site_fract_z
Si Si1 0.947405 0.424756 0.425206
Si Si2 0.622326 0.074602 0.316162
Si Si3 0.191901 0.424161 0.428364
Si Si4 0.080704 0.425174 0.154873
Si Si5 0.895979 0.576068 0.006563
Si Si6 0.772846 0.575627 0.682152
Si Si7 0.553828 0.425812 0.414483
Si Si8 0.671011 0.923092 0.839758
O O1 0.954002 0.250000 0.436937
O O2 0.781049 0.478216 0.351338
O O3 0.000000 0.500000 0.500000
O O4 0.049848 0.475282 0.411629
O O5 0.615232 0.250000 0.313171
O O6 0.600509 0.017844 0.370778
O O7 0.491567 0.008112 0.229829
O O8 0.218660 0.250000 0.443417
O O9 0.163965 0.470975 0.354589
O O10 0.337345 0.505251 0.501388
O O11 0.057494 0.250000 0.142738
O O12 0.115448 0.480816 0.229693
O O13 0.214670 0.481820 0.164863
O O14 0.929611 0.503441 0.078643
O O15 0.927475 0.750000 0.020105
O O16 0.729511 0.544243 0.923563
O O17 0.000000 0.500000 0.000000
O O18 0.760773 0.750000 0.684030
O O19 0.608924 0.512287 0.631668
O O20 0.562672 0.250000 0.422549
O O21 0.659414 0.750000 0.825287
#
# Coordination Sequence:
#
# PCOD8068315 Si02
#       8
#     4   4   4   4   4   4   4   4
#     4  10  19  30  45  62  83 110 142 183 220 251
#     4   9  15  25  43  63  79 106 147 177 199 243
#     4  10  20  31  42  62  90 113 140 183 227 253
#     4   9  15  26  43  60  81 111 141 169 206 251
#     4   9  16  25  40  62  87 112 136 167 208 253
#     4   9  17  29  45  63  85 117 150 175 207 259
#     4  10  17  28  47  63  80 114 153 177 202 252
#     4   8  13  23  40  60  80 103 137 172 199 236
#
# _framework density 16.099664000000001
#
# number of rings (size 3 to 8) (size 9 to 14) (size 15 to 20)
#    0.000    2.750    2.500    1.500    0.000    0.000 
#    0.000    1.250    0.000    3.750    0.000    0.875 
#    0.000    0.000    0.000    0.000    0.000    0.000 
#
# Total GULP energy -396516.467812 kJ/mol
# GULP energy per Si atom -12391.139619 kJ/mol
# Density = 1.606302 g / cm^3
# Si number density = 16.099664 Si / 1000 Ang^3
#
#
#
# Elastic Constant Matrix: (Units=GPa)
#
#
# Indices 1 2 3 4 5 6 
#
# 1 89.1471 16.4275 61.5320 0.0000 -8.2982 0.0000
# 2 16.4275 26.2285 31.7480 0.0000 -2.3783 0.0000
# 3 61.5320 31.7480 173.6168 0.0000 -6.4901 0.0000
# 4 0.0000 0.0000 0.0000 24.4799 0.0000 -0.9097
# 5 -8.2982 -2.3783 -6.4901 0.0000 18.8404 0.0000
# 6 0.0000 0.0000 0.0000 -0.9097 0.0000 10.1979
#
#
#
# Elastic Compliance Matrix: (Units=1/GPa)
#
#
# Indices 1 2 3 4 5 6 
#
# 1 0.015558 -0.003664 -0.004665 0.000000 0.004783 0.000000
# 2 -0.003664 0.050011 -0.007771 0.000000 0.002022 0.000000
# 3 -0.004665 -0.007771 0.008835 0.000000 0.000008 0.000000
# 4 0.000000 0.000000 0.000000 0.040986 0.000000 0.003656
# 5 0.004783 0.002022 0.000008 0.000000 0.055442 0.000000
# 6 0.000000 0.000000 0.000000 0.003656 0.000000 0.098385
#
#
# Mechanical properties :
#
#
# Convention : Reuss Voigt Hill
#
# Bulk Modulus (GPa) = 23.69472 56.48971 40.09222
# Shear Modulus (GPa) = 15.84867 22.65597 19.25232
#
# Velocity S-wave (km/s) = 3.14093 3.75538 3.46182
# Velocity P-wave (km/s) = 5.28237 7.34626 6.39808
#
# Compressibility (1/GPa) = 0.04220350
#
# Stress axis : x y z
#
# Youngs Moduli (GPa) = 64.27668 19.99561 113.19246
#
# Poissons Ratio (x) = 0.07326 0.52806
# Poissons Ratio (y) = 0.23549 0.87963
# Poissons Ratio (z) = 0.29986 0.15539
#
# Static dielectric constant tensor:
#      x y z
#    x 3.043420 0.000000 0.106320 
#    y 0.000000 2.869110 0.000000 
#    z 0.106320 0.000000 3.651230 
# 
# 
# High freq. dielectric constant tensor:
#      x y z
#    x 1.582480 0.000000 0.002630 
#    y 0.000000 1.585260 0.000000 
#    z 0.002630 0.000000 1.633900 
# 
# From -- ./inp_files/41116.got.cif
#   From: 2010.06.25/outbox.cif.g09.slc.cpg/sg11_21_cif.got.tgz:41116.got - 2010.06.27 23:14:04.
