data_PCOD8068193
_publ_section_title
;
Structure prediction by ZEFSAII (Michael W. Deem and Ramdas Pophale) SiO2 
 PCOD8068193
Probable space group: P 21/M
;
_chemical_formula_sum "Si O2"
_cell_formula_units_Z 28
_cell_length_a 18.128329
_cell_length_b 9.136906
_cell_length_c 19.185977
_cell_angle_alpha 90.000000
_cell_angle_beta 152.061916
_cell_angle_gamma 90.000000
_cell_volume 1488.902764
_symmetry_space_group_name_H-M "P 21/M"
_symmetry_group_IT_number 11
_symmetry_cell_setting 'monoclinic'
loop_
_space_group_symop_operation_xyz
x,y,z
-x,1/2+y,-z
-x,-y,-z
x,1/2-y,z
loop_
_atom_site_type_symbol
_atom_site_label
_atom_site_fract_x
_atom_site_fract_y
_atom_site_fract_z
Si Si1 0.835791 0.078714 0.354180
Si Si2 0.924824 0.585213 0.833226
Si Si3 0.627600 0.417894 0.831392
Si Si4 0.903200 0.577133 0.135141
Si Si5 0.231180 0.587713 0.185788
Si Si6 0.575265 0.583775 0.214849
Si Si7 0.245334 0.919615 0.869241
O O1 0.861306 0.250000 0.385081
O O2 0.763424 0.038421 0.218871
O O3 0.716219 0.023696 0.313423
O O4 0.000000 0.000000 0.500000
O O5 0.881526 0.750000 0.776422
O O6 0.779976 0.522202 0.758521
O O7 0.947716 0.492329 0.781441
O O8 0.081155 0.575049 0.009914
O O9 0.690338 0.250000 0.896516
O O10 0.618562 0.446057 0.739915
O O11 0.460974 0.435218 0.732276
O O12 0.745253 0.535046 0.962519
O O13 0.924977 0.750000 0.156591
O O14 0.887126 0.512474 0.199826
O O15 0.242627 0.750000 0.227186
O O16 0.626318 0.750000 0.240722
O O17 0.419861 0.541259 0.041364
O O18 0.207202 0.750000 0.850429
#
# Coordination Sequence:
#
# PCOD8068193 Si02
#       7
#     4   4   4   4   4   4   4
#     4  11  23  37  53  73  98 127 158 195 240 288
#     4   9  15  22  32  49  80 119 153 187 230 276
#     4   8  15  27  41  59  87 121 153 190 235 279
#     4  10  17  24  39  62  86 115 154 196 233 275
#     4   8  13  21  33  51  78 114 154 189 224 270
#     4   9  17  32  53  74  97 125 159 198 240 286
#     4   9  19  35  52  70  95 127 160 196 241 288
#
# _framework density 18.805795
#
# number of rings (size 3 to 8) (size 9 to 14) (size 15 to 20)
#    0.000    2.857    0.000    4.286    0.000    6.857 
#    0.000    0.000    0.000    0.000    0.000    0.000 
#    0.000    1.143    0.000    3.429    0.000   10.000 
#
# Total GULP energy -346992.791697 kJ/mol
# GULP energy per Si atom -12392.599703 kJ/mol
# Density = 1.876299 g / cm^3
# Si number density = 18.805795 Si / 1000 Ang^3
#
#
#
# Elastic Constant Matrix: (Units=GPa)
#
#
# Indices 1 2 3 4 5 6 
#
# 1 160.4121 74.2625 30.9638 0.0000 34.3522 0.0000
# 2 74.2625 119.0180 24.1391 0.0000 15.7399 0.0000
# 3 30.9638 24.1391 33.5854 0.0000 13.9096 0.0000
# 4 0.0000 0.0000 0.0000 15.6995 0.0000 5.3906
# 5 34.3522 15.7399 13.9096 0.0000 10.6212 0.0000
# 6 0.0000 0.0000 0.0000 5.3906 0.0000 39.5332
#
#
#
# Elastic Compliance Matrix: (Units=1/GPa)
#
#
# Indices 1 2 3 4 5 6 
#
# 1 0.034401 -0.009634 0.033601 0.000000 -0.140991 0.000000
# 2 -0.009634 0.013237 -0.011828 0.000000 0.027033 0.000000
# 3 0.033601 -0.011828 0.098439 0.000000 -0.220063 0.000000
# 4 0.000000 0.000000 0.000000 0.066825 0.000000 -0.009112
# 5 -0.140991 0.027033 -0.220063 0.000000 0.798292 0.000000
# 6 0.000000 0.000000 0.000000 -0.009112 0.000000 0.026538
#
#
# Mechanical properties :
#
#
# Convention : Reuss Voigt Hill
#
# Bulk Modulus (GPa) = 5.87010 63.52735 34.69872
# Shear Modulus (GPa) = 4.67185 25.41412 15.04299
#
# Velocity S-wave (km/s) = 1.57786 3.68013 2.83134
# Velocity P-wave (km/s) = 2.53924 7.20499 5.40183
#
# Compressibility (1/GPa) = 0.17035491
#
# Stress axis : x y z
#
# Youngs Moduli (GPa) = 29.06865 75.54421 10.15861
#
# Poissons Ratio (x) = 0.72780 -0.34134
# Poissons Ratio (y) = 0.28005 0.12015
# Poissons Ratio (z) = -0.97673 0.89353
#
# Static dielectric constant tensor:
#      x y z
#    x 4.053600 0.000000 0.128800 
#    y 0.000000 3.418110 0.000000 
#    z 0.128800 0.000000 2.779720 
# 
# 
# High freq. dielectric constant tensor:
#      x y z
#    x 1.758830 0.000000 0.014350 
#    y 0.000000 1.730420 0.000000 
#    z 0.014350 0.000000 1.644240 
# 
# From -- ./inp_files/61259.got.cif
#   From: 2010.06.25/outbox.cif.g09.slc.cpg/sg11_31_cif.got.tgz:61259.got - 2010.06.27 23:14:04.
