data_PCOD8068341
_publ_section_title
;
Structure prediction by ZEFSAII (Michael W. Deem and Ramdas Pophale) SiO2 
 PCOD8068341
Probable space group: P 21/M
;
_chemical_formula_sum "Si O2"
_cell_formula_units_Z 24
_cell_length_a 12.206997
_cell_length_b 26.250067
_cell_length_c 5.335543
_cell_angle_alpha 90.000000
_cell_angle_beta 130.967753
_cell_angle_gamma 90.000000
_cell_volume 1290.952012
_symmetry_space_group_name_H-M "P 21/M"
_symmetry_group_IT_number 11
_symmetry_cell_setting 'monoclinic'
loop_
_space_group_symop_operation_xyz
x,y,z
-x,1/2+y,-z
-x,-y,-z
x,1/2-y,z
loop_
_atom_site_type_symbol
_atom_site_label
_atom_site_fract_x
_atom_site_fract_y
_atom_site_fract_z
Si Si1 0.733182 0.364544 0.349773
Si Si2 0.168578 0.519566 0.002869
Si Si3 0.964721 0.618285 0.697082
Si Si4 0.785896 0.189852 0.928843
Si Si5 0.945311 0.912068 0.167967
Si Si6 0.651092 0.028165 0.226636
O O1 0.708347 0.330660 0.560895
O O2 0.619200 0.410945 0.178800
O O3 0.890844 0.391209 0.586265
O O4 0.708346 0.330660 0.064143
O O5 0.264331 0.512687 0.394431
O O6 0.088491 0.573750 0.882738
O O7 0.051330 0.473308 0.826993
O O8 0.264334 0.512687 0.898575
O O9 0.867601 0.610702 0.301178
O O10 0.045068 0.672612 0.817602
O O11 0.867600 0.610702 0.801622
O O12 0.779851 0.250000 0.919777
O O13 0.500000 0.000000 0.000000
#
# Coordination Sequence:
#
# PCOD8068341 Si02
#       6
#     4   4   4   4   4   4
#     4  10  19  34  46  74 102 124 158 206 238 289
#     4  12  19  33  49  70  99 137 167 187 240 289
#     4  10  17  29  45  73 100 124 149 205 235 282
#     4  10  18  30  49  69  99 130 155 195 251 298
#     4  10  18  28  51  71  97 130 157 197 232 284
#     4  12  23  34  47  67 104 143 160 196 248 294
#
# _framework density 18.59093
#
# number of rings (size 3 to 8) (size 9 to 14) (size 15 to 20)
#    0.000    1.333    6.667    3.000    0.000    0.000 
#    0.000    0.000    0.000    0.000    0.000    0.000 
#    0.000  106.667    0.000    0.000    0.000    0.000 
#
# Total GULP energy -297346.495673 kJ/mol
# GULP energy per Si atom -12389.437320 kJ/mol
# Density = 1.854862 g / cm^3
# Si number density = 18.590930 Si / 1000 Ang^3
#
#
#
# Elastic Constant Matrix: (Units=GPa)
#
#
# Indices 1 2 3 4 5 6 
#
# 1 75.2456 40.7657 65.7028 0.0000 -45.9010 0.0000
# 2 40.7657 143.5381 41.8886 0.0000 -13.0046 0.0000
# 3 65.7028 41.8886 83.4991 0.0000 -49.6664 0.0000
# 4 0.0000 0.0000 0.0000 21.4888 0.0000 -2.3681
# 5 -45.9010 -13.0046 -49.6664 0.0000 50.3501 0.0000
# 6 0.0000 0.0000 0.0000 -2.3681 0.0000 21.2843
#
#
#
# Elastic Compliance Matrix: (Units=1/GPa)
#
#
# Indices 1 2 3 4 5 6 
#
# 1 0.049687 -0.005028 -0.025176 0.000000 0.019164 0.000000
# 2 -0.005028 0.009151 -0.004731 0.000000 -0.006887 0.000000
# 3 -0.025176 -0.004731 0.047865 0.000000 0.023042 0.000000
# 4 0.000000 0.000000 0.000000 0.047113 0.000000 0.005242
# 5 0.019164 -0.006887 0.023042 0.000000 0.058282 0.000000
# 6 0.000000 0.000000 0.000000 0.005242 0.000000 0.047566
#
#
# Mechanical properties :
#
#
# Convention : Reuss Voigt Hill
#
# Bulk Modulus (GPa) = 27.14832 66.55521 46.85177
# Shear Modulus (GPa) = 14.62783 28.88637 21.75710
#
# Velocity S-wave (km/s) = 2.80809 3.94609 3.42469
# Velocity P-wave (km/s) = 5.01483 7.52594 6.39485
#
# Compressibility (1/GPa) = 0.03683469
#
# Stress axis : x y z
#
# Youngs Moduli (GPa) = 20.12584 109.27220 20.89190
#
# Poissons Ratio (x) = 0.54944 0.52597
# Poissons Ratio (y) = 0.10120 0.09884
# Poissons Ratio (z) = 0.50668 0.51694
#
# Static dielectric constant tensor:
#      x y z
#    x 4.036920 0.000000 -1.394200 
#    y 0.000000 3.349490 0.000000 
#    z -1.394200 0.000000 4.157320 
# 
# 
# High freq. dielectric constant tensor:
#      x y z
#    x 1.701150 0.000000 -0.073300 
#    y 0.000000 1.709870 0.000000 
#    z -0.073300 0.000000 1.707480 
# 
# From -- ./inp_files/5425.got.cif
#   From: 2010.06.25/outbox.cif.g09.slc.cpg/sg11_3_cif.got.tgz:5425.got - 2010.06.27 23:14:04.
