data_PCOD8068612
_publ_section_title
;
Structure prediction by ZEFSAII (Michael W. Deem and Ramdas Pophale) SiO2 
 PCOD8068612
Probable space group: P 21/M
;
_chemical_formula_sum "Si O2"
_cell_formula_units_Z 32
_cell_length_a 17.199890
_cell_length_b 8.780082
_cell_length_c 24.058100
_cell_angle_alpha 90.000000
_cell_angle_beta 33.998087
_cell_angle_gamma 90.000000
_cell_volume 2031.541601
_symmetry_space_group_name_H-M "P 21/M"
_symmetry_group_IT_number 11
_symmetry_cell_setting 'monoclinic'
loop_
_space_group_symop_operation_xyz
x,y,z
-x,1/2+y,-z
-x,-y,-z
x,1/2-y,z
loop_
_atom_site_type_symbol
_atom_site_label
_atom_site_fract_x
_atom_site_fract_y
_atom_site_fract_z
Si Si1 0.925293 0.072470 0.247899
Si Si2 0.699708 0.925766 0.235404
Si Si3 0.811192 0.929485 0.852560
Si Si4 0.304503 0.926965 0.875480
Si Si5 0.595475 0.929709 0.896326
Si Si6 0.592612 0.569568 0.073606
Si Si7 0.629142 0.068648 0.391703
Si Si8 0.997597 0.422399 0.906630
O O1 0.907275 0.250000 0.266362
O O2 0.769115 0.003618 0.339623
O O3 0.030220 0.006929 0.233559
O O4 0.001255 0.039880 0.144742
O O5 0.656645 0.750000 0.264941
O O6 0.866338 0.948042 0.136455
O O7 0.640618 0.995483 0.213422
O O8 0.628301 0.013658 0.328716
O O9 0.813831 0.750000 0.860528
O O10 0.753018 0.966602 0.825017
O O11 0.710598 0.993615 0.961170
O O12 0.341373 0.750000 0.852045
O O13 0.384392 0.001461 0.879463
O O14 0.139210 0.956041 0.976595
O O15 0.570993 0.750000 0.906042
O O16 0.557650 0.009870 0.860337
O O17 0.500000 0.000000 0.000000
O O18 0.589011 0.750000 0.079642
O O19 0.622319 0.250000 0.396776
O O20 0.500000 0.000000 0.500000
O O21 0.995743 0.250000 0.884042
#
# Coordination Sequence:
#
# PCOD8068612 Si02
#       8
#     4   4   4   4   4   4   4   4
#     4   9  16  28  46  66  86 115 151 184 221 266
#     4  10  20  33  47  64  87 115 149 185 224 267
#     4   8  14  25  41  60  83 112 149 187 220 256
#     4  11  20  29  42  63  90 119 153 187 221 261
#     4   9  16  26  39  57  83 115 151 188 223 260
#     4  10  18  28  41  58  84 121 157 187 222 258
#     4  10  20  34  52  69  89 115 145 184 229 273
#     4   9  18  29  41  61  88 117 148 185 222 258
#
# _framework density 15.751583999999999
#
# number of rings (size 3 to 8) (size 9 to 14) (size 15 to 20)
#    0.000    2.500    1.250    3.000    0.000    1.500 
#    0.000    0.625    0.000    0.000    0.000    0.000 
#    0.000    1.000    0.000    2.750    0.000    4.000 
#
# Total GULP energy -396500.051359 kJ/mol
# GULP energy per Si atom -12390.626605 kJ/mol
# Density = 1.571573 g / cm^3
# Si number density = 15.751584 Si / 1000 Ang^3
#
#
#
# Elastic Constant Matrix: (Units=GPa)
#
#
# Indices 1 2 3 4 5 6 
#
# 1 141.0067 42.0350 51.9694 0.0000 1.4109 0.0000
# 2 42.0350 62.2487 26.8839 0.0000 1.4547 0.0000
# 3 51.9694 26.8839 66.4875 0.0000 -0.0016 0.0000
# 4 0.0000 0.0000 0.0000 18.3940 0.0000 4.1122
# 5 1.4109 1.4547 -0.0016 0.0000 13.8122 0.0000
# 6 0.0000 0.0000 0.0000 4.1122 0.0000 25.7421
#
#
#
# Elastic Compliance Matrix: (Units=1/GPa)
#
#
# Indices 1 2 3 4 5 6 
#
# 1 0.010901 -0.004442 -0.006725 0.000000 -0.000647 0.000000
# 2 -0.004442 0.021332 -0.005154 0.000000 -0.001794 0.000000
# 3 -0.006725 -0.005154 0.022380 0.000000 0.001232 0.000000
# 4 0.000000 0.000000 0.000000 0.056379 0.000000 -0.009006
# 5 -0.000647 -0.001794 0.001232 0.000000 0.072655 0.000000
# 6 0.000000 0.000000 0.000000 -0.009006 0.000000 0.040286
#
#
# Mechanical properties :
#
#
# Convention : Reuss Voigt Hill
#
# Bulk Modulus (GPa) = 45.50994 56.83551 51.17272
# Shear Modulus (GPa) = 18.94683 21.51330 20.23007
#
# Velocity S-wave (km/s) = 3.47198 3.69966 3.58763
# Velocity P-wave (km/s) = 6.71028 7.37636 7.05119
#
# Compressibility (1/GPa) = 0.02197322
#
# Stress axis : x y z
#
# Youngs Moduli (GPa) = 91.73583 46.87879 44.68184
#
# Poissons Ratio (x) = 0.20822 0.30047
# Poissons Ratio (y) = 0.40747 0.23027
# Poissons Ratio (z) = 0.61688 0.24159
#
# Static dielectric constant tensor:
#      x y z
#    x 3.499850 0.000000 -0.256510 
#    y 0.000000 3.031770 0.000000 
#    z -0.256510 0.000000 2.640490 
# 
# 
# High freq. dielectric constant tensor:
#      x y z
#    x 1.616010 0.000000 -0.007540 
#    y 0.000000 1.608460 0.000000 
#    z -0.007540 0.000000 1.541220 
# 
# From -- ./inp_files/42569.got.cif
#   From: 2010.06.25/outbox.cif.g09.slc.cpg/sg11_22_cif.got.tgz:42569.got - 2010.06.27 23:14:04.
