data_PCOD8068084
_publ_section_title
;
Structure prediction by ZEFSAII (Michael W. Deem and Ramdas Pophale) SiO2 
 PCOD8068084
Probable space group: P 2/M
;
_chemical_formula_sum "Si O2"
_cell_formula_units_Z 32
_cell_length_a 12.000000
_cell_length_b 9.000000
_cell_length_c 30.000000
_cell_angle_alpha 90.000000
_cell_angle_beta 150.000000
_cell_angle_gamma 90.000000
_cell_volume 1620.000000
_symmetry_space_group_name_H-M "P 2/M"
_symmetry_group_IT_number 10
_symmetry_cell_setting 'monoclinic'
loop_
_space_group_symop_operation_xyz
x,y,z
-x,y,-z
-x,-y,-z
x,-y,z
loop_
_atom_site_type_symbol
_atom_site_label
_atom_site_fract_x
_atom_site_fract_y
_atom_site_fract_z
Si Si1 0.096223 0.173527 0.175484
Si Si2 0.265114 0.667887 0.394515
Si Si3 0.071088 0.675506 0.474606
Si Si4 0.419815 0.674379 0.351077
Si Si5 0.425629 0.675210 0.850870
Si Si6 0.105099 0.826453 0.988369
Si Si7 0.730735 0.667447 0.105477
Si Si8 0.095217 0.823240 0.671367
O O1 0.317630 0.250980 0.271465
O O2 0.058358 0.214116 0.109979
O O3 0.892832 0.221071 0.136480
O O4 0.129618 0.000000 0.192336
O O5 0.500000 0.669872 0.500000
O O6 0.165849 0.500000 0.362140
O O7 0.288485 0.718891 0.350976
O O8 0.107745 0.779048 0.366669
O O9 0.038169 0.500000 0.456304
O O10 0.325552 0.725762 0.555803
O O11 0.000000 0.723428 0.500000
O O12 0.927724 0.757927 0.386659
O O13 0.410228 0.500000 0.340119
O O14 0.423476 0.500000 0.841251
O O15 0.295582 0.713683 0.851773
O O16 0.318102 0.759285 0.771477
O O17 0.677593 0.728289 0.943220
O O18 0.168525 0.000000 0.008407
O O19 0.000000 0.785997 0.000000
O O20 0.828508 0.500000 0.136662
O O21 0.500000 0.675639 0.000000
O O22 0.111530 0.000000 0.673555
#
# Coordination Sequence:
#
# PCOD8068084 Si02
#       8
#     4   4   4   4   4   4   4   4
#     4  11  23  37  59  89 121 156 193 240 294 361
#     4  10  19  37  63  88 119 158 200 244 296 355
#     4  10  22  43  67  89 116 156 209 257 297 348
#     4  10  21  38  62  89 119 155 193 245 300 351
#     4  11  23  40  64  90 119 157 203 249 294 353
#     4  10  23  43  62  84 119 160 200 246 302 354
#     4  10  20  37  61  89 120 154 193 243 299 354
#     4  12  25  39  60  91 128 161 195 244 304 367
#
# _framework density 19.753086
#
# number of rings (size 3 to 8) (size 9 to 14) (size 15 to 20)
#    0.000    1.500    2.500    2.625    0.000    7.500 
#    0.000    2.500    0.000    0.000    0.000    0.000 
#    0.000    0.000    0.000    0.000    0.000    0.000 
#
# Total GULP energy -396833.102355 kJ/mol
# GULP energy per Si atom -12401.034449 kJ/mol
# Density = 1.970813 g / cm^3
# Si number density = 19.753086 Si / 1000 Ang^3
#
#
#
# Elastic Constant Matrix: (Units=GPa)
#
#
# Indices 1 2 3 4 5 6 
#
# 1 121.0351 43.1314 36.5764 0.0000 -34.9998 0.0000
# 2 43.1314 85.2530 43.5247 0.0000 -17.1670 0.0000
# 3 36.5764 43.5247 108.7353 0.0000 -37.5869 0.0000
# 4 0.0000 0.0000 0.0000 33.4007 0.0000 -9.4319
# 5 -34.9998 -17.1670 -37.5869 0.0000 42.0719 0.0000
# 6 0.0000 0.0000 0.0000 -9.4319 0.0000 23.4545
#
#
#
# Elastic Compliance Matrix: (Units=1/GPa)
#
#
# Indices 1 2 3 4 5 6 
#
# 1 0.012363 -0.004907 0.000967 0.000000 0.009147 0.000000
# 2 -0.004907 0.016724 -0.005926 0.000000 -0.002552 0.000000
# 3 0.000967 -0.005926 0.015460 0.000000 0.012199 0.000000
# 4 0.000000 0.000000 0.000000 0.033775 0.000000 0.013582
# 5 0.009147 -0.002552 0.012199 0.000000 0.041235 0.000000
# 6 0.000000 0.000000 0.000000 0.013582 0.000000 0.048098
#
#
# Mechanical properties :
#
#
# Convention : Reuss Voigt Hill
#
# Bulk Modulus (GPa) = 40.29623 62.38763 51.34193
# Shear Modulus (GPa) = 25.55481 32.57147 29.06314
#
# Velocity S-wave (km/s) = 3.60072 4.06511 3.83994
# Velocity P-wave (km/s) = 6.14257 7.32706 6.76080
#
# Compressibility (1/GPa) = 0.02481622
#
# Stress axis : x y z
#
# Youngs Moduli (GPa) = 80.88379 59.79542 64.68282
#
# Poissons Ratio (x) = 0.29341 -0.06256
# Poissons Ratio (y) = 0.39688 0.38330
# Poissons Ratio (z) = -0.07823 0.35434
#
# Static dielectric constant tensor:
#      x y z
#    x 3.807790 0.000000 -0.271270 
#    y 0.000000 3.549690 0.000000 
#    z -0.271270 0.000000 3.866760 
# 
# 
# High freq. dielectric constant tensor:
#      x y z
#    x 1.778930 0.000000 -0.021700 
#    y 0.000000 1.764580 0.000000 
#    z -0.021700 0.000000 1.791820 
# 
# From -- ./inp_files/94950.got.cif
#   From: 2010.06.25/outbox.ucp.g09.slc.cvg/sg10_48_cif.got.tgz:94950.got - 2010.06.28 13:37:52.
