data_PCOD8068173
_publ_section_title
;
Structure prediction by ZEFSAII (Michael W. Deem and Ramdas Pophale) SiO2 
 PCOD8068173
Probable space group: P 21/M
;
_chemical_formula_sum "Si O2"
_cell_formula_units_Z 28
_cell_length_a 15.435825
_cell_length_b 19.285682
_cell_length_c 9.269800
_cell_angle_alpha 90.000000
_cell_angle_beta 31.330794
_cell_angle_gamma 90.000000
_cell_volume 1434.895943
_symmetry_space_group_name_H-M "P 21/M"
_symmetry_group_IT_number 11
_symmetry_cell_setting 'monoclinic'
loop_
_space_group_symop_operation_xyz
x,y,z
-x,1/2+y,-z
-x,-y,-z
x,1/2-y,z
loop_
_atom_site_type_symbol
_atom_site_label
_atom_site_fract_x
_atom_site_fract_y
_atom_site_fract_z
Si Si1 0.163172 0.034695 0.345983
Si Si2 0.246647 0.825286 0.141544
Si Si3 0.399913 0.602950 0.678627
Si Si4 0.267595 0.455785 0.896440
Si Si5 0.170408 0.828749 0.790440
Si Si6 0.109983 0.911359 0.595751
Si Si7 0.942189 0.825129 0.366909
O O1 0.155995 0.110863 0.425594
O O2 0.207567 0.982480 0.413661
O O3 0.298208 0.041480 0.026755
O O4 0.000000 0.000000 0.500000
O O5 0.321926 0.750000 0.076007
O O6 0.155133 0.856020 0.409762
O O7 0.112903 0.816541 0.207582
O O8 0.387581 0.873064 0.864872
O O9 0.288975 0.533961 0.808354
O O10 0.594726 0.592746 0.371852
O O11 0.330829 0.659018 0.663747
O O12 0.088150 0.424204 0.112935
O O13 0.179738 0.750000 0.718212
O O14 0.176522 0.883597 0.651967
O O15 0.996478 0.839938 0.124484
O O16 0.845761 0.750000 0.514593
#
# Coordination Sequence:
#
# PCOD8068173 Si02
#       7
#     4   4   4   4   4   4   4
#     4  10  16  31  53  83 109 135 183 235 274 313
#     4  10  17  31  54  78 105 149 191 223 272 337
#     4  10  20  37  56  80 115 153 182 226 294 345
#     4  10  20  34  59  87 111 138 196 246 271 329
#     4  10  21  36  53  81 116 151 185 227 287 347
#     4  11  19  33  59  86 108 140 193 246 270 319
#     4   9  17  30  50  74 106 144 182 221 274 332
#
# _framework density 19.51361
#
# number of rings (size 3 to 8) (size 9 to 14) (size 15 to 20)
#    0.000    2.000    4.286    4.286    0.000    2.286 
#    0.000    5.000    3.143    0.000    0.000    0.000 
#    0.000    0.000    0.000    0.000    0.000    0.000 
#
# Total GULP energy -346866.410026 kJ/mol
# GULP energy per Si atom -12388.086072 kJ/mol
# Density = 1.946920 g / cm^3
# Si number density = 19.513610 Si / 1000 Ang^3
#
#
#
# Elastic Constant Matrix: (Units=GPa)
#
#
# Indices 1 2 3 4 5 6 
#
# 1 28.7997 13.8837 12.9700 0.0000 13.3522 0.0000
# 2 13.8837 121.0924 34.2153 0.0000 8.6753 0.0000
# 3 12.9700 34.2153 94.9275 0.0000 6.1284 0.0000
# 4 0.0000 0.0000 0.0000 23.8641 0.0000 1.9077
# 5 13.3522 8.6753 6.1284 0.0000 23.2541 0.0000
# 6 0.0000 0.0000 0.0000 1.9077 0.0000 19.2876
#
#
#
# Elastic Compliance Matrix: (Units=1/GPa)
#
#
# Indices 1 2 3 4 5 6 
#
# 1 0.050314 -0.002667 -0.004183 0.000000 -0.026792 0.000000
# 2 -0.002667 0.009493 -0.002978 0.000000 -0.001225 0.000000
# 3 -0.004183 -0.002978 0.012159 0.000000 0.000309 0.000000
# 4 0.000000 0.000000 0.000000 0.042238 0.000000 -0.004178
# 5 -0.026792 -0.001225 0.000309 0.000000 0.058763 0.000000
# 6 0.000000 0.000000 0.000000 -0.004178 0.000000 0.052260
#
#
# Mechanical properties :
#
#
# Convention : Reuss Voigt Hill
#
# Bulk Modulus (GPa) = 19.11716 40.77305 29.94510
# Shear Modulus (GPa) = 19.06062 25.53118 22.29590
#
# Velocity S-wave (km/s) = 3.12875 3.62108 3.38388
# Velocity P-wave (km/s) = 4.78228 6.19862 5.53593
#
# Compressibility (1/GPa) = 0.05230901
#
# Stress axis : x y z
#
# Youngs Moduli (GPa) = 19.87526 105.33811 82.24055
#
# Poissons Ratio (x) = 0.28096 0.34404
# Poissons Ratio (y) = 0.05301 0.24493
# Poissons Ratio (z) = 0.08315 0.31372
#
# Static dielectric constant tensor:
#      x y z
#    x 3.050450 0.000000 0.425850 
#    y 0.000000 4.004390 0.000000 
#    z 0.425850 0.000000 3.745490 
# 
# 
# High freq. dielectric constant tensor:
#      x y z
#    x 1.700800 0.000000 0.037950 
#    y 0.000000 1.778690 0.000000 
#    z 0.037950 0.000000 1.759530 
# 
# From -- ./inp_files/25254.got.cif
#   From: 2010.06.25/outbox.cif.g09.slc.cpg/sg11_13_cif.got.tgz:25254.got - 2010.06.27 23:14:04.
