data_PCOD8068248
_publ_section_title
;
Structure prediction by ZEFSAII (Michael W. Deem and Ramdas Pophale) SiO2 
 PCOD8068248
Probable space group: P 21/M
;
_chemical_formula_sum "Si O2"
_cell_formula_units_Z 32
_cell_length_a 33.749174
_cell_length_b 9.018172
_cell_length_c 16.171699
_cell_angle_alpha 90.000000
_cell_angle_beta 155.067339
_cell_angle_gamma 90.000000
_cell_volume 2074.862339
_symmetry_space_group_name_H-M "P 21/M"
_symmetry_group_IT_number 11
_symmetry_cell_setting 'monoclinic'
loop_
_space_group_symop_operation_xyz
x,y,z
-x,1/2+y,-z
-x,-y,-z
x,1/2-y,z
loop_
_atom_site_type_symbol
_atom_site_label
_atom_site_fract_x
_atom_site_fract_y
_atom_site_fract_z
Si Si1 0.959497 0.076206 0.842568
Si Si2 0.546304 0.085069 0.707702
Si Si3 0.358768 0.085862 0.245335
Si Si4 0.436635 0.578479 0.631000
Si Si5 0.427683 0.579165 0.804176
Si Si6 0.887898 0.073594 0.956618
Si Si7 0.740564 0.573741 0.782091
Si Si8 0.220579 0.922154 0.411362
O O1 0.984289 0.250000 0.888827
O O2 0.846119 0.052440 0.634176
O O3 0.006437 0.994897 0.852214
O O4 0.000000 0.000000 0.000000
O O5 0.573174 0.250000 0.788166
O O6 0.455265 0.087936 0.478317
O O7 0.633657 0.021018 0.819721
O O8 0.525661 0.984092 0.748541
O O9 0.336433 0.250000 0.169599
O O10 0.278123 0.033413 0.156799
O O11 0.420520 0.750000 0.577252
O O12 0.460526 0.557730 0.772157
O O13 0.341805 0.490249 0.431315
O O14 0.426505 0.750000 0.827586
O O15 0.323470 0.507002 0.620037
O O16 0.500000 0.500000 0.000000
O O17 0.894718 0.250000 0.977379
O O18 0.828531 0.016396 0.764843
O O19 0.838926 0.003539 0.944597
O O20 0.744471 0.750000 0.776640
O O21 0.236372 0.750000 0.423231
#
# Coordination Sequence:
#
# PCOD8068248 Si02
#       8
#     4   4   4   4   4   4   4   4
#     4   9  16  26  41  59  78 102 132 167 203 244
#     4   9  16  25  38  55  74  97 133 169 196 236
#     4   8  15  25  35  52  77 103 130 162 198 234
#     4  10  18  29  43  55  75 105 134 168 213 251
#     4  10  20  33  45  60  79 105 138 175 215 251
#     4  10  17  27  41  58  82 109 135 166 202 245
#     4  10  18  26  39  59  81 105 138 171 198 237
#     4   8  15  29  43  55  76 103 132 166 208 248
#
# _framework density 15.42271
#
# number of rings (size 3 to 8) (size 9 to 14) (size 15 to 20)
#    0.000    2.750    1.250    3.375    0.000    4.500 
#    0.000    1.250    0.000    0.000    0.000    0.000 
#    0.000    0.000    0.000    1.125    0.000   13.500 
#
# Total GULP energy -396548.688383 kJ/mol
# GULP energy per Si atom -12392.146512 kJ/mol
# Density = 1.538761 g / cm^3
# Si number density = 15.422710 Si / 1000 Ang^3
#
#
#
# Elastic Constant Matrix: (Units=GPa)
#
#
# Indices 1 2 3 4 5 6 
#
# 1 124.1607 58.7165 32.6027 0.0000 30.9354 0.0000
# 2 58.7165 91.9357 21.2810 0.0000 12.0375 0.0000
# 3 32.6027 21.2810 39.0434 0.0000 10.8540 0.0000
# 4 0.0000 0.0000 0.0000 14.8956 0.0000 4.2140
# 5 30.9354 12.0375 10.8540 0.0000 18.9382 0.0000
# 6 0.0000 0.0000 0.0000 4.2140 0.0000 29.2652
#
#
#
# Elastic Compliance Matrix: (Units=1/GPa)
#
#
# Indices 1 2 3 4 5 6 
#
# 1 0.018757 -0.007826 -0.005070 0.000000 -0.022759 0.000000
# 2 -0.007826 0.016089 -0.003503 0.000000 0.004565 0.000000
# 3 -0.005070 -0.003503 0.034299 0.000000 -0.009149 0.000000
# 4 0.000000 0.000000 0.000000 0.069985 0.000000 -0.010077
# 5 -0.022759 0.004565 -0.009149 0.000000 0.092322 0.000000
# 6 0.000000 0.000000 0.000000 -0.010077 0.000000 0.035621
#
#
# Mechanical properties :
#
#
# Convention : Reuss Voigt Hill
#
# Bulk Modulus (GPa) = 27.51354 53.37115 40.44235
# Shear Modulus (GPa) = 16.02630 22.12244 19.07437
#
# Velocity S-wave (km/s) = 3.22706 3.79147 3.52059
# Velocity P-wave (km/s) = 5.63592 7.33809 6.54260
#
# Compressibility (1/GPa) = 0.03634574
#
# Stress axis : x y z
#
# Youngs Moduli (GPa) = 53.31353 62.15597 29.15519
#
# Poissons Ratio (x) = 0.48643 0.14782
# Poissons Ratio (y) = 0.41723 0.10214
# Poissons Ratio (z) = 0.27031 0.21776
#
# Static dielectric constant tensor:
#      x y z
#    x 5.181300 0.000000 0.949010 
#    y 0.000000 3.058580 0.000000 
#    z 0.949010 0.000000 2.710230 
# 
# 
# High freq. dielectric constant tensor:
#      x y z
#    x 1.601060 0.000000 0.035240 
#    y 0.000000 1.598290 0.000000 
#    z 0.035240 0.000000 1.515120 
# 
# From -- ./inp_files/56483.got.cif
#   From: 2010.06.25/outbox.cif.g09.slc.cpg/sg11_29_cif.got.tgz:56483.got - 2010.06.27 23:14:04.
