data_PCOD8068838
_publ_section_title
;
Structure prediction by ZEFSAII (Michael W. Deem and Ramdas Pophale) SiO2 
 PCOD8068838
Probable space group: P 21/M
;
_chemical_formula_sum "Si O2"
_cell_formula_units_Z 32
_cell_length_a 27.393427
_cell_length_b 8.992713
_cell_length_c 19.254548
_cell_angle_alpha 90.000000
_cell_angle_beta 156.026926
_cell_angle_gamma 90.000000
_cell_volume 1927.192213
_symmetry_space_group_name_H-M "P 21/M"
_symmetry_group_IT_number 11
_symmetry_cell_setting 'monoclinic'
loop_
_space_group_symop_operation_xyz
x,y,z
-x,1/2+y,-z
-x,-y,-z
x,1/2-y,z
loop_
_atom_site_type_symbol
_atom_site_label
_atom_site_fract_x
_atom_site_fract_y
_atom_site_fract_z
Si Si1 0.727925 0.075488 0.818746
Si Si2 0.000641 0.923622 0.800882
Si Si3 0.095962 0.424709 0.174627
Si Si4 0.960204 0.073898 0.610425
Si Si5 0.315901 0.575521 0.395839
Si Si6 0.885248 0.925059 0.384819
Si Si7 0.784975 0.576225 0.115123
Si Si8 0.588001 0.574549 0.755816
O O1 0.708861 0.250000 0.801852
O O2 0.708087 0.025221 0.714034
O O3 0.629224 0.994641 0.736904
O O4 0.860766 0.026337 0.014456
O O5 0.990276 0.750000 0.770712
O O6 0.934546 0.964984 0.786013
O O7 0.934635 0.015751 0.654513
O O8 0.089306 0.250000 0.152845
O O9 0.228837 0.484950 0.333116
O O10 0.000000 0.500000 0.000000
O O11 0.946954 0.250000 0.590132
O O12 0.091794 0.013938 0.758278
O O13 0.862307 0.001961 0.429772
O O14 0.290300 0.750000 0.371595
O O15 0.450831 0.531382 0.592918
O O16 0.906448 0.750000 0.422110
O O17 0.778024 0.955984 0.189336
O O18 0.000000 0.000000 0.500000
O O19 0.787034 0.750000 0.104152
O O20 0.669422 0.509250 0.924948
O O21 0.600907 0.750000 0.764725
#
# Coordination Sequence:
#
# PCOD8068838 Si02
#       8
#     4   4   4   4   4   4   4   4
#     4  10  19  32  47  69 101 130 163 203 244 291
#     4  10  20  33  49  70  97 129 161 202 250 292
#     4  11  22  37  55  72  96 127 167 211 253 297
#     4  10  18  29  46  70  98 126 163 201 240 298
#     4  10  21  36  51  70  99 132 169 209 246 288
#     4   9  16  27  43  65  97 131 163 197 238 292
#     4   8  15  27  43  67  96 127 160 191 232 287
#     4  10  19  32  50  72 100 133 168 203 240 288
#
# _framework density 16.604468000000001
#
# number of rings (size 3 to 8) (size 9 to 14) (size 15 to 20)
#    0.000    2.250    2.500    2.250    0.000    2.000 
#    0.000    0.625    0.000    0.000    0.000    0.875 
#    0.000    0.000    0.000    0.000    0.000    0.000 
#
# Total GULP energy -396702.048615 kJ/mol
# GULP energy per Si atom -12396.939019 kJ/mol
# Density = 1.656668 g / cm^3
# Si number density = 16.604468 Si / 1000 Ang^3
#
#
#
# Elastic Constant Matrix: (Units=GPa)
#
#
# Indices 1 2 3 4 5 6 
#
# 1 111.5242 51.1897 59.9897 0.0000 -12.6377 0.0000
# 2 51.1897 60.0868 30.2705 0.0000 -6.7547 0.0000
# 3 59.9897 30.2705 66.8780 0.0000 -8.8605 0.0000
# 4 0.0000 0.0000 0.0000 19.0256 0.0000 -1.1883
# 5 -12.6377 -6.7547 -8.8605 0.0000 31.7061 0.0000
# 6 0.0000 0.0000 0.0000 -1.1883 0.0000 29.4822
#
#
#
# Elastic Compliance Matrix: (Units=1/GPa)
#
#
# Indices 1 2 3 4 5 6 
#
# 1 0.022269 -0.011398 -0.014499 0.000000 0.002396 0.000000
# 2 -0.011398 0.027507 -0.002131 0.000000 0.000722 0.000000
# 3 -0.014499 -0.002131 0.029177 0.000000 0.001921 0.000000
# 4 0.000000 0.000000 0.000000 0.052693 0.000000 0.002124
# 5 0.002396 0.000722 0.001921 0.000000 0.033185 0.000000
# 6 0.000000 0.000000 0.000000 0.002124 0.000000 0.034004
#
#
# Mechanical properties :
#
#
# Convention : Reuss Voigt Hill
#
# Bulk Modulus (GPa) = 43.67182 57.93207 50.80195
# Shear Modulus (GPa) = 19.04586 22.51207 20.77896
#
# Velocity S-wave (km/s) = 3.39046 3.68609 3.54136
# Velocity P-wave (km/s) = 6.45642 7.28571 6.88356
#
# Compressibility (1/GPa) = 0.02289806
#
# Stress axis : x y z
#
# Youngs Moduli (GPa) = 44.90579 36.35372 34.27357
#
# Poissons Ratio (x) = 0.41436 0.49692
# Poissons Ratio (y) = 0.51183 0.07303
# Poissons Ratio (z) = 0.65108 0.07747
#
# Static dielectric constant tensor:
#      x y z
#    x 3.154040 0.000000 -0.310000 
#    y 0.000000 3.051810 0.000000 
#    z -0.310000 0.000000 3.368490 
# 
# 
# High freq. dielectric constant tensor:
#      x y z
#    x 1.626290 0.000000 -0.026810 
#    y 0.000000 1.635410 0.000000 
#    z -0.026810 0.000000 1.624690 
# 
# From -- ./inp_files/42482.got.cif
#   From: 2010.06.25/outbox.cif.g09.slc.cpg/sg11_22_cif.got.tgz:42482.got - 2010.06.27 23:14:04.
