data_PCOD8068108
_publ_section_title
;
Structure prediction by ZEFSAII (Michael W. Deem and Ramdas Pophale) SiO2 
 PCOD8068108
Probable space group: P 2/M
;
_chemical_formula_sum "Si O2"
_cell_formula_units_Z 28
_cell_length_a 9.000000
_cell_length_b 9.000000
_cell_length_c 27.000000
_cell_angle_alpha 90.000000
_cell_angle_beta 40.000000
_cell_angle_gamma 90.000000
_cell_volume 1405.776502
_symmetry_space_group_name_H-M "P 2/M"
_symmetry_group_IT_number 10
_symmetry_cell_setting 'monoclinic'
loop_
_space_group_symop_operation_xyz
x,y,z
-x,y,-z
-x,-y,-z
x,-y,z
loop_
_atom_site_type_symbol
_atom_site_label
_atom_site_fract_x
_atom_site_fract_y
_atom_site_fract_z
Si Si1 0.174009 0.175415 0.361258
Si Si2 0.229867 0.172058 0.077721
Si Si3 0.130462 0.832930 0.915623
Si Si4 0.609167 0.324650 0.785776
Si Si5 0.025824 0.326667 0.222053
Si Si6 0.683714 0.329433 0.496977
Si Si7 0.471870 0.825551 0.643078
O O1 0.326670 0.221474 0.276141
O O2 0.335417 0.221555 0.366092
O O3 0.936252 0.267525 0.418958
O O4 0.118008 0.000000 0.375723
O O5 0.157046 0.280941 0.139516
O O6 0.062646 0.215746 0.074999
O O7 0.194709 0.000000 0.101511
O O8 0.500000 0.204211 0.000000
O O9 0.346103 0.720666 0.865666
O O10 0.221230 0.000000 0.880742
O O11 0.000000 0.829805 0.000000
O O12 0.615958 0.500000 0.771815
O O13 0.798374 0.283612 0.778966
O O14 0.972656 0.500000 0.236070
O O15 0.778165 0.247616 0.286849
O O16 0.500000 0.321202 0.500000
O O17 0.710348 0.500000 0.508031
O O18 0.579644 0.223277 0.564395
O O19 0.429970 0.000000 0.655007
#
# Coordination Sequence:
#
# PCOD8068108 Si02
#       7
#     4   4   4   4   4   4   4
#     4  11  24  41  62  89 119 153 196 242 289 345
#     4  10  21  38  61  88 117 152 195 241 291 348
#     4  10  21  38  61  88 117 152 195 241 291 348
#     4  11  24  40  59  86 119 155 196 241 291 347
#     4  11  24  40  59  86 119 155 196 241 291 347
#     4  11  24  41  62  90 122 155 194 239 288 344
#     4  11  24  41  62  89 119 153 196 242 289 345
#
# _framework density 19.917818
#
# number of rings (size 3 to 8) (size 9 to 14) (size 15 to 20)
#    0.000    1.286    0.000    5.143    0.000   16.571 
#    0.000    0.000    0.000    0.000    0.000    0.000 
#    0.000    0.000    0.000    0.000    0.000    0.000 
#
# Total GULP energy -347158.869297 kJ/mol
# GULP energy per Si atom -12398.531046 kJ/mol
# Density = 1.987248 g / cm^3
# Si number density = 19.917818 Si / 1000 Ang^3
#
#
#
# Elastic Constant Matrix: (Units=GPa)
#
#
# Indices 1 2 3 4 5 6 
#
# 1 140.0374 58.5041 39.3222 0.0000 -23.9656 0.0000
# 2 58.5041 68.3425 25.8652 0.0000 -11.4259 0.0000
# 3 39.3222 25.8652 88.4492 0.0000 -18.4693 0.0000
# 4 0.0000 0.0000 0.0000 159.6525 0.0000 -18.1500
# 5 -23.9656 -11.4259 -18.4693 0.0000 48.4532 0.0000
# 6 0.0000 0.0000 0.0000 -18.1500 0.0000 39.8884
#
#
#
# Elastic Compliance Matrix: (Units=1/GPa)
#
#
# Indices 1 2 3 4 5 6 
#
# 1 0.011990 -0.008973 -0.002075 0.000000 0.003023 0.000000
# 2 -0.008973 0.023392 -0.002853 0.000000 -0.000010 0.000000
# 3 -0.002075 -0.002853 0.013807 0.000000 0.003564 0.000000
# 4 0.000000 0.000000 0.000000 0.006605 0.000000 0.003006
# 5 0.003023 -0.000010 0.003564 0.000000 0.023490 0.000000
# 6 0.000000 0.000000 0.000000 0.003006 0.000000 0.026438
#
#
# Mechanical properties :
#
#
# Convention : Reuss Voigt Hill
#
# Bulk Modulus (GPa) = 46.76003 60.46801 53.61402
# Shear Modulus (GPa) = 35.54869 61.14133 48.34501
#
# Velocity S-wave (km/s) = 4.22924 5.54648 4.93203
# Velocity P-wave (km/s) = 6.88302 8.45237 7.70774
#
# Compressibility (1/GPa) = 0.02138578
#
# Stress axis : x y z
#
# Youngs Moduli (GPa) = 83.40512 42.75036 72.42719
#
# Poissons Ratio (x) = 0.38359 0.15029
# Poissons Ratio (y) = 0.74838 0.20666
# Poissons Ratio (z) = 0.17307 0.12198
#
# Static dielectric constant tensor:
#      x y z
#    x 3.624980 0.000000 0.041050 
#    y 0.000000 3.801050 0.000000 
#    z 0.041050 0.000000 3.588620 
# 
# 
# High freq. dielectric constant tensor:
#      x y z
#    x 1.809000 0.000000 -0.018090 
#    y 0.000000 1.788750 0.000000 
#    z -0.018090 0.000000 1.790260 
# 
# From -- ./inp_files/37105.got.cif
#   From: 2010.06.25/outbox.ucp.g09.slc.cvg/sg10_19_cif.got.tgz:37105.got - 2010.06.28 13:37:52.
