data_PCOD8068187
_publ_section_title
;
Structure prediction by ZEFSAII (Michael W. Deem and Ramdas Pophale) SiO2 
 PCOD8068187
Probable space group: P 21/M
;
_chemical_formula_sum "Si O2"
_cell_formula_units_Z 26
_cell_length_a 14.886747
_cell_length_b 11.995603
_cell_length_c 8.874872
_cell_angle_alpha 90.000000
_cell_angle_beta 54.260383
_cell_angle_gamma 90.000000
_cell_volume 1286.378438
_symmetry_space_group_name_H-M "P 21/M"
_symmetry_group_IT_number 11
_symmetry_cell_setting 'monoclinic'
loop_
_space_group_symop_operation_xyz
x,y,z
-x,1/2+y,-z
-x,-y,-z
x,1/2-y,z
loop_
_atom_site_type_symbol
_atom_site_label
_atom_site_fract_x
_atom_site_fract_y
_atom_site_fract_z
Si Si1 0.256515 0.750000 0.275850
Si Si2 0.339199 0.530145 0.270630
Si Si3 0.156419 0.750000 0.069142
Si Si4 0.396998 0.750000 0.864934
Si Si5 0.179384 0.121263 0.596749
Si Si6 0.233994 0.121880 0.894197
Si Si7 0.040291 0.527351 0.123975
Si Si8 0.573019 0.493508 0.145972
O O1 0.259309 0.637933 0.373966
O O2 0.154500 0.750000 0.255992
O O3 0.372939 0.750000 0.068702
O O4 0.279378 0.422199 0.396701
O O5 0.455684 0.554048 0.240031
O O6 0.357091 0.508319 0.076592
O O7 0.100750 0.644119 0.052238
O O8 0.281950 0.750000 0.886215
O O9 0.457586 0.866886 0.766999
O O10 0.155578 0.250000 0.578727
O O11 0.212767 0.110425 0.738092
O O12 0.069576 0.046359 0.666089
O O13 0.242401 0.250000 0.937883
O O14 0.350352 0.059847 0.811755
O O15 0.130144 0.065925 0.088304
O O16 0.000000 0.500000 0.000000
#
# Coordination Sequence:
#
# PCOD8068187 Si02
#       8
#     2   4   2   2   4   4   4   4
#     4   8  18  36  54  75 117 151 183 237 290 343
#     4  10  21  37  58  86 115 151 198 237 294 340
#     4  10  16  36  60  78 116 150 191 234 292 341
#     4   8  16  32  56  81 107 147 194 235 280 340
#     4  10  22  38  57  84 121 153 188 244 298 343
#     4  10  21  38  58  87 119 151 192 240 296 350
#     4  10  19  35  61  82 110 157 195 230 287 352
#     4  10  20  36  62  84 113 154 198 242 282 359
#
# _framework density 20.211779
#
# number of rings (size 3 to 8) (size 9 to 14) (size 15 to 20)
#    0.462    1.846    2.308    0.000    3.231    1.231 
#    1.385    4.615    0.000    0.000    0.000    0.000 
#    0.000    0.000    0.000    0.000    0.000    0.000 
#
# Total GULP energy -322102.703293 kJ/mol
# GULP energy per Si atom -12388.565511 kJ/mol
# Density = 2.016578 g / cm^3
# Si number density = 20.211779 Si / 1000 Ang^3
#
#
#
# Elastic Constant Matrix: (Units=GPa)
#
#
# Indices 1 2 3 4 5 6 
#
# 1 95.2870 52.3574 9.3923 0.0000 -1.5318 0.0000
# 2 52.3574 151.2311 30.1038 0.0000 1.9337 0.0000
# 3 9.3923 30.1038 41.9449 0.0000 -9.7107 0.0000
# 4 0.0000 0.0000 0.0000 29.8149 0.0000 3.6082
# 5 -1.5318 1.9337 -9.7107 0.0000 12.0167 0.0000
# 6 0.0000 0.0000 0.0000 3.6082 0.0000 41.1880
#
#
#
# Elastic Compliance Matrix: (Units=1/GPa)
#
#
# Indices 1 2 3 4 5 6 
#
# 1 0.013080 -0.004847 0.001374 0.000000 0.003557 0.000000
# 2 -0.004847 0.010026 -0.008152 0.000000 -0.008819 0.000000
# 3 0.001374 -0.008152 0.036570 0.000000 0.031039 0.000000
# 4 0.000000 0.000000 0.000000 0.033900 0.000000 -0.002970
# 5 0.003557 -0.008819 0.031039 0.000000 0.110172 0.000000
# 6 0.000000 0.000000 0.000000 -0.002970 0.000000 0.024539
#
#
# Mechanical properties :
#
#
# Convention : Reuss Voigt Hill
#
# Bulk Modulus (GPa) = 27.45422 52.46334 39.95878
# Shear Modulus (GPa) = 18.96245 29.71121 24.33683
#
# Velocity S-wave (km/s) = 3.06631 3.83821 3.47377
# Velocity P-wave (km/s) = 5.11362 6.75690 5.99186
#
# Compressibility (1/GPa) = 0.03642427
#
# Stress axis : x y z
#
# Youngs Moduli (GPa) = 76.45361 99.74060 27.34517
#
# Poissons Ratio (x) = 0.48347 -0.03756
# Poissons Ratio (y) = 0.37059 0.22291
# Poissons Ratio (z) = -0.10501 0.81307
#
# Static dielectric constant tensor:
#      x y z
#    x 3.871250 0.000000 -0.242690 
#    y 0.000000 3.891420 0.000000 
#    z -0.242690 0.000000 3.232400 
# 
# 
# High freq. dielectric constant tensor:
#      x y z
#    x 1.799530 0.000000 -0.011680 
#    y 0.000000 1.801780 0.000000 
#    z -0.011680 0.000000 1.731410 
# 
# From -- ./inp_files/21127.got.cif
#   From: 2010.06.25/outbox.cif.g09.slc.cpg/sg11_11_cif.got.tgz:21127.got - 2010.06.27 23:14:04.
