data_PCOD8068066
_publ_section_title
;
Structure prediction by ZEFSAII (Michael W. Deem and Ramdas Pophale) SiO2 
 PCOD8068066
Probable space group: P 2/M
;
_chemical_formula_sum "Si O2"
_cell_formula_units_Z 28
_cell_length_a 9.000000
_cell_length_b 9.000000
_cell_length_c 27.000000
_cell_angle_alpha 90.000000
_cell_angle_beta 40.000000
_cell_angle_gamma 90.000000
_cell_volume 1405.776502
_symmetry_space_group_name_H-M "P 2/M"
_symmetry_group_IT_number 10
_symmetry_cell_setting 'monoclinic'
loop_
_space_group_symop_operation_xyz
x,y,z
-x,y,-z
-x,-y,-z
x,-y,z
loop_
_atom_site_type_symbol
_atom_site_label
_atom_site_fract_x
_atom_site_fract_y
_atom_site_fract_z
Si Si1 0.586601 0.822978 0.051148
Si Si2 0.806186 0.325207 0.657499
Si Si3 0.191449 0.672337 0.086681
Si Si4 0.648728 0.672400 0.804945
Si Si5 0.280000 0.825942 0.524255
Si Si6 0.574138 0.827064 0.622942
Si Si7 0.107808 0.668752 0.747910
O O1 0.377722 0.756469 0.072832
O O2 0.553669 0.767839 0.116333
O O3 0.595070 0.000000 0.047420
O O4 0.816626 0.754132 0.965299
O O5 0.828186 0.500000 0.645246
O O6 0.655692 0.286539 0.744933
O O7 0.689026 0.260987 0.638448
O O8 0.059892 0.259917 0.601288
O O9 0.260039 0.500000 0.062408
O O10 0.952394 0.685048 0.178041
O O11 0.590166 0.500000 0.828076
O O12 0.894648 0.710596 0.766999
O O13 0.500000 0.771426 0.500000
O O14 0.302768 0.788181 0.460254
O O15 0.241252 0.000000 0.542241
O O16 0.308001 0.783789 0.684500
O O17 0.595219 0.000000 0.629663
O O18 0.189581 0.500000 0.716497
#
# Coordination Sequence:
#
# PCOD8068066 Si02
#       7
#     4   4   4   4   4   4   4
#     4  10  17  25  44  75 106 137 176 221 267 317
#     4  11  23  38  58  81 107 142 182 221 261 313
#     4   9  16  28  46  70 105 143 176 219 271 316
#     4   9  19  35  53  76 106 140 178 222 272 319
#     4  10  22  40  60  83 111 141 174 215 266 319
#     4  11  23  37  55  79 110 145 176 214 267 320
#     4   9  18  33  54  78 104 137 180 224 264 312
#
# _framework density 19.917818
#
# number of rings (size 3 to 8) (size 9 to 14) (size 15 to 20)
#    0.000    2.143    0.000    5.571    0.000    7.143 
#    0.000    0.000    0.000    0.857    0.000    6.000 
#    0.000    0.000    0.000    0.000    0.000    0.000 
#
# Total GULP energy -347091.314458 kJ/mol
# GULP energy per Si atom -12396.118374 kJ/mol
# Density = 1.987248 g / cm^3
# Si number density = 19.917818 Si / 1000 Ang^3
#
#
#
# Elastic Constant Matrix: (Units=GPa)
#
#
# Indices 1 2 3 4 5 6 
#
# 1 71.0659 23.8856 11.3591 0.0000 26.2070 0.0000
# 2 23.8856 100.5627 42.4406 0.0000 21.4313 0.0000
# 3 11.3591 42.4406 69.1927 0.0000 31.0050 0.0000
# 4 0.0000 0.0000 0.0000 12.0674 0.0000 0.9580
# 5 26.2070 21.4313 31.0050 0.0000 30.2998 0.0000
# 6 0.0000 0.0000 0.0000 0.9580 0.0000 28.2358
#
#
#
# Elastic Compliance Matrix: (Units=1/GPa)
#
#
# Indices 1 2 3 4 5 6 
#
# 1 0.025349 -0.004720 0.013042 0.000000 -0.031932 0.000000
# 2 -0.004720 0.014360 -0.009809 0.000000 0.003962 0.000000
# 3 0.013042 -0.009809 0.037442 0.000000 -0.042656 0.000000
# 4 0.000000 0.000000 0.000000 0.083092 0.000000 -0.002819
# 5 -0.031932 0.003962 -0.042656 0.000000 0.101469 0.000000
# 6 0.000000 0.000000 0.000000 -0.002819 0.000000 0.035512
#
#
# Mechanical properties :
#
#
# Convention : Reuss Voigt Hill
#
# Bulk Modulus (GPa) = 13.48101 44.02133 28.75117
# Shear Modulus (GPa) = 15.38828 24.99632 20.19230
#
# Velocity S-wave (km/s) = 2.78256 3.54640 3.18745
# Velocity P-wave (km/s) = 4.13601 6.23849 5.29270
#
# Compressibility (1/GPa) = 0.07417843
#
# Stress axis : x y z
#
# Youngs Moduli (GPa) = 39.44947 69.63624 26.70811
#
# Poissons Ratio (x) = 0.32868 -0.34834
# Poissons Ratio (y) = 0.18620 0.26198
# Poissons Ratio (z) = -0.51452 0.68305
#
# Static dielectric constant tensor:
#      x y z
#    x 3.402920 0.000000 0.393550 
#    y 0.000000 3.595460 0.000000 
#    z 0.393550 0.000000 4.251680 
# 
# 
# High freq. dielectric constant tensor:
#      x y z
#    x 1.748620 0.000000 0.027030 
#    y 0.000000 1.781210 0.000000 
#    z 0.027030 0.000000 1.793790 
# 
# From -- ./inp_files/91958.got.cif
#   From: 2010.06.25/outbox.ucp.g09.slc.cvg/sg10_46_cif.got.tgz:91958.got - 2010.06.28 13:37:52.
