data_PCOD8068601
_publ_section_title
;
Structure prediction by ZEFSAII (Michael W. Deem and Ramdas Pophale) SiO2 
 PCOD8068601
Probable space group: P 21/M
;
_chemical_formula_sum "Si O2"
_cell_formula_units_Z 32
_cell_length_a 26.710244
_cell_length_b 9.896932
_cell_length_c 14.673853
_cell_angle_alpha 90.000000
_cell_angle_beta 150.122941
_cell_angle_gamma 90.000000
_cell_volume 1932.299953
_symmetry_space_group_name_H-M "P 21/M"
_symmetry_group_IT_number 11
_symmetry_cell_setting 'monoclinic'
loop_
_space_group_symop_operation_xyz
x,y,z
-x,1/2+y,-z
-x,-y,-z
x,1/2-y,z
loop_
_atom_site_type_symbol
_atom_site_label
_atom_site_fract_x
_atom_site_fract_y
_atom_site_fract_z
Si Si1 0.603333 0.893804 0.573061
Si Si2 0.266365 0.597409 0.996477
Si Si3 0.963752 0.402592 0.693858
Si Si4 0.079352 0.596609 0.579356
Si Si5 0.094274 0.400914 0.240190
Si Si6 0.133607 0.893808 0.163879
Si Si7 0.814778 0.500006 0.944339
Si Si8 0.448364 0.400915 0.302455
O O1 0.582738 0.750000 0.490520
O O2 0.722519 0.903611 0.773684
O O3 0.551157 0.885710 0.588832
O O4 0.550991 0.018344 0.436168
O O5 0.309855 0.750000 0.058832
O O6 0.188732 0.568444 0.793044
O O7 0.210736 0.585427 0.005969
O O8 0.353466 0.488006 0.119340
O O9 0.939128 0.250000 0.688105
O O10 0.915572 0.431538 0.519874
O O11 0.912408 0.511979 0.678279
O O12 0.084499 0.414582 0.879716
O O13 0.045087 0.750000 0.545106
O O14 0.000000 0.500000 0.500000
O O15 0.138631 0.250000 0.329440
O O16 0.165814 0.481658 0.280643
O O17 0.986517 0.385718 0.024199
O O18 0.174949 0.750000 0.267161
O O19 0.171357 0.903625 0.120191
O O20 0.447821 0.250000 0.257016
#
# Coordination Sequence:
#
# PCOD8068601 Si02
#       8
#     4   4   4   4   4   4   4   4
#     4   9  17  28  42  62  85 114 149 184 222 265
#     4  10  19  31  46  64  89 120 153 187 223 263
#     4  10  19  31  46  64  89 120 153 187 223 263
#     4  10  20  32  46  66  90 119 152 189 226 260
#     4   9  18  30  44  60  82 114 150 187 225 263
#     4   9  17  28  42  62  85 114 149 184 222 265
#     4  10  18  27  46  66  92 119 152 184 220 260
#     4   9  18  30  44  60  82 114 150 187 225 263
#
# _framework density 16.560575
#
# number of rings (size 3 to 8) (size 9 to 14) (size 15 to 20)
#    0.000    2.500    1.250    1.500    0.000    9.000 
#    0.000    0.000    0.000    0.000    0.000    0.000 
#    0.000    1.000    0.000    2.375    0.000    2.125 
#
# Total GULP energy -396509.461001 kJ/mol
# GULP energy per Si atom -12390.920656 kJ/mol
# Density = 1.652288 g / cm^3
# Si number density = 16.560575 Si / 1000 Ang^3
#
#
#
# Elastic Constant Matrix: (Units=GPa)
#
#
# Indices 1 2 3 4 5 6 
#
# 1 48.8728 38.0958 36.3139 0.0000 -9.2286 0.0000
# 2 38.0958 158.2564 55.5861 0.0000 -13.0393 0.0000
# 3 36.3139 55.5861 72.0933 0.0000 -8.0851 0.0000
# 4 0.0000 0.0000 0.0000 17.3839 0.0000 -3.3856
# 5 -9.2286 -13.0393 -8.0851 0.0000 11.6160 0.0000
# 6 0.0000 0.0000 0.0000 -3.3856 0.0000 12.8614
#
#
#
# Elastic Compliance Matrix: (Units=1/GPa)
#
#
# Indices 1 2 3 4 5 6 
#
# 1 0.036127 -0.002218 -0.014695 0.000000 0.015984 0.000000
# 2 -0.002218 0.009139 -0.005398 0.000000 0.004740 0.000000
# 3 -0.014695 -0.005398 0.025431 0.000000 -0.000033 0.000000
# 4 0.000000 0.000000 0.000000 0.060633 0.000000 0.015961
# 5 0.015984 0.004740 -0.000033 0.000000 0.104084 0.000000
# 6 0.000000 0.000000 0.000000 0.015961 0.000000 0.081953
#
#
# Mechanical properties :
#
#
# Convention : Reuss Voigt Hill
#
# Bulk Modulus (GPa) = 38.34937 59.91270 49.13103
# Shear Modulus (GPa) = 13.48869 18.32072 15.90470
#
# Velocity S-wave (km/s) = 2.85705 3.32970 3.10239
# Velocity P-wave (km/s) = 5.83875 7.14415 6.52418
#
# Compressibility (1/GPa) = 0.02607605
#
# Stress axis : x y z
#
# Youngs Moduli (GPa) = 27.67996 109.41774 39.32237
#
# Poissons Ratio (x) = 0.24272 0.57783
# Poissons Ratio (y) = 0.06140 0.21225
# Poissons Ratio (z) = 0.40675 0.59061
#
# Static dielectric constant tensor:
#      x y z
#    x 2.894180 0.000000 -0.017260 
#    y 0.000000 3.479110 0.000000 
#    z -0.017260 0.000000 2.916970 
# 
# 
# High freq. dielectric constant tensor:
#      x y z
#    x 1.601200 0.000000 -0.000070 
#    y 0.000000 1.661750 0.000000 
#    z -0.000070 0.000000 1.601290 
# 
# From -- ./inp_files/56210.got.cif
#   From: 2010.06.25/outbox.cif.g09.slc.cpg/sg11_29_cif.got.tgz:56210.got - 2010.06.27 23:14:04.
