data_PCOD8068027
_publ_section_title
;
Structure prediction by ZEFSAII (Michael W. Deem and Ramdas Pophale) SiO2 
 PCOD8068027
Probable space group: P 2/M
;
_chemical_formula_sum "Si O2"
_cell_formula_units_Z 28
_cell_length_a 9.205083
_cell_length_b 9.557417
_cell_length_c 22.754533
_cell_angle_alpha 90.000000
_cell_angle_beta 127.359032
_cell_angle_gamma 90.000000
_cell_volume 1591.184878
_symmetry_space_group_name_H-M "P 2/M"
_symmetry_group_IT_number 10
_symmetry_cell_setting 'monoclinic'
loop_
_space_group_symop_operation_xyz
x,y,z
-x,y,-z
-x,-y,-z
x,-y,z
loop_
_atom_site_type_symbol
_atom_site_label
_atom_site_fract_x
_atom_site_fract_y
_atom_site_fract_z
Si Si1 0.335438 0.166985 1.000000
Si Si2 0.099468 0.162508 0.287006
Si Si3 0.761551 0.162508 0.287006
Si Si4 0.309895 0.339190 0.426884
Si Si5 0.950622 0.166505 0.857680
Si Si6 0.970756 0.339190 0.426884
Si Si7 0.377583 0.166505 0.142320
O O1 0.360744 0.225288 0.072129
O O2 0.335764 0.000000 1.000000
O O3 0.500000 0.224261 0.000000
O O4 0.144356 0.225288 0.927871
O O5 0.260963 0.247817 0.357961
O O6 0.083709 0.218844 0.216873
O O7 0.905992 0.190085 0.270662
O O8 0.153108 0.000000 0.302272
O O9 0.812918 0.247817 0.357961
O O10 0.566909 0.218844 0.216872
O O11 0.753707 0.000000 0.302272
O O12 0.500000 0.284781 0.500000
O O13 0.324678 0.500000 0.410395
O O14 0.160591 0.317750 0.440394
O O15 0.790336 0.224801 0.860224
O O16 0.954410 0.000000 0.860059
O O17 0.906506 0.500000 0.410395
O O18 0.000000 0.284781 0.500000
O O19 0.374232 0.000000 0.139941
#
# Coordination Sequence:
#
# PCOD8068027 Si02
#       7
#     4   4   4   4   4   4   4
#     4   9  15  23  37  57  84 119 152 179 212 256
#     4   9  17  29  44  63  88 116 145 178 217 260
#     4   9  17  29  44  63  88 116 145 178 217 260
#     4   9  18  32  48  65  86 113 145 180 217 259
#     4   9  16  25  38  59  87 116 146 181 218 255
#     4   9  18  32  48  65  86 113 145 180 217 259
#     4   9  16  25  38  59  87 116 146 181 218 255
#
# _framework density 17.59695
#
# number of rings (size 3 to 8) (size 9 to 14) (size 15 to 20)
#    0.000    3.000    0.000    1.286    0.000    6.857 
#    0.000    0.000    0.000    0.000    0.000    1.000 
#    0.000    8.000    0.000    0.000    0.000    0.000 
#
# Total GULP energy -347206.209326 kJ/mol
# GULP energy per Si atom -12400.221762 kJ/mol
# Density = 1.755690 g / cm^3
# Si number density = 17.596950 Si / 1000 Ang^3
#
#
#
# Elastic Constant Matrix: (Units=GPa)
#
#
# Indices 1 2 3 4 5 6 
#
# 1 111.3204 26.5167 94.6717 0.0000 0.0028 0.0000
# 2 26.5167 29.5914 48.5792 0.0000 0.0010 0.0000
# 3 94.6717 48.5792 204.4857 0.0000 0.0012 0.0000
# 4 0.0000 0.0000 0.0000 2.1256 0.0000 -0.0004
# 5 0.0028 0.0010 0.0012 0.0000 40.4221 0.0000
# 6 0.0000 0.0000 0.0000 -0.0004 0.0000 11.9069
#
#
#
# Elastic Compliance Matrix: (Units=1/GPa)
#
#
# Indices 1 2 3 4 5 6 
#
# 1 0.015017 -0.003349 -0.006157 0.000000 -0.000001 0.000000
# 2 -0.003349 0.056147 -0.011788 0.000000 -0.000001 0.000000
# 3 -0.006157 -0.011788 0.010541 0.000000 0.000000 0.000000
# 4 0.000000 0.000000 0.000000 0.470445 0.000000 0.000014
# 5 -0.000001 -0.000001 0.000000 0.000000 0.024739 0.000000
# 6 0.000000 0.000000 0.000000 0.000014 0.000000 0.083985
#
#
# Mechanical properties :
#
#
# Convention : Reuss Voigt Hill
#
# Bulk Modulus (GPa) = 25.56441 76.10363 50.83402
# Shear Modulus (GPa) = 6.97836 22.59959 14.78897
#
# Velocity S-wave (km/s) = 1.99356 3.58759 2.90216
# Velocity P-wave (km/s) = 4.45627 7.77838 6.33883
#
# Compressibility (1/GPa) = 0.03911688
#
# Stress axis : x y z
#
# Youngs Moduli (GPa) = 66.59196 17.81040 94.86584
#
# Poissons Ratio (x) = 0.05965 0.58406
# Poissons Ratio (y) = 0.22303 1.11829
# Poissons Ratio (z) = 0.40999 0.20995
#
# Static dielectric constant tensor:
#      x y z
#    x 3.352580 0.000000 0.000000 
#    y 0.000000 2.793700 0.000000 
#    z 0.000000 0.000000 3.473260 
# 
# 
# High freq. dielectric constant tensor:
#      x y z
#    x 1.684990 0.000000 0.000000 
#    y 0.000000 1.621190 0.000000 
#    z 0.000000 0.000000 1.695190 
# 
# From -- ./inp_files/34548.got.cif
#   From: 2010.06.25/outbox.cif.g09.slc.cpg/sg10_18_cif.got.tgz:34548.got - 2010.06.27 22:07:45.
