data_PCOD8068842
_publ_section_title
;
Structure prediction by ZEFSAII (Michael W. Deem and Ramdas Pophale) SiO2 
 PCOD8068842
Probable space group: P 21/M
;
_chemical_formula_sum "Si O2"
_cell_formula_units_Z 24
_cell_length_a 27.124589
_cell_length_b 10.805294
_cell_length_c 25.049407
_cell_angle_alpha 90.000000
_cell_angle_beta 169.511808
_cell_angle_gamma 90.000000
_cell_volume 1336.432577
_symmetry_space_group_name_H-M "P 21/M"
_symmetry_group_IT_number 11
_symmetry_cell_setting 'monoclinic'
loop_
_space_group_symop_operation_xyz
x,y,z
-x,1/2+y,-z
-x,-y,-z
x,1/2-y,z
loop_
_atom_site_type_symbol
_atom_site_label
_atom_site_fract_x
_atom_site_fract_y
_atom_site_fract_z
Si Si1 0.621559 0.025356 0.548169
Si Si2 0.119277 0.898631 0.376388
Si Si3 0.105084 0.397033 0.652957
Si Si4 0.529589 0.608273 0.726856
Si Si5 0.299484 0.892540 0.681833
Si Si6 0.845939 0.386052 0.893607
O O1 0.331592 0.977325 0.259484
O O2 0.572800 0.101172 0.442630
O O3 0.749266 0.113768 0.729049
O O4 0.836166 0.917012 0.764923
O O5 0.112452 0.750000 0.368246
O O6 0.317380 0.953378 0.541838
O O7 0.214495 0.953413 0.534961
O O8 0.822857 0.953955 0.047430
O O9 0.084380 0.250000 0.612250
O O10 0.935471 0.417194 0.525952
O O11 0.000000 0.500000 0.500000
O O12 0.412251 0.441149 0.990278
O O13 0.554950 0.750000 0.770198
O O14 0.340635 0.750000 0.713751
O O15 0.806105 0.250000 0.874514
#
# Coordination Sequence:
#
# PCOD8068842 Si02
#       6
#     4   4   4   4   4   4
#     4  10  20  32  49  71  93 119 152 189 235 286
#     4   9  17  28  45  69  97 127 153 186 238 287
#     4  10  19  31  49  74 102 131 164 200 239 283
#     4  10  18  29  46  71  99 121 150 194 240 282
#     4   9  17  30  47  70 100 128 157 193 236 288
#     4  10  20  34  49  67  92 122 154 188 232 284
#
# _framework density 17.958257
#
# number of rings (size 3 to 8) (size 9 to 14) (size 15 to 20)
#    0.000    2.333    0.000    3.500    0.000    4.000 
#    0.000    5.000    0.000    0.000    0.000   23.333 
#    0.000    0.000    0.000    0.000    0.000    0.000 
#
# Total GULP energy -297465.024796 kJ/mol
# GULP energy per Si atom -12394.376033 kJ/mol
# Density = 1.791738 g / cm^3
# Si number density = 17.958257 Si / 1000 Ang^3
#
#
#
# Elastic Constant Matrix: (Units=GPa)
#
#
# Indices 1 2 3 4 5 6 
#
# 1 96.9277 12.5950 38.1307 0.0000 1.1902 0.0000
# 2 12.5950 34.4471 12.5457 0.0000 0.7759 0.0000
# 3 38.1307 12.5457 110.5397 0.0000 8.0846 0.0000
# 4 0.0000 0.0000 0.0000 9.6884 0.0000 -4.8977
# 5 1.1902 0.7759 8.0846 0.0000 33.8370 0.0000
# 6 0.0000 0.0000 0.0000 -4.8977 0.0000 14.2894
#
#
#
# Elastic Compliance Matrix: (Units=1/GPa)
#
#
# Indices 1 2 3 4 5 6 
#
# 1 0.012250 -0.003064 -0.003920 0.000000 0.000576 0.000000
# 2 -0.003064 0.031049 -0.002466 0.000000 -0.000015 0.000000
# 3 -0.003920 -0.002466 0.010854 0.000000 -0.002399 0.000000
# 4 0.000000 0.000000 0.000000 0.124848 0.000000 0.042791
# 5 0.000576 -0.000015 -0.002399 0.000000 0.030107 0.000000
# 6 0.000000 0.000000 0.000000 0.042791 0.000000 0.084648
#
#
# Mechanical properties :
#
#
# Convention : Reuss Voigt Hill
#
# Bulk Modulus (GPa) = 28.36659 40.93973 34.65316
# Shear Modulus (GPa) = 15.41274 23.47251 19.44262
#
# Velocity S-wave (km/s) = 2.93277 3.61925 3.29394
# Velocity P-wave (km/s) = 5.22478 6.34917 5.81422
#
# Compressibility (1/GPa) = 0.03525274
#
# Stress axis : x y z
#
# Youngs Moduli (GPa) = 81.63129 32.20737 92.13152
#
# Poissons Ratio (x) = 0.09869 0.36116
# Poissons Ratio (y) = 0.25015 0.22717
# Poissons Ratio (z) = 0.32000 0.07942
#
# Static dielectric constant tensor:
#      x y z
#    x 3.402620 0.000000 0.119020 
#    y 0.000000 2.844280 0.000000 
#    z 0.119020 0.000000 3.634090 
# 
# 
# High freq. dielectric constant tensor:
#      x y z
#    x 1.704930 0.000000 0.011870 
#    y 0.000000 1.632790 0.000000 
#    z 0.011870 0.000000 1.715220 
# 
# From -- ./inp_files/7701.got.cif
#   From: 2010.06.25/outbox.cif.g09.slc.cpg/sg11_4_cif.got.tgz:7701.got - 2010.06.27 23:14:04.
