data_PCOD8068255
_publ_section_title
;
Structure prediction by ZEFSAII (Michael W. Deem and Ramdas Pophale) SiO2 
 PCOD8068255
Probable space group: P 21/M
;
_chemical_formula_sum "Si O2"
_cell_formula_units_Z 32
_cell_length_a 13.578439
_cell_length_b 9.150434
_cell_length_c 23.932539
_cell_angle_alpha 90.000000
_cell_angle_beta 44.483549
_cell_angle_gamma 90.000000
_cell_volume 2083.604015
_symmetry_space_group_name_H-M "P 21/M"
_symmetry_group_IT_number 11
_symmetry_cell_setting 'monoclinic'
loop_
_space_group_symop_operation_xyz
x,y,z
-x,1/2+y,-z
-x,-y,-z
x,1/2-y,z
loop_
_atom_site_type_symbol
_atom_site_label
_atom_site_fract_x
_atom_site_fract_y
_atom_site_fract_z
Si Si1 0.383905 0.920778 0.173051
Si Si2 0.825925 0.578002 0.827754
Si Si3 0.735009 0.920146 0.551459
Si Si4 0.006960 0.916842 0.591756
Si Si5 0.062901 0.078066 0.680540
Si Si6 0.690378 0.586425 0.690624
Si Si7 0.599697 0.916223 0.000037
Si Si8 0.628325 0.580911 0.475634
O O1 0.343746 0.750000 0.186982
O O2 0.272955 0.010574 0.180731
O O3 0.382651 0.974401 0.237452
O O4 0.545597 0.947167 0.085203
O O5 0.842534 0.750000 0.808873
O O6 0.760641 0.546636 0.916607
O O7 0.978849 0.500722 0.765109
O O8 0.779589 0.750000 0.528244
O O9 0.645793 0.948224 0.644386
O O10 0.642545 0.965222 0.534924
O O11 0.875155 0.017799 0.496809
O O12 0.045200 0.750000 0.592002
O O13 0.858373 0.926041 0.621431
O O14 0.995892 0.015029 0.651340
O O15 0.036164 0.250000 0.693670
O O16 0.228505 0.041163 0.615692
O O17 0.643389 0.750000 0.726687
O O18 0.572708 0.750000 0.995804
O O19 0.500000 0.000000 0.000000
O O20 0.500000 0.500000 0.500000
O O21 0.595166 0.750000 0.483968
#
# Coordination Sequence:
#
# PCOD8068255 Si02
#       8
#     4   4   4   4   4   4   4   4
#     4  10  18  27  40  58  84 119 151 179 213 247
#     4  10  17  27  42  60  84 113 149 185 212 246
#     4   9  19  33  45  60  84 112 141 176 216 254
#     4  10  18  27  41  61  84 112 145 177 207 243
#     4  10  19  30  44  64  88 114 143 177 217 257
#     4  10  19  29  41  59  86 116 147 179 208 245
#     4   8  16  27  38  55  80 112 148 182 212 243
#     4   9  19  34  50  65  84 109 137 174 218 261
#
# _framework density 15.358005
#
# number of rings (size 3 to 8) (size 9 to 14) (size 15 to 20)
#    0.000    2.500    1.250    2.625    0.000    4.500 
#    0.000    0.000    0.000    0.000    0.000    0.000 
#    0.000    1.000    0.000    2.250    0.000    4.000 
#
# Total GULP energy -396472.432343 kJ/mol
# GULP energy per Si atom -12389.763511 kJ/mol
# Density = 1.532305 g / cm^3
# Si number density = 15.358005 Si / 1000 Ang^3
#
#
#
# Elastic Constant Matrix: (Units=GPa)
#
#
# Indices 1 2 3 4 5 6 
#
# 1 52.6585 29.6952 45.1590 0.0000 0.7167 0.0000
# 2 29.6952 77.1644 57.8195 0.0000 0.4014 0.0000
# 3 45.1590 57.8195 128.0343 0.0000 8.0612 0.0000
# 4 0.0000 0.0000 0.0000 26.4057 0.0000 -0.7850
# 5 0.7167 0.4014 8.0612 0.0000 13.7803 0.0000
# 6 0.0000 0.0000 0.0000 -0.7850 0.0000 17.7571
#
#
#
# Elastic Compliance Matrix: (Units=1/GPa)
#
#
# Indices 1 2 3 4 5 6 
#
# 1 0.028690 -0.005013 -0.008068 0.000000 0.003373 0.000000
# 2 -0.005013 0.020771 -0.007881 0.000000 0.004266 0.000000
# 3 -0.008068 -0.007881 0.014716 0.000000 -0.007959 0.000000
# 4 0.000000 0.000000 0.000000 0.037920 0.000000 0.001676
# 5 0.003373 0.004266 -0.007959 0.000000 0.076924 0.000000
# 6 0.000000 0.000000 0.000000 0.001676 0.000000 0.056390
#
#
# Mechanical properties :
#
#
# Convention : Reuss Voigt Hill
#
# Bulk Modulus (GPa) = 44.93502 58.13385 51.53443
# Shear Modulus (GPa) = 17.55912 19.93419 18.74665
#
# Velocity S-wave (km/s) = 3.38497 3.60664 3.49756
# Velocity P-wave (km/s) = 6.67827 7.43495 7.06674
#
# Compressibility (1/GPa) = 0.02225436
#
# Stress axis : x y z
#
# Youngs Moduli (GPa) = 34.85511 48.14325 67.95352
#
# Poissons Ratio (x) = 0.24135 0.54823
# Poissons Ratio (y) = 0.17474 0.53551
# Poissons Ratio (z) = 0.28120 0.37940
#
# Static dielectric constant tensor:
#      x y z
#    x 2.494970 0.000000 0.119920 
#    y 0.000000 3.047920 0.000000 
#    z 0.119920 0.000000 3.547490 
# 
# 
# High freq. dielectric constant tensor:
#      x y z
#    x 1.522310 0.000000 0.011440 
#    y 0.000000 1.603300 0.000000 
#    z 0.011440 0.000000 1.599430 
# 
# From -- ./inp_files/42433.got.cif
#   From: 2010.06.25/outbox.cif.g09.slc.cpg/sg11_22_cif.got.tgz:42433.got - 2010.06.27 23:14:04.
