data_PCOD8068080
_publ_section_title
;
Structure prediction by ZEFSAII (Michael W. Deem and Ramdas Pophale) SiO2 
 PCOD8068080
Probable space group: P 2/M
;
_chemical_formula_sum "Si O2"
_cell_formula_units_Z 28
_cell_length_a 30.000000
_cell_length_b 9.000000
_cell_length_c 30.000000
_cell_angle_alpha 90.000000
_cell_angle_beta 10.000000
_cell_angle_gamma 90.000000
_cell_volume 1406.550239
_symmetry_space_group_name_H-M "P 2/M"
_symmetry_group_IT_number 10
_symmetry_cell_setting 'monoclinic'
loop_
_space_group_symop_operation_xyz
x,y,z
-x,y,-z
-x,-y,-z
x,-y,z
loop_
_atom_site_type_symbol
_atom_site_label
_atom_site_fract_x
_atom_site_fract_y
_atom_site_fract_z
Si Si1 0.369781 0.174336 0.399246
Si Si2 0.767589 0.331670 0.760751
Si Si3 0.491365 0.827641 0.557064
Si Si4 0.805945 0.175774 0.813597
Si Si5 0.328409 0.827191 0.336455
Si Si6 0.111913 0.676073 0.079876
Si Si7 0.992582 0.826340 0.906959
O O1 0.342669 0.202340 0.374158
O O2 0.113456 0.236544 0.673559
O O3 0.402105 0.000000 0.379492
O O4 0.614192 0.266557 0.173722
O O5 0.801382 0.500000 0.745039
O O6 0.769949 0.215441 0.798047
O O7 0.000000 0.286760 0.500000
O O8 0.500000 0.310780 0.000000
O O9 0.500000 0.750285 0.500000
O O10 0.725735 0.767556 0.356360
O O11 0.553543 0.000000 0.490056
O O12 0.211293 0.800479 0.852951
O O13 0.069523 0.247204 0.572353
O O14 0.810696 0.000000 0.815056
O O15 0.573376 0.246710 0.071145
O O16 0.324902 0.000000 0.328362
O O17 0.087910 0.500000 0.111226
O O18 0.096787 0.716351 0.043288
O O19 0.993376 0.000000 0.891051
#
# Coordination Sequence:
#
# PCOD8068080 Si02
#       7
#     4   4   4   4   4   4   4
#     4  11  22  41  66  87 113 156 203 238 285 356
#     4  10  21  36  52  73 105 143 180 217 261 317
#     4   9  17  30  52  82 110 137 182 243 287 322
#     4  10  19  34  56  82 108 135 174 224 278 327
#     4   9  19  35  57  83 109 138 177 230 280 328
#     4  12  25  40  58  87 125 156 191 246 300 338
#     4  10  19  33  55  80 108 148 193 229 277 348
#
# _framework density 19.906860999999999
#
# number of rings (size 3 to 8) (size 9 to 14) (size 15 to 20)
#    0.000    1.857    0.000    4.714    0.000    5.714 
#    0.000    4.286    0.000    2.571    0.000    0.000 
#    0.000    0.000    0.000    0.000    0.000    0.000 
#
# Total GULP energy -347191.198410 kJ/mol
# GULP energy per Si atom -12399.685658 kJ/mol
# Density = 1.986155 g / cm^3
# Si number density = 19.906861 Si / 1000 Ang^3
#
#
#
# Elastic Constant Matrix: (Units=GPa)
#
#
# Indices 1 2 3 4 5 6 
#
# 1 63.6467 27.1610 45.4871 0.0000 2.0300 0.0000
# 2 27.1610 49.9879 11.3675 0.0000 2.1578 0.0000
# 3 45.4871 11.3675 122.8581 0.0000 3.6447 0.0000
# 4 0.0000 0.0000 0.0000 19.4169 0.0000 -0.7763
# 5 2.0300 2.1578 3.6447 0.0000 31.4519 0.0000
# 6 0.0000 0.0000 0.0000 -0.7763 0.0000 -3.8305
#
#
#
# Elastic Compliance Matrix: (Units=1/GPa)
#
#
# Indices 1 2 3 4 5 6 
#
# 1 0.027747 -0.013020 -0.009073 0.000000 0.000154 0.000000
# 2 -0.013020 0.026588 0.002398 0.000000 -0.001262 0.000000
# 3 -0.009073 0.002398 0.011303 0.000000 -0.000889 0.000000
# 4 0.000000 0.000000 0.000000 0.051088 0.000000 -0.010354
# 5 0.000154 -0.001262 -0.000889 0.000000 0.031974 0.000000
# 6 0.000000 0.000000 0.000000 -0.010354 0.000000 -0.258964
#
#
# Mechanical properties :
#
#
# Convention : Reuss Voigt Hill
#
# Bulk Modulus (GPa) = 38.09727 44.94710 41.52218
# Shear Modulus (GPa) = -80.48597 19.57280 -30.45659
#
# Velocity S-wave (km/s) = -6.36546 3.13903 -3.91571
# Velocity P-wave (km/s) = 5.90306 5.98045 0.67811
#
# Compressibility (1/GPa) = 0.02624860
#
# Stress axis : x y z
#
# Youngs Moduli (GPa) = 36.03936 37.61030 88.47042
#
# Poissons Ratio (x) = 0.48969 0.80270
# Poissons Ratio (y) = 0.46923 -0.21214
# Poissons Ratio (z) = 0.32699 -0.09018
#
# Static dielectric constant tensor:
#      x y z
#    x 3.634660 0.000000 -0.070100 
#    y 0.000000 3.329940 0.000000 
#    z -0.070100 0.000000 4.065190 
# 
# 
# High freq. dielectric constant tensor:
#      x y z
#    x 1.779330 0.000000 -0.002170 
#    y 0.000000 1.736690 0.000000 
#    z -0.002170 0.000000 1.805420 
# 
# From -- ./inp_files/94278.got.cif
#   From: 2010.06.25/outbox.ucp.g09.slc.cvg/sg10_48_cif.got.tgz:94278.got - 2010.06.28 13:37:52.
