data_PCOD8068613
_publ_section_title
;
Structure prediction by ZEFSAII (Michael W. Deem and Ramdas Pophale) SiO2 
 PCOD8068613
Probable space group: P 21/M
;
_chemical_formula_sum "Si O2"
_cell_formula_units_Z 32
_cell_length_a 17.018668
_cell_length_b 9.042217
_cell_length_c 13.504634
_cell_angle_alpha 90.000000
_cell_angle_beta 101.268754
_cell_angle_gamma 90.000000
_cell_volume 2038.116238
_symmetry_space_group_name_H-M "P 21/M"
_symmetry_group_IT_number 11
_symmetry_cell_setting 'monoclinic'
loop_
_space_group_symop_operation_xyz
x,y,z
-x,1/2+y,-z
-x,-y,-z
x,1/2-y,z
loop_
_atom_site_type_symbol
_atom_site_label
_atom_site_fract_x
_atom_site_fract_y
_atom_site_fract_z
Si Si1 0.511641 0.422142 0.106392
Si Si2 0.178075 0.579947 0.737937
Si Si3 0.332538 0.073937 0.846363
Si Si4 0.966112 0.573593 0.394138
Si Si5 0.050520 0.578626 0.216982
Si Si6 0.190848 0.577667 0.122129
Si Si7 0.334916 0.419064 0.076104
Si Si8 0.915044 0.417273 0.081994
O O1 0.533264 0.250000 0.097484
O O2 0.584702 0.506565 0.178708
O O3 0.425685 0.439589 0.139928
O O4 0.500000 0.500000 0.000000
O O5 0.189260 0.750000 0.706122
O O6 0.262663 0.496392 0.763071
O O7 0.121875 0.493019 0.646679
O O8 0.139810 0.571273 0.835692
O O9 0.332922 0.250000 0.835199
O O10 0.325332 0.024257 0.960046
O O11 0.960731 0.750000 0.404147
O O12 0.000000 0.500000 0.500000
O O13 0.026867 0.524132 0.320843
O O14 0.031553 0.750000 0.203867
O O15 0.144123 0.545294 0.214448
O O16 0.996871 0.505457 0.118307
O O17 0.205498 0.750000 0.109817
O O18 0.277527 0.502622 0.139230
O O19 0.135529 0.513509 0.020321
O O20 0.309019 0.250000 0.071426
O O21 0.939265 0.250000 0.063506
#
# Coordination Sequence:
#
# PCOD8068613 Si02
#       8
#     4   4   4   4   4   4   4   4
#     4   9  17  28  40  57  82 115 154 190 223 258
#     4  10  18  29  46  68  90 116 148 184 223 263
#     4  10  18  28  42  62  87 117 153 188 221 258
#     4  10  20  35  51  67  88 114 145 185 229 273
#     4   9  19  31  44  62  84 111 144 182 222 261
#     4  10  18  28  41  60  86 116 149 182 215 255
#     4   9  18  28  39  58  85 119 154 185 219 254
#     4   9  17  27  40  60  85 114 147 178 212 255
#
# _framework density 15.700773
#
# number of rings (size 3 to 8) (size 9 to 14) (size 15 to 20)
#    0.000    2.500    1.250    2.625    0.000    4.500 
#    0.000    0.000    0.000    0.000    0.000    0.000 
#    0.000    1.000    0.000    3.000    0.000    4.625 
#
# Total GULP energy -396615.112273 kJ/mol
# GULP energy per Si atom -12394.222259 kJ/mol
# Density = 1.566504 g / cm^3
# Si number density = 15.700773 Si / 1000 Ang^3
#
#
#
# Elastic Constant Matrix: (Units=GPa)
#
#
# Indices 1 2 3 4 5 6 
#
# 1 121.8200 54.4549 40.4979 0.0000 15.9574 0.0000
# 2 54.4549 76.4366 28.9727 0.0000 9.6952 0.0000
# 3 40.4979 28.9727 57.2548 0.0000 11.8668 0.0000
# 4 0.0000 0.0000 0.0000 18.7150 0.0000 5.9216
# 5 15.9574 9.6952 11.8668 0.0000 17.0673 0.0000
# 6 0.0000 0.0000 0.0000 5.9216 0.0000 30.8911
#
#
#
# Elastic Compliance Matrix: (Units=1/GPa)
#
#
# Indices 1 2 3 4 5 6 
#
# 1 0.013817 -0.007278 -0.004988 0.000000 -0.005316 0.000000
# 2 -0.007278 0.020270 -0.004829 0.000000 -0.001352 0.000000
# 3 -0.004988 -0.004829 0.025590 0.000000 -0.010386 0.000000
# 4 0.000000 0.000000 0.000000 0.056883 0.000000 -0.010904
# 5 -0.005316 -0.001352 -0.010386 0.000000 0.071551 0.000000
# 6 0.000000 0.000000 0.000000 -0.010904 0.000000 0.034462
#
#
# Mechanical properties :
#
#
# Convention : Reuss Voigt Hill
#
# Bulk Modulus (GPa) = 39.23709 55.92916 47.58312
# Shear Modulus (GPa) = 18.84949 22.10707 20.47828
#
# Velocity S-wave (km/s) = 3.46865 3.75644 3.61541
# Velocity P-wave (km/s) = 6.40990 7.38334 6.91377
#
# Compressibility (1/GPa) = 0.02548609
#
# Stress axis : x y z
#
# Youngs Moduli (GPa) = 72.37463 49.33440 39.07742
#
# Poissons Ratio (x) = 0.35908 0.19493
# Poissons Ratio (y) = 0.52678 0.18869
# Poissons Ratio (z) = 0.36102 0.23822
#
# Static dielectric constant tensor:
#      x y z
#    x 3.255360 0.000000 0.087720 
#    y 0.000000 3.117340 0.000000 
#    z 0.087720 0.000000 2.642260 
# 
# 
# High freq. dielectric constant tensor:
#      x y z
#    x 1.607060 0.000000 0.011710 
#    y 0.000000 1.613300 0.000000 
#    z 0.011710 0.000000 1.543770 
# 
# From -- ./inp_files/52916.got.cif
#   From: 2010.06.25/outbox.cif.g09.slc.cpg/sg11_27_cif.got.tgz:52916.got - 2010.06.27 23:14:04.
