data_PCOD8068419
_publ_section_title
;
Structure prediction by ZEFSAII (Michael W. Deem and Ramdas Pophale) SiO2 
 PCOD8068419
Probable space group: P 21/M
;
_chemical_formula_sum "Si O2"
_cell_formula_units_Z 32
_cell_length_a 20.185128
_cell_length_b 9.023465
_cell_length_c 19.841878
_cell_angle_alpha 90.000000
_cell_angle_beta 29.998856
_cell_angle_gamma 90.000000
_cell_volume 1806.935314
_symmetry_space_group_name_H-M "P 21/M"
_symmetry_group_IT_number 11
_symmetry_cell_setting 'monoclinic'
loop_
_space_group_symop_operation_xyz
x,y,z
-x,1/2+y,-z
-x,-y,-z
x,1/2-y,z
loop_
_atom_site_type_symbol
_atom_site_label
_atom_site_fract_x
_atom_site_fract_y
_atom_site_fract_z
Si Si1 0.893765 0.576226 0.682720
Si Si2 0.369059 0.574360 0.851335
Si Si3 0.653482 0.573570 0.650659
Si Si4 0.315703 0.077136 0.620382
Si Si5 0.131559 0.926025 0.155288
Si Si6 0.187188 0.576252 0.377870
Si Si7 0.611437 0.422959 0.315542
Si Si8 0.843800 0.925598 0.364483
O O1 0.864387 0.750000 0.707673
O O2 0.843958 0.506192 0.795877
O O3 0.810172 0.499441 0.697397
O O4 0.049015 0.541427 0.536938
O O5 0.374448 0.750000 0.842251
O O6 0.505623 0.518632 0.764017
O O7 0.352181 0.512504 0.790206
O O8 0.246430 0.519639 0.004003
O O9 0.662975 0.750000 0.651146
O O10 0.694596 0.495430 0.683703
O O11 0.749890 0.514664 0.506705
O O12 0.297915 0.250000 0.648418
O O13 0.458362 0.039526 0.463472
O O14 0.206929 0.015180 0.663293
O O15 0.296075 0.998812 0.709687
O O16 0.133158 0.750000 0.165432
O O17 0.993263 0.979648 0.244759
O O18 0.210970 0.750000 0.348003
O O19 0.639529 0.250000 0.294897
O O20 0.833153 0.750000 0.373486
#
# Coordination Sequence:
#
# PCOD8068419 Si02
#       8
#     4   4   4   4   4   4   4   4
#     4  10  20  34  52  76 105 135 164 202 252 298
#     4   9  18  32  52  75 102 134 168 205 249 302
#     4  10  17  31  53  76 100 130 167 207 250 294
#     4   9  16  28  47  71  96 126 166 208 247 292
#     4  10  19  33  53  76 100 132 170 206 247 299
#     4  10  20  33  52  79 105 129 164 210 249 291
#     4   9  16  29  47  69  97 129 164 204 250 295
#     4   9  16  28  50  74  97 127 167 207 244 293
#
# _framework density 17.709543
#
# number of rings (size 3 to 8) (size 9 to 14) (size 15 to 20)
#    0.000    2.500    2.500    0.750    0.000    1.000 
#    0.000    4.375    0.000    0.000    0.000    0.000 
#    0.000    0.000    0.000    0.000    0.000    0.000 
#
# Total GULP energy -396801.335922 kJ/mol
# GULP energy per Si atom -12400.041748 kJ/mol
# Density = 1.766924 g / cm^3
# Si number density = 17.709543 Si / 1000 Ang^3
#
#
#
# Elastic Constant Matrix: (Units=GPa)
#
#
# Indices 1 2 3 4 5 6 
#
# 1 188.8719 46.9606 81.0314 0.0000 12.8510 0.0000
# 2 46.9606 41.0482 33.7801 0.0000 7.6671 0.0000
# 3 81.0314 33.7801 112.2461 0.0000 5.6328 0.0000
# 4 0.0000 0.0000 0.0000 12.7064 0.0000 4.6823
# 5 12.8510 7.6671 5.6328 0.0000 29.1151 0.0000
# 6 0.0000 0.0000 0.0000 4.6823 0.0000 32.0272
#
#
#
# Elastic Compliance Matrix: (Units=1/GPa)
#
#
# Indices 1 2 3 4 5 6 
#
# 1 0.008836 -0.006186 -0.004447 0.000000 -0.001411 0.000000
# 2 -0.006186 0.038063 -0.006688 0.000000 -0.005999 0.000000
# 3 -0.004447 -0.006688 0.014082 0.000000 0.001000 0.000000
# 4 0.000000 0.000000 0.000000 0.083181 0.000000 -0.012161
# 5 -0.001411 -0.005999 0.001000 0.000000 0.036356 0.000000
# 6 0.000000 0.000000 0.000000 -0.012161 0.000000 0.033001
#
#
# Mechanical properties :
#
#
# Convention : Reuss Voigt Hill
#
# Bulk Modulus (GPa) = 37.96576 73.96781 55.96679
# Shear Modulus (GPa) = 19.45969 26.79604 23.12787
#
# Velocity S-wave (km/s) = 3.31845 3.89406 3.61772
# Velocity P-wave (km/s) = 6.01393 7.87884 7.00869
#
# Compressibility (1/GPa) = 0.02633952
#
# Stress axis : x y z
#
# Youngs Moduli (GPa) = 113.16752 26.27196 71.01505
#
# Poissons Ratio (x) = 0.16253 0.31577
# Poissons Ratio (y) = 0.70011 0.47494
# Poissons Ratio (z) = 0.50320 0.17571
#
# Static dielectric constant tensor:
#      x y z
#    x 3.522100 0.000000 0.029420 
#    y 0.000000 2.996470 0.000000 
#    z 0.029420 0.000000 3.175610 
# 
# 
# High freq. dielectric constant tensor:
#      x y z
#    x 1.703270 0.000000 0.005920 
#    y 0.000000 1.656650 0.000000 
#    z 0.005920 0.000000 1.658800 
# 
# From -- ./inp_files/66403.got.cif
#   From: 2010.06.25/outbox.cif.g09.slc.cpg/sg11_34_cif.got.tgz:66403.got - 2010.06.27 23:14:04.
