data_PCOD8068638
_publ_section_title
;
Structure prediction by ZEFSAII (Michael W. Deem and Ramdas Pophale) SiO2 
 PCOD8068638
Probable space group: P 21/M
;
_chemical_formula_sum "Si O2"
_cell_formula_units_Z 32
_cell_length_a 19.300680
_cell_length_b 9.009058
_cell_length_c 28.919015
_cell_angle_alpha 90.000000
_cell_angle_beta 156.290693
_cell_angle_gamma 90.000000
_cell_volume 2021.928496
_symmetry_space_group_name_H-M "P 21/M"
_symmetry_group_IT_number 11
_symmetry_cell_setting 'monoclinic'
loop_
_space_group_symop_operation_xyz
x,y,z
-x,1/2+y,-z
-x,-y,-z
x,1/2-y,z
loop_
_atom_site_type_symbol
_atom_site_label
_atom_site_fract_x
_atom_site_fract_y
_atom_site_fract_z
Si Si1 0.901310 0.075371 0.079982
Si Si2 0.385621 0.917100 0.320551
Si Si3 0.781095 0.420407 0.684853
Si Si4 0.254072 0.076916 0.428438
Si Si5 0.072321 0.423792 0.089283
Si Si6 0.661387 0.576609 0.998228
Si Si7 0.090509 0.080699 0.763915
Si Si8 0.592276 0.577822 0.098502
O O1 0.878541 0.250000 0.071564
O O2 0.948330 0.030795 0.056127
O O3 0.050840 0.019684 0.204929
O O4 0.727014 0.993879 0.990005
O O5 0.339463 0.750000 0.276692
O O6 0.350572 0.937828 0.353629
O O7 0.589689 0.949854 0.439327
O O8 0.268952 0.026166 0.218766
O O9 0.838983 0.250000 0.713589
O O10 0.696314 0.481915 0.586461
O O11 0.243025 0.250000 0.408657
O O12 0.074856 0.024748 0.341373
O O13 0.074311 0.250000 0.082579
O O14 0.000000 0.500000 0.000000
O O15 0.632157 0.750000 0.973583
O O16 0.475695 0.501700 0.896400
O O17 0.796156 0.540329 0.121689
O O18 0.026830 0.250000 0.729147
O O19 0.202758 0.059205 0.785483
O O20 0.540434 0.750000 0.068010
O O21 0.500000 0.500000 0.000000
#
# Coordination Sequence:
#
# PCOD8068638 Si02
#       8
#     4   4   4   4   4   4   4   4
#     4  10  19  30  46  68  90 116 153 188 224 271
#     4   9  20  34  46  64  88 117 152 189 226 267
#     4  10  18  29  43  59  87 121 152 188 226 261
#     4  11  20  28  42  63  89 121 156 190 223 261
#     4  10  21  36  54  72  90 116 147 186 234 279
#     4  10  18  28  43  63  88 118 153 190 230 267
#     4   9  18  29  40  58  86 122 158 188 226 264
#     4   9  17  28  41  57  82 117 157 194 227 264
#
# _framework density 15.826473999999999
#
# number of rings (size 3 to 8) (size 9 to 14) (size 15 to 20)
#    0.000    2.250    1.250    3.375    0.000    5.500 
#    0.000    0.000    0.000    0.000    0.000    0.000 
#    0.000    1.000    0.000    3.250    0.000    4.000 
#
# Total GULP energy -396666.663955 kJ/mol
# GULP energy per Si atom -12395.833249 kJ/mol
# Density = 1.579045 g / cm^3
# Si number density = 15.826474 Si / 1000 Ang^3
#
#
#
# Elastic Constant Matrix: (Units=GPa)
#
#
# Indices 1 2 3 4 5 6 
#
# 1 70.0932 46.5283 44.4173 0.0000 9.7256 0.0000
# 2 46.5283 91.4567 41.0684 0.0000 4.8868 0.0000
# 3 44.4173 41.0684 66.5355 0.0000 5.0661 0.0000
# 4 0.0000 0.0000 0.0000 23.2020 0.0000 3.8315
# 5 9.7256 4.8868 5.0661 0.0000 20.1305 0.0000
# 6 0.0000 0.0000 0.0000 3.8315 0.0000 27.2727
#
#
#
# Elastic Compliance Matrix: (Units=1/GPa)
#
#
# Indices 1 2 3 4 5 6 
#
# 1 0.030132 -0.008474 -0.014205 0.000000 -0.008926 0.000000
# 2 -0.008474 0.017546 -0.005261 0.000000 0.001159 0.000000
# 3 -0.014205 -0.005261 0.027670 0.000000 0.001177 0.000000
# 4 0.000000 0.000000 0.000000 0.044123 0.000000 -0.006199
# 5 -0.008926 0.001159 0.001177 0.000000 0.053411 0.000000
# 6 0.000000 0.000000 0.000000 -0.006199 0.000000 0.037537
#
#
# Mechanical properties :
#
#
# Convention : Reuss Voigt Hill
#
# Bulk Modulus (GPa) = 51.36769 54.67926 53.02348
# Shear Modulus (GPa) = 18.32916 20.52582 19.42749
#
# Velocity S-wave (km/s) = 3.40683 3.60520 3.50741
# Velocity P-wave (km/s) = 6.92839 7.20792 7.06954
#
# Compressibility (1/GPa) = 0.01946749
#
# Stress axis : x y z
#
# Youngs Moduli (GPa) = 33.18763 56.99368 36.13958
#
# Poissons Ratio (x) = 0.48295 0.51337
# Poissons Ratio (y) = 0.28122 0.19014
# Poissons Ratio (z) = 0.47144 0.29986
#
# Static dielectric constant tensor:
#      x y z
#    x 3.140530 0.000000 0.364960 
#    y 0.000000 3.153480 0.000000 
#    z 0.364960 0.000000 2.779830 
# 
# 
# High freq. dielectric constant tensor:
#      x y z
#    x 1.591210 0.000000 0.033390 
#    y 0.000000 1.625320 0.000000 
#    z 0.033390 0.000000 1.565720 
# 
# From -- ./inp_files/52922.got.cif
#   From: 2010.06.25/outbox.cif.g09.slc.cpg/sg11_27_cif.got.tgz:52922.got - 2010.06.27 23:14:04.
