data_PCOD8068414
_publ_section_title
;
Structure prediction by ZEFSAII (Michael W. Deem and Ramdas Pophale) SiO2 
 PCOD8068414
Probable space group: P 21/M
;
_chemical_formula_sum "Si O2"
_cell_formula_units_Z 28
_cell_length_a 17.364062
_cell_length_b 8.645004
_cell_length_c 10.323621
_cell_angle_alpha 90.000000
_cell_angle_beta 105.162920
_cell_angle_gamma 90.000000
_cell_volume 1495.751959
_symmetry_space_group_name_H-M "P 21/M"
_symmetry_group_IT_number 11
_symmetry_cell_setting 'monoclinic'
loop_
_space_group_symop_operation_xyz
x,y,z
-x,1/2+y,-z
-x,-y,-z
x,1/2-y,z
loop_
_atom_site_type_symbol
_atom_site_label
_atom_site_fract_x
_atom_site_fract_y
_atom_site_fract_z
Si Si1 0.666574 0.566903 0.951429
Si Si2 0.194316 0.068140 0.591430
Si Si3 0.345864 0.932060 0.769891
Si Si4 0.077362 0.433069 0.766491
Si Si5 0.837918 0.566230 0.939846
Si Si6 0.093954 0.431963 0.299271
Si Si7 0.494187 0.933326 0.141072
O O1 0.656084 0.750000 0.945902
O O2 0.673651 0.512875 0.102532
O O3 0.746192 0.512709 0.912145
O O4 0.591553 0.489875 0.842467
O O5 0.210909 0.250000 0.612390
O O6 0.134679 0.009119 0.676981
O O7 0.157763 0.024720 0.436784
O O8 0.277255 0.976360 0.638216
O O9 0.351337 0.750000 0.793100
O O10 0.430203 0.995292 0.748865
O O11 0.074877 0.250000 0.767807
O O12 0.989706 0.494276 0.699804
O O13 0.110385 0.499309 0.917375
O O14 0.841261 0.750000 0.941957
O O15 0.874361 0.499417 0.822983
O O16 0.081522 0.250000 0.284748
O O17 0.499055 0.750000 0.144621
O O18 0.500000 0.000000 0.000000
#
# Coordination Sequence:
#
# PCOD8068414 Si02
#       7
#     4   4   4   4   4   4   4
#     4  10  17  31  52  74 105 138 169 207 256 303
#     4  10  20  35  53  73 103 138 171 211 259 305
#     4  11  20  31  50  77 104 132 172 212 254 303
#     4  10  19  34  53  73 101 137 172 212 261 303
#     4   9  18  33  53  75 104 137 170 209 256 305
#     4  10  21  35  52  76 102 135 175 212 254 306
#     4  10  18  29  47  75 108 135 166 208 255 301
#
# _framework density 18.71968
#
# number of rings (size 3 to 8) (size 9 to 14) (size 15 to 20)
#    0.000    2.000    1.429    5.571    0.000    1.143 
#    0.000    1.429    0.000    0.857    0.000    0.000 
#    0.000    0.000    0.000    0.000    0.000    0.000 
#
# Total GULP energy -347182.134603 kJ/mol
# GULP energy per Si atom -12399.361950 kJ/mol
# Density = 1.867707 g / cm^3
# Si number density = 18.719680 Si / 1000 Ang^3
#
#
#
# Elastic Constant Matrix: (Units=GPa)
#
#
# Indices 1 2 3 4 5 6 
#
# 1 82.2495 27.7404 24.6580 0.0000 31.9207 0.0000
# 2 27.7404 63.3454 20.2973 0.0000 12.7277 0.0000
# 3 24.6580 20.2973 75.3035 0.0000 5.7398 0.0000
# 4 0.0000 0.0000 0.0000 16.0827 0.0000 10.8021
# 5 31.9207 12.7277 5.7398 0.0000 29.8181 0.0000
# 6 0.0000 0.0000 0.0000 10.8021 0.0000 29.2204
#
#
#
# Elastic Compliance Matrix: (Units=1/GPa)
#
#
# Indices 1 2 3 4 5 6 
#
# 1 0.023971 -0.004319 -0.004942 0.000000 -0.022866 0.000000
# 2 -0.004319 0.019428 -0.003595 0.000000 -0.002977 0.000000
# 3 -0.004942 -0.003595 0.015575 0.000000 0.003827 0.000000
# 4 0.000000 0.000000 0.000000 0.082717 0.000000 -0.030579
# 5 -0.022866 -0.002977 0.003827 0.000000 0.058549 0.000000
# 6 0.000000 0.000000 0.000000 -0.030579 0.000000 0.045527
#
#
# Mechanical properties :
#
#
# Convention : Reuss Voigt Hill
#
# Bulk Modulus (GPa) = 30.06575 40.69888 35.38232
# Shear Modulus (GPa) = 17.69488 24.90442 21.29965
#
# Velocity S-wave (km/s) = 3.07784 3.65140 3.37682
# Velocity P-wave (km/s) = 5.35973 6.29011 5.84346
#
# Compressibility (1/GPa) = 0.03326043
#
# Stress axis : x y z
#
# Youngs Moduli (GPa) = 41.71756 51.47164 64.20452
#
# Poissons Ratio (x) = 0.22233 0.31730
# Poissons Ratio (y) = 0.18020 0.23084
# Poissons Ratio (z) = 0.20617 0.18506
#
# Static dielectric constant tensor:
#      x y z
#    x 3.933110 0.000000 0.263380 
#    y 0.000000 3.261290 0.000000 
#    z 0.263380 0.000000 3.415760 
# 
# 
# High freq. dielectric constant tensor:
#      x y z
#    x 1.737920 0.000000 0.026100 
#    y 0.000000 1.714720 0.000000 
#    z 0.026100 0.000000 1.701300 
# 
# From -- ./inp_files/37649.got.cif
#   From: 2010.06.25/outbox.cif.g09.slc.cpg/sg11_19_cif.got.tgz:37649.got - 2010.06.27 23:14:04.
