data_PCOD8068235
_publ_section_title
;
Structure prediction by ZEFSAII (Michael W. Deem and Ramdas Pophale) SiO2 
 PCOD8068235
Probable space group: P 21/M
;
_chemical_formula_sum "Si O2"
_cell_formula_units_Z 28
_cell_length_a 17.805914
_cell_length_b 8.892670
_cell_length_c 13.808709
_cell_angle_alpha 90.000000
_cell_angle_beta 127.543851
_cell_angle_gamma 90.000000
_cell_volume 1733.648028
_symmetry_space_group_name_H-M "P 21/M"
_symmetry_group_IT_number 11
_symmetry_cell_setting 'monoclinic'
loop_
_space_group_symop_operation_xyz
x,y,z
-x,1/2+y,-z
-x,-y,-z
x,1/2-y,z
loop_
_atom_site_type_symbol
_atom_site_label
_atom_site_fract_x
_atom_site_fract_y
_atom_site_fract_z
Si Si1 0.584808 0.924287 0.622774
Si Si2 0.462670 0.920509 0.699774
Si Si3 0.229921 0.572406 0.702745
Si Si4 0.289981 0.576006 0.418044
Si Si5 0.037571 0.922652 0.623199
Si Si6 0.427681 0.427153 0.869487
Si Si7 0.152208 0.426922 0.445795
O O1 0.589505 0.750000 0.598067
O O2 0.561705 0.943969 0.719047
O O3 0.500000 0.000000 0.500000
O O4 0.681655 0.005101 0.664308
O O5 0.456592 0.750000 0.734706
O O6 0.374114 0.952289 0.560240
O O7 0.459689 0.035472 0.785646
O O8 0.248377 0.750000 0.706418
O O9 0.149179 0.535164 0.721915
O O10 0.324445 0.492090 0.812605
O O11 0.199079 0.509838 0.574085
O O12 0.267564 0.750000 0.385099
O O13 0.195915 0.492948 0.381861
O O14 0.032226 0.750000 0.593410
O O15 0.962478 0.959018 0.650287
O O16 0.000000 0.000000 0.500000
O O17 0.426594 0.250000 0.882990
O O18 0.500000 0.500000 0.000000
O O19 0.173959 0.250000 0.471295
#
# Coordination Sequence:
#
# PCOD8068235 Si02
#       7
#     4   4   4   4   4   4   4
#     4   9  17  28  43  62  86 115 148 182 219 266
#     4   9  18  32  46  61  86 116 148 186 228 265
#     4  10  18  31  46  61  87 117 148 187 229 266
#     4  10  18  27  42  64  92 122 150 182 221 262
#     4   8  16  27  41  61  85 115 147 181 218 263
#     4  12  24  35  49  66  86 116 155 194 229 267
#     4  10  17  26  42  65  90 119 154 182 216 265
#
# _framework density 16.150914
#
# number of rings (size 3 to 8) (size 9 to 14) (size 15 to 20)
#    0.000    2.286    1.429    3.857    0.000    4.000 
#    0.000    0.000    0.000    0.000    0.000    0.000 
#    0.000    1.143    0.000    3.429    0.000    4.571 
#
# Total GULP energy -346897.776016 kJ/mol
# GULP energy per Si atom -12389.206286 kJ/mol
# Density = 1.611415 g / cm^3
# Si number density = 16.150914 Si / 1000 Ang^3
#
#
#
# Elastic Constant Matrix: (Units=GPa)
#
#
# Indices 1 2 3 4 5 6 
#
# 1 151.6426 61.1352 37.1014 0.0000 28.1460 0.0000
# 2 61.1352 109.3178 31.7533 0.0000 12.4754 0.0000
# 3 37.1014 31.7533 43.9151 0.0000 13.7642 0.0000
# 4 0.0000 0.0000 0.0000 17.1742 0.0000 -0.0014
# 5 28.1460 12.4754 13.7642 0.0000 17.0046 0.0000
# 6 0.0000 0.0000 0.0000 -0.0014 0.0000 28.6624
#
#
#
# Elastic Compliance Matrix: (Units=1/GPa)
#
#
# Indices 1 2 3 4 5 6 
#
# 1 0.011417 -0.004126 -0.002262 0.000000 -0.014040 0.000000
# 2 -0.004126 0.013138 -0.006879 0.000000 0.002758 0.000000
# 3 -0.002262 -0.006879 0.036045 0.000000 -0.020386 0.000000
# 4 0.000000 0.000000 0.000000 0.058227 0.000000 0.000003
# 5 -0.014040 0.002758 -0.020386 0.000000 0.096524 0.000000
# 6 0.000000 0.000000 0.000000 0.000003 0.000000 0.034889
#
#
# Mechanical properties :
#
#
# Convention : Reuss Voigt Hill
#
# Bulk Modulus (GPa) = 29.35293 62.76171 46.05732
# Shear Modulus (GPa) = 17.35335 24.22730 20.79032
#
# Velocity S-wave (km/s) = 3.28144 3.87726 3.59172
# Velocity P-wave (km/s) = 5.70708 7.68037 6.76605
#
# Compressibility (1/GPa) = 0.03406815
#
# Stress axis : x y z
#
# Youngs Moduli (GPa) = 87.58846 76.11434 27.74272
#
# Poissons Ratio (x) = 0.31402 0.06276
# Poissons Ratio (y) = 0.36135 0.19083
# Poissons Ratio (z) = 0.19814 0.52355
#
# Static dielectric constant tensor:
#      x y z
#    x 3.961020 0.000000 0.309860 
#    y 0.000000 3.219290 0.000000 
#    z 0.309860 0.000000 2.598650 
# 
# 
# High freq. dielectric constant tensor:
#      x y z
#    x 1.644560 0.000000 0.020890 
#    y 0.000000 1.639580 0.000000 
#    z 0.020890 0.000000 1.540960 
# 
# From -- ./inp_files/52877.got.cif
#   From: 2010.06.25/outbox.cif.g09.slc.cpg/sg11_27_cif.got.tgz:52877.got - 2010.06.27 23:14:04.
