data_PCOD8068949
_publ_section_title
;
Structure prediction by ZEFSAII (Michael W. Deem and Ramdas Pophale) SiO2 
 PCOD8068949
Probable space group: P 21/M
;
_chemical_formula_sum "Si O2"
_cell_formula_units_Z 32
_cell_length_a 17.306413
_cell_length_b 9.051398
_cell_length_c 22.779896
_cell_angle_alpha 90.000000
_cell_angle_beta 29.119202
_cell_angle_gamma 90.000000
_cell_volume 1736.487749
_symmetry_space_group_name_H-M "P 21/M"
_symmetry_group_IT_number 11
_symmetry_cell_setting 'monoclinic'
loop_
_space_group_symop_operation_xyz
x,y,z
-x,1/2+y,-z
-x,-y,-z
x,1/2-y,z
loop_
_atom_site_type_symbol
_atom_site_label
_atom_site_fract_x
_atom_site_fract_y
_atom_site_fract_z
Si Si1 0.168711 0.080390 0.555830
Si Si2 0.596332 0.075644 0.797498
Si Si3 0.086368 0.419178 0.862336
Si Si4 0.979674 0.580182 0.223636
Si Si5 0.279551 0.425150 0.069923
Si Si6 0.244862 0.920999 0.858385
Si Si7 0.176171 0.923158 0.253473
Si Si8 0.559638 0.074855 0.691333
O O1 0.214519 0.250000 0.513600
O O2 0.142632 0.050672 0.642255
O O3 0.009866 0.036431 0.625256
O O4 0.311069 0.977106 0.441310
O O5 0.582558 0.250000 0.803594
O O6 0.752406 0.028550 0.730957
O O7 0.609598 0.013837 0.722553
O O8 0.439027 0.014029 0.933565
O O9 0.130207 0.250000 0.847563
O O10 0.108274 0.455441 0.779029
O O11 0.205659 0.523715 0.818719
O O12 0.904578 0.451041 0.000436
O O13 0.038313 0.750000 0.186372
O O14 0.132483 0.476903 0.127978
O O15 0.277213 0.250000 0.076386
O O16 0.272520 0.491789 0.139530
O O17 0.291593 0.750000 0.824135
O O18 0.388795 0.012025 0.789185
O O19 0.200254 0.750000 0.225321
O O20 0.549632 0.250000 0.696301
#
# Coordination Sequence:
#
# PCOD8068949 Si02
#       8
#     4   4   4   4   4   4   4   4
#     4   9  19  35  53  72  97 132 172 214 255 295
#     4   9  19  33  50  74 102 134 169 209 258 305
#     4   9  18  34  57  83 107 133 166 201 244 302
#     4   9  18  34  55  76 102 137 171 204 249 304
#     4  10  18  29  49  78 108 132 163 208 253 302
#     4  10  20  34  54  81 111 136 161 201 251 301
#     4   9  18  35  54  71  99 136 170 208 258 307
#     4  11  22  36  53  72 100 137 175 212 251 299
#
# _framework density 18.428003
#
# number of rings (size 3 to 8) (size 9 to 14) (size 15 to 20)
#    0.000    2.500    0.000    3.000    0.000    3.500 
#    0.000    4.375    0.000    0.000    0.000    0.000 
#    0.000    0.000    0.000    0.000    0.000    0.000 
#
# Total GULP energy -396826.493005 kJ/mol
# GULP energy per Si atom -12400.827906 kJ/mol
# Density = 1.838606 g / cm^3
# Si number density = 18.428003 Si / 1000 Ang^3
#
#
#
# Elastic Constant Matrix: (Units=GPa)
#
#
# Indices 1 2 3 4 5 6 
#
# 1 137.0123 39.9863 46.1585 0.0000 13.4823 0.0000
# 2 39.9863 63.4634 31.9096 0.0000 2.0283 0.0000
# 3 46.1585 31.9096 66.1380 0.0000 7.6562 0.0000
# 4 0.0000 0.0000 0.0000 28.6676 0.0000 -1.4282
# 5 13.4823 2.0283 7.6562 0.0000 16.8284 0.0000
# 6 0.0000 0.0000 0.0000 -1.4282 0.0000 26.0778
#
#
#
# Elastic Compliance Matrix: (Units=1/GPa)
#
#
# Indices 1 2 3 4 5 6 
#
# 1 0.010701 -0.004149 -0.004785 0.000000 -0.005897 0.000000
# 2 -0.004149 0.022488 -0.008471 0.000000 0.004467 0.000000
# 3 -0.004785 -0.008471 0.023207 0.000000 -0.005704 0.000000
# 4 0.000000 0.000000 0.000000 0.034978 0.000000 0.001916
# 5 -0.005897 0.004467 -0.005704 0.000000 0.066204 0.000000
# 6 0.000000 0.000000 0.000000 0.001916 0.000000 0.038452
#
#
# Mechanical properties :
#
#
# Convention : Reuss Voigt Hill
#
# Bulk Modulus (GPa) = 46.32484 55.85806 51.09145
# Shear Modulus (GPa) = 21.00539 24.21872 22.61206
#
# Velocity S-wave (km/s) = 3.37985 3.62917 3.50673
# Velocity P-wave (km/s) = 6.35799 6.92376 6.64690
#
# Compressibility (1/GPa) = 0.02158669
#
# Stress axis : x y z
#
# Youngs Moduli (GPa) = 93.44494 44.46884 43.09127
#
# Poissons Ratio (x) = 0.18448 0.20617
# Poissons Ratio (y) = 0.38766 0.36504
# Poissons Ratio (z) = 0.44709 0.37671
#
# Static dielectric constant tensor:
#      x y z
#    x 3.633280 0.000000 0.100190 
#    y 0.000000 3.280300 0.000000 
#    z 0.100190 0.000000 3.240420 
# 
# 
# High freq. dielectric constant tensor:
#      x y z
#    x 1.723730 0.000000 0.004280 
#    y 0.000000 1.705650 0.000000 
#    z 0.004280 0.000000 1.700450 
# 
# From -- ./inp_files/69419.got.cif
#   From: 2010.06.25/outbox.cif.g09.slc.cpg/sg11_35_cif.got.tgz:69419.got - 2010.06.27 23:14:04.
