data_PCOD8068259
_publ_section_title
;
Structure prediction by ZEFSAII (Michael W. Deem and Ramdas Pophale) SiO2 
 PCOD8068259
Probable space group: P 21/M
;
_chemical_formula_sum "Si O2"
_cell_formula_units_Z 28
_cell_length_a 25.649838
_cell_length_b 8.742690
_cell_length_c 12.179306
_cell_angle_alpha 90.000000
_cell_angle_beta 141.224705
_cell_angle_gamma 90.000000
_cell_volume 1710.457438
_symmetry_space_group_name_H-M "P 21/M"
_symmetry_group_IT_number 11
_symmetry_cell_setting 'monoclinic'
loop_
_space_group_symop_operation_xyz
x,y,z
-x,1/2+y,-z
-x,-y,-z
x,1/2-y,z
loop_
_atom_site_type_symbol
_atom_site_label
_atom_site_fract_x
_atom_site_fract_y
_atom_site_fract_z
Si Si1 0.724519 0.429152 0.151794
Si Si2 0.873504 0.928648 0.285894
Si Si3 0.008818 0.571431 0.688244
Si Si4 0.955911 0.430882 0.823115
Si Si5 0.399532 0.572775 0.763250
Si Si6 0.776247 0.427433 0.477568
Si Si7 0.433598 0.424421 0.045755
O O1 0.736621 0.250000 0.155330
O O2 0.779158 0.516861 0.151081
O O3 0.753187 0.489806 0.318610
O O4 0.626315 0.471639 0.976439
O O5 0.876599 0.750000 0.264680
O O6 0.928429 0.970084 0.482894
O O7 0.907948 0.019747 0.237787
O O8 0.013872 0.750000 0.722736
O O9 0.004795 0.478750 0.794313
O O10 0.956646 0.250000 0.835690
O O11 0.861498 0.500698 0.663226
O O12 0.000000 0.500000 0.000000
O O13 0.406602 0.750000 0.816109
O O14 0.302679 0.541878 0.570060
O O15 0.419512 0.457909 0.894511
O O16 0.466086 0.545055 0.772958
O O17 0.794615 0.250000 0.494315
O O18 0.410985 0.250000 0.035037
#
# Coordination Sequence:
#
# PCOD8068259 Si02
#       7
#     4   4   4   4   4   4   4
#     4  10  17  27  42  61  88 120 152 180 218 267
#     4  10  19  30  47  69  92 117 150 188 226 270
#     4  10  20  33  48  67  90 117 151 188 231 275
#     4  11  21  34  49  66  90 120 157 196 234 269
#     4   8  14  25  38  54  78 112 147 179 218 265
#     4   8  15  27  43  59  80 114 152 186 222 266
#     4   9  15  22  35  57  84 111 143 180 218 260
#
# _framework density 16.369889000000001
#
# number of rings (size 3 to 8) (size 9 to 14) (size 15 to 20)
#    0.000    2.571    1.429    3.000    0.000    1.714 
#    0.000    0.714    0.000    0.000    0.000    0.000 
#    0.000    1.143    0.000    3.143    0.000    4.857 
#
# Total GULP energy -346943.996525 kJ/mol
# GULP energy per Si atom -12390.857019 kJ/mol
# Density = 1.633263 g / cm^3
# Si number density = 16.369889 Si / 1000 Ang^3
#
#
#
# Elastic Constant Matrix: (Units=GPa)
#
#
# Indices 1 2 3 4 5 6 
#
# 1 111.7062 25.4220 48.6171 0.0000 29.2223 0.0000
# 2 25.4220 49.8034 18.1570 0.0000 3.6054 0.0000
# 3 48.6171 18.1570 54.1484 0.0000 12.0410 0.0000
# 4 0.0000 0.0000 0.0000 16.1346 0.0000 2.9021
# 5 29.2223 3.6054 12.0410 0.0000 28.3113 0.0000
# 6 0.0000 0.0000 0.0000 2.9021 0.0000 28.4947
#
#
#
# Elastic Compliance Matrix: (Units=1/GPa)
#
#
# Indices 1 2 3 4 5 6 
#
# 1 0.018940 -0.004087 -0.012595 0.000000 -0.013673 0.000000
# 2 -0.004087 0.023761 -0.005040 0.000000 0.003336 0.000000
# 3 -0.012595 -0.005040 0.031402 0.000000 0.000286 0.000000
# 4 0.000000 0.000000 0.000000 0.063135 0.000000 -0.006430
# 5 -0.013673 0.003336 0.000286 0.000000 0.048888 0.000000
# 6 0.000000 0.000000 0.000000 -0.006430 0.000000 0.035749
#
#
# Mechanical properties :
#
#
# Convention : Reuss Voigt Hill
#
# Bulk Modulus (GPa) = 32.61516 44.45002 38.53259
# Shear Modulus (GPa) = 18.14623 22.81891 20.48257
#
# Velocity S-wave (km/s) = 3.33305 3.73762 3.54112
# Velocity P-wave (km/s) = 5.89740 6.77044 6.34895
#
# Compressibility (1/GPa) = 0.03066059
#
# Stress axis : x y z
#
# Youngs Moduli (GPa) = 52.79708 42.08587 31.84461
#
# Poissons Ratio (x) = 0.17198 0.40108
# Poissons Ratio (y) = 0.21576 0.16050
# Poissons Ratio (z) = 0.66498 0.21212
#
# Static dielectric constant tensor:
#      x y z
#    x 3.251900 0.000000 0.535080 
#    y 0.000000 3.033820 0.000000 
#    z 0.535080 0.000000 2.934090 
# 
# 
# High freq. dielectric constant tensor:
#      x y z
#    x 1.630080 0.000000 0.049330 
#    y 0.000000 1.632920 0.000000 
#    z 0.049330 0.000000 1.571700 
# 
# From -- ./inp_files/42600.got.cif
#   From: 2010.06.25/outbox.cif.g09.slc.cpg/sg11_22_cif.got.tgz:42600.got - 2010.06.27 23:14:04.
