data_PCOD8068009
_publ_section_title
;
Structure prediction by ZEFSAII (Michael W. Deem and Ramdas Pophale) SiO2 
 PCOD8068009
Probable space group: P 2/M
;
_chemical_formula_sum "Si O2"
_cell_formula_units_Z 24
_cell_length_a 15.736760
_cell_length_b 13.505886
_cell_length_c 12.513601
_cell_angle_alpha 90.000000
_cell_angle_beta 142.608389
_cell_angle_gamma 90.000000
_cell_volume 1615.083704
_symmetry_space_group_name_H-M "P 2/M"
_symmetry_group_IT_number 10
_symmetry_cell_setting 'monoclinic'
loop_
_space_group_symop_operation_xyz
x,y,z
-x,y,-z
-x,-y,-z
x,-y,z
loop_
_atom_site_type_symbol
_atom_site_label
_atom_site_fract_x
_atom_site_fract_y
_atom_site_fract_z
Si Si1 0.336386 0.887366 0.959280
Si Si2 0.000661 0.386508 0.128670
Si Si3 0.154384 0.785746 0.945833
Si Si4 0.156507 0.785753 0.363881
Si Si5 0.166080 0.112408 0.165451
Si Si6 0.338299 0.112636 0.714199
O O1 0.249186 0.805798 0.937613
O O2 0.301620 0.869927 0.800890
O O3 0.295298 0.000000 0.950799
O O4 0.498876 0.869248 0.144333
O O5 0.000850 0.500000 0.164821
O O6 0.138087 0.331475 0.315990
O O7 0.863742 0.331483 0.042701
O O8 0.000000 0.374531 0.000000
O O9 0.998836 0.831367 0.769327
O O10 0.228199 0.838253 0.120815
O O11 0.229280 0.838262 0.334931
O O12 0.252358 0.805744 0.562016
O O13 0.212832 0.000000 0.212006
O O14 0.000000 0.129593 0.000000
O O15 0.297672 0.000000 0.640685
#
# Coordination Sequence:
#
# PCOD8068009 Si02
#       6
#     4   4   4   4   4   4
#     4   9  18  31  45  63  92 128 156 179 215 265
#     4   9  16  30  49  70  93 115 148 190 234 274
#     4   9  16  28  44  69  89 116 151 187 222 265
#     4   9  16  28  44  69  89 116 151 187 222 265
#     4   9  14  22  37  63  95 116 134 172 221 265
#     4   9  18  31  45  63  92 128 156 179 215 265
#
# _framework density 14.859911
#
# number of rings (size 3 to 8) (size 9 to 14) (size 15 to 20)
#    1.000    2.000    1.667    2.000    0.000    2.667 
#    0.000    2.500    0.000    6.000    0.000    4.667 
#    0.000    0.000    0.000    0.000    0.000    0.000 
#
# Total GULP energy -297317.439347 kJ/mol
# GULP energy per Si atom -12388.226639 kJ/mol
# Density = 1.482609 g / cm^3
# Si number density = 14.859911 Si / 1000 Ang^3
#
#
#
# Elastic Constant Matrix: (Units=GPa)
#
#
# Indices 1 2 3 4 5 6 
#
# 1 61.1499 45.7489 52.6492 0.0000 -15.1145 0.0000
# 2 45.7489 121.8752 42.9624 0.0000 -12.3486 0.0000
# 3 52.6492 42.9624 56.3792 0.0000 -11.6997 0.0000
# 4 0.0000 0.0000 0.0000 16.0098 0.0000 -5.0020
# 5 -15.1145 -12.3486 -11.6997 0.0000 11.5959 0.0000
# 6 0.0000 0.0000 0.0000 -5.0020 0.0000 18.3018
#
#
#
# Elastic Compliance Matrix: (Units=1/GPa)
#
#
# Indices 1 2 3 4 5 6 
#
# 1 0.101190 -0.004677 -0.081701 0.000000 0.044483 0.000000
# 2 -0.004677 0.011599 -0.004014 0.000000 0.002207 0.000000
# 3 -0.081701 -0.004014 0.093730 0.000000 -0.016197 0.000000
# 4 0.000000 0.000000 0.000000 0.068293 0.000000 0.018665
# 5 0.044483 0.002207 -0.016197 0.000000 0.130226 0.000000
# 6 0.000000 0.000000 0.000000 0.018665 0.000000 0.059741
#
#
# Mechanical properties :
#
#
# Convention : Reuss Voigt Hill
#
# Bulk Modulus (GPa) = 38.85457 58.01393 48.43425
# Shear Modulus (GPa) = 7.64361 15.71775 11.68068
#
# Velocity S-wave (km/s) = 2.27045 3.25580 2.80671
# Velocity P-wave (km/s) = 5.75128 7.29788 6.57025
#
# Compressibility (1/GPa) = 0.02573700
#
# Stress axis : x y z
#
# Youngs Moduli (GPa) = 9.88236 86.21398 10.66894
#
# Poissons Ratio (x) = 0.40320 0.87166
# Poissons Ratio (y) = 0.04622 0.04282
# Poissons Ratio (z) = 0.80740 0.34602
#
# Static dielectric constant tensor:
#      x y z
#    x 2.702520 0.000000 -0.171170 
#    y 0.000000 2.708440 0.000000 
#    z -0.171170 0.000000 2.623940 
# 
# 
# High freq. dielectric constant tensor:
#      x y z
#    x 1.557320 0.000000 -0.021940 
#    y 0.000000 1.546800 0.000000 
#    z -0.021940 0.000000 1.547350 
# 
# From -- ./inp_files/51310.got.cif
#   From: 2010.06.25/outbox.cif.g09.slc.cpg/sg10_26_cif.got.tgz:51310.got - 2010.06.27 22:07:45.
