data_PCOD8068808
_publ_section_title
;
Structure prediction by ZEFSAII (Michael W. Deem and Ramdas Pophale) SiO2 
 PCOD8068808
Probable space group: P 21/M
;
_chemical_formula_sum "Si O2"
_cell_formula_units_Z 32
_cell_length_a 21.414879
_cell_length_b 8.939868
_cell_length_c 12.812063
_cell_angle_alpha 90.000000
_cell_angle_beta 127.434466
_cell_angle_gamma 90.000000
_cell_volume 1947.660074
_symmetry_space_group_name_H-M "P 21/M"
_symmetry_group_IT_number 11
_symmetry_cell_setting 'monoclinic'
loop_
_space_group_symop_operation_xyz
x,y,z
-x,1/2+y,-z
-x,-y,-z
x,1/2-y,z
loop_
_atom_site_type_symbol
_atom_site_label
_atom_site_fract_x
_atom_site_fract_y
_atom_site_fract_z
Si Si1 0.837260 0.924722 0.448151
Si Si2 0.322352 0.426928 0.620472
Si Si3 0.417581 0.573885 0.298945
Si Si4 0.416378 0.573275 0.898400
Si Si5 0.595295 0.925058 0.504703
Si Si6 0.007903 0.573758 0.620070
Si Si7 0.682006 0.073640 0.999386
Si Si8 0.838050 0.927518 0.212491
O O1 0.825895 0.750000 0.423409
O O2 0.766595 0.985689 0.448632
O O3 0.830626 0.989715 0.323794
O O4 0.922615 0.958793 0.587742
O O5 0.332311 0.250000 0.649305
O O6 0.381522 0.511953 0.756025
O O7 0.343642 0.469954 0.523741
O O8 0.411469 0.750000 0.301311
O O9 0.377720 0.505262 0.361763
O O10 0.508144 0.521254 0.382016
O O11 0.372026 0.516630 0.150597
O O12 0.426687 0.750000 0.902841
O O13 0.500000 0.500000 0.000000
O O14 0.359684 0.526321 0.935625
O O15 0.595740 0.750000 0.526631
O O16 0.023321 0.750000 0.625683
O O17 0.080845 0.495631 0.753945
O O18 0.000000 0.500000 0.500000
O O19 0.696757 0.250000 0.009161
O O20 0.764846 0.989084 0.072646
O O21 0.841819 0.750000 0.208336
#
# Coordination Sequence:
#
# PCOD8068808 Si02
#       8
#     4   4   4   4   4   4   4   4
#     4   8  15  27  44  66  93 124 154 185 226 276
#     4  10  18  32  50  69  96 125 155 193 235 279
#     4   9  18  33  49  66  91 121 158 200 239 277
#     4  11  22  33  46  67  95 127 160 190 231 284
#     4   9  18  32  51  70  90 120 157 198 239 278
#     4   9  16  27  43  65  93 126 160 190 227 275
#     4  10  20  33  48  68  94 126 159 196 238 280
#     4  10  18  29  45  68  95 126 159 191 232 281
#
# _framework density 16.429971999999999
#
# number of rings (size 3 to 8) (size 9 to 14) (size 15 to 20)
#    0.000    2.500    1.250    2.625    0.000    3.500 
#    0.000    3.125    0.000    0.000    0.000    0.875 
#    0.000    0.000    0.000    0.000    0.000    0.000 
#
# Total GULP energy -396665.107368 kJ/mol
# GULP energy per Si atom -12395.784605 kJ/mol
# Density = 1.639258 g / cm^3
# Si number density = 16.429972 Si / 1000 Ang^3
#
#
#
# Elastic Constant Matrix: (Units=GPa)
#
#
# Indices 1 2 3 4 5 6 
#
# 1 97.7071 28.9495 32.7221 0.0000 12.6985 0.0000
# 2 28.9495 45.0739 24.1179 0.0000 6.8200 0.0000
# 3 32.7221 24.1179 53.3463 0.0000 2.7258 0.0000
# 4 0.0000 0.0000 0.0000 26.4783 0.0000 3.0954
# 5 12.6985 6.8200 2.7258 0.0000 27.8729 0.0000
# 6 0.0000 0.0000 0.0000 3.0954 0.0000 22.3026
#
#
#
# Elastic Compliance Matrix: (Units=1/GPa)
#
#
# Indices 1 2 3 4 5 6 
#
# 1 0.014505 -0.005239 -0.006288 0.000000 -0.004712 0.000000
# 2 -0.005239 0.032154 -0.011099 0.000000 -0.004396 0.000000
# 3 -0.006288 -0.011099 0.027473 0.000000 0.002894 0.000000
# 4 0.000000 0.000000 0.000000 0.038390 0.000000 -0.005328
# 5 -0.004712 -0.004396 0.002894 0.000000 0.038816 0.000000
# 6 0.000000 0.000000 0.000000 -0.005328 0.000000 0.045577
#
#
# Mechanical properties :
#
#
# Convention : Reuss Voigt Hill
#
# Bulk Modulus (GPa) = 34.62574 40.85629 37.74101
# Shear Modulus (GPa) = 19.85752 22.68659 21.27206
#
# Velocity S-wave (km/s) = 3.48029 3.71995 3.60211
# Velocity P-wave (km/s) = 6.10495 6.58571 6.34988
#
# Compressibility (1/GPa) = 0.02888025
#
# Stress axis : x y z
#
# Youngs Moduli (GPa) = 68.94155 31.10003 36.39988
#
# Poissons Ratio (x) = 0.16292 0.22889
# Poissons Ratio (y) = 0.36116 0.40401
# Poissons Ratio (z) = 0.43351 0.34518
#
# Static dielectric constant tensor:
#      x y z
#    x 3.575460 0.000000 0.339990 
#    y 0.000000 3.025080 0.000000 
#    z 0.339990 0.000000 3.088580 
# 
# 
# High freq. dielectric constant tensor:
#      x y z
#    x 1.629470 0.000000 0.021110 
#    y 0.000000 1.627690 0.000000 
#    z 0.021110 0.000000 1.606100 
# 
# From -- ./inp_files/40665.got.cif
#   From: 2010.06.25/outbox.cif.g09.slc.cpg/sg11_21_cif.got.tgz:40665.got - 2010.06.27 23:14:04.
