data_PCOD8068164
_publ_section_title
;
Structure prediction by ZEFSAII (Michael W. Deem and Ramdas Pophale) SiO2 
 PCOD8068164
Probable space group: P 21/M
;
_chemical_formula_sum "Si O2"
_cell_formula_units_Z 24
_cell_length_a 15.202939
_cell_length_b 17.893018
_cell_length_c 5.216239
_cell_angle_alpha 90.000000
_cell_angle_beta 114.732641
_cell_angle_gamma 90.000000
_cell_volume 1288.794254
_symmetry_space_group_name_H-M "P 21/M"
_symmetry_group_IT_number 11
_symmetry_cell_setting 'monoclinic'
loop_
_space_group_symop_operation_xyz
x,y,z
-x,1/2+y,-z
-x,-y,-z
x,1/2-y,z
loop_
_atom_site_type_symbol
_atom_site_label
_atom_site_fract_x
_atom_site_fract_y
_atom_site_fract_z
Si Si1 0.210446 0.905085 0.844427
Si Si2 0.685605 0.095021 0.536065
Si Si3 0.996963 0.163252 0.375513
Si Si4 0.118557 0.163412 0.027223
Si Si5 0.513103 0.950872 0.764306
Si Si6 0.281250 0.048560 0.144537
O O1 0.252064 0.875185 0.626648
O O2 0.098553 0.886160 0.730121
O O3 0.271851 0.866660 0.153089
O O4 0.222428 0.995205 0.873536
O O5 0.571279 0.113057 0.346729
O O6 0.693376 0.004147 0.578438
O O7 0.967446 0.250000 0.334351
O O8 0.061408 0.144191 0.699549
O O9 0.053865 0.139775 0.189963
O O10 0.146912 0.250000 0.076800
O O11 0.218080 0.118118 0.158215
O O12 0.622381 0.918424 0.878848
O O13 0.500000 0.000000 0.500000
O O14 0.500000 0.000000 0.000000
#
# Coordination Sequence:
#
# PCOD8068164 Si02
#       6
#     4   4   4   4   4   4
#     4  10  19  32  52  76 101 126 170 210 248 296
#     4   9  18  31  48  82 100 127 161 205 251 297
#     4  10  22  38  52  69  99 141 171 206 257 307
#     4  10  22  37  52  71 101 136 173 205 253 306
#     4  10  16  30  49  76 103 131 156 195 251 306
#     4   9  21  30  55  77 102 132 166 210 252 293
#
# _framework density 18.622057000000002
#
# number of rings (size 3 to 8) (size 9 to 14) (size 15 to 20)
#    1.000    1.333    1.667    1.000    2.333    1.333 
#    0.000    0.000    0.000    2.000    0.000    0.000 
#    0.000    0.000    0.000    0.000    0.000    0.000 
#
# Total GULP energy -297354.776088 kJ/mol
# GULP energy per Si atom -12389.782337 kJ/mol
# Density = 1.857967 g / cm^3
# Si number density = 18.622057 Si / 1000 Ang^3
#
#
#
# Elastic Constant Matrix: (Units=GPa)
#
#
# Indices 1 2 3 4 5 6 
#
# 1 90.1829 47.3989 -57.9712 0.0000 1.9007 0.0000
# 2 47.3989 30.3704 20.4677 0.0000 8.9516 0.0000
# 3 -57.9712 20.4677 -44.1686 0.0000 -24.1333 0.0000
# 4 0.0000 0.0000 0.0000 -0.5215 0.0000 3.4202
# 5 1.9007 8.9516 -24.1333 0.0000 37.9770 0.0000
# 6 0.0000 0.0000 0.0000 3.4202 0.0000 0.7312
#
#
#
# Elastic Compliance Matrix: (Units=1/GPa)
#
#
# Indices 1 2 3 4 5 6 
#
# 1 0.007572 -0.004190 -0.009065 0.000000 -0.005152 0.000000
# 2 -0.004190 0.027471 0.016072 0.000000 0.003948 0.000000
# 3 -0.009065 0.016072 -0.001093 0.000000 -0.004029 0.000000
# 4 0.000000 0.000000 0.000000 -0.060536 0.000000 0.283153
# 5 -0.005152 0.003948 -0.004029 0.000000 0.023098 0.000000
# 6 0.000000 0.000000 0.000000 0.283153 0.000000 0.043170
#
#
# Mechanical properties :
#
#
# Convention : Reuss Voigt Hill
#
# Bulk Modulus (GPa) = 25.26274 10.68617 17.97445
# Shear Modulus (GPa) = 105.83695 12.06998 58.95347
#
# Velocity S-wave (km/s) = 7.54702 2.54865 5.63264
# Velocity P-wave (km/s) = 9.46250 3.79628 7.20939
#
# Compressibility (1/GPa) = 0.03958399
#
# Stress axis : x y z
#
# Youngs Moduli (GPa) = 132.06277 36.40231 -914.79009
#
# Poissons Ratio (x) = 0.15253 -8.29266
# Poissons Ratio (y) = 0.55334 14.70267
# Poissons Ratio (z) = 1.19716 -0.58506
#
# Static dielectric constant tensor:
#      x y z
#    x 2.628080 0.000000 1.668010 
#    y 0.000000 2.848760 0.000000 
#    z 1.668010 0.000000 1.029710 
# 
# 
# High freq. dielectric constant tensor:
#      x y z
#    x 1.741430 0.000000 -0.003690 
#    y 0.000000 1.657470 0.000000 
#    z -0.003690 0.000000 1.736200 
# 
# From -- ./inp_files/6615.got.cif
#   From: 2010.06.25/outbox.cif.g09.slc.cpg/sg11_4_cif.got.tgz:6615.got - 2010.06.27 23:14:04.
