data_PCOD8068473
_publ_section_title
;
Structure prediction by ZEFSAII (Michael W. Deem and Ramdas Pophale) SiO2 
 PCOD8068473
Probable space group: P 21/M
;
_chemical_formula_sum "Si O2"
_cell_formula_units_Z 24
_cell_length_a 10.833675
_cell_length_b 15.643129
_cell_length_c 9.185613
_cell_angle_alpha 90.000000
_cell_angle_beta 123.183896
_cell_angle_gamma 90.000000
_cell_volume 1302.838480
_symmetry_space_group_name_H-M "P 21/M"
_symmetry_group_IT_number 11
_symmetry_cell_setting 'monoclinic'
loop_
_space_group_symop_operation_xyz
x,y,z
-x,1/2+y,-z
-x,-y,-z
x,1/2-y,z
loop_
_atom_site_type_symbol
_atom_site_label
_atom_site_fract_x
_atom_site_fract_y
_atom_site_fract_z
Si Si1 0.898672 0.916657 0.439039
Si Si2 0.292515 0.516644 0.481768
Si Si3 0.297065 0.152817 0.938952
Si Si4 0.810189 0.345620 0.382091
Si Si5 0.421031 0.588002 0.990344
Si Si6 0.370650 0.013721 0.218366
O O1 0.824248 0.894269 0.237553
O O2 0.016658 0.841997 0.553061
O O3 0.772361 0.932153 0.478868
O O4 0.000000 0.000000 0.500000
O O5 0.207595 0.602692 0.477565
O O6 0.462139 0.531749 0.629035
O O7 0.270272 0.502471 0.295260
O O8 0.249063 0.250000 0.945303
O O9 0.453226 0.159424 0.951670
O O10 0.311777 0.097704 0.096132
O O11 0.749533 0.250000 0.361974
O O12 0.719653 0.395525 0.200470
O O13 0.363354 0.573894 0.117779
O O14 0.500000 0.500000 0.000000
#
# Coordination Sequence:
#
# PCOD8068473 Si02
#       6
#     4   4   4   4   4   4
#     4  10  20  37  58  80 107 150 191 225 267 342
#     4  10  19  35  58  81 111 147 186 224 283 341
#     4  11  20  34  56  84 114 145 191 240 276 318
#     4  11  21  36  57  82 114 148 188 238 283 322
#     4  10  17  34  56  79 107 144 191 228 268 343
#     4  10  19  34  58  83 111 145 184 231 277 344
#
# _framework density 18.421316999999998
#
# number of rings (size 3 to 8) (size 9 to 14) (size 15 to 20)
#    0.000    1.667    5.000    4.000    0.000    0.000 
#    0.000   10.833    0.000    0.000    0.000    0.000 
#    0.000    0.000    0.000    0.000    0.000    0.000 
#
# Total GULP energy -297386.617670 kJ/mol
# GULP energy per Si atom -12391.109070 kJ/mol
# Density = 1.837939 g / cm^3
# Si number density = 18.421317 Si / 1000 Ang^3
#
#
#
# Elastic Constant Matrix: (Units=GPa)
#
#
# Indices 1 2 3 4 5 6 
#
# 1 75.4351 38.6723 58.5033 0.0000 -9.9264 0.0000
# 2 38.6723 104.4986 53.0421 0.0000 -15.8450 0.0000
# 3 58.5033 53.0421 133.4540 0.0000 -7.7199 0.0000
# 4 0.0000 0.0000 0.0000 19.9547 0.0000 4.0096
# 5 -9.9264 -15.8450 -7.7199 0.0000 37.9175 0.0000
# 6 0.0000 0.0000 0.0000 4.0096 0.0000 18.4723
#
#
#
# Elastic Compliance Matrix: (Units=1/GPa)
#
#
# Indices 1 2 3 4 5 6 
#
# 1 0.021530 -0.003592 -0.007864 0.000000 0.002534 0.000000
# 2 -0.003592 0.013248 -0.003466 0.000000 0.003890 0.000000
# 3 -0.007864 -0.003466 0.012260 0.000000 -0.001011 0.000000
# 4 0.000000 0.000000 0.000000 0.052399 0.000000 -0.011374
# 5 0.002534 0.003890 -0.001011 0.000000 0.028456 0.000000
# 6 0.000000 0.000000 0.000000 -0.011374 0.000000 0.056604
#
#
# Mechanical properties :
#
#
# Convention : Reuss Voigt Hill
#
# Bulk Modulus (GPa) = 58.15920 68.20258 63.18089
# Shear Modulus (GPa) = 22.71982 26.14690 24.43336
#
# Velocity S-wave (km/s) = 3.51571 3.77156 3.64588
# Velocity P-wave (km/s) = 6.93689 7.48801 7.21771
#
# Compressibility (1/GPa) = 0.01719418
#
# Stress axis : x y z
#
# Youngs Moduli (GPa) = 46.44608 75.48432 81.56768
#
# Poissons Ratio (x) = 0.27112 0.64147
# Poissons Ratio (y) = 0.16682 0.28270
# Poissons Ratio (z) = 0.36526 0.26162
#
# Static dielectric constant tensor:
#      x y z
#    x 3.873220 0.000000 -0.019130 
#    y 0.000000 3.573090 0.000000 
#    z -0.019130 0.000000 3.610140 
# 
# 
# High freq. dielectric constant tensor:
#      x y z
#    x 1.699680 0.000000 0.016290 
#    y 0.000000 1.699700 0.000000 
#    z 0.016290 0.000000 1.718390 
# 
# From -- ./inp_files/18710.got.cif
#   From: 2010.06.25/outbox.cif.g09.slc.cpg/sg11_10_cif.got.tgz:18710.got - 2010.06.27 23:14:04.
