data_PCOD8068811
_publ_section_title
;
Structure prediction by ZEFSAII (Michael W. Deem and Ramdas Pophale) SiO2 
 PCOD8068811
Probable space group: P 21/M
;
_chemical_formula_sum "Si O2"
_cell_formula_units_Z 32
_cell_length_a 12.655018
_cell_length_b 8.780510
_cell_length_c 21.444200
_cell_angle_alpha 90.000000
_cell_angle_beta 127.110386
_cell_angle_gamma 90.000000
_cell_volume 1900.243267
_symmetry_space_group_name_H-M "P 21/M"
_symmetry_group_IT_number 11
_symmetry_cell_setting 'monoclinic'
loop_
_space_group_symop_operation_xyz
x,y,z
-x,1/2+y,-z
-x,-y,-z
x,1/2-y,z
loop_
_atom_site_type_symbol
_atom_site_label
_atom_site_fract_x
_atom_site_fract_y
_atom_site_fract_z
Si Si1 0.872898 0.573707 0.174624
Si Si2 0.703940 0.428871 0.328735
Si Si3 0.508676 0.428308 0.825418
Si Si4 0.406241 0.571027 0.915176
Si Si5 0.937727 0.573276 0.334952
Si Si6 0.789263 0.925438 0.914709
Si Si7 0.884219 0.073785 0.496660
Si Si8 0.997045 0.425174 0.906360
O O1 0.828650 0.750000 0.155144
O O2 0.744041 0.470304 0.122413
O O3 0.950312 0.537170 0.266268
O O4 0.972950 0.533364 0.154459
O O5 0.674367 0.250000 0.312048
O O6 0.571370 0.520833 0.264747
O O7 0.822201 0.471067 0.323272
O O8 0.744703 0.477414 0.415082
O O9 0.494479 0.250000 0.830910
O O10 0.444021 0.511863 0.860814
O O11 0.661015 0.469861 0.871141
O O12 0.425292 0.750000 0.923401
O O13 0.500000 0.500000 0.000000
O O14 0.899339 0.750000 0.332240
O O15 0.083061 0.537780 0.418700
O O16 0.746529 0.750000 0.894520
O O17 0.876740 0.969089 0.885753
O O18 0.871441 0.958504 0.006669
O O19 0.894390 0.250000 0.486596
O O20 0.000000 0.000000 0.500000
O O21 0.954114 0.250000 0.899309
#
# Coordination Sequence:
#
# PCOD8068811 Si02
#       8
#     4   4   4   4   4   4   4   4
#     4  10  19  32  51  74 102 133 165 201 245 294
#     4  10  18  29  45  68  99 132 166 204 244 290
#     4  12  23  35  51  72 100 132 167 206 252 299
#     4  12  24  36  50  70 100 134 169 202 243 296
#     4   9  16  28  46  69  99 133 166 199 240 293
#     4  10  20  35  54  73  95 126 167 211 251 292
#     4   8  15  26  42  65  94 129 165 199 238 286
#     4   9  19  35  53  73  97 126 162 205 249 294
#
# _framework density 16.839950000000002
#
# number of rings (size 3 to 8) (size 9 to 14) (size 15 to 20)
#    0.000    2.000    1.250    3.750    0.000    2.500 
#    0.000    0.000    0.000    0.000    0.000    0.875 
#    0.000    0.000    0.000    0.000    0.000    0.000 
#
# Total GULP energy -396632.843201 kJ/mol
# GULP energy per Si atom -12394.776350 kJ/mol
# Density = 1.680162 g / cm^3
# Si number density = 16.839950 Si / 1000 Ang^3
#
#
#
# Elastic Constant Matrix: (Units=GPa)
#
#
# Indices 1 2 3 4 5 6 
#
# 1 51.2796 18.7331 20.9834 0.0000 -10.0784 0.0000
# 2 18.7331 77.6620 28.9546 0.0000 -1.4680 0.0000
# 3 20.9834 28.9546 87.6153 0.0000 -16.3519 0.0000
# 4 0.0000 0.0000 0.0000 23.0334 0.0000 2.8326
# 5 -10.0784 -1.4680 -16.3519 0.0000 17.6484 0.0000
# 6 0.0000 0.0000 0.0000 2.8326 0.0000 20.1600
#
#
#
# Elastic Compliance Matrix: (Units=1/GPa)
#
#
# Indices 1 2 3 4 5 6 
#
# 1 0.024420 -0.004904 -0.002057 0.000000 0.011632 0.000000
# 2 -0.004904 0.015903 -0.005268 0.000000 -0.006358 0.000000
# 3 -0.002057 -0.005268 0.016136 0.000000 0.013338 0.000000
# 4 0.000000 0.000000 0.000000 0.044179 0.000000 -0.006207
# 5 0.011632 -0.006358 0.013338 0.000000 0.075134 0.000000
# 6 0.000000 0.000000 0.000000 -0.006207 0.000000 0.050475
#
#
# Mechanical properties :
#
#
# Convention : Reuss Voigt Hill
#
# Bulk Modulus (GPa) = 31.24771 39.32211 35.28491
# Shear Modulus (GPa) = 19.12982 22.02740 20.57861
#
# Velocity S-wave (km/s) = 3.37408 3.62061 3.49952
# Velocity P-wave (km/s) = 5.81165 6.39372 6.10962
#
# Compressibility (1/GPa) = 0.03200234
#
# Stress axis : x y z
#
# Youngs Moduli (GPa) = 40.94983 62.88148 61.97178
#
# Poissons Ratio (x) = 0.30835 0.12748
# Poissons Ratio (y) = 0.20080 0.32645
# Poissons Ratio (z) = 0.08424 0.33125
#
# Static dielectric constant tensor:
#      x y z
#    x 2.865880 0.000000 -0.105730 
#    y 0.000000 3.244280 0.000000 
#    z -0.105730 0.000000 3.857170 
# 
# 
# High freq. dielectric constant tensor:
#      x y z
#    x 1.604610 0.000000 -0.004200 
#    y 0.000000 1.657780 0.000000 
#    z -0.004200 0.000000 1.664230 
# 
# From -- ./inp_files/40725.got.cif
#   From: 2010.06.25/outbox.cif.g09.slc.cpg/sg11_21_cif.got.tgz:40725.got - 2010.06.27 23:14:04.
