data_PCOD8068230
_publ_section_title
;
Structure prediction by ZEFSAII (Michael W. Deem and Ramdas Pophale) SiO2 
 PCOD8068230
Probable space group: P 21/M
;
_chemical_formula_sum "Si O2"
_cell_formula_units_Z 24
_cell_length_a 12.140648
_cell_length_b 8.875798
_cell_length_c 15.591590
_cell_angle_alpha 90.000000
_cell_angle_beta 72.347633
_cell_angle_gamma 90.000000
_cell_volume 1601.007440
_symmetry_space_group_name_H-M "P 21/M"
_symmetry_group_IT_number 11
_symmetry_cell_setting 'monoclinic'
loop_
_space_group_symop_operation_xyz
x,y,z
-x,1/2+y,-z
-x,-y,-z
x,1/2-y,z
loop_
_atom_site_type_symbol
_atom_site_label
_atom_site_fract_x
_atom_site_fract_y
_atom_site_fract_z
Si Si1 0.669639 0.575405 0.509620
Si Si2 0.084559 0.570949 0.548491
Si Si3 0.929096 0.572620 0.092839
Si Si4 0.278411 0.917695 0.788829
Si Si5 0.456577 0.075410 0.638317
Si Si6 0.941217 0.416698 0.256073
O O1 0.690129 0.750000 0.524317
O O2 0.787438 0.487938 0.498238
O O3 0.625301 0.549496 0.423960
O O4 0.576446 0.511901 0.598729
O O5 0.084894 0.750000 0.541118
O O6 0.037535 0.519841 0.653517
O O7 0.000000 0.500000 0.500000
O O8 0.926889 0.750000 0.082599
O O9 0.797403 0.507282 0.121475
O O10 0.990057 0.527231 0.169729
O O11 0.000000 0.500000 0.000000
O O12 0.310706 0.750000 0.814922
O O13 0.197971 0.904460 0.722975
O O14 0.393764 0.008681 0.737314
O O15 0.482903 0.250000 0.647271
O O16 0.996934 0.250000 0.231753
#
# Coordination Sequence:
#
# PCOD8068230 Si02
#       6
#     4   4   4   4   4   4
#     4  10  19  29  42  61  84 113 150 186 223 265
#     4  11  21  33  47  63  88 121 158 194 226 263
#     4  10  17  26  42  63  88 116 145 178 220 272
#     4   9  16  27  41  59  85 113 142 175 217 261
#     4  10  18  27  43  63  85 113 145 183 225 269
#     4   8  17  30  43  59  85 116 147 182 221 262
#
# _framework density 14.990561
#
# number of rings (size 3 to 8) (size 9 to 14) (size 15 to 20)
#    1.000    1.333    1.667    3.000    0.000    2.667 
#    0.000    0.000    0.000    0.000    0.000    0.000 
#    0.000    1.333    0.000    5.000    0.000    7.667 
#
# Total GULP energy -297374.738627 kJ/mol
# GULP energy per Si atom -12390.614109 kJ/mol
# Density = 1.495644 g / cm^3
# Si number density = 14.990561 Si / 1000 Ang^3
#
#
#
# Elastic Constant Matrix: (Units=GPa)
#
#
# Indices 1 2 3 4 5 6 
#
# 1 55.9226 32.9658 38.5024 0.0000 -6.8992 0.0000
# 2 32.9658 108.4733 57.3303 0.0000 -14.5275 0.0000
# 3 38.5024 57.3303 109.1668 0.0000 -22.8354 0.0000
# 4 0.0000 0.0000 0.0000 27.6143 0.0000 -6.1319
# 5 -6.8992 -14.5275 -22.8354 0.0000 22.3800 0.0000
# 6 0.0000 0.0000 0.0000 -6.1319 0.0000 23.3533
#
#
#
# Elastic Compliance Matrix: (Units=1/GPa)
#
#
# Indices 1 2 3 4 5 6 
#
# 1 0.024919 -0.004125 -0.007089 0.000000 -0.002229 0.000000
# 2 -0.004125 0.013503 -0.005173 0.000000 0.002215 0.000000
# 3 -0.007089 -0.005173 0.016804 0.000000 0.011603 0.000000
# 4 0.000000 0.000000 0.000000 0.038455 0.000000 0.010097
# 5 -0.002229 0.002215 0.011603 0.000000 0.057273 0.000000
# 6 0.000000 0.000000 0.000000 0.010097 0.000000 0.045472
#
#
# Mechanical properties :
#
#
# Convention : Reuss Voigt Hill
#
# Bulk Modulus (GPa) = 44.53765 59.01774 51.77769
# Shear Modulus (GPa) = 21.12517 24.32045 22.72281
#
# Velocity S-wave (km/s) = 3.75805 4.03225 3.89756
# Velocity P-wave (km/s) = 6.97176 7.81883 7.40742
#
# Compressibility (1/GPa) = 0.02245291
#
# Stress axis : x y z
#
# Youngs Moduli (GPa) = 40.12985 74.05597 59.50880
#
# Poissons Ratio (x) = 0.30549 0.42184
# Poissons Ratio (y) = 0.16554 0.30785
# Poissons Ratio (z) = 0.28447 0.38310
#
# Static dielectric constant tensor:
#      x y z
#    x 2.443800 0.000000 -0.192980 
#    y 0.000000 3.030780 0.000000 
#    z -0.192980 0.000000 2.724660 
# 
# 
# High freq. dielectric constant tensor:
#      x y z
#    x 1.525670 0.000000 -0.025910 
#    y 0.000000 1.593330 0.000000 
#    z -0.025910 0.000000 1.556700 
# 
# From -- ./inp_files/48703.got.cif
#   From: 2010.06.25/outbox.cif.g09.slc.cpg/sg11_25_cif.got.tgz:48703.got - 2010.06.27 23:14:04.
