data_PCOD8068004
_publ_section_title
;
Structure prediction by ZEFSAII (Michael W. Deem and Ramdas Pophale) SiO2 
 PCOD8068004
Probable space group: P 2/M
;
_chemical_formula_sum "Si O2"
_cell_formula_units_Z 24
_cell_length_a 20.266037
_cell_length_b 10.436772
_cell_length_c 9.684490
_cell_angle_alpha 90.000000
_cell_angle_beta 135.791071
_cell_angle_gamma 90.000000
_cell_volume 1428.292018
_symmetry_space_group_name_H-M "P 2/M"
_symmetry_group_IT_number 10
_symmetry_cell_setting 'monoclinic'
loop_
_space_group_symop_operation_xyz
x,y,z
-x,y,-z
-x,-y,-z
x,-y,z
loop_
_atom_site_type_symbol
_atom_site_label
_atom_site_fract_x
_atom_site_fract_y
_atom_site_fract_z
Si Si1 0.606535 0.000000 0.994944
Si Si2 0.608430 0.500000 0.327478
Si Si3 0.088539 0.148776 0.542101
Si Si4 0.088540 0.851224 0.223518
Si Si5 0.391570 0.500000 0.002188
Si Si6 0.606535 0.000000 0.324662
Si Si7 0.712010 0.247668 0.154317
Si Si8 0.712010 0.247668 0.481714
O O1 0.500000 0.000000 0.781257
O O2 0.656747 0.126014 0.009429
O O3 0.611917 0.000000 0.167876
O O4 0.608922 0.500000 0.163383
O O5 0.664437 0.376483 0.470105
O O6 0.500000 0.500000 0.218589
O O7 0.177606 0.236017 0.721127
O O8 0.000000 0.193395 0.500000
O O9 0.062391 0.171505 0.343586
O O10 0.114330 0.000000 0.606630
O O11 0.177606 0.763983 0.311689
O O12 0.114331 0.000000 0.236360
O O13 0.000000 0.806606 0.000000
O O14 0.335563 0.376483 0.976795
O O15 0.656747 0.873986 0.460814
O O16 0.702088 0.246337 0.303132
#
# Coordination Sequence:
#
# PCOD8068004 Si02
#       8
#     2   2   4   4   2   2   4   4
#     4   9  14  20  33  52  75 103 135 169 204 247
#     4   9  16  24  35  54  83 115 139 163 206 259
#     4   9  16  27  43  62  85 112 142 175 212 251
#     4   9  16  27  43  62  85 112 142 175 212 251
#     4   9  16  24  35  54  83 115 139 163 206 259
#     4   9  14  20  33  52  75 103 135 169 204 247
#     4   9  15  24  36  54  80 109 138 169 207 248
#     4   9  15  24  36  54  80 109 138 169 207 248
#
# _framework density 16.803287000000001
#
# number of rings (size 3 to 8) (size 9 to 14) (size 15 to 20)
#    0.000    3.000    1.667    1.000    0.000    4.000 
#    0.000    0.833    0.000    0.000    0.000    0.000 
#    0.000    8.000    0.000    0.000    0.000    0.000 
#
# Total GULP energy -297496.610564 kJ/mol
# GULP energy per Si atom -12395.692107 kJ/mol
# Density = 1.676504 g / cm^3
# Si number density = 16.803287 Si / 1000 Ang^3
#
#
#
# Elastic Constant Matrix: (Units=GPa)
#
#
# Indices 1 2 3 4 5 6 
#
# 1 48.8105 35.4431 44.1565 0.0000 28.4398 0.0000
# 2 35.4431 139.8617 72.1479 0.0000 32.7881 0.0000
# 3 44.1565 72.1479 124.4497 0.0000 39.1280 0.0000
# 4 0.0000 0.0000 0.0000 27.5549 0.0000 12.9508
# 5 28.4398 32.7881 39.1280 0.0000 27.7932 0.0000
# 6 0.0000 0.0000 0.0000 12.9508 0.0000 13.0571
#
#
#
# Elastic Compliance Matrix: (Units=1/GPa)
#
#
# Indices 1 2 3 4 5 6 
#
# 1 0.051379 -0.000196 -0.002977 0.000000 -0.048152 0.000000
# 2 -0.000196 0.010936 -0.004086 0.000000 -0.006949 0.000000
# 3 -0.002977 -0.004086 0.016124 0.000000 -0.014834 0.000000
# 4 0.000000 0.000000 0.000000 0.067983 0.000000 -0.067429
# 5 -0.048152 -0.006949 -0.014834 0.000000 0.114333 0.000000
# 6 0.000000 0.000000 0.000000 -0.067429 0.000000 0.143467
#
#
# Mechanical properties :
#
#
# Convention : Reuss Voigt Hill
#
# Bulk Modulus (GPa) = 15.64417 68.51297 42.07857
# Shear Modulus (GPa) = 11.36243 24.43935 17.90089
#
# Velocity S-wave (km/s) = 2.60321 3.81785 3.26747
# Velocity P-wave (km/s) = 4.28556 7.76509 6.27147
#
# Compressibility (1/GPa) = 0.06392157
#
# Stress axis : x y z
#
# Youngs Moduli (GPa) = 19.46330 91.43812 62.01879
#
# Poissons Ratio (x) = 0.01794 0.18462
# Poissons Ratio (y) = 0.00382 0.25339
# Poissons Ratio (z) = 0.05794 0.37359
#
# Static dielectric constant tensor:
#      x y z
#    x 2.671380 0.000000 0.378100 
#    y 0.000000 3.312530 0.000000 
#    z 0.378100 0.000000 3.094640 
# 
# 
# High freq. dielectric constant tensor:
#      x y z
#    x 1.588790 0.000000 0.044800 
#    y 0.000000 1.643080 0.000000 
#    z 0.044800 0.000000 1.638940 
# 
# From -- ./inp_files/55768.got.cif
#   From: 2010.06.25/outbox.cif.g09.slc.cpg/sg10_28_cif.got.tgz:55768.got - 2010.06.27 22:07:45.
