data_PCOD8068564
_publ_section_title
;
Structure prediction by ZEFSAII (Michael W. Deem and Ramdas Pophale) SiO2 
 PCOD8068564
Probable space group: P 21/M
;
_chemical_formula_sum "Si O2"
_cell_formula_units_Z 28
_cell_length_a 13.926997
_cell_length_b 9.018117
_cell_length_c 17.277058
_cell_angle_alpha 90.000000
_cell_angle_beta 113.860653
_cell_angle_gamma 90.000000
_cell_volume 1984.458532
_symmetry_space_group_name_H-M "P 21/M"
_symmetry_group_IT_number 11
_symmetry_cell_setting 'monoclinic'
loop_
_space_group_symop_operation_xyz
x,y,z
-x,1/2+y,-z
-x,-y,-z
x,1/2-y,z
loop_
_atom_site_type_symbol
_atom_site_label
_atom_site_fract_x
_atom_site_fract_y
_atom_site_fract_z
Si Si1 0.544463 0.923099 0.631453
Si Si2 0.521612 0.418479 0.086329
Si Si3 0.876822 0.076236 0.537312
Si Si4 0.342655 0.576560 0.465447
Si Si5 0.700854 0.417803 0.249312
Si Si6 0.918440 0.422531 0.375931
Si Si7 0.491340 0.074420 0.766426
O O1 0.562257 0.750000 0.651986
O O2 0.430554 0.956883 0.558326
O O3 0.634610 0.983715 0.604343
O O4 0.556592 0.010019 0.716051
O O5 0.479965 0.250000 0.067570
O O6 0.647833 0.421078 0.146169
O O7 0.463352 0.503411 0.138518
O O8 0.500000 0.500000 0.000000
O O9 0.884756 0.250000 0.549419
O O10 0.768335 0.018557 0.538201
O O11 0.881549 0.027850 0.449365
O O12 0.976007 0.006618 0.615178
O O13 0.340869 0.750000 0.443959
O O14 0.695132 0.250000 0.282158
O O15 0.822577 0.467721 0.287091
O O16 0.631208 0.523933 0.282381
O O17 0.944155 0.250000 0.380510
O O18 0.501561 0.250000 0.772709
#
# Coordination Sequence:
#
# PCOD8068564 Si02
#       7
#     4   4   4   4   4   4   4
#     4  10  18  29  43  59  80 108 144 180 215 253
#     4   9  17  29  44  63  88 114 139 169 210 252
#     4   9  17  27  40  57  80 108 140 180 215 245
#     4   9  18  30  42  56  80 111 143 181 219 252
#     4   8  16  28  42  58  81 112 139 169 205 247
#     4   9  16  28  42  57  79 109 143 174 211 251
#     4  10  18  27  42  62  84 111 140 170 205 252
#
# _framework density 14.109641999999999
#
# number of rings (size 3 to 8) (size 9 to 14) (size 15 to 20)
#    0.857    2.000    0.000    2.571    0.000    4.000 
#    0.000    2.857    0.000    0.000    0.000    0.000 
#    0.000    1.143    0.000    3.429    0.000    5.286 
#
# Total GULP energy -346953.077394 kJ/mol
# GULP energy per Si atom -12391.181335 kJ/mol
# Density = 1.407753 g / cm^3
# Si number density = 14.109642 Si / 1000 Ang^3
#
#
#
# Elastic Constant Matrix: (Units=GPa)
#
#
# Indices 1 2 3 4 5 6 
#
# 1 88.2034 31.3567 34.0628 0.0000 -6.3733 0.0000
# 2 31.3567 79.7462 43.7031 0.0000 -9.2411 0.0000
# 3 34.0628 43.7031 82.4957 0.0000 -8.4326 0.0000
# 4 0.0000 0.0000 0.0000 23.7930 0.0000 -2.1513
# 5 -6.3733 -9.2411 -8.4326 0.0000 17.7051 0.0000
# 6 0.0000 0.0000 0.0000 -2.1513 0.0000 22.7329
#
#
#
# Elastic Compliance Matrix: (Units=1/GPa)
#
#
# Indices 1 2 3 4 5 6 
#
# 1 0.014121 -0.003193 -0.003984 0.000000 0.001519 0.000000
# 2 -0.003193 0.018825 -0.008165 0.000000 0.004787 0.000000
# 3 -0.003984 -0.008165 0.018406 0.000000 0.003071 0.000000
# 4 0.000000 0.000000 0.000000 0.042392 0.000000 0.004012
# 5 0.001519 0.004787 0.003071 0.000000 0.060989 0.000000
# 6 0.000000 0.000000 0.000000 0.004012 0.000000 0.044369
#
#
# Mechanical properties :
#
#
# Convention : Reuss Voigt Hill
#
# Bulk Modulus (GPa) = 48.38336 52.07672 50.23004
# Shear Modulus (GPa) = 21.12613 22.26771 21.69692
#
# Velocity S-wave (km/s) = 3.87367 3.97696 3.92565
# Velocity P-wave (km/s) = 7.37377 7.62082 7.49832
#
# Compressibility (1/GPa) = 0.02066826
#
# Stress axis : x y z
#
# Youngs Moduli (GPa) = 70.81750 53.12191 54.33026
#
# Poissons Ratio (x) = 0.16963 0.21643
# Poissons Ratio (y) = 0.22614 0.44359
# Poissons Ratio (z) = 0.28211 0.43373
#
# Static dielectric constant tensor:
#      x y z
#    x 2.708800 0.000000 0.023810 
#    y 0.000000 2.771470 0.000000 
#    z 0.023810 0.000000 2.572820 
# 
# 
# High freq. dielectric constant tensor:
#      x y z
#    x 1.513930 0.000000 -0.000340 
#    y 0.000000 1.546890 0.000000 
#    z -0.000340 0.000000 1.511110 
# 
# From -- ./inp_files/51024.got.cif
#   From: 2010.06.25/outbox.cif.g09.slc.cpg/sg11_26_cif.got.tgz:51024.got - 2010.06.27 23:14:04.
