data_PCOD8068498
_publ_section_title
;
Structure prediction by ZEFSAII (Michael W. Deem and Ramdas Pophale) SiO2 
 PCOD8068498
Probable space group: P 21/M
;
_chemical_formula_sum "Si O2"
_cell_formula_units_Z 32
_cell_length_a 18.175744
_cell_length_b 9.127213
_cell_length_c 16.137444
_cell_angle_alpha 90.000000
_cell_angle_beta 124.133175
_cell_angle_gamma 90.000000
_cell_volume 2215.933657
_symmetry_space_group_name_H-M "P 21/M"
_symmetry_group_IT_number 11
_symmetry_cell_setting 'monoclinic'
loop_
_space_group_symop_operation_xyz
x,y,z
-x,1/2+y,-z
-x,-y,-z
x,1/2-y,z
loop_
_atom_site_type_symbol
_atom_site_label
_atom_site_fract_x
_atom_site_fract_y
_atom_site_fract_z
Si Si1 0.505536 0.922747 0.915642
Si Si2 0.168161 0.416875 0.982650
Si Si3 0.131602 0.922750 0.613350
Si Si4 0.676048 0.076286 0.006764
Si Si5 0.312122 0.920886 0.798040
Si Si6 0.081228 0.418188 0.092269
Si Si7 0.019693 0.578561 0.388457
Si Si8 0.026918 0.920195 0.206084
O O1 0.523817 0.750000 0.936696
O O2 0.407411 0.951596 0.813631
O O3 0.500000 0.000000 0.000000
O O4 0.585282 0.999432 0.914860
O O5 0.193204 0.250000 0.974617
O O6 0.163396 0.433123 0.080051
O O7 0.242393 0.528088 0.998409
O O8 0.074636 0.459824 0.881118
O O9 0.125735 0.750000 0.622301
O O10 0.231620 0.984490 0.691273
O O11 0.100162 0.966082 0.500911
O O12 0.069251 0.994484 0.642907
O O13 0.664126 0.250000 0.994208
O O14 0.691860 0.017170 0.110439
O O15 0.296794 0.750000 0.797717
O O16 0.055635 0.250000 0.089356
O O17 0.096977 0.491730 0.192250
O O18 0.000000 0.500000 0.000000
O O19 0.998170 0.750000 0.379791
O O20 0.046918 0.532883 0.312995
O O21 0.044799 0.750000 0.202301
#
# Coordination Sequence:
#
# PCOD8068498 Si02
#       8
#     4   4   4   4   4   4   4   4
#     4   9  16  27  40  54  75 100 128 161 194 228
#     4   9  17  27  38  54  77 102 128 158 190 225
#     4   9  16  27  41  56  77 104 134 165 194 226
#     4  10  18  26  38  57  78 101 131 160 190 230
#     4   8  15  26  39  55  74 100 132 160 186 222
#     4   9  17  28  41  57  77 102 131 162 195 231
#     4   9  17  27  39  57  80 104 131 165 198 224
#     4   9  17  28  40  56  79 106 135 163 194 231
#
# _framework density 14.440865000000001
#
# number of rings (size 3 to 8) (size 9 to 14) (size 15 to 20)
#    0.000    3.000    0.000    3.375    0.000    3.000 
#    0.000    3.125    0.000    0.000    0.000    0.000 
#    0.000    1.000    0.000    2.000    0.000    2.625 
#
# Total GULP energy -396503.522759 kJ/mol
# GULP energy per Si atom -12390.735086 kJ/mol
# Density = 1.440800 g / cm^3
# Si number density = 14.440865 Si / 1000 Ang^3
#
#
#
# Elastic Constant Matrix: (Units=GPa)
#
#
# Indices 1 2 3 4 5 6 
#
# 1 81.0466 38.5197 48.9564 0.0000 -1.0958 0.0000
# 2 38.5197 58.6673 28.5186 0.0000 0.0341 0.0000
# 3 48.9564 28.5186 79.2944 0.0000 2.9066 0.0000
# 4 0.0000 0.0000 0.0000 14.3464 0.0000 -0.8518
# 5 -1.0958 0.0341 2.9066 0.0000 25.1872 0.0000
# 6 0.0000 0.0000 0.0000 -0.8518 0.0000 27.5400
#
#
#
# Elastic Compliance Matrix: (Units=1/GPa)
#
#
# Indices 1 2 3 4 5 6 
#
# 1 0.024069 -0.010348 -0.011225 0.000000 0.002357 0.000000
# 2 -0.010348 0.025123 -0.002640 0.000000 -0.000180 0.000000
# 3 -0.011225 -0.002640 0.020596 0.000000 -0.002862 0.000000
# 4 0.000000 0.000000 0.000000 0.069832 0.000000 0.002160
# 5 0.002357 -0.000180 -0.002862 0.000000 0.040136 0.000000
# 6 0.000000 0.000000 0.000000 0.002160 0.000000 0.036378
#
#
# Mechanical properties :
#
#
# Convention : Reuss Voigt Hill
#
# Bulk Modulus (GPa) = 46.81246 50.11085 48.46166
# Shear Modulus (GPa) = 18.40395 20.28229 19.34312
#
# Velocity S-wave (km/s) = 3.57380 3.75174 3.66385
# Velocity P-wave (km/s) = 7.03679 7.31734 7.17843
#
# Compressibility (1/GPa) = 0.02136183
#
# Stress axis : x y z
#
# Youngs Moduli (GPa) = 41.54698 39.80394 48.55321
#
# Poissons Ratio (x) = 0.41190 0.54501
# Poissons Ratio (y) = 0.42993 0.12819
# Poissons Ratio (z) = 0.46636 0.10509
#
# Static dielectric constant tensor:
#      x y z
#    x 3.125270 0.000000 -0.103680 
#    y 0.000000 2.885250 0.000000 
#    z -0.103680 0.000000 3.180980 
# 
# 
# High freq. dielectric constant tensor:
#      x y z
#    x 1.538420 0.000000 0.002070 
#    y 0.000000 1.554320 0.000000 
#    z 0.002070 0.000000 1.521220 
# 
# From -- ./inp_files/60696.got.cif
#   From: 2010.06.25/outbox.cif.g09.slc.cpg/sg11_31_cif.got.tgz:60696.got - 2010.06.27 23:14:04.
