data_PCOD8068267
_publ_section_title
;
Structure prediction by ZEFSAII (Michael W. Deem and Ramdas Pophale) SiO2 
 PCOD8068267
Probable space group: P 21/M
;
_chemical_formula_sum "Si O2"
_cell_formula_units_Z 32
_cell_length_a 23.872266
_cell_length_b 8.898691
_cell_length_c 17.187188
_cell_angle_alpha 90.000000
_cell_angle_beta 146.643369
_cell_angle_gamma 90.000000
_cell_volume 2007.556467
_symmetry_space_group_name_H-M "P 21/M"
_symmetry_group_IT_number 11
_symmetry_cell_setting 'monoclinic'
loop_
_space_group_symop_operation_xyz
x,y,z
-x,1/2+y,-z
-x,-y,-z
x,1/2-y,z
loop_
_atom_site_type_symbol
_atom_site_label
_atom_site_fract_x
_atom_site_fract_y
_atom_site_fract_z
Si Si1 0.766387 0.075807 0.709042
Si Si2 0.928353 0.081804 0.020149
Si Si3 0.741942 0.420037 0.916205
Si Si4 0.894888 0.922830 0.391539
Si Si5 0.609643 0.927906 0.634045
Si Si6 0.934698 0.573994 0.603325
Si Si7 0.153335 0.427078 0.828489
Si Si8 0.117383 0.577110 0.304347
O O1 0.741080 0.250000 0.698610
O O2 0.785127 0.048874 0.638883
O O3 0.673730 0.975008 0.631931
O O4 0.870187 0.031105 0.874519
O O5 0.973794 0.250000 0.064405
O O6 0.851056 0.077337 0.002154
O O7 0.016791 0.964161 0.139369
O O8 0.701435 0.250000 0.878678
O O9 0.660831 0.513913 0.772603
O O10 0.757120 0.494891 0.018360
O O11 0.919545 0.750000 0.412342
O O12 0.862214 0.959324 0.443036
O O13 0.820948 0.966265 0.233298
O O14 0.000000 0.000000 0.500000
O O15 0.600860 0.750000 0.627169
O O16 0.500000 0.000000 0.500000
O O17 0.958998 0.750000 0.639799
O O18 0.870836 0.520850 0.604133
O O19 0.041691 0.487501 0.722271
O O20 0.155207 0.250000 0.847368
O O21 0.110418 0.750000 0.320476
#
# Coordination Sequence:
#
# PCOD8068267 Si02
#       8
#     4   4   4   4   4   4   4   4
#     4   9  20  35  47  64  89 117 151 190 229 268
#     4   9  17  29  43  59  86 120 152 187 226 266
#     4  10  19  31  47  69  94 121 152 188 229 273
#     4   8  16  27  39  56  81 116 157 195 228 264
#     4  11  22  37  56  73  91 117 147 185 230 276
#     4  10  18  28  40  57  87 126 159 191 231 268
#     4  10  17  27  43  63  86 116 158 198 229 267
#     4  11  20  28  42  63  90 121 156 194 224 263
#
# _framework density 15.939776
#
# number of rings (size 3 to 8) (size 9 to 14) (size 15 to 20)
#    0.000    2.250    1.250    3.750    0.000    4.000 
#    0.000    0.000    0.000    0.000    0.000    0.000 
#    0.000    1.000    0.000    3.000    0.000    4.625 
#
# Total GULP energy -396543.102036 kJ/mol
# GULP energy per Si atom -12391.971939 kJ/mol
# Density = 1.590350 g / cm^3
# Si number density = 15.939776 Si / 1000 Ang^3
#
#
#
# Elastic Constant Matrix: (Units=GPa)
#
#
# Indices 1 2 3 4 5 6 
#
# 1 90.8859 42.2262 51.3027 0.0000 -24.7957 0.0000
# 2 42.2262 92.3576 40.9975 0.0000 -7.3362 0.0000
# 3 51.3027 40.9975 69.0669 0.0000 -10.8914 0.0000
# 4 0.0000 0.0000 0.0000 21.9254 0.0000 -2.3515
# 5 -24.7957 -7.3362 -10.8914 0.0000 19.9759 0.0000
# 6 0.0000 0.0000 0.0000 -2.3515 0.0000 22.3952
#
#
#
# Elastic Compliance Matrix: (Units=1/GPa)
#
#
# Indices 1 2 3 4 5 6 
#
# 1 0.027995 -0.004520 -0.014106 0.000000 0.025398 0.000000
# 2 -0.004520 0.015440 -0.006344 0.000000 -0.003399 0.000000
# 3 -0.014106 -0.006344 0.028001 0.000000 -0.004572 0.000000
# 4 0.000000 0.000000 0.000000 0.046129 0.000000 0.004843
# 5 0.025398 -0.003399 -0.004572 0.000000 0.077846 0.000000
# 6 0.000000 0.000000 0.000000 0.004843 0.000000 0.045161
#
#
# Mechanical properties :
#
#
# Convention : Reuss Voigt Hill
#
# Bulk Modulus (GPa) = 46.51966 57.92922 52.22444
# Shear Modulus (GPa) = 16.79679 20.71155 18.75417
#
# Velocity S-wave (km/s) = 3.24970 3.60858 3.43383
# Velocity P-wave (km/s) = 6.58245 7.33375 6.96824
#
# Compressibility (1/GPa) = 0.02149629
#
# Stress axis : x y z
#
# Youngs Moduli (GPa) = 35.72112 64.76689 35.71286
#
# Poissons Ratio (x) = 0.29275 0.50377
# Poissons Ratio (y) = 0.16146 0.22655
# Poissons Ratio (z) = 0.50389 0.41085
#
# Static dielectric constant tensor:
#      x y z
#    x 3.293690 0.000000 -0.532980 
#    y 0.000000 3.127450 0.000000 
#    z -0.532980 0.000000 2.931280 
# 
# 
# High freq. dielectric constant tensor:
#      x y z
#    x 1.598760 0.000000 -0.039650 
#    y 0.000000 1.627520 0.000000 
#    z -0.039650 0.000000 1.571960 
# 
# From -- ./inp_files/61799.got.cif
#   From: 2010.06.25/outbox.cif.g09.slc.cpg/sg11_31_cif.got.tgz:61799.got - 2010.06.27 23:14:04.
