data_PCOD8068544
_publ_section_title
;
Structure prediction by ZEFSAII (Michael W. Deem and Ramdas Pophale) SiO2 
 PCOD8068544
Probable space group: P 21/M
;
_chemical_formula_sum "Si O2"
_cell_formula_units_Z 32
_cell_length_a 18.786340
_cell_length_b 8.884090
_cell_length_c 26.722798
_cell_angle_alpha 90.000000
_cell_angle_beta 151.990350
_cell_angle_gamma 90.000000
_cell_volume 2094.516985
_symmetry_space_group_name_H-M "P 21/M"
_symmetry_group_IT_number 11
_symmetry_cell_setting 'monoclinic'
loop_
_space_group_symop_operation_xyz
x,y,z
-x,1/2+y,-z
-x,-y,-z
x,1/2-y,z
loop_
_atom_site_type_symbol
_atom_site_label
_atom_site_fract_x
_atom_site_fract_y
_atom_site_fract_z
Si Si1 0.273476 0.925407 0.853866
Si Si2 0.240038 0.071786 0.985958
Si Si3 0.280902 0.574005 0.393718
Si Si4 0.485236 0.074589 0.065673
Si Si5 0.022647 0.571791 0.768473
Si Si6 0.881088 0.073987 0.993657
Si Si7 0.391230 0.425855 0.363866
Si Si8 0.191411 0.925838 0.163866
O O1 0.291340 0.750000 0.872949
O O2 0.336431 0.968772 0.836401
O O3 0.101750 0.968792 0.763454
O O4 0.383178 0.999816 0.961084
O O5 0.212199 0.250000 0.971509
O O6 0.413170 0.031279 0.074887
O O7 0.115031 0.000699 0.871637
O O8 0.227941 0.999743 0.033041
O O9 0.251758 0.750000 0.368879
O O10 0.143474 0.498638 0.338237
O O11 0.293217 0.501326 0.346783
O O12 0.431322 0.540530 0.519098
O O13 0.463421 0.250000 0.045144
O O14 0.011998 0.750000 0.770825
O O15 0.899470 0.250000 0.015197
O O16 0.805340 0.040658 0.893101
O O17 0.045633 0.999422 0.099391
O O18 0.355988 0.250000 0.342141
O O19 0.341129 0.499046 0.280299
O O20 0.188705 0.750000 0.173789
#
# Coordination Sequence:
#
# PCOD8068544 Si02
#       8
#     4   4   4   4   4   4   4   4
#     4   8  14  24  37  54  77 106 138 168 199 236
#     4  10  18  27  41  60  84 113 142 173 205 239
#     4  10  20  32  45  62  84 109 138 170 203 243
#     4   8  14  24  37  54  77 106 138 168 199 236
#     4  10  18  27  41  60  84 113 142 173 205 239
#     4  10  20  32  45  62  84 109 138 170 203 243
#     4  10  20  33  48  63  81 107 137 171 208 244
#     4  10  20  33  48  63  81 107 137 171 208 244
#
# _framework density 15.277984
#
# number of rings (size 3 to 8) (size 9 to 14) (size 15 to 20)
#    0.000    2.500    0.000    3.000    0.000    4.000 
#    0.000    0.000    0.000    0.000    0.000    0.000 
#    0.000    1.000    0.000    2.250    0.000    4.000 
#
# Total GULP energy -396425.607013 kJ/mol
# GULP energy per Si atom -12388.300219 kJ/mol
# Density = 1.524321 g / cm^3
# Si number density = 15.277984 Si / 1000 Ang^3
#
#
#
# Elastic Constant Matrix: (Units=GPa)
#
#
# Indices 1 2 3 4 5 6 
#
# 1 146.7811 54.7090 49.2556 0.0000 19.8558 0.0000
# 2 54.7090 77.7806 38.4824 0.0000 5.0358 0.0000
# 3 49.2556 38.4824 68.0256 0.0000 5.5935 0.0000
# 4 0.0000 0.0000 0.0000 21.8253 0.0000 -0.9694
# 5 19.8558 5.0358 5.5935 0.0000 22.7202 0.0000
# 6 0.0000 0.0000 0.0000 -0.9694 0.0000 19.0759
#
#
#
# Elastic Compliance Matrix: (Units=1/GPa)
#
#
# Indices 1 2 3 4 5 6 
#
# 1 0.011333 -0.005177 -0.004651 0.000000 -0.007612 0.000000
# 2 -0.005177 0.020269 -0.007880 0.000000 0.001972 0.000000
# 3 -0.004651 -0.007880 0.022504 0.000000 0.000271 0.000000
# 4 0.000000 0.000000 0.000000 0.045922 0.000000 0.002334
# 5 -0.007612 0.001972 0.000271 0.000000 0.050162 0.000000
# 6 0.000000 0.000000 0.000000 0.002334 0.000000 0.052541
#
#
# Mechanical properties :
#
#
# Convention : Reuss Voigt Hill
#
# Bulk Modulus (GPa) = 53.50722 64.16459 58.83591
# Shear Modulus (GPa) = 20.46017 22.73361 21.59689
#
# Velocity S-wave (km/s) = 3.66347 3.86164 3.76386
# Velocity P-wave (km/s) = 7.27964 7.87225 7.58174
#
# Compressibility (1/GPa) = 0.01868907
#
# Stress axis : x y z
#
# Youngs Moduli (GPa) = 88.23687 49.33588 44.43746
#
# Poissons Ratio (x) = 0.25543 0.20669
# Poissons Ratio (y) = 0.45684 0.35016
# Poissons Ratio (z) = 0.41041 0.38875
#
# Static dielectric constant tensor:
#      x y z
#    x 3.500910 0.000000 0.268520 
#    y 0.000000 3.033270 0.000000 
#    z 0.268520 0.000000 2.677480 
# 
# 
# High freq. dielectric constant tensor:
#      x y z
#    x 1.593290 0.000000 0.018410 
#    y 0.000000 1.604670 0.000000 
#    z 0.018410 0.000000 1.537100 
# 
# From -- ./inp_files/52947.got.cif
#   From: 2010.06.25/outbox.cif.g09.slc.cpg/sg11_27_cif.got.tgz:52947.got - 2010.06.27 23:14:04.
