data_PCOD8068221
_publ_section_title
;
Structure prediction by ZEFSAII (Michael W. Deem and Ramdas Pophale) SiO2 
 PCOD8068221
Probable space group: P 21/M
;
_chemical_formula_sum "Si O2"
_cell_formula_units_Z 28
_cell_length_a 13.542783
_cell_length_b 9.765448
_cell_length_c 14.212467
_cell_angle_alpha 90.000000
_cell_angle_beta 77.383499
_cell_angle_gamma 90.000000
_cell_volume 1834.232404
_symmetry_space_group_name_H-M "P 21/M"
_symmetry_group_IT_number 11
_symmetry_cell_setting 'monoclinic'
loop_
_space_group_symop_operation_xyz
x,y,z
-x,1/2+y,-z
-x,-y,-z
x,1/2-y,z
loop_
_atom_site_type_symbol
_atom_site_label
_atom_site_fract_x
_atom_site_fract_y
_atom_site_fract_z
Si Si1 0.768994 0.905978 0.583895
Si Si2 0.091429 0.906657 0.091132
Si Si3 0.138601 0.590014 0.294240
Si Si4 0.401808 0.090238 0.532732
Si Si5 0.077671 0.091208 0.606722
Si Si6 0.241564 0.088291 0.710251
Si Si7 0.863887 0.908076 0.085155
O O1 0.762062 0.750000 0.620577
O O2 0.673707 0.940550 0.537809
O O3 0.873379 0.930860 0.505462
O O4 0.770878 0.005367 0.674536
O O5 0.112816 0.750000 0.059400
O O6 0.136368 0.941013 0.183755
O O7 0.971365 0.936311 0.113473
O O8 0.150145 0.000964 0.004417
O O9 0.156618 0.750000 0.310461
O O10 0.034982 0.531188 0.361847
O O11 0.431602 0.250000 0.528808
O O12 0.349064 0.043860 0.642730
O O13 0.500000 0.000000 0.500000
O O14 0.066878 0.250000 0.634756
O O15 0.150558 0.020566 0.669090
O O16 0.233032 0.250000 0.697490
O O17 0.225865 0.049866 0.823149
O O18 0.854429 0.750000 0.057450
#
# Coordination Sequence:
#
# PCOD8068221 Si02
#       7
#     4   4   4   4   4   4   4
#     4   9  18  29  42  61  85 112 142 176 211 250
#     4   9  17  26  38  59  88 118 147 179 210 240
#     4  10  17  26  41  60  85 119 149 172 203 245
#     4   9  18  32  49  67  87 110 139 178 221 262
#     4   8  13  24  40  58  83 115 146 172 201 242
#     4   8  13  25  45  64  83 113 148 175 207 256
#     4   9  15  26  43  60  81 115 153 180 204 243
#
# _framework density 15.265242000000001
#
# number of rings (size 3 to 8) (size 9 to 14) (size 15 to 20)
#    0.000    3.143    1.429    2.143    0.000    1.143 
#    0.000    0.714    0.000    1.714    0.000    1.000 
#    0.000    0.000    0.000    0.000    0.000    0.000 
#
# Total GULP energy -346946.623354 kJ/mol
# GULP energy per Si atom -12390.950834 kJ/mol
# Density = 1.523050 g / cm^3
# Si number density = 15.265242 Si / 1000 Ang^3
#
#
#
# Elastic Constant Matrix: (Units=GPa)
#
#
# Indices 1 2 3 4 5 6 
#
# 1 64.9957 41.5735 55.1547 0.0000 -5.2191 0.0000
# 2 41.5735 61.1411 59.9992 0.0000 2.2043 0.0000
# 3 55.1547 59.9992 103.1790 0.0000 -1.9742 0.0000
# 4 0.0000 0.0000 0.0000 26.2825 0.0000 2.8330
# 5 -5.2191 2.2043 -1.9742 0.0000 17.7736 0.0000
# 6 0.0000 0.0000 0.0000 2.8330 0.0000 22.7811
#
#
#
# Elastic Compliance Matrix: (Units=1/GPa)
#
#
# Indices 1 2 3 4 5 6 
#
# 1 0.032891 -0.013209 -0.009706 0.000000 0.010218 0.000000
# 2 -0.013209 0.044340 -0.018943 0.000000 -0.011482 0.000000
# 3 -0.009706 -0.018943 0.025941 0.000000 0.002381 0.000000
# 4 0.000000 0.000000 0.000000 0.038565 0.000000 -0.004796
# 5 0.010218 -0.011482 0.002381 0.000000 0.060952 0.000000
# 6 0.000000 0.000000 0.000000 -0.004796 0.000000 0.044492
#
#
# Mechanical properties :
#
#
# Convention : Reuss Voigt Hill
#
# Bulk Modulus (GPa) = 51.39344 60.30784 55.85064
# Shear Modulus (GPa) = 14.81999 18.20666 16.51332
#
# Velocity S-wave (km/s) = 3.11920 3.45728 3.29258
# Velocity P-wave (km/s) = 6.83466 7.45181 7.14990
#
# Compressibility (1/GPa) = 0.01945773
#
# Stress axis : x y z
#
# Youngs Moduli (GPa) = 30.40357 22.55290 38.54879
#
# Poissons Ratio (x) = 0.29789 0.37414
# Poissons Ratio (y) = 0.40159 0.73023
# Poissons Ratio (z) = 0.29508 0.42722
#
# Static dielectric constant tensor:
#      x y z
#    x 2.648700 0.000000 -0.061570 
#    y 0.000000 2.694090 0.000000 
#    z -0.061570 0.000000 2.978620 
# 
# 
# High freq. dielectric constant tensor:
#      x y z
#    x 1.547270 0.000000 0.002730 
#    y 0.000000 1.562680 0.000000 
#    z 0.002730 0.000000 1.584510 
# 
# From -- ./inp_files/34310.got.cif
#   From: 2010.06.25/outbox.cif.g09.slc.cpg/sg11_18_cif.got.tgz:34310.got - 2010.06.27 23:14:04.
