data_PCOD8068041
_publ_section_title
;
Structure prediction by ZEFSAII (Michael W. Deem and Ramdas Pophale) SiO2 
 PCOD8068041
Probable space group: P 2/M
;
_chemical_formula_sum "Si O2"
_cell_formula_units_Z 28
_cell_length_a 29.354747
_cell_length_b 9.474451
_cell_length_c 9.251510
_cell_angle_alpha 90.000000
_cell_angle_beta 38.009683
_cell_angle_gamma 90.000000
_cell_volume 1584.458698
_symmetry_space_group_name_H-M "P 2/M"
_symmetry_group_IT_number 10
_symmetry_cell_setting 'monoclinic'
loop_
_space_group_symop_operation_xyz
x,y,z
-x,y,-z
-x,-y,-z
x,-y,z
loop_
_atom_site_type_symbol
_atom_site_label
_atom_site_fract_x
_atom_site_fract_y
_atom_site_fract_z
Si Si1 0.285731 0.663800 0.453328
Si Si2 0.285732 0.336199 0.118016
Si Si3 1.000000 0.167869 0.336855
Si Si4 0.142860 0.163737 0.474937
Si Si5 0.429586 0.331929 0.262758
Si Si6 0.857140 0.163737 0.189237
Si Si7 0.429586 0.331929 0.589312
O O1 0.270060 0.500000 0.523130
O O2 0.303711 0.690717 0.240723
O O3 0.355093 0.720604 0.371269
O O4 0.214453 0.750427 0.682908
O O5 0.270060 0.500000 0.126571
O O6 0.214453 0.249573 0.244827
O O7 0.355093 0.279394 0.853266
O O8 0.926959 0.223937 0.438799
O O9 0.000000 0.225659 0.500000
O O10 0.999999 0.000000 0.331849
O O11 0.073040 0.223936 0.073596
O O12 0.125834 0.188899 0.685415
O O13 0.157438 0.000000 0.404856
O O14 0.432359 0.500000 0.255128
O O15 0.431402 0.273263 0.421495
O O16 0.500000 0.270940 0.000000
O O17 0.842561 0.000000 0.192048
O O18 0.500000 0.270941 0.500000
O O19 0.432358 0.500000 0.583078
#
# Coordination Sequence:
#
# PCOD8068041 Si02
#       7
#     4   4   4   4   4   4   4
#     4   9  17  29  45  66  91 116 143 178 219 260
#     4   9  17  29  45  66  91 116 143 178 219 260
#     4   9  17  29  46  67  88 112 146 185 218 252
#     4   9  17  30  48  67  87 114 147 180 215 258
#     4   9  16  26  42  64  89 117 148 181 216 255
#     4   9  17  30  48  67  87 114 147 180 215 258
#     4   9  16  26  42  64  89 117 148 181 216 255
#
# _framework density 17.67165
#
# number of rings (size 3 to 8) (size 9 to 14) (size 15 to 20)
#    0.000    3.000    0.000    1.286    0.000    6.286 
#    0.000    0.714    0.000    5.143    0.000    0.000 
#    0.000    0.000    0.000    0.000    0.000    0.000 
#
# Total GULP energy -347207.982282 kJ/mol
# GULP energy per Si atom -12400.285081 kJ/mol
# Density = 1.763143 g / cm^3
# Si number density = 17.671650 Si / 1000 Ang^3
#
#
#
# Elastic Constant Matrix: (Units=GPa)
#
#
# Indices 1 2 3 4 5 6 
#
# 1 164.0978 34.9682 94.3972 0.0000 -22.7293 0.0000
# 2 34.9682 28.4441 37.7002 0.0000 -9.1337 0.0000
# 3 94.3972 37.7002 176.8719 0.0000 -19.9878 0.0000
# 4 0.0000 0.0000 0.0000 8.9757 0.0000 2.7414
# 5 -22.7293 -9.1337 -19.9878 0.0000 29.0814 0.0000
# 6 0.0000 0.0000 0.0000 2.7414 0.0000 9.7943
#
#
#
# Elastic Compliance Matrix: (Units=1/GPa)
#
#
# Indices 1 2 3 4 5 6 
#
# 1 0.009991 -0.006477 -0.003577 0.000000 0.003316 0.000000
# 2 -0.006477 0.055421 -0.007547 0.000000 0.007157 0.000000
# 3 -0.003577 -0.007547 0.009311 0.000000 0.001233 0.000000
# 4 0.000000 0.000000 0.000000 0.121826 0.000000 -0.034098
# 5 0.003316 0.007157 0.001233 0.000000 0.040073 0.000000
# 6 0.000000 0.000000 0.000000 -0.034098 0.000000 0.111644
#
#
# Mechanical properties :
#
#
# Convention : Reuss Voigt Hill
#
# Bulk Modulus (GPa) = 25.30349 78.17164 51.73756
# Shear Modulus (GPa) = 12.60580 23.06015 17.83298
#
# Velocity S-wave (km/s) = 2.67373 3.61629 3.18013
# Velocity P-wave (km/s) = 4.88688 7.85929 6.54408
#
# Compressibility (1/GPa) = 0.03952024
#
# Stress axis : x y z
#
# Youngs Moduli (GPa) = 100.08932 18.04378 107.40011
#
# Poissons Ratio (x) = 0.11687 0.38417
# Poissons Ratio (y) = 0.64826 0.81060
# Poissons Ratio (z) = 0.35802 0.13618
#
# Static dielectric constant tensor:
#      x y z
#    x 3.417610 0.000000 -0.047370 
#    y 0.000000 2.810860 0.000000 
#    z -0.047370 0.000000 3.431750 
# 
# 
# High freq. dielectric constant tensor:
#      x y z
#    x 1.691760 0.000000 -0.005740 
#    y 0.000000 1.627370 0.000000 
#    z -0.005740 0.000000 1.693470 
# 
# From -- ./inp_files/28230.got.cif
#   From: 2010.06.25/outbox.cif.g09.slc.cpg/sg10_15_cif.got.tgz:28230.got - 2010.06.27 22:07:45.
