data_PCOD8068099
_publ_section_title
;
Structure prediction by ZEFSAII (Michael W. Deem and Ramdas Pophale) SiO2 
 PCOD8068099
Probable space group: P 2/M
;
_chemical_formula_sum "Si O2"
_cell_formula_units_Z 32
_cell_length_a 12.000000
_cell_length_b 9.000000
_cell_length_c 30.000000
_cell_angle_alpha 90.000000
_cell_angle_beta 150.000000
_cell_angle_gamma 90.000000
_cell_volume 1620.000000
_symmetry_space_group_name_H-M "P 2/M"
_symmetry_group_IT_number 10
_symmetry_cell_setting 'monoclinic'
loop_
_space_group_symop_operation_xyz
x,y,z
-x,y,-z
-x,-y,-z
x,-y,z
loop_
_atom_site_type_symbol
_atom_site_label
_atom_site_fract_x
_atom_site_fract_y
_atom_site_fract_z
Si Si1 0.789655 0.169995 0.487832
Si Si2 0.642490 0.324001 0.820866
Si Si3 0.716480 0.171102 0.358677
Si Si4 0.250058 0.668623 0.918036
Si Si5 0.469340 0.174053 0.848236
Si Si6 0.914636 0.173313 0.056182
Si Si7 0.066532 0.669420 0.756692
Si Si8 0.563494 0.324616 0.571092
O O1 0.730143 0.191288 0.415953
O O2 0.619096 0.264135 0.457920
O O3 0.049438 0.219057 0.583865
O O4 0.763496 0.000000 0.493405
O O5 0.667208 0.500000 0.831254
O O6 0.487460 0.276040 0.726061
O O7 0.514923 0.264249 0.819564
O O8 0.889878 0.255339 0.903101
O O9 0.664039 0.000000 0.328220
O O10 0.262754 0.500000 0.941021
O O11 0.099229 0.767504 0.898354
O O12 0.127911 0.675567 0.829232
O O13 0.500000 0.734055 0.000000
O O14 0.236165 0.228839 0.787774
O O15 0.449903 0.000000 0.830865
O O16 0.674462 0.208132 0.951967
O O17 0.971706 0.000000 0.075688
O O18 0.080452 0.500000 0.743416
O O19 0.815321 0.733410 0.666555
O O20 0.500000 0.270742 0.500000
O O21 0.557526 0.500000 0.574148
#
# Coordination Sequence:
#
# PCOD8068099 Si02
#       8
#     4   4   4   4   4   4   4   4
#     4   9  20  40  65  89 120 158 198 247 304 362
#     4  12  26  40  62  91 121 159 204 251 304 362
#     4   9  20  41  64  90 121 155 197 251 307 359
#     4  10  20  37  62  90 123 162 203 250 302 363
#     4  11  24  42  63  88 121 160 203 251 303 361
#     4  11  24  41  62  89 124 161 202 251 302 359
#     4  10  22  40  61  88 124 165 206 248 301 364
#     4  10  23  40  59  88 128 164 202 252 298 350
#
# _framework density 19.753086
#
# number of rings (size 3 to 8) (size 9 to 14) (size 15 to 20)
#    0.000    1.750    1.250    3.000    3.500    5.500 
#    0.000    1.250    0.000    0.000    0.000    0.000 
#    0.000    0.000    0.000    0.000    0.000    0.000 
#
# Total GULP energy -396850.720569 kJ/mol
# GULP energy per Si atom -12401.585018 kJ/mol
# Density = 1.970813 g / cm^3
# Si number density = 19.753086 Si / 1000 Ang^3
#
#
#
# Elastic Constant Matrix: (Units=GPa)
#
#
# Indices 1 2 3 4 5 6 
#
# 1 117.3025 45.8722 44.8878 0.0000 25.1261 0.0000
# 2 45.8722 96.5037 39.6267 0.0000 10.0151 0.0000
# 3 44.8878 39.6267 110.9775 0.0000 22.8486 0.0000
# 4 0.0000 0.0000 0.0000 25.1719 0.0000 13.9738
# 5 25.1261 10.0151 22.8486 0.0000 34.2263 0.0000
# 6 0.0000 0.0000 0.0000 13.9738 0.0000 33.7110
#
#
#
# Elastic Compliance Matrix: (Units=1/GPa)
#
#
# Indices 1 2 3 4 5 6 
#
# 1 0.012425 -0.004358 -0.002150 0.000000 -0.006411 0.000000
# 2 -0.004358 0.013689 -0.003431 0.000000 0.001484 0.000000
# 3 -0.002150 -0.003431 0.012258 0.000000 -0.005602 0.000000
# 4 0.000000 0.000000 0.000000 0.051601 0.000000 -0.021390
# 5 -0.006411 0.001484 -0.005602 0.000000 0.037229 0.000000
# 6 0.000000 0.000000 0.000000 -0.021390 0.000000 0.038530
#
#
# Mechanical properties :
#
#
# Convention : Reuss Voigt Hill
#
# Bulk Modulus (GPa) = 54.06660 65.06191 59.56425
# Shear Modulus (GPa) = 26.07235 31.58165 28.82700
#
# Velocity S-wave (km/s) = 3.63700 4.00286 3.82431
# Velocity P-wave (km/s) = 6.71325 7.37380 7.05126
#
# Compressibility (1/GPa) = 0.01849571
#
# Stress axis : x y z
#
# Youngs Moduli (GPa) = 80.48221 73.05376 81.57615
#
# Poissons Ratio (x) = 0.31838 0.17535
# Poissons Ratio (y) = 0.35075 0.27985
# Poissons Ratio (z) = 0.17300 0.25061
#
# Static dielectric constant tensor:
#      x y z
#    x 3.678220 0.000000 0.145010 
#    y 0.000000 3.621290 0.000000 
#    z 0.145010 0.000000 3.827980 
# 
# 
# High freq. dielectric constant tensor:
#      x y z
#    x 1.782230 0.000000 0.012150 
#    y 0.000000 1.765350 0.000000 
#    z 0.012150 0.000000 1.784440 
# 
# From -- ./inp_files/95019.got.cif
#   From: 2010.06.25/outbox.ucp.g09.slc.cvg/sg10_48_cif.got.tgz:95019.got - 2010.06.28 13:37:52.
