data_PCOD8068943
_publ_section_title
;
Structure prediction by ZEFSAII (Michael W. Deem and Ramdas Pophale) SiO2 
 PCOD8068943
Probable space group: P 21/M
;
_chemical_formula_sum "Si O2"
_cell_formula_units_Z 32
_cell_length_a 11.441073
_cell_length_b 16.943682
_cell_length_c 17.426772
_cell_angle_alpha 90.000000
_cell_angle_beta 150.255779
_cell_angle_gamma 90.000000
_cell_volume 1676.046456
_symmetry_space_group_name_H-M "P 21/M"
_symmetry_group_IT_number 11
_symmetry_cell_setting 'monoclinic'
loop_
_space_group_symop_operation_xyz
x,y,z
-x,1/2+y,-z
-x,-y,-z
x,1/2-y,z
loop_
_atom_site_type_symbol
_atom_site_label
_atom_site_fract_x
_atom_site_fract_y
_atom_site_fract_z
Si Si1 0.053920 0.157747 0.299274
Si Si2 0.230494 0.908874 0.999483
Si Si3 0.329041 0.836648 0.813171
Si Si4 0.180780 0.158549 0.157621
Si Si5 0.533561 0.590437 0.541622
Si Si6 0.624164 0.837327 0.136264
Si Si7 0.278072 0.411720 0.049713
Si Si8 0.019471 0.656530 0.255547
O O1 0.021444 0.250000 0.257369
O O2 0.329302 0.133586 0.451028
O O3 0.919632 0.099745 0.163917
O O4 0.945446 0.142609 0.323047
O O5 0.100819 0.854947 0.989927
O O6 0.230065 0.996536 0.032594
O O7 0.502368 0.885492 0.136386
O O8 0.346967 0.750000 0.784710
O O9 0.450246 0.834441 0.965066
O O10 0.454576 0.899075 0.829110
O O11 0.244345 0.250000 0.207739
O O12 0.319804 0.102649 0.296611
O O13 0.253716 0.133873 0.114839
O O14 0.500000 0.500000 0.500000
O O15 0.285792 0.631082 0.415238
O O16 0.668934 0.750000 0.194417
O O17 0.870825 0.874479 0.245534
O O18 0.087211 0.377174 0.883059
O O19 0.993261 0.750000 0.237094
#
# Coordination Sequence:
#
# PCOD8068943 Si02
#       8
#     4   4   4   4   4   4   4   4
#     4   9  17  32  53  76 104 142 184 217 253 309
#     4  10  18  29  49  76 105 133 171 219 261 298
#     4   8  15  29  49  74 103 137 177 215 252 303
#     4  11  22  38  56  74 104 147 183 207 251 323
#     4  11  22  35  54  78 103 133 175 224 267 305
#     4   8  15  28  48  74 102 133 172 216 259 303
#     4  11  21  32  52  83 112 135 167 215 268 313
#     4  10  19  33  53  78 106 135 171 216 264 310
#
# _framework density 19.092549999999999
#
# number of rings (size 3 to 8) (size 9 to 14) (size 15 to 20)
#    0.000    2.250    0.000    7.500    0.000    5.500 
#    0.000    0.000    0.000    4.500    0.000    3.500 
#    0.000    0.000    0.000    0.000    0.000    0.000 
#
# Total GULP energy -396488.649046 kJ/mol
# GULP energy per Si atom -12390.270283 kJ/mol
# Density = 1.904909 g / cm^3
# Si number density = 19.092550 Si / 1000 Ang^3
#
#
#
# Elastic Constant Matrix: (Units=GPa)
#
#
# Indices 1 2 3 4 5 6 
#
# 1 135.7104 33.8806 40.9436 0.0000 32.0957 0.0000
# 2 33.8806 87.9993 13.2889 0.0000 4.9399 0.0000
# 3 40.9436 13.2889 43.2050 0.0000 26.1408 0.0000
# 4 0.0000 0.0000 0.0000 20.8159 0.0000 0.6808
# 5 32.0957 4.9399 26.1408 0.0000 34.8053 0.0000
# 6 0.0000 0.0000 0.0000 0.6808 0.0000 27.4850
#
#
#
# Elastic Compliance Matrix: (Units=1/GPa)
#
#
# Indices 1 2 3 4 5 6 
#
# 1 0.011360 -0.003062 -0.006871 0.000000 -0.004881 0.000000
# 2 -0.003062 0.012815 -0.003020 0.000000 0.003273 0.000000
# 3 -0.006871 -0.003020 0.048559 0.000000 -0.029706 0.000000
# 4 0.000000 0.000000 0.000000 0.048079 0.000000 -0.001191
# 5 -0.004881 0.003273 -0.029706 0.000000 0.055079 0.000000
# 6 0.000000 0.000000 0.000000 -0.001191 0.000000 0.036413
#
#
# Mechanical properties :
#
#
# Convention : Reuss Voigt Hill
#
# Bulk Modulus (GPa) = 21.35463 49.23786 35.29625
# Shear Modulus (GPa) = 19.69896 28.54136 24.12016
#
# Velocity S-wave (km/s) = 3.21559 3.87058 3.55819
# Velocity P-wave (km/s) = 4.99958 6.76906 5.95046
#
# Compressibility (1/GPa) = 0.04682826
#
# Stress axis : x y z
#
# Youngs Moduli (GPa) = 88.02513 78.03313 20.59361
#
# Poissons Ratio (x) = 0.23896 0.14149
# Poissons Ratio (y) = 0.26956 0.06219
# Poissons Ratio (z) = 0.60478 0.23567
#
# Static dielectric constant tensor:
#      x y z
#    x 3.998340 0.000000 0.624300 
#    y 0.000000 2.790620 0.000000 
#    z 0.624300 0.000000 3.193390 
# 
# 
# High freq. dielectric constant tensor:
#      x y z
#    x 1.759460 0.000000 0.043090 
#    y 0.000000 1.743770 0.000000 
#    z 0.043090 0.000000 1.685490 
# 
# From -- ./inp_files/59475.got.cif
#   From: 2010.06.25/outbox.cif.g09.slc.cpg/sg11_30_cif.got.tgz:59475.got - 2010.06.27 23:14:04.
