data_PCOD8068942
_publ_section_title
;
Structure prediction by ZEFSAII (Michael W. Deem and Ramdas Pophale) SiO2 
 PCOD8068942
Probable space group: P 21/M
;
_chemical_formula_sum "Si O2"
_cell_formula_units_Z 28
_cell_length_a 9.596672
_cell_length_b 8.693307
_cell_length_c 28.447194
_cell_angle_alpha 90.000000
_cell_angle_beta 38.847220
_cell_angle_gamma 90.000000
_cell_volume 1488.616828
_symmetry_space_group_name_H-M "P 21/M"
_symmetry_group_IT_number 11
_symmetry_cell_setting 'monoclinic'
loop_
_space_group_symop_operation_xyz
x,y,z
-x,1/2+y,-z
-x,-y,-z
x,1/2-y,z
loop_
_atom_site_type_symbol
_atom_site_label
_atom_site_fract_x
_atom_site_fract_y
_atom_site_fract_z
Si Si1 0.758288 0.930271 0.805040
Si Si2 0.567409 0.431998 0.763544
Si Si3 0.697369 0.429902 0.548932
Si Si4 0.826938 0.068719 0.187524
Si Si5 0.110902 0.931542 0.402757
Si Si6 0.293173 0.932200 0.081610
Si Si7 0.743867 0.427066 0.316279
O O1 0.729405 0.750000 0.823645
O O2 0.015681 0.967023 0.725259
O O3 0.606187 0.981432 0.802058
O O4 0.681934 0.025159 0.870331
O O5 0.580279 0.250000 0.767591
O O6 0.324442 0.478733 0.809732
O O7 0.752217 0.491742 0.678012
O O8 0.723258 0.250000 0.537843
O O9 0.767754 0.492248 0.581969
O O10 0.442013 0.476292 0.607016
O O11 0.859411 0.504227 0.467270
O O12 0.819123 0.250000 0.179890
O O13 0.742307 0.027685 0.261869
O O14 0.076181 0.008786 0.115648
O O15 0.103331 0.750000 0.404619
O O16 0.280867 0.750000 0.079008
O O17 0.500000 0.000000 0.000000
O O18 0.684238 0.250000 0.338746
#
# Coordination Sequence:
#
# PCOD8068942 Si02
#       7
#     4   4   4   4   4   4   4
#     4  10  22  39  58  84 115 150 187 227 279 336
#     4  11  21  36  56  83 115 150 189 233 284 335
#     4  10  18  29  49  76 104 139 187 238 283 328
#     4  10  20  35  58  86 114 149 188 229 274 329
#     4   9  19  32  47  73 109 144 183 233 283 332
#     4  11  22  40  65  91 118 148 183 225 270 325
#     4   9  18  33  53  76 106 143 186 233 279 329
#
# _framework density 18.809405999999999
#
# number of rings (size 3 to 8) (size 9 to 14) (size 15 to 20)
#    0.000    2.000    1.429    3.857    0.000    4.571 
#    0.000    1.429    0.000    0.000    0.000    0.000 
#    0.000    0.000    0.000    0.000    0.000    0.000 
#
# Total GULP energy -347274.262950 kJ/mol
# GULP energy per Si atom -12402.652248 kJ/mol
# Density = 1.876660 g / cm^3
# Si number density = 18.809406 Si / 1000 Ang^3
#
#
#
# Elastic Constant Matrix: (Units=GPa)
#
#
# Indices 1 2 3 4 5 6 
#
# 1 85.3108 3.8509 29.7437 0.0000 -6.0964 0.0000
# 2 3.8509 42.9497 20.1477 0.0000 -1.6694 0.0000
# 3 29.7437 20.1477 112.5904 0.0000 -18.6548 0.0000
# 4 0.0000 0.0000 0.0000 32.1032 0.0000 -4.2271
# 5 -6.0964 -1.6694 -18.6548 0.0000 21.0742 0.0000
# 6 0.0000 0.0000 0.0000 -4.2271 0.0000 29.4229
#
#
#
# Elastic Compliance Matrix: (Units=1/GPa)
#
#
# Indices 1 2 3 4 5 6 
#
# 1 0.012932 0.000450 -0.003364 0.000000 0.000798 0.000000
# 2 0.000450 0.025533 -0.005076 0.000000 -0.002340 0.000000
# 3 -0.003364 -0.005076 0.012247 0.000000 0.009466 0.000000
# 4 0.000000 0.000000 0.000000 0.031750 0.000000 0.004561
# 5 0.000798 -0.002340 0.009466 0.000000 0.055876 0.000000
# 6 0.000000 0.000000 0.000000 0.004561 0.000000 0.034642
#
#
# Mechanical properties :
#
#
# Convention : Reuss Voigt Hill
#
# Bulk Modulus (GPa) = 28.79262 38.70396 33.74829
# Shear Modulus (GPa) = 24.93299 28.99398 26.96348
#
# Velocity S-wave (km/s) = 3.64477 3.93040 3.79028
# Velocity P-wave (km/s) = 5.74920 6.42020 6.09394
#
# Compressibility (1/GPa) = 0.03473112
#
# Stress axis : x y z
#
# Youngs Moduli (GPa) = 77.32989 39.16545 81.65145
#
# Poissons Ratio (x) = -0.01762 0.27471
# Poissons Ratio (y) = -0.03478 0.41443
# Poissons Ratio (z) = 0.26017 0.19879
#
# Static dielectric constant tensor:
#      x y z
#    x 3.352210 0.000000 -0.136680 
#    y 0.000000 3.414220 0.000000 
#    z -0.136680 0.000000 3.445640 
# 
# 
# High freq. dielectric constant tensor:
#      x y z
#    x 1.713450 0.000000 -0.016210 
#    y 0.000000 1.738440 0.000000 
#    z -0.016210 0.000000 1.724860 
# 
# From -- ./inp_files/29039.got.cif
#   From: 2010.06.25/outbox.cif.g09.slc.cpg/sg11_15_cif.got.tgz:29039.got - 2010.06.27 23:14:04.
