data_PCOD8068096
_publ_section_title
;
Structure prediction by ZEFSAII (Michael W. Deem and Ramdas Pophale) SiO2 
 PCOD8068096
Probable space group: P 2/M
;
_chemical_formula_sum "Si O2"
_cell_formula_units_Z 32
_cell_length_a 27.000000
_cell_length_b 9.000000
_cell_length_c 21.000000
_cell_angle_alpha 90.000000
_cell_angle_beta 160.000000
_cell_angle_gamma 90.000000
_cell_volume 1745.328791
_symmetry_space_group_name_H-M "P 2/M"
_symmetry_group_IT_number 10
_symmetry_cell_setting 'monoclinic'
loop_
_space_group_symop_operation_xyz
x,y,z
-x,y,-z
-x,-y,-z
x,-y,z
loop_
_atom_site_type_symbol
_atom_site_label
_atom_site_fract_x
_atom_site_fract_y
_atom_site_fract_z
Si Si1 0.588129 0.324939 0.402151
Si Si2 0.875540 0.825882 0.541920
Si Si3 0.041762 0.675431 0.623318
Si Si4 0.883806 0.321834 0.689843
Si Si5 0.462185 0.171567 0.884391
Si Si6 0.080495 0.824048 0.031605
Si Si7 0.614486 0.675105 0.581161
Si Si8 0.376773 0.674781 0.037271
O O1 0.594700 0.500000 0.409642
O O2 0.734588 0.266479 0.543829
O O3 0.566668 0.274973 0.450760
O O4 0.453600 0.268633 0.195765
O O5 0.912217 0.745274 0.653434
O O6 0.706191 0.802794 0.328948
O O7 0.952457 0.756637 0.571906
O O8 0.917432 0.000000 0.596978
O O9 0.014117 0.500000 0.597071
O O10 0.000000 0.725697 0.500000
O O11 0.208668 0.718873 0.836744
O O12 0.889784 0.500000 0.691551
O O13 0.011104 0.263094 0.888747
O O14 0.551195 0.255813 0.937969
O O15 0.507136 0.000000 0.934284
O O16 0.500000 0.235592 0.000000
O O17 0.245161 0.770906 0.233762
O O18 0.073476 0.000000 0.010781
O O19 0.000000 0.781153 0.000000
O O20 0.500000 0.710602 0.500000
O O21 0.650684 0.500000 0.625025
O O22 0.397409 0.500000 0.055321
#
# Coordination Sequence:
#
# PCOD8068096 Si02
#       8
#     4   4   4   4   4   4   4   4
#     4   9  18  34  57  85 114 147 190 243 296 346
#     4  11  23  38  58  86 120 153 194 245 297 357
#     4  10  22  39  59  86 121 160 202 247 296 353
#     4  11  21  37  63  87 116 154 197 249 299 351
#     4  10  21  36  55  82 114 148 190 239 291 351
#     4  11  23  38  59  88 122 159 199 243 297 356
#     4  10  21  38  61  89 120 156 203 249 294 352
#     4  10  20  36  58  83 113 151 198 245 290 347
#
# _framework density 18.334654
#
# number of rings (size 3 to 8) (size 9 to 14) (size 15 to 20)
#    0.000    1.750    2.500    1.875    0.000    3.250 
#    0.000    3.125    0.000    0.000    0.000    0.000 
#    0.000    0.000    0.000    0.000    0.000    0.000 
#
# Total GULP energy -396637.158186 kJ/mol
# GULP energy per Si atom -12394.911193 kJ/mol
# Density = 1.829292 g / cm^3
# Si number density = 18.334654 Si / 1000 Ang^3
#
#
#
# Elastic Constant Matrix: (Units=GPa)
#
#
# Indices 1 2 3 4 5 6 
#
# 1 200.2983 51.1595 61.4522 0.0000 -11.6244 0.0000
# 2 51.1595 76.3859 34.3585 0.0000 -0.1506 0.0000
# 3 61.4522 34.3585 117.9485 0.0000 -13.7319 0.0000
# 4 0.0000 0.0000 0.0000 25.5811 0.0000 0.0592
# 5 -11.6244 -0.1506 -13.7319 0.0000 47.0081 0.0000
# 6 0.0000 0.0000 0.0000 0.0592 0.0000 35.5990
#
#
#
# Elastic Compliance Matrix: (Units=1/GPa)
#
#
# Indices 1 2 3 4 5 6 
#
# 1 0.006635 -0.003379 -0.002363 0.000000 0.000940 0.000000
# 2 -0.003379 0.016861 -0.003356 0.000000 -0.001762 0.000000
# 3 -0.002363 -0.003356 0.010992 0.000000 0.002616 0.000000
# 4 0.000000 0.000000 0.000000 0.039091 0.000000 -0.000065
# 5 0.000940 -0.001762 0.002616 0.000000 0.022264 0.000000
# 6 0.000000 0.000000 0.000000 -0.000065 0.000000 0.028091
#
#
# Mechanical properties :
#
#
# Convention : Reuss Voigt Hill
#
# Bulk Modulus (GPa) = 61.38489 76.50810 68.94649
# Shear Modulus (GPa) = 33.88433 38.14848 36.01641
#
# Velocity S-wave (km/s) = 4.30362 4.56639 4.43695
# Velocity P-wave (km/s) = 7.63203 8.34397 7.99593
#
# Compressibility (1/GPa) = 0.01629065
#
# Stress axis : x y z
#
# Youngs Moduli (GPa) = 150.71092 59.30963 90.97738
#
# Poissons Ratio (x) = 0.20041 0.21501
# Poissons Ratio (y) = 0.50926 0.30533
# Poissons Ratio (z) = 0.35617 0.19905
#
# Static dielectric constant tensor:
#      x y z
#    x 3.980560 0.000000 -0.183130 
#    y 0.000000 3.374750 0.000000 
#    z -0.183130 0.000000 3.646470 
# 
# 
# High freq. dielectric constant tensor:
#      x y z
#    x 1.750060 0.000000 -0.011490 
#    y 0.000000 1.707440 0.000000 
#    z -0.011490 0.000000 1.726200 
# 
# From -- ./inp_files/87043.got.cif
#   From: 2010.06.25/outbox.ucp.g09.slc.cvg/sg10_44_cif.got.tgz:87043.got - 2010.06.28 13:37:52.
