data_PCOD8068672
_publ_section_title
;
Structure prediction by ZEFSAII (Michael W. Deem and Ramdas Pophale) SiO2 
 PCOD8068672
Probable space group: P 21/M
;
_chemical_formula_sum "Si O2"
_cell_formula_units_Z 28
_cell_length_a 16.357749
_cell_length_b 9.074437
_cell_length_c 18.208320
_cell_angle_alpha 90.000000
_cell_angle_beta 142.096377
_cell_angle_gamma 90.000000
_cell_volume 1660.421824
_symmetry_space_group_name_H-M "P 21/M"
_symmetry_group_IT_number 11
_symmetry_cell_setting 'monoclinic'
loop_
_space_group_symop_operation_xyz
x,y,z
-x,1/2+y,-z
-x,-y,-z
x,1/2-y,z
loop_
_atom_site_type_symbol
_atom_site_label
_atom_site_fract_x
_atom_site_fract_y
_atom_site_fract_z
Si Si1 0.307127 0.915941 0.399882
Si Si2 0.488828 0.923206 0.257755
Si Si3 0.395568 0.083638 0.328982
Si Si4 0.457393 0.078773 0.083167
Si Si5 0.301793 0.579451 0.851212
Si Si6 0.223331 0.077830 0.478356
Si Si7 0.016516 0.923009 0.588830
O O1 0.256469 0.750000 0.351129
O O2 0.457638 0.916973 0.533983
O O3 0.296024 0.004403 0.315527
O O4 0.214456 0.992763 0.394939
O O5 0.463270 0.750000 0.239790
O O6 0.642277 0.961887 0.382822
O O7 0.393440 0.995421 0.251147
O O8 0.449016 0.988609 0.151762
O O9 0.345736 0.250000 0.280296
O O10 0.434213 0.250000 0.083273
O O11 0.600271 0.049708 0.147523
O O12 0.341041 0.021222 0.947719
O O13 0.307826 0.750000 0.879543
O O14 0.155568 0.530258 0.723352
O O15 0.216336 0.250000 0.455333
O O16 0.100644 0.023903 0.440564
O O17 0.009312 0.750000 0.569906
O O18 0.000000 0.000000 0.500000
#
# Coordination Sequence:
#
# PCOD8068672 Si02
#       7
#     4   4   4   4   4   4   4
#     4   9  16  26  41  62  89 121 154 187 225 269
#     4  10  18  28  44  67  95 123 152 187 228 273
#     4   9  16  26  41  62  90 121 152 187 226 269
#     4  10  19  31  48  68  90 118 154 194 233 272
#     4   9  19  34  49  66  90 121 155 191 231 272
#     4   9  18  30  44  65  93 125 156 186 225 273
#     4  10  20  33  49  69  94 123 155 190 228 271
#
# _framework density 16.863185000000001
#
# number of rings (size 3 to 8) (size 9 to 14) (size 15 to 20)
#    0.000    2.571    0.000    2.571    0.000    5.714 
#    0.000    0.000    0.000    0.000    0.000    1.000 
#    0.000    0.000    0.000    0.000    0.000    0.000 
#
# Total GULP energy -347253.705296 kJ/mol
# GULP energy per Si atom -12401.918046 kJ/mol
# Density = 1.682480 g / cm^3
# Si number density = 16.863185 Si / 1000 Ang^3
#
#
#
# Elastic Constant Matrix: (Units=GPa)
#
#
# Indices 1 2 3 4 5 6 
#
# 1 146.6793 69.9315 59.1485 0.0000 -19.9962 0.0000
# 2 69.9315 101.6396 43.2085 0.0000 -17.0305 0.0000
# 3 59.1485 43.2085 67.7646 0.0000 -9.9021 0.0000
# 4 0.0000 0.0000 0.0000 23.1861 0.0000 -9.5450
# 5 -19.9962 -17.0305 -9.9021 0.0000 23.7751 0.0000
# 6 0.0000 0.0000 0.0000 -9.5450 0.0000 33.8685
#
#
#
# Elastic Compliance Matrix: (Units=1/GPa)
#
#
# Indices 1 2 3 4 5 6 
#
# 1 0.012676 -0.004922 -0.007330 0.000000 0.004083 0.000000
# 2 -0.004922 0.016415 -0.005385 0.000000 0.005376 0.000000
# 3 -0.007330 -0.005385 0.024623 0.000000 0.000233 0.000000
# 4 0.000000 0.000000 0.000000 0.048790 0.000000 0.013750
# 5 0.004083 0.005376 0.000233 0.000000 0.049443 0.000000
# 6 0.000000 0.000000 0.000000 0.013750 0.000000 0.033401
#
#
# Mechanical properties :
#
#
# Convention : Reuss Voigt Hill
#
# Bulk Modulus (GPa) = 54.22775 73.40672 63.81724
# Shear Modulus (GPa) = 22.04888 25.75227 23.90057
#
# Velocity S-wave (km/s) = 3.61988 3.91209 3.76882
# Velocity P-wave (km/s) = 7.04973 8.00195 7.54088
#
# Compressibility (1/GPa) = 0.01844074
#
# Stress axis : x y z
#
# Youngs Moduli (GPa) = 78.88615 60.91965 40.61298
#
# Poissons Ratio (x) = 0.29982 0.29769
# Poissons Ratio (y) = 0.38825 0.21871
# Poissons Ratio (z) = 0.57823 0.32807
#
# Static dielectric constant tensor:
#      x y z
#    x 3.250450 0.000000 -0.076850 
#    y 0.000000 3.282090 0.000000 
#    z -0.076850 0.000000 2.839130 
# 
# 
# High freq. dielectric constant tensor:
#      x y z
#    x 1.653920 0.000000 -0.019020 
#    y 0.000000 1.661600 0.000000 
#    z -0.019020 0.000000 1.607940 
# 
# From -- ./inp_files/37421.got.cif
#   From: 2010.06.25/outbox.cif.g09.slc.cpg/sg11_19_cif.got.tgz:37421.got - 2010.06.27 23:14:04.
