data_PCOD8068135
_publ_section_title
;
Structure prediction by ZEFSAII (Michael W. Deem and Ramdas Pophale) SiO2 
 PCOD8068135
Probable space group: P 21/M
;
_chemical_formula_sum "Si O2"
_cell_formula_units_Z 32
_cell_length_a 24.369568
_cell_length_b 8.636621
_cell_length_c 12.216691
_cell_angle_alpha 90.000000
_cell_angle_beta 49.728762
_cell_angle_gamma 90.000000
_cell_volume 1961.849950
_symmetry_space_group_name_H-M "P 21/M"
_symmetry_group_IT_number 11
_symmetry_cell_setting 'monoclinic'
loop_
_space_group_symop_operation_xyz
x,y,z
-x,1/2+y,-z
-x,-y,-z
x,1/2-y,z
loop_
_atom_site_type_symbol
_atom_site_label
_atom_site_fract_x
_atom_site_fract_y
_atom_site_fract_z
Si Si1 0.118077 0.433493 0.666483
Si Si2 0.538155 0.067283 0.555802
Si Si3 0.019560 0.066867 0.093504
Si Si4 0.258122 0.934003 0.420336
Si Si5 0.305679 0.931664 0.596315
Si Si6 0.508162 0.431389 0.161939
Si Si7 0.389409 0.067759 0.139100
Si Si8 0.844818 0.432089 0.145716
O O1 0.118189 0.250000 0.662918
O O2 0.037194 0.497073 0.744946
O O3 0.177199 0.500633 0.505439
O O4 0.138380 0.497361 0.758482
O O5 0.539339 0.250000 0.544048
O O6 0.619591 0.997596 0.456018
O O7 0.500000 0.000000 0.500000
O O8 0.494977 0.019446 0.719342
O O9 0.015269 0.250000 0.100047
O O10 0.000000 0.000000 0.000000
O O11 0.101938 0.011069 0.012518
O O12 0.256756 0.750000 0.415019
O O13 0.287344 0.997448 0.499472
O O14 0.309379 0.003378 0.260794
O O15 0.315252 0.750000 0.570027
O O16 0.240044 0.967812 0.766176
O O17 0.511676 0.250000 0.179630
O O18 0.438968 0.477932 0.178764
O O19 0.580359 0.485628 0.008120
O O20 0.388357 0.250000 0.121081
O O21 0.859865 0.250000 0.129466
#
# Coordination Sequence:
#
# PCOD8068135 Si02
#       8
#     4   4   4   4   4   4   4   4
#     4  10  17  24  34  52  77 107 140 176 210 253
#     4  11  21  35  50  67  89 118 151 190 233 275
#     4  10  16  23  33  49  72 103 137 173 210 252
#     4  10  17  28  43  61  84 114 145 181 221 262
#     4   8  16  28  43  59  80 108 143 181 222 265
#     4  10  20  33  48  68  89 115 148 184 226 272
#     4  10  19  30  47  69  91 115 145 185 226 268
#     4   9  15  25  38  53  71 101 138 177 216 255
#
# _framework density 16.311136000000001
#
# number of rings (size 3 to 8) (size 9 to 14) (size 15 to 20)
#    0.000    2.250    1.250    6.375    0.000    1.000 
#    0.000    1.875    0.000    0.000    0.000    0.000 
#    0.000    0.000    0.000    1.125    0.000   14.375 
#
# Total GULP energy -396581.648838 kJ/mol
# GULP energy per Si atom -12393.176526 kJ/mol
# Density = 1.627401 g / cm^3
# Si number density = 16.311136 Si / 1000 Ang^3
#
#
#
# Elastic Constant Matrix: (Units=GPa)
#
#
# Indices 1 2 3 4 5 6 
#
# 1 46.3742 17.7113 49.2790 0.0000 -15.3433 0.0000
# 2 17.7113 79.6605 29.8117 0.0000 -10.2509 0.0000
# 3 49.2790 29.8117 112.9323 0.0000 -36.0763 0.0000
# 4 0.0000 0.0000 0.0000 29.5541 0.0000 -6.9237
# 5 -15.3433 -10.2509 -36.0763 0.0000 32.2506 0.0000
# 6 0.0000 0.0000 0.0000 -6.9237 0.0000 17.1207
#
#
#
# Elastic Compliance Matrix: (Units=1/GPa)
#
#
# Indices 1 2 3 4 5 6 
#
# 1 0.040728 -0.002677 -0.017346 0.000000 -0.000878 0.000000
# 2 -0.002677 0.014110 -0.002382 0.000000 0.000547 0.000000
# 3 -0.017346 -0.002382 0.022056 0.000000 0.015663 0.000000
# 4 0.000000 0.000000 0.000000 0.037378 0.000000 0.015116
# 5 -0.000878 0.000547 0.015663 0.000000 0.048285 0.000000
# 6 0.000000 0.000000 0.000000 0.015116 0.000000 0.064522
#
#
# Mechanical properties :
#
#
# Convention : Reuss Voigt Hill
#
# Bulk Modulus (GPa) = 31.16705 48.06343 39.61524
# Shear Modulus (GPa) = 17.69391 25.26273 21.47832
#
# Velocity S-wave (km/s) = 3.29717 3.93975 3.63270
# Velocity P-wave (km/s) = 5.80038 7.08704 6.47574
#
# Compressibility (1/GPa) = 0.03208517
#
# Stress axis : x y z
#
# Youngs Moduli (GPa) = 24.55315 70.87049 45.33842
#
# Poissons Ratio (x) = 0.18971 0.78643
# Poissons Ratio (y) = 0.06572 0.10800
# Poissons Ratio (z) = 0.42589 0.16882
#
# Static dielectric constant tensor:
#      x y z
#    x 3.392150 0.000000 -1.028630 
#    y 0.000000 3.144360 0.000000 
#    z -1.028630 0.000000 3.672750 
# 
# 
# High freq. dielectric constant tensor:
#      x y z
#    x 1.568320 0.000000 -0.057450 
#    y 0.000000 1.638470 0.000000 
#    z -0.057450 0.000000 1.623330 
# 
# From -- ./inp_files/44392.got.cif
#   From: 2010.06.25/outbox.cif.g09.slc.cpg/sg11_23_cif.got.tgz:44392.got - 2010.06.27 23:14:04.
