data_PCOD8068180
_publ_section_title
;
Structure prediction by ZEFSAII (Michael W. Deem and Ramdas Pophale) SiO2 
 PCOD8068180
Probable space group: P 21/M
;
_chemical_formula_sum "Si O2"
_cell_formula_units_Z 24
_cell_length_a 9.138296
_cell_length_b 14.347407
_cell_length_c 14.020409
_cell_angle_alpha 90.000000
_cell_angle_beta 43.388256
_cell_angle_gamma 90.000000
_cell_volume 1262.749554
_symmetry_space_group_name_H-M "P 21/M"
_symmetry_group_IT_number 11
_symmetry_cell_setting 'monoclinic'
loop_
_space_group_symop_operation_xyz
x,y,z
-x,1/2+y,-z
-x,-y,-z
x,1/2-y,z
loop_
_atom_site_type_symbol
_atom_site_label
_atom_site_fract_x
_atom_site_fract_y
_atom_site_fract_z
Si Si1 0.089644 0.852729 0.789886
Si Si2 0.105735 0.974628 0.049565
Si Si3 0.586856 0.089998 0.511888
Si Si4 0.854159 0.853310 0.316511
Si Si5 0.197011 0.461889 0.464997
Si Si6 0.427008 0.857094 0.799248
O O1 0.987687 0.750000 0.845272
O O2 0.203389 0.865641 0.634649
O O3 0.275354 0.866808 0.779604
O O4 0.895526 0.926838 0.892638
O O5 0.970039 0.900407 0.172785
O O6 0.336868 0.927117 0.923903
O O7 0.000000 0.000000 0.000000
O O8 0.390872 0.161382 0.602206
O O9 0.500000 0.000000 0.500000
O O10 0.656574 0.053225 0.583256
O O11 0.947596 0.750000 0.290676
O O12 0.881857 0.914064 0.399260
O O13 0.333230 0.387337 0.340061
O O14 0.000000 0.500000 0.500000
O O15 0.432101 0.750000 0.833054
#
# Coordination Sequence:
#
# PCOD8068180 Si02
#       6
#     4   4   4   4   4   4
#     4  10  17  30  55  84 115 149 187 237 293 345
#     4  10  19  33  55  89 120 147 189 246 297 352
#     4  10  16  32  56  85 111 146 193 245 295 339
#     4  11  20  36  63  88 115 155 202 245 294 358
#     4  11  22  37  58  84 119 159 195 247 299 350
#     4  10  19  34  56  84 117 152 189 233 296 360
#
# _framework density 19.006143999999999
#
# number of rings (size 3 to 8) (size 9 to 14) (size 15 to 20)
#    0.000    1.667    6.667    2.500    0.000    0.667 
#    0.000    4.167    0.000    2.000    0.000    0.000 
#    0.000    0.000    0.000    0.000    0.000    0.000 
#
# Total GULP energy -297350.003681 kJ/mol
# GULP energy per Si atom -12389.583487 kJ/mol
# Density = 1.896289 g / cm^3
# Si number density = 19.006144 Si / 1000 Ang^3
#
#
#
# Elastic Constant Matrix: (Units=GPa)
#
#
# Indices 1 2 3 4 5 6 
#
# 1 73.1632 32.2399 22.7710 0.0000 -5.2082 0.0000
# 2 32.2399 135.2046 51.1121 0.0000 -2.0666 0.0000
# 3 22.7710 51.1121 112.7180 0.0000 8.8505 0.0000
# 4 0.0000 0.0000 0.0000 30.5870 0.0000 -1.6997
# 5 -5.2082 -2.0666 8.8505 0.0000 16.0983 0.0000
# 6 0.0000 0.0000 0.0000 -1.6997 0.0000 16.4213
#
#
#
# Elastic Compliance Matrix: (Units=1/GPa)
#
#
# Indices 1 2 3 4 5 6 
#
# 1 0.016119 -0.002816 -0.002467 0.000000 0.006210 0.000000
# 2 -0.002816 0.009614 -0.003988 0.000000 0.002516 0.000000
# 3 -0.002467 -0.003988 0.011790 0.000000 -0.007792 0.000000
# 4 0.000000 0.000000 0.000000 0.032883 0.000000 0.003403
# 5 0.006210 0.002516 -0.007792 0.000000 0.068734 0.000000
# 6 0.000000 0.000000 0.000000 0.003403 0.000000 0.061249
#
#
# Mechanical properties :
#
#
# Convention : Reuss Voigt Hill
#
# Bulk Modulus (GPa) = 52.68462 59.25908 55.97185
# Shear Modulus (GPa) = 22.19684 26.95217 24.57451
#
# Velocity S-wave (km/s) = 3.42113 3.76982 3.59970
# Velocity P-wave (km/s) = 6.58676 7.08487 6.84035
#
# Compressibility (1/GPa) = 0.01898087
#
# Stress axis : x y z
#
# Youngs Moduli (GPa) = 62.03925 104.01760 84.81601
#
# Poissons Ratio (x) = 0.29292 0.20923
# Poissons Ratio (y) = 0.17471 0.33825
# Poissons Ratio (z) = 0.15304 0.41482
#
# Static dielectric constant tensor:
#      x y z
#    x 3.016090 0.000000 0.028290 
#    y 0.000000 4.234700 0.000000 
#    z 0.028290 0.000000 3.728390 
# 
# 
# High freq. dielectric constant tensor:
#      x y z
#    x 1.675820 0.000000 0.014030 
#    y 0.000000 1.754560 0.000000 
#    z 0.014030 0.000000 1.738140 
# 
# From -- ./inp_files/12624.got.cif
#   From: 2010.06.25/outbox.cif.g09.slc.cpg/sg11_7_cif.got.tgz:12624.got - 2010.06.27 23:14:04.
