data_PCOD8068091
_publ_section_title
;
Structure prediction by ZEFSAII (Michael W. Deem and Ramdas Pophale) SiO2 
 PCOD8068091
Probable space group: P 2/M
;
_chemical_formula_sum "Si O2"
_cell_formula_units_Z 32
_cell_length_a 12.000000
_cell_length_b 9.000000
_cell_length_c 30.000000
_cell_angle_alpha 90.000000
_cell_angle_beta 30.000000
_cell_angle_gamma 90.000000
_cell_volume 1620.000000
_symmetry_space_group_name_H-M "P 2/M"
_symmetry_group_IT_number 10
_symmetry_cell_setting 'monoclinic'
loop_
_space_group_symop_operation_xyz
x,y,z
-x,y,-z
-x,-y,-z
x,-y,z
loop_
_atom_site_type_symbol
_atom_site_label
_atom_site_fract_x
_atom_site_fract_y
_atom_site_fract_z
Si Si1 0.809530 0.665689 0.256019
Si Si2 0.453140 0.174897 0.130511
Si Si3 0.352023 0.173894 0.606602
Si Si4 0.791390 0.326249 0.429604
Si Si5 0.304526 0.329981 0.097787
Si Si6 0.051925 0.175304 0.030425
Si Si7 0.712568 0.670748 0.725441
Si Si8 0.337523 0.667314 0.788304
O O1 0.776732 0.500000 0.288226
O O2 0.750333 0.796756 0.309970
O O3 0.646272 0.682552 0.270460
O O4 0.070070 0.686530 0.153167
O O5 0.294155 0.246338 0.148536
O O6 0.375681 0.221851 0.206038
O O7 0.430413 0.000000 0.134567
O O8 0.707637 0.230610 0.035504
O O9 0.602771 0.236550 0.521234
O O10 0.200909 0.261092 0.623109
O O11 0.352701 0.000000 0.595219
O O12 0.731021 0.500000 0.448790
O O13 0.025795 0.298742 0.373311
O O14 0.363043 0.500000 0.087937
O O15 0.500000 0.258271 0.000000
O O16 0.857703 0.222835 0.130433
O O17 0.054575 0.000000 0.026192
O O18 0.000000 0.245213 0.000000
O O19 0.677383 0.500000 0.752382
O O20 0.575738 0.708362 0.727710
O O21 0.269072 0.500000 0.825546
#
# Coordination Sequence:
#
# PCOD8068091 Si02
#       8
#     4   4   4   4   4   4   4   4
#     4  10  21  38  58  80 111 149 185 224 276 328
#     4  11  22  34  53  79 110 146 183 225 276 328
#     4  11  22  37  59  87 113 142 183 224 266 326
#     4  10  20  37  61  86 114 143 173 221 282 330
#     4  10  21  37  56  79 109 144 184 229 274 320
#     4  10  20  35  51  74 110 149 185 223 273 327
#     4  10  21  36  56  84 111 138 179 228 275 324
#     4  10  21  37  58  82 107 143 191 234 269 318
#
# _framework density 19.753086
#
# number of rings (size 3 to 8) (size 9 to 14) (size 15 to 20)
#    0.000    1.750    1.250    4.125    0.000    7.500 
#    0.000    0.625    0.000    3.750    0.000    0.000 
#    0.000    0.000    0.000    0.000    0.000    0.000 
#
# Total GULP energy -396780.851380 kJ/mol
# GULP energy per Si atom -12399.401606 kJ/mol
# Density = 1.970813 g / cm^3
# Si number density = 19.753086 Si / 1000 Ang^3
#
#
#
# Elastic Constant Matrix: (Units=GPa)
#
#
# Indices 1 2 3 4 5 6 
#
# 1 119.0977 29.3675 39.6542 0.0000 -18.3490 0.0000
# 2 29.3675 57.6694 22.2555 0.0000 -4.5830 0.0000
# 3 39.6542 22.2555 67.7475 0.0000 -9.4507 0.0000
# 4 0.0000 0.0000 0.0000 24.5146 0.0000 0.2374
# 5 -18.3490 -4.5830 -9.4507 0.0000 30.8286 0.0000
# 6 0.0000 0.0000 0.0000 0.2374 0.0000 13.1505
#
#
#
# Elastic Compliance Matrix: (Units=1/GPa)
#
#
# Indices 1 2 3 4 5 6 
#
# 1 0.011707 -0.003655 -0.004968 0.000000 0.004902 0.000000
# 2 -0.003655 0.021028 -0.004843 0.000000 -0.000534 0.000000
# 3 -0.004968 -0.004843 0.019584 0.000000 0.002327 0.000000
# 4 0.000000 0.000000 0.000000 0.040799 0.000000 -0.000737
# 5 0.004902 -0.000534 0.002327 0.000000 0.035989 0.000000
# 6 0.000000 0.000000 0.000000 -0.000737 0.000000 0.076056
#
#
# Mechanical properties :
#
#
# Convention : Reuss Voigt Hill
#
# Bulk Modulus (GPa) = 39.38973 47.45211 43.42092
# Shear Modulus (GPa) = 20.78506 23.91456 22.34981
#
# Velocity S-wave (km/s) = 3.24735 3.48325 3.36737
# Velocity P-wave (km/s) = 5.83478 6.34446 6.09495
#
# Compressibility (1/GPa) = 0.02538733
#
# Stress axis : x y z
#
# Youngs Moduli (GPa) = 85.41903 47.55560 51.06185
#
# Poissons Ratio (x) = 0.17381 0.25367
# Poissons Ratio (y) = 0.31220 0.24729
# Poissons Ratio (z) = 0.42436 0.23031
#
# Static dielectric constant tensor:
#      x y z
#    x 3.721980 0.000000 -0.277440 
#    y 0.000000 3.494040 0.000000 
#    z -0.277440 0.000000 3.392390 
# 
# 
# High freq. dielectric constant tensor:
#      x y z
#    x 1.770750 0.000000 -0.019390 
#    y 0.000000 1.764240 0.000000 
#    z -0.019390 0.000000 1.751690 
# 
# From -- ./inp_files/94974.got.cif
#   From: 2010.06.25/outbox.ucp.g09.slc.cvg/sg10_48_cif.got.tgz:94974.got - 2010.06.28 13:37:52.
