data_PCOD8068898
_publ_section_title
;
Structure prediction by ZEFSAII (Michael W. Deem and Ramdas Pophale) SiO2 
 PCOD8068898
Probable space group: P 21/M
;
_chemical_formula_sum "Si O2"
_cell_formula_units_Z 32
_cell_length_a 16.866584
_cell_length_b 9.663407
_cell_length_c 25.241010
_cell_angle_alpha 90.000000
_cell_angle_beta 154.523724
_cell_angle_gamma 90.000000
_cell_volume 1769.584365
_symmetry_space_group_name_H-M "P 21/M"
_symmetry_group_IT_number 11
_symmetry_cell_setting 'monoclinic'
loop_
_space_group_symop_operation_xyz
x,y,z
-x,1/2+y,-z
-x,-y,-z
x,1/2-y,z
loop_
_atom_site_type_symbol
_atom_site_label
_atom_site_fract_x
_atom_site_fract_y
_atom_site_fract_z
Si Si1 0.864380 0.087112 0.240770
Si Si2 0.386517 0.591223 0.811841
Si Si3 0.229752 0.906331 0.088598
Si Si4 0.642221 0.593988 0.302185
Si Si5 0.022298 0.910492 0.135595
Si Si6 0.636548 0.412065 0.719781
Si Si7 0.249133 0.414661 0.517214
Si Si8 0.791130 0.590641 0.094791
O O1 0.870128 0.250000 0.231921
O O2 0.717117 0.051001 0.196892
O O3 0.063819 0.028061 0.378644
O O4 0.800430 0.008976 0.150062
O O5 0.349586 0.750000 0.774856
O O6 0.300488 0.501885 0.712409
O O7 0.602886 0.561692 0.949677
O O8 0.151134 0.750000 0.041656
O O9 0.423236 0.909798 0.175324
O O10 0.254964 0.967571 0.163074
O O11 0.087997 0.003397 0.973633
O O12 0.709639 0.750000 0.331067
O O13 0.736826 0.536586 0.413107
O O14 0.981268 0.750000 0.099137
O O15 0.961857 0.946667 0.158876
O O16 0.241380 0.943998 0.259103
O O17 0.612126 0.250000 0.714771
O O18 0.427327 0.472194 0.591433
O O19 0.243437 0.250000 0.513352
O O20 0.799748 0.750000 0.118872
#
# Coordination Sequence:
#
# PCOD8068898 Si02
#       8
#     4   4   4   4   4   4   4   4
#     4  10  21  36  55  72  91 130 175 210 243 284
#     4  10  20  34  51  75 103 127 159 204 253 297
#     4   9  16  27  45  72 102 129 159 195 233 285
#     4   9  17  30  51  76 102 132 160 195 244 295
#     4  10  18  29  48  72  98 131 161 192 244 296
#     4   8  15  28  48  72  98 129 162 193 236 293
#     4   8  16  33  52  73 101 129 165 206 239 282
#     4  10  21  35  49  70 103 131 159 205 252 294
#
# _framework density 18.083342999999999
#
# number of rings (size 3 to 8) (size 9 to 14) (size 15 to 20)
#    0.000    2.750    1.250    2.250    0.000    2.000 
#    0.000    1.250    0.000    1.500    0.000    0.000 
#    0.000    0.000    0.000    0.000    0.000    0.000 
#
# Total GULP energy -396636.237792 kJ/mol
# GULP energy per Si atom -12394.882431 kJ/mol
# Density = 1.804218 g / cm^3
# Si number density = 18.083343 Si / 1000 Ang^3
#
#
#
# Elastic Constant Matrix: (Units=GPa)
#
#
# Indices 1 2 3 4 5 6 
#
# 1 88.5991 25.8126 15.6367 0.0000 17.6993 0.0000
# 2 25.8126 33.8389 12.9764 0.0000 5.4629 0.0000
# 3 15.6367 12.9764 39.5181 0.0000 7.4867 0.0000
# 4 0.0000 0.0000 0.0000 15.2743 0.0000 -2.2663
# 5 17.6993 5.4629 7.4867 0.0000 14.4689 0.0000
# 6 0.0000 0.0000 0.0000 -2.2663 0.0000 16.5558
#
#
#
# Elastic Compliance Matrix: (Units=1/GPa)
#
#
# Indices 1 2 3 4 5 6 
#
# 1 0.018042 -0.010796 -0.000205 0.000000 -0.017888 0.000000
# 2 -0.010796 0.041079 -0.009735 0.000000 0.002734 0.000000
# 3 -0.000205 -0.009735 0.030864 0.000000 -0.012044 0.000000
# 4 0.000000 0.000000 0.000000 0.066827 0.000000 0.009148
# 5 -0.017888 0.002734 -0.012044 0.000000 0.096194 0.000000
# 6 0.000000 0.000000 0.000000 0.009148 0.000000 0.061654
#
#
# Mechanical properties :
#
#
# Convention : Reuss Voigt Hill
#
# Bulk Modulus (GPa) = 20.61310 30.08972 25.35141
# Shear Modulus (GPa) = 13.42993 16.42852 14.92922
#
# Velocity S-wave (km/s) = 2.72815 3.01739 2.87641
# Velocity P-wave (km/s) = 4.62033 5.36797 5.00812
#
# Compressibility (1/GPa) = 0.04851284
#
# Stress axis : x y z
#
# Youngs Moduli (GPa) = 55.42726 24.34339 32.39986
#
# Poissons Ratio (x) = 0.26281 0.00664
# Poissons Ratio (y) = 0.59839 0.31542
# Poissons Ratio (z) = 0.01136 0.23698
#
# Static dielectric constant tensor:
#      x y z
#    x 3.426110 0.000000 0.260070 
#    y 0.000000 3.088180 0.000000 
#    z 0.260070 0.000000 3.406170 
# 
# 
# High freq. dielectric constant tensor:
#      x y z
#    x 1.705320 0.000000 0.014950 
#    y 0.000000 1.670550 0.000000 
#    z 0.014950 0.000000 1.687190 
# 
# From -- ./inp_files/64626.got.cif
#   From: 2010.06.25/outbox.cif.g09.slc.cpg/sg11_33_cif.got.tgz:64626.got - 2010.06.27 23:14:04.
