data_PCOD8068577
_publ_section_title
;
Structure prediction by ZEFSAII (Michael W. Deem and Ramdas Pophale) SiO2 
 PCOD8068577
Probable space group: P 21/M
;
_chemical_formula_sum "Si O2"
_cell_formula_units_Z 32
_cell_length_a 14.852860
_cell_length_b 8.998058
_cell_length_c 14.125357
_cell_angle_alpha 90.000000
_cell_angle_beta 90.229533
_cell_angle_gamma 90.000000
_cell_volume 1887.794966
_symmetry_space_group_name_H-M "P 21/M"
_symmetry_group_IT_number 11
_symmetry_cell_setting 'monoclinic'
loop_
_space_group_symop_operation_xyz
x,y,z
-x,1/2+y,-z
-x,-y,-z
x,1/2-y,z
loop_
_atom_site_type_symbol
_atom_site_label
_atom_site_fract_x
_atom_site_fract_y
_atom_site_fract_z
Si Si1 0.338417 0.580420 0.208001
Si Si2 0.676477 0.422974 0.186056
Si Si3 0.369789 0.085396 0.526812
Si Si4 0.207288 0.083219 0.672820
Si Si5 0.403389 0.574800 0.011952
Si Si6 0.252094 0.574385 0.386943
Si Si7 0.527878 0.579881 0.301067
Si Si8 0.905492 0.427014 0.477987
O O1 0.315413 0.750000 0.185876
O O2 0.354146 0.505022 0.105559
O O3 0.259111 0.515489 0.277014
O O4 0.425223 0.562167 0.274024
O O5 0.692413 0.250000 0.205048
O O6 0.763474 0.510315 0.226760
O O7 0.584121 0.470611 0.235090
O O8 0.664106 0.457889 0.074693
O O9 0.380046 0.250000 0.482879
O O10 0.293794 0.084316 0.607303
O O11 0.459250 0.036770 0.586750
O O12 0.341640 0.974952 0.443907
O O13 0.170732 0.250000 0.690522
O O14 0.129016 0.985889 0.623423
O O15 0.421985 0.750000 0.024597
O O16 0.500000 0.500000 0.000000
O O17 0.255288 0.750000 0.386586
O O18 0.161655 0.518203 0.438055
O O19 0.561495 0.750000 0.285757
O O20 0.913432 0.250000 0.474544
O O21 0.000000 0.500000 0.500000
#
# Coordination Sequence:
#
# PCOD8068577 Si02
#       8
#     4   4   4   4   4   4   4   4
#     4   9  17  30  45  61  86 122 161 196 233 274
#     4  10  18  27  42  67  94 120 157 203 239 268
#     4   8  15  26  40  60  86 117 152 186 222 266
#     4   9  17  30  48  69  94 125 154 185 231 281
#     4  10  19  30  46  65  89 123 164 206 241 272
#     4   9  18  31  46  64  88 120 154 187 224 274
#     4   9  16  27  43  59  82 122 161 191 230 274
#     4  10  19  32  52  77 101 122 148 185 227 281
#
# _framework density 16.950993
#
# number of rings (size 3 to 8) (size 9 to 14) (size 15 to 20)
#    0.000    2.750    1.250    1.875    0.000    4.500 
#    0.000    1.250    0.000    0.000    0.000    0.875 
#    0.000    0.000    0.000    0.000    0.000    0.000 
#
# Total GULP energy -396467.596863 kJ/mol
# GULP energy per Si atom -12389.612402 kJ/mol
# Density = 1.691241 g / cm^3
# Si number density = 16.950993 Si / 1000 Ang^3
#
#
#
# Elastic Constant Matrix: (Units=GPa)
#
#
# Indices 1 2 3 4 5 6 
#
# 1 36.6399 23.6917 46.1509 0.0000 2.1025 0.0000
# 2 23.6917 54.5760 38.3489 0.0000 4.7053 0.0000
# 3 46.1509 38.3489 133.5756 0.0000 -4.1926 0.0000
# 4 0.0000 0.0000 0.0000 20.7963 0.0000 7.0181
# 5 2.1025 4.7053 -4.1926 0.0000 20.3411 0.0000
# 6 0.0000 0.0000 0.0000 7.0181 0.0000 18.5467
#
#
#
# Elastic Compliance Matrix: (Units=1/GPa)
#
#
# Indices 1 2 3 4 5 6 
#
# 1 0.055689 -0.012517 -0.015839 0.000000 -0.006126 0.000000
# 2 -0.012517 0.026715 -0.003521 0.000000 -0.005612 0.000000
# 3 -0.015839 -0.003521 0.014138 0.000000 0.005366 0.000000
# 4 0.000000 0.000000 0.000000 0.055125 0.000000 -0.020859
# 5 -0.006126 -0.005612 0.005366 0.000000 0.052199 0.000000
# 6 0.000000 0.000000 0.000000 -0.020859 0.000000 0.061811
#
#
# Mechanical properties :
#
#
# Convention : Reuss Voigt Hill
#
# Bulk Modulus (GPa) = 30.49996 49.01939 39.75967
# Shear Modulus (GPa) = 14.69033 19.71017 17.20025
#
# Velocity S-wave (km/s) = 2.94706 3.41365 3.18890
# Velocity P-wave (km/s) = 5.44172 6.67221 6.08813
#
# Compressibility (1/GPa) = 0.03278693
#
# Stress axis : x y z
#
# Youngs Moduli (GPa) = 17.95697 37.43254 70.72981
#
# Poissons Ratio (x) = 0.46854 1.12032
# Poissons Ratio (y) = 0.22476 0.24905
# Poissons Ratio (z) = 0.28443 0.13181
#
# Static dielectric constant tensor:
#      x y z
#    x 2.973110 0.000000 0.003680 
#    y 0.000000 3.160840 0.000000 
#    z 0.003680 0.000000 3.529370 
# 
# 
# High freq. dielectric constant tensor:
#      x y z
#    x 1.612170 0.000000 0.006710 
#    y 0.000000 1.645590 0.000000 
#    z 0.006710 0.000000 1.656570 
# 
# From -- ./inp_files/51367.got.cif
#   From: 2010.06.25/outbox.cif.g09.slc.cpg/sg11_26_cif.got.tgz:51367.got - 2010.06.27 23:14:04.
