data_PCOD8068918
_publ_section_title
;
Structure prediction by ZEFSAII (Michael W. Deem and Ramdas Pophale) SiO2 
 PCOD8068918
Probable space group: P 21/M
;
_chemical_formula_sum "Si O2"
_cell_formula_units_Z 28
_cell_length_a 10.195414
_cell_length_b 8.611064
_cell_length_c 29.870821
_cell_angle_alpha 90.000000
_cell_angle_beta 33.997895
_cell_angle_gamma 90.000000
_cell_volume 1466.381042
_symmetry_space_group_name_H-M "P 21/M"
_symmetry_group_IT_number 11
_symmetry_cell_setting 'monoclinic'
loop_
_space_group_symop_operation_xyz
x,y,z
-x,1/2+y,-z
-x,-y,-z
x,1/2-y,z
loop_
_atom_site_type_symbol
_atom_site_label
_atom_site_fract_x
_atom_site_fract_y
_atom_site_fract_z
Si Si1 0.115443 0.569770 0.159652
Si Si2 0.045444 0.432549 0.345636
Si Si3 0.789538 0.929561 0.333540
Si Si4 0.534963 0.567265 0.192011
Si Si5 0.577482 0.565996 0.079312
Si Si6 0.008301 0.568135 0.898176
Si Si7 0.373064 0.066428 0.492434
O O1 0.141873 0.750000 0.138384
O O2 0.348833 0.505840 0.117802
O O3 0.079186 0.463739 0.126926
O O4 0.894203 0.546067 0.254808
O O5 0.022269 0.250000 0.355707
O O6 0.312170 0.484261 0.277079
O O7 0.954906 0.486537 0.322800
O O8 0.894739 0.507040 0.429278
O O9 0.783236 0.750000 0.349064
O O10 0.524284 0.999097 0.408015
O O11 0.488897 0.750000 0.204433
O O12 0.576545 0.501077 0.130135
O O13 0.757366 0.528451 0.159473
O O14 0.570079 0.750000 0.082522
O O15 0.810958 0.506902 0.988499
O O16 0.056597 0.750000 0.890889
O O17 0.379763 0.250000 0.489055
O O18 0.500000 0.000000 0.500000
#
# Coordination Sequence:
#
# PCOD8068918 Si02
#       7
#     4   4   4   4   4   4   4
#     4  10  20  37  58  80 110 150 188 225 275 331
#     4  11  20  32  52  81 112 141 181 227 276 326
#     4  10  18  32  54  79 110 145 184 226 272 324
#     4  11  21  38  59  79 109 149 187 228 278 332
#     4   9  19  37  59  81 108 142 187 235 278 326
#     4  11  23  37  54  82 114 145 185 233 279 328
#     4  10  18  29  48  77 112 144 178 221 273 324
#
# _framework density 19.094628
#
# number of rings (size 3 to 8) (size 9 to 14) (size 15 to 20)
#    0.000    1.714    1.429    6.429    0.000    1.143 
#    0.000    2.857    0.000    0.857    0.000    0.000 
#    0.000    0.000    0.000    0.000    0.000    0.000 
#
# Total GULP energy -347241.385598 kJ/mol
# GULP energy per Si atom -12401.478057 kJ/mol
# Density = 1.905117 g / cm^3
# Si number density = 19.094628 Si / 1000 Ang^3
#
#
#
# Elastic Constant Matrix: (Units=GPa)
#
#
# Indices 1 2 3 4 5 6 
#
# 1 60.7754 9.2643 17.0293 0.0000 -14.3630 0.0000
# 2 9.2643 93.4754 39.8647 0.0000 -6.4149 0.0000
# 3 17.0293 39.8647 121.7094 0.0000 -28.5425 0.0000
# 4 0.0000 0.0000 0.0000 28.9134 0.0000 -1.3170
# 5 -14.3630 -6.4149 -28.5425 0.0000 18.8993 0.0000
# 6 0.0000 0.0000 0.0000 -1.3170 0.0000 25.0021
#
#
#
# Elastic Compliance Matrix: (Units=1/GPa)
#
#
# Indices 1 2 3 4 5 6 
#
# 1 0.020365 -0.001579 0.001814 0.000000 0.017680 0.000000
# 2 -0.001579 0.012667 -0.004957 0.000000 -0.004386 0.000000
# 3 0.001814 -0.004957 0.014733 0.000000 0.021946 0.000000
# 4 0.000000 0.000000 0.000000 0.034669 0.000000 0.001826
# 5 0.017680 -0.004386 0.021946 0.000000 0.098004 0.000000
# 6 0.000000 0.000000 0.000000 0.001826 0.000000 0.040093
#
#
# Mechanical properties :
#
#
# Convention : Reuss Voigt Hill
#
# Bulk Modulus (GPa) = 26.09469 45.36410 35.72939
# Shear Modulus (GPa) = 20.59752 28.54975 24.57364
#
# Velocity S-wave (km/s) = 3.28793 3.87094 3.59129
# Velocity P-wave (km/s) = 5.30185 6.61725 5.99573
#
# Compressibility (1/GPa) = 0.03832197
#
# Stress axis : x y z
#
# Youngs Moduli (GPa) = 49.10438 78.94282 67.87628
#
# Poissons Ratio (x) = 0.12462 -0.12313
# Poissons Ratio (y) = 0.07752 0.33645
# Poissons Ratio (z) = -0.08907 0.39130
#
# Static dielectric constant tensor:
#      x y z
#    x 3.121890 0.000000 -0.104430 
#    y 0.000000 3.396960 0.000000 
#    z -0.104430 0.000000 4.162310 
# 
# 
# High freq. dielectric constant tensor:
#      x y z
#    x 1.702030 0.000000 -0.011080 
#    y 0.000000 1.741490 0.000000 
#    z -0.011080 0.000000 1.765720 
# 
# From -- ./inp_files/70854.got.cif
#   From: 2010.06.25/outbox.cif.g09.slc.cpg/sg11_36_cif.got.tgz:70854.got - 2010.06.27 23:14:04.
