data_PCOD8068053
_publ_section_title
;
Structure prediction by ZEFSAII (Michael W. Deem and Ramdas Pophale) SiO2 
 PCOD8068053
Probable space group: P 2/M
;
_chemical_formula_sum "Si O2"
_cell_formula_units_Z 20
_cell_length_a 26.693045
_cell_length_b 9.529466
_cell_length_c 9.364070
_cell_angle_alpha 90.000000
_cell_angle_beta 28.715289
_cell_angle_gamma 90.000000
_cell_volume 1144.422399
_symmetry_space_group_name_H-M "P 2/M"
_symmetry_group_IT_number 10
_symmetry_cell_setting 'monoclinic'
loop_
_space_group_symop_operation_xyz
x,y,z
-x,y,-z
-x,-y,-z
x,-y,z
loop_
_atom_site_type_symbol
_atom_site_label
_atom_site_fract_x
_atom_site_fract_y
_atom_site_fract_z
Si Si1 1.000000 0.833176 0.338597
Si Si2 0.800535 0.163493 0.664312
Si Si3 0.800537 0.836508 0.333010
Si Si4 0.398663 0.338319 0.837365
Si Si5 0.601338 0.338318 0.830673
O O1 0.897639 0.778446 0.512656
O O2 0.000000 0.774663 0.500000
O O3 0.000001 0.000000 0.336564
O O4 0.102359 0.778443 0.000851
O O5 0.825244 0.192501 0.436891
O O6 0.780052 0.000000 0.744038
O O7 0.699162 0.247169 0.969882
O O8 0.699164 0.752833 0.534303
O O9 0.780053 0.000000 0.355699
O O10 0.500000 0.285156 0.500000
O O11 0.374243 0.500000 0.863193
O O12 0.421017 0.314420 0.947458
O O13 0.625758 0.500000 0.734404
O O14 0.500000 0.285159 0.000000
#
# Coordination Sequence:
#
# PCOD8068053 Si02
#       5
#     4   4   4   4   4
#     4   9  17  29  46  69  94 118 146 183 226 266
#     4   9  17  30  48  68  90 118 151 184 219 263
#     4   9  17  30  48  68  90 118 151 184 219 263
#     4   9  18  32  48  66  90 120 151 183 222 266
#     4   9  18  32  48  66  90 120 151 183 222 266
#
# _framework density 17.476064000000001
#
# number of rings (size 3 to 8) (size 9 to 14) (size 15 to 20)
#    0.000    3.000    0.000    0.600    0.000    4.800 
#    0.000    1.000    0.000    6.000    0.000    0.000 
#    0.000    0.000    0.000    0.000    0.000    0.000 
#
# Total GULP energy -248029.258265 kJ/mol
# GULP energy per Si atom -12401.462913 kJ/mol
# Density = 1.743629 g / cm^3
# Si number density = 17.476064 Si / 1000 Ang^3
#
#
#
# Elastic Constant Matrix: (Units=GPa)
#
#
# Indices 1 2 3 4 5 6 
#
# 1 127.0718 43.2431 79.8720 0.0000 -31.3081 0.0000
# 2 43.2431 46.2245 56.8616 0.0000 -13.9045 0.0000
# 3 79.8720 56.8616 178.6545 0.0000 -21.3738 0.0000
# 4 0.0000 0.0000 0.0000 11.1033 0.0000 3.2361
# 5 -31.3081 -13.9045 -21.3738 0.0000 28.7816 0.0000
# 6 0.0000 0.0000 0.0000 3.2361 0.0000 14.2665
#
#
#
# Elastic Compliance Matrix: (Units=1/GPa)
#
#
# Indices 1 2 3 4 5 6 
#
# 1 0.014730 -0.006707 -0.003206 0.000000 0.010402 0.000000
# 2 -0.006707 0.041217 -0.009450 0.000000 0.005598 0.000000
# 3 -0.003206 -0.009450 0.009960 0.000000 -0.000657 0.000000
# 4 0.000000 0.000000 0.000000 0.096439 0.000000 -0.021875
# 5 0.010402 0.005598 -0.000657 0.000000 0.048277 0.000000
# 6 0.000000 0.000000 0.000000 -0.021875 0.000000 0.075056
#
#
# Mechanical properties :
#
#
# Convention : Reuss Voigt Hill
#
# Bulk Modulus (GPa) = 36.79151 79.10045 57.94598
# Shear Modulus (GPa) = 14.99407 22.29522 18.64464
#
# Velocity S-wave (km/s) = 2.93230 3.57565 3.26984
# Velocity P-wave (km/s) = 5.70638 7.89984 6.89094
#
# Compressibility (1/GPa) = 0.02718018
#
# Stress axis : x y z
#
# Youngs Moduli (GPa) = 67.88761 24.26208 100.40111
#
# Poissons Ratio (x) = 0.16272 0.32192
# Poissons Ratio (y) = 0.45532 0.94879
# Poissons Ratio (z) = 0.21767 0.22928
#
# Static dielectric constant tensor:
#      x y z
#    x 3.310090 0.000000 -0.057760 
#    y 0.000000 3.026710 0.000000 
#    z -0.057760 0.000000 3.366550 
# 
# 
# High freq. dielectric constant tensor:
#      x y z
#    x 1.676140 0.000000 -0.005560 
#    y 0.000000 1.647600 0.000000 
#    z -0.005560 0.000000 1.681570 
# 
# From -- ./inp_files/23036.got.cif
#   From: 2010.06.25/outbox.cif.g09.slc.cpg/sg10_12_cif.got.tgz:23036.got - 2010.06.27 22:07:45.
