data_PCOD8068015
_publ_section_title
;
Structure prediction by ZEFSAII (Michael W. Deem and Ramdas Pophale) SiO2 
 PCOD8068015
Probable space group: P 2/M
;
_chemical_formula_sum "Si O2"
_cell_formula_units_Z 32
_cell_length_a 11.710242
_cell_length_b 9.302238
_cell_length_c 17.128334
_cell_angle_alpha 90.000000
_cell_angle_beta 85.800678
_cell_angle_gamma 90.000000
_cell_volume 1860.805328
_symmetry_space_group_name_H-M "P 2/M"
_symmetry_group_IT_number 10
_symmetry_cell_setting 'monoclinic'
loop_
_space_group_symop_operation_xyz
x,y,z
-x,y,-z
-x,-y,-z
x,-y,z
loop_
_atom_site_type_symbol
_atom_site_label
_atom_site_fract_x
_atom_site_fract_y
_atom_site_fract_z
Si Si1 0.383405 0.167158 0.233725
Si Si2 0.729874 0.834274 0.400174
Si Si3 0.864122 0.169233 0.709202
Si Si4 0.279219 0.337593 0.836656
Si Si5 0.458058 0.832264 0.917228
Si Si6 0.105321 0.166334 0.753567
Si Si7 0.121304 0.828790 0.465341
Si Si8 0.444493 0.662016 0.680848
O O1 0.249318 0.208910 0.235986
O O2 0.440168 0.205685 0.148079
O O3 0.439968 0.255277 0.301643
O O4 0.399720 0.000000 0.253212
O O5 0.827886 0.812116 0.330650
O O6 0.779247 0.778786 0.480250
O O7 0.616970 0.741303 0.388034
O O8 0.692030 0.000000 0.405143
O O9 0.852710 0.232892 0.622202
O O10 0.976646 0.227988 0.747901
O O11 0.880946 0.000000 0.700145
O O12 0.251648 0.500000 0.864388
O O13 0.342975 0.255401 0.903731
O O14 0.161577 0.256863 0.821014
O O15 0.360210 0.334449 0.758066
O O16 0.426882 0.000000 0.915550
O O17 0.500000 0.784261 0.000000
O O18 0.106322 0.000000 0.779004
O O19 0.000000 0.765856 0.500000
O O20 0.116115 0.000000 0.466383
O O21 0.475058 0.500000 0.654624
#
# Coordination Sequence:
#
# PCOD8068015 Si02
#       8
#     4   4   4   4   4   4   4   4
#     4   9  17  30  47  67  90 114 145 181 218 264
#     4   9  15  24  43  66  86 111 146 186 223 258
#     4   9  16  26  43  67  92 117 145 182 224 263
#     4   9  17  28  44  68  93 115 145 183 217 254
#     4   9  17  30  49  71  92 114 142 179 221 261
#     4   9  15  25  43  66  90 116 146 179 217 258
#     4   9  14  23  40  66  93 113 142 185 226 261
#     4   9  17  29  44  61  86 118 150 185 222 259
#
# _framework density 17.196854999999999
#
# number of rings (size 3 to 8) (size 9 to 14) (size 15 to 20)
#    0.000    3.000    1.250    0.750    0.000    3.250 
#    0.000    1.250    0.000    6.375    0.000    5.250 
#    0.000    0.000    0.000    0.000    0.000    0.000 
#
# Total GULP energy -396712.087865 kJ/mol
# GULP energy per Si atom -12397.252746 kJ/mol
# Density = 1.715771 g / cm^3
# Si number density = 17.196855 Si / 1000 Ang^3
#
#
#
# Elastic Constant Matrix: (Units=GPa)
#
#
# Indices 1 2 3 4 5 6 
#
# 1 126.1326 52.3112 59.6998 0.0000 30.1144 0.0000
# 2 52.3112 70.7122 38.2482 0.0000 20.0263 0.0000
# 3 59.6998 38.2482 88.2375 0.0000 29.5607 0.0000
# 4 0.0000 0.0000 0.0000 7.5683 0.0000 -0.8677
# 5 30.1144 20.0263 29.5607 0.0000 31.3038 0.0000
# 6 0.0000 0.0000 0.0000 -0.8677 0.0000 7.3198
#
#
#
# Elastic Compliance Matrix: (Units=1/GPa)
#
#
# Indices 1 2 3 4 5 6 
#
# 1 0.014143 -0.006298 -0.005311 0.000000 -0.004561 0.000000
# 2 -0.006298 0.022146 -0.003835 0.000000 -0.004487 0.000000
# 3 -0.005311 -0.003835 0.020559 0.000000 -0.011852 0.000000
# 4 0.000000 0.000000 0.000000 0.133950 0.000000 0.015879
# 5 -0.004561 -0.004487 -0.011852 0.000000 0.050396 0.000000
# 6 0.000000 0.000000 0.000000 0.015879 0.000000 0.138498
#
#
# Mechanical properties :
#
#
# Convention : Reuss Voigt Hill
#
# Bulk Modulus (GPa) = 38.52023 65.06675 51.79349
# Shear Modulus (GPa) = 11.92653 18.22661 15.07657
#
# Velocity S-wave (km/s) = 2.63635 3.25911 2.96413
# Velocity P-wave (km/s) = 5.63164 7.21672 6.47288
#
# Compressibility (1/GPa) = 0.02596039
#
# Stress axis : x y z
#
# Youngs Moduli (GPa) = 70.70736 45.15401 48.64036
#
# Poissons Ratio (x) = 0.28439 0.25831
# Poissons Ratio (y) = 0.44533 0.18655
# Poissons Ratio (z) = 0.37549 0.17317
#
# Static dielectric constant tensor:
#      x y z
#    x 3.262780 0.000000 0.237050 
#    y 0.000000 3.031580 0.000000 
#    z 0.237050 0.000000 3.027750 
# 
# 
# High freq. dielectric constant tensor:
#      x y z
#    x 1.661230 0.000000 0.025360 
#    y 0.000000 1.634770 0.000000 
#    z 0.025360 0.000000 1.635590 
# 
# From -- ./inp_files/52762.got.cif
#   From: 2010.06.25/outbox.cif.g09.slc.cpg/sg10_27_cif.got.tgz:52762.got - 2010.06.27 22:07:45.
