data_PCOD8068802
_publ_section_title
;
Structure prediction by ZEFSAII (Michael W. Deem and Ramdas Pophale) SiO2 
 PCOD8068802
Probable space group: P 21/M
;
_chemical_formula_sum "Si O2"
_cell_formula_units_Z 24
_cell_length_a 16.133912
_cell_length_b 9.309140
_cell_length_c 15.162397
_cell_angle_alpha 90.000000
_cell_angle_beta 141.561348
_cell_angle_gamma 90.000000
_cell_volume 1415.733262
_symmetry_space_group_name_H-M "P 21/M"
_symmetry_group_IT_number 11
_symmetry_cell_setting 'monoclinic'
loop_
_space_group_symop_operation_xyz
x,y,z
-x,1/2+y,-z
-x,-y,-z
x,1/2-y,z
loop_
_atom_site_type_symbol
_atom_site_label
_atom_site_fract_x
_atom_site_fract_y
_atom_site_fract_z
Si Si1 0.674518 0.088930 0.576693
Si Si2 0.431043 0.084396 0.164790
Si Si3 0.629846 0.915909 0.079676
Si Si4 0.358466 0.090702 0.290208
Si Si5 0.134826 0.415001 0.601775
Si Si6 0.307632 0.416453 0.577904
O O1 0.732981 0.250000 0.622707
O O2 0.516387 0.089158 0.436477
O O3 0.714776 0.018045 0.704157
O O4 0.736196 0.996744 0.548198
O O5 0.479683 0.250000 0.215782
O O6 0.336210 0.044434 0.169335
O O7 0.560310 0.983863 0.268972
O O8 0.346173 0.063452 0.005015
O O9 0.607081 0.750000 0.086009
O O10 0.757743 0.976157 0.238417
O O11 0.500000 0.000000 0.000000
O O12 0.301495 0.250000 0.260715
O O13 0.104835 0.250000 0.598076
O O14 0.188004 0.434747 0.547021
O O15 0.000000 0.500000 0.500000
O O16 0.336474 0.250000 0.580596
#
# Coordination Sequence:
#
# PCOD8068802 Si02
#       6
#     4   4   4   4   4   4
#     4   9  16  25  39  61  89 124 158 190 235 286
#     4   9  17  28  46  69  95 125 157 194 240 289
#     4  10  19  33  51  74  99 127 164 203 244 293
#     4   8  14  24  37  60  91 122 152 187 233 284
#     4  10  22  36  50  71  99 131 167 203 243 289
#     4  10  18  29  45  67  94 124 160 200 239 284
#
# _framework density 16.952345000000001
#
# number of rings (size 3 to 8) (size 9 to 14) (size 15 to 20)
#    0.000    2.667    1.667    2.000    0.000    6.000 
#    0.000    0.000    0.000    0.000    0.000    1.167 
#    0.000    0.000    0.000    0.000    0.000    0.000 
#
# Total GULP energy -297521.877418 kJ/mol
# GULP energy per Si atom -12396.744892 kJ/mol
# Density = 1.691376 g / cm^3
# Si number density = 16.952345 Si / 1000 Ang^3
#
#
#
# Elastic Constant Matrix: (Units=GPa)
#
#
# Indices 1 2 3 4 5 6 
#
# 1 98.4216 59.3957 59.6645 0.0000 -24.6451 0.0000
# 2 59.3957 101.3180 43.9128 0.0000 -8.0063 0.0000
# 3 59.6645 43.9128 82.4286 0.0000 -10.9260 0.0000
# 4 0.0000 0.0000 0.0000 19.3338 0.0000 -2.4938
# 5 -24.6451 -8.0063 -10.9260 0.0000 27.9428 0.0000
# 6 0.0000 0.0000 0.0000 -2.4938 0.0000 30.0311
#
#
#
# Elastic Compliance Matrix: (Units=1/GPa)
#
#
# Indices 1 2 3 4 5 6 
#
# 1 0.027923 -0.009421 -0.012958 0.000000 0.016862 0.000000
# 2 -0.009421 0.016041 -0.002340 0.000000 -0.004628 0.000000
# 3 -0.012958 -0.002340 0.022310 0.000000 -0.003375 0.000000
# 4 0.000000 0.000000 0.000000 0.052283 0.000000 0.004342
# 5 0.016862 -0.004628 -0.003375 0.000000 0.048013 0.000000
# 6 0.000000 0.000000 0.000000 0.004342 0.000000 0.033659
#
#
# Mechanical properties :
#
#
# Convention : Reuss Voigt Hill
#
# Bulk Modulus (GPa) = 59.39248 67.56825 63.48036
# Shear Modulus (GPa) = 19.58638 23.40790 21.49714
#
# Velocity S-wave (km/s) = 3.40277 3.71995 3.56489
# Velocity P-wave (km/s) = 7.10982 7.64166 7.38053
#
# Compressibility (1/GPa) = 0.01683715
#
# Stress axis : x y z
#
# Youngs Moduli (GPa) = 35.81275 62.33951 44.82259
#
# Poissons Ratio (x) = 0.58729 0.58080
# Poissons Ratio (y) = 0.33738 0.10489
# Poissons Ratio (z) = 0.46405 0.14588
#
# Static dielectric constant tensor:
#      x y z
#    x 3.304780 0.000000 -0.575910 
#    y 0.000000 3.310330 0.000000 
#    z -0.575910 0.000000 3.018160 
# 
# 
# High freq. dielectric constant tensor:
#      x y z
#    x 1.648890 0.000000 -0.045150 
#    y 0.000000 1.660980 0.000000 
#    z -0.045150 0.000000 1.608200 
# 
# From -- ./inp_files/40425.got.cif
#   From: 2010.06.25/outbox.cif.g09.slc.cpg/sg11_21_cif.got.tgz:40425.got - 2010.06.27 23:14:04.
