data_PCOD8068731
_publ_section_title
;
Structure prediction by ZEFSAII (Michael W. Deem and Ramdas Pophale) SiO2 
 PCOD8068731
Probable space group: P 21/M
;
_chemical_formula_sum "Si O2"
_cell_formula_units_Z 28
_cell_length_a 10.347011
_cell_length_b 8.824865
_cell_length_c 30.513941
_cell_angle_alpha 90.000000
_cell_angle_beta 33.180085
_cell_angle_gamma 90.000000
_cell_volume 1524.841794
_symmetry_space_group_name_H-M "P 21/M"
_symmetry_group_IT_number 11
_symmetry_cell_setting 'monoclinic'
loop_
_space_group_symop_operation_xyz
x,y,z
-x,1/2+y,-z
-x,-y,-z
x,1/2-y,z
loop_
_atom_site_type_symbol
_atom_site_label
_atom_site_fract_x
_atom_site_fract_y
_atom_site_fract_z
Si Si1 0.869229 0.569759 0.495200
Si Si2 0.381023 0.574490 0.836437
Si Si3 0.932669 0.070450 0.919518
Si Si4 0.501557 0.429308 0.100214
Si Si5 0.723816 0.573770 0.662174
Si Si6 0.063870 0.925802 0.180287
Si Si7 0.469789 0.073274 0.653130
O O1 0.868702 0.750000 0.495304
O O2 0.601318 0.506372 0.574302
O O3 0.000000 0.500000 0.500000
O O4 0.017051 0.506556 0.411674
O O5 0.309879 0.750000 0.857864
O O6 0.436921 0.510697 0.868788
O O7 0.614114 0.548284 0.741096
O O8 0.162327 0.484413 0.879420
O O9 0.942668 0.250000 0.916166
O O10 0.927671 0.006794 0.871415
O O11 0.699865 0.009995 0.010359
O O12 0.491555 0.250000 0.102947
O O13 0.247285 0.489322 0.158839
O O14 0.752617 0.750000 0.642341
O O15 0.549400 0.499442 0.676325
O O16 0.129809 0.750000 0.160501
O O17 0.807730 0.953649 0.274082
O O18 0.534638 0.250000 0.636067
#
# Coordination Sequence:
#
# PCOD8068731 Si02
#       7
#     4   4   4   4   4   4   4
#     4  10  18  28  46  74 105 133 167 208 256 307
#     4  10  21  35  53  79 107 138 177 217 260 312
#     4  10  20  36  56  78 104 136 177 222 265 309
#     4  10  22  37  53  76 107 141 176 217 264 312
#     4  10  18  30  49  74 104 135 170 210 257 306
#     4  10  21  35  53  78 106 138 177 217 259 311
#     4  10  18  31  50  74 105 134 169 213 257 305
#
# _framework density 18.362560999999999
#
# number of rings (size 3 to 8) (size 9 to 14) (size 15 to 20)
#    0.000    2.000    1.429    4.714    0.000    3.429 
#    0.000    0.000    0.000    0.857    0.000    0.000 
#    0.000    0.000    0.000    0.000    0.000    0.000 
#
# Total GULP energy -347186.367734 kJ/mol
# GULP energy per Si atom -12399.513133 kJ/mol
# Density = 1.832077 g / cm^3
# Si number density = 18.362561 Si / 1000 Ang^3
#
#
#
# Elastic Constant Matrix: (Units=GPa)
#
#
# Indices 1 2 3 4 5 6 
#
# 1 81.8736 19.0366 30.0944 0.0000 -8.3508 0.0000
# 2 19.0366 76.4982 42.4821 0.0000 -5.7580 0.0000
# 3 30.0944 42.4821 113.3250 0.0000 -15.8595 0.0000
# 4 0.0000 0.0000 0.0000 25.7269 0.0000 -7.2184
# 5 -8.3508 -5.7580 -15.8595 0.0000 12.4037 0.0000
# 6 0.0000 0.0000 0.0000 -7.2184 0.0000 25.1858
#
#
#
# Elastic Compliance Matrix: (Units=1/GPa)
#
#
# Indices 1 2 3 4 5 6 
#
# 1 0.014048 -0.001816 -0.002246 0.000000 0.005743 0.000000
# 2 -0.001816 0.016745 -0.005941 0.000000 -0.001046 0.000000
# 3 -0.002246 -0.005941 0.013458 0.000000 0.012938 0.000000
# 4 0.000000 0.000000 0.000000 0.042269 0.000000 0.012114
# 5 0.005743 -0.001046 0.012938 0.000000 0.100545 0.000000
# 6 0.000000 0.000000 0.000000 0.012114 0.000000 0.043177
#
#
# Mechanical properties :
#
#
# Convention : Reuss Voigt Hill
#
# Bulk Modulus (GPa) = 41.24725 50.54701 45.89713
# Shear Modulus (GPa) = 19.35517 24.66887 22.01202
#
# Velocity S-wave (km/s) = 3.25014 3.66926 3.46604
# Velocity P-wave (km/s) = 6.04947 6.74821 6.40837
#
# Compressibility (1/GPa) = 0.02424404
#
# Stress axis : x y z
#
# Youngs Moduli (GPa) = 71.18694 59.72012 74.30296
#
# Poissons Ratio (x) = 0.10847 0.16688
# Poissons Ratio (y) = 0.12929 0.44145
# Poissons Ratio (z) = 0.15988 0.35481
#
# Static dielectric constant tensor:
#      x y z
#    x 3.096610 0.000000 0.074540 
#    y 0.000000 3.340790 0.000000 
#    z 0.074540 0.000000 4.123550 
# 
# 
# High freq. dielectric constant tensor:
#      x y z
#    x 1.672040 0.000000 -0.005180 
#    y 0.000000 1.713660 0.000000 
#    z -0.005180 0.000000 1.736570 
# 
# From -- ./inp_files/70833.got.cif
#   From: 2010.06.25/outbox.cif.g09.slc.cpg/sg11_36_cif.got.tgz:70833.got - 2010.06.27 23:14:04.
