data_PCOD8068287
_publ_section_title
;
Structure prediction by ZEFSAII (Michael W. Deem and Ramdas Pophale) SiO2 
 PCOD8068287
Probable space group: P 21/M
;
_chemical_formula_sum "Si O2"
_cell_formula_units_Z 32
_cell_length_a 11.167507
_cell_length_b 19.848584
_cell_length_c 20.738138
_cell_angle_alpha 90.000000
_cell_angle_beta 22.426113
_cell_angle_gamma 90.000000
_cell_volume 1753.640728
_symmetry_space_group_name_H-M "P 21/M"
_symmetry_group_IT_number 11
_symmetry_cell_setting 'monoclinic'
loop_
_space_group_symop_operation_xyz
x,y,z
-x,1/2+y,-z
-x,-y,-z
x,1/2-y,z
loop_
_atom_site_type_symbol
_atom_site_label
_atom_site_fract_x
_atom_site_fract_y
_atom_site_fract_z
Si Si1 0.789885 0.632305 0.631087
Si Si2 0.371333 0.825478 0.954307
Si Si3 0.794526 0.440858 0.477786
Si Si4 0.318406 0.454011 0.914105
Si Si5 0.598282 0.323226 0.733748
Si Si6 0.338761 0.174231 0.724532
Si Si7 0.383499 0.537444 0.754306
Si Si8 0.598826 0.540785 0.888548
O O1 0.593561 0.674933 0.780749
O O2 0.550831 0.603552 0.697570
O O3 0.982248 0.573214 0.571529
O O4 0.038268 0.677709 0.469007
O O5 0.385710 0.750000 0.977112
O O6 0.485185 0.881300 0.949203
O O7 0.017980 0.845593 0.111890
O O8 0.576696 0.376275 0.569557
O O9 0.583925 0.505985 0.596335
O O10 0.021642 0.458430 0.304672
O O11 0.510676 0.383757 0.826276
O O12 0.359009 0.480899 0.821559
O O13 0.448122 0.507915 0.899975
O O14 0.950432 0.441564 0.109329
O O15 0.533750 0.250000 0.798246
O O16 0.375810 0.332542 0.782607
O O17 0.418194 0.250000 0.661541
O O18 0.500000 0.500000 0.000000
#
# Coordination Sequence:
#
# PCOD8068287 Si02
#       8
#     4   4   4   4   4   4   4   4
#     4  10  17  27  48  79 111 139 164 211 261 329
#     4  10  19  33  53  77 106 139 175 221 268 311
#     4  10  18  30  51  77 107 139 171 215 263 314
#     4  11  20  33  55  76 110 141 176 217 265 319
#     4  10  19  30  48  79 115 144 172 211 269 333
#     4   9  17  29  49  80 113 137 164 211 274 328
#     4  11  18  30  54  84 106 137 170 214 274 322
#     4  11  24  39  54  77 106 143 187 226 261 312
#
# _framework density 18.247751000000001
#
# number of rings (size 3 to 8) (size 9 to 14) (size 15 to 20)
#    0.000    1.750    5.000    3.000    0.000    3.000 
#    0.000    3.750    0.000    0.000    0.000    0.000 
#    0.000    0.000    0.000    0.000    0.000    0.000 
#
# Total GULP energy -396727.353091 kJ/mol
# GULP energy per Si atom -12397.729784 kJ/mol
# Density = 1.820622 g / cm^3
# Si number density = 18.247751 Si / 1000 Ang^3
#
#
#
# Elastic Constant Matrix: (Units=GPa)
#
#
# Indices 1 2 3 4 5 6 
#
# 1 24.8881 26.7572 34.0486 0.0000 -6.4934 0.0000
# 2 26.7572 108.4336 43.2831 0.0000 2.1500 0.0000
# 3 34.0486 43.2831 120.5383 0.0000 -15.5466 0.0000
# 4 0.0000 0.0000 0.0000 27.5121 0.0000 -4.3575
# 5 -6.4934 2.1500 -15.5466 0.0000 19.3871 0.0000
# 6 0.0000 0.0000 0.0000 -4.3575 0.0000 16.6797
#
#
#
# Elastic Compliance Matrix: (Units=1/GPa)
#
#
# Indices 1 2 3 4 5 6 
#
# 1 0.081023 -0.014009 -0.015789 0.000000 0.016030 0.000000
# 2 -0.014009 0.013601 -0.001926 0.000000 -0.007745 0.000000
# 3 -0.015789 -0.001926 0.014269 0.000000 0.006368 0.000000
# 4 0.000000 0.000000 0.000000 0.037917 0.000000 0.009905
# 5 0.016030 -0.007745 0.006368 0.000000 0.062915 0.000000
# 6 0.000000 0.000000 0.000000 0.009905 0.000000 0.062541
#
#
# Mechanical properties :
#
#
# Convention : Reuss Voigt Hill
#
# Bulk Modulus (GPa) = 22.00399 51.33754 36.67077
# Shear Modulus (GPa) = 14.25064 22.70052 18.47558
#
# Velocity S-wave (km/s) = 2.79759 3.53089 3.18541
# Velocity P-wave (km/s) = 4.74552 6.69460 5.80248
#
# Compressibility (1/GPa) = 0.04544630
#
# Stress axis : x y z
#
# Youngs Moduli (GPa) = 12.34213 73.52218 70.08297
#
# Poissons Ratio (x) = 1.02996 1.10654
# Poissons Ratio (y) = 0.17290 0.13496
# Poissons Ratio (z) = 0.19487 0.14159
#
# Static dielectric constant tensor:
#      x y z
#    x 2.844130 0.000000 -0.300690 
#    y 0.000000 3.422650 0.000000 
#    z -0.300690 0.000000 3.659650 
# 
# 
# High freq. dielectric constant tensor:
#      x y z
#    x 1.639190 0.000000 -0.035240 
#    y 0.000000 1.713040 0.000000 
#    z -0.035240 0.000000 1.718470 
# 
# From -- ./inp_files/64914.got.cif
#   From: 2010.06.25/outbox.cif.g09.slc.cpg/sg11_33_cif.got.tgz:64914.got - 2010.06.27 23:14:04.
