data_PCOD8068704
_publ_section_title
;
Structure prediction by ZEFSAII (Michael W. Deem and Ramdas Pophale) SiO2 
 PCOD8068704
Probable space group: P 21/M
;
_chemical_formula_sum "Si O2"
_cell_formula_units_Z 28
_cell_length_a 10.289546
_cell_length_b 9.267598
_cell_length_c 31.350406
_cell_angle_alpha 90.000000
_cell_angle_beta 147.698448
_cell_angle_gamma 90.000000
_cell_volume 1597.544267
_symmetry_space_group_name_H-M "P 21/M"
_symmetry_group_IT_number 11
_symmetry_cell_setting 'monoclinic'
loop_
_space_group_symop_operation_xyz
x,y,z
-x,1/2+y,-z
-x,-y,-z
x,1/2-y,z
loop_
_atom_site_type_symbol
_atom_site_label
_atom_site_fract_x
_atom_site_fract_y
_atom_site_fract_z
Si Si1 0.004337 0.917409 0.804205
Si Si2 0.453678 0.419255 0.073312
Si Si3 0.040114 0.920273 0.911996
Si Si4 0.063424 0.918911 0.678094
Si Si5 0.756063 0.080646 0.664533
Si Si6 0.353360 0.414189 0.493551
Si Si7 0.405535 0.420634 0.156293
O O1 0.947131 0.750000 0.781214
O O2 0.268539 0.957811 0.859468
O O3 0.983550 0.960217 0.847705
O O4 0.801593 0.009310 0.723003
O O5 0.405217 0.250000 0.054421
O O6 0.391116 0.474358 0.103536
O O7 0.288984 0.503739 0.994171
O O8 0.074599 0.750000 0.927464
O O9 0.820302 0.983950 0.879730
O O10 0.054438 0.750000 0.688904
O O11 0.341750 0.972092 0.751939
O O12 0.933988 0.944732 0.595497
O O13 0.931441 0.008741 0.678274
O O14 0.813980 0.250000 0.683008
O O15 0.469170 0.051348 0.572312
O O16 0.500000 0.500000 0.500000
O O17 0.410253 0.250000 0.498674
O O18 0.391783 0.250000 0.153861
#
# Coordination Sequence:
#
# PCOD8068704 Si02
#       7
#     4   4   4   4   4   4   4
#     4  10  20  34  50  68  94 128 161 191 231 283
#     4  10  19  33  51  69  92 123 159 195 236 283
#     4  10  21  34  49  71  95 122 159 198 234 276
#     4   9  15  29  50  69  96 129 155 185 233 282
#     4  10  18  28  45  73 100 120 155 199 234 271
#     4   8  15  25  42  69  96 122 151 188 231 275
#     4   9  17  31  51  72  95 123 157 193 228 279
#
# _framework density 17.526900000000001
#
# number of rings (size 3 to 8) (size 9 to 14) (size 15 to 20)
#    0.000    2.571    1.429    1.286    0.000    1.714 
#    0.000    0.714    0.000    0.857    0.000    0.000 
#    0.000    0.000    0.000    0.000    0.000    0.714 
#
# Total GULP energy -346966.197150 kJ/mol
# GULP energy per Si atom -12391.649898 kJ/mol
# Density = 1.748701 g / cm^3
# Si number density = 17.526900 Si / 1000 Ang^3
#
#
#
# Elastic Constant Matrix: (Units=GPa)
#
#
# Indices 1 2 3 4 5 6 
#
# 1 63.7953 14.7313 18.4532 0.0000 -13.8259 0.0000
# 2 14.7313 41.2476 42.3478 0.0000 -6.0206 0.0000
# 3 18.4532 42.3478 130.6368 0.0000 -12.8008 0.0000
# 4 0.0000 0.0000 0.0000 28.0383 0.0000 -4.2418
# 5 -13.8259 -6.0206 -12.8008 0.0000 13.0481 0.0000
# 6 0.0000 0.0000 0.0000 -4.2418 0.0000 10.3029
#
#
#
# Elastic Compliance Matrix: (Units=1/GPa)
#
#
# Indices 1 2 3 4 5 6 
#
# 1 0.021176 -0.005323 0.000766 0.000000 0.020734 0.000000
# 2 -0.005323 0.038071 -0.011529 0.000000 0.000616 0.000000
# 3 0.000766 -0.011529 0.011995 0.000000 0.007260 0.000000
# 4 0.000000 0.000000 0.000000 0.038035 0.000000 0.015659
# 5 0.020734 0.000616 0.007260 0.000000 0.106016 0.000000
# 6 0.000000 0.000000 0.000000 0.015659 0.000000 0.103507
#
#
# Mechanical properties :
#
#
# Convention : Reuss Voigt Hill
#
# Bulk Modulus (GPa) = 25.59459 42.97158 34.28309
# Shear Modulus (GPa) = 13.73637 20.95433 17.34535
#
# Velocity S-wave (km/s) = 2.80256 3.46143 3.14927
# Velocity P-wave (km/s) = 5.01070 6.36758 5.72945
#
# Compressibility (1/GPa) = 0.03907075
#
# Stress axis : x y z
#
# Youngs Moduli (GPa) = 47.22265 26.26639 83.36558
#
# Poissons Ratio (x) = 0.13981 -0.06385
# Poissons Ratio (y) = 0.25136 0.96114
# Poissons Ratio (z) = -0.03617 0.30283
#
# Static dielectric constant tensor:
#      x y z
#    x 3.046080 0.000000 0.004820 
#    y 0.000000 3.005980 0.000000 
#    z 0.004820 0.000000 3.866120 
# 
# 
# High freq. dielectric constant tensor:
#      x y z
#    x 1.637590 0.000000 -0.004870 
#    y 0.000000 1.662440 0.000000 
#    z -0.004870 0.000000 1.702510 
# 
# From -- ./inp_files/60074.got.cif
#   From: 2010.06.25/outbox.cif.g09.slc.cpg/sg11_31_cif.got.tgz:60074.got - 2010.06.27 23:14:04.
