data_PCOD8068628
_publ_section_title
;
Structure prediction by ZEFSAII (Michael W. Deem and Ramdas Pophale) SiO2 
 PCOD8068628
Probable space group: P 21/M
;
_chemical_formula_sum "Si O2"
_cell_formula_units_Z 32
_cell_length_a 16.324091
_cell_length_b 8.977889
_cell_length_c 13.941258
_cell_angle_alpha 90.000000
_cell_angle_beta 94.587189
_cell_angle_gamma 90.000000
_cell_volume 2036.628571
_symmetry_space_group_name_H-M "P 21/M"
_symmetry_group_IT_number 11
_symmetry_cell_setting 'monoclinic'
loop_
_space_group_symop_operation_xyz
x,y,z
-x,1/2+y,-z
-x,-y,-z
x,1/2-y,z
loop_
_atom_site_type_symbol
_atom_site_label
_atom_site_fract_x
_atom_site_fract_y
_atom_site_fract_z
Si Si1 0.400389 0.417102 0.581083
Si Si2 0.242924 0.922649 0.516752
Si Si3 0.078809 0.419747 0.971514
Si Si4 0.021156 0.074230 0.769224
Si Si5 0.935489 0.074193 0.423776
Si Si6 0.443567 0.417873 0.362464
Si Si7 0.282498 0.924946 0.303926
Si Si8 0.854899 0.574720 0.828756
O O1 0.398027 0.250000 0.621660
O O2 0.310493 0.488511 0.584493
O O3 0.425474 0.418330 0.473013
O O4 0.467132 0.510041 0.648290
O O5 0.262582 0.750000 0.533103
O O6 0.154347 0.968364 0.547025
O O7 0.246434 0.964460 0.405004
O O8 0.054316 0.250000 0.976116
O O9 0.089975 0.458526 0.859497
O O10 0.151031 0.454295 0.055418
O O11 0.000000 0.500000 0.000000
O O12 0.011074 0.250000 0.747204
O O13 0.932359 0.009526 0.789418
O O14 0.055396 0.990927 0.680698
O O15 0.949992 0.250000 0.423950
O O16 0.000000 0.000000 0.500000
O O17 0.442972 0.250000 0.321765
O O18 0.375279 0.515636 0.301767
O O19 0.281287 0.750000 0.283461
O O20 0.228497 0.009360 0.220688
O O21 0.862053 0.750000 0.805953
#
# Coordination Sequence:
#
# PCOD8068628 Si02
#       8
#     4   4   4   4   4   4   4   4
#     4   9  16  26  42  61  80 106 142 179 212 249
#     4   9  19  32  43  57  82 115 148 180 214 252
#     4   8  16  29  45  63  83 108 140 178 219 263
#     4  10  19  32  47  63  85 114 147 184 223 259
#     4  11  22  34  47  64  87 117 152 187 221 257
#     4   9  16  26  40  59  84 113 141 171 210 255
#     4  10  18  28  42  62  88 116 145 178 216 257
#     4  10  18  29  45  65  87 113 145 179 219 266
#
# _framework density 15.71224
#
# number of rings (size 3 to 8) (size 9 to 14) (size 15 to 20)
#    0.000    2.500    0.000    3.000    0.000    6.500 
#    0.000    0.000    0.000    0.000    0.000    0.000 
#    0.000    1.000    0.000    3.000    0.000    4.625 
#
# Total GULP energy -396586.077831 kJ/mol
# GULP energy per Si atom -12393.314932 kJ/mol
# Density = 1.567648 g / cm^3
# Si number density = 15.712240 Si / 1000 Ang^3
#
#
#
# Elastic Constant Matrix: (Units=GPa)
#
#
# Indices 1 2 3 4 5 6 
#
# 1 110.0833 57.3938 52.7030 0.0000 18.6699 0.0000
# 2 57.3938 87.9061 43.8002 0.0000 8.0488 0.0000
# 3 52.7030 43.8002 88.2843 0.0000 15.1573 0.0000
# 4 0.0000 0.0000 0.0000 20.3007 0.0000 4.6849
# 5 18.6699 8.0488 15.1573 0.0000 16.3370 0.0000
# 6 0.0000 0.0000 0.0000 4.6849 0.0000 29.9186
#
#
#
# Elastic Compliance Matrix: (Units=1/GPa)
#
#
# Indices 1 2 3 4 5 6 
#
# 1 0.017400 -0.008121 -0.004319 0.000000 -0.011877 0.000000
# 2 -0.008121 0.018906 -0.005384 0.000000 0.004961 0.000000
# 3 -0.004319 -0.005384 0.018168 0.000000 -0.009267 0.000000
# 4 0.000000 0.000000 0.000000 0.051106 0.000000 -0.008003
# 5 -0.011877 0.004961 -0.009267 0.000000 0.080937 0.000000
# 6 0.000000 0.000000 0.000000 -0.008003 0.000000 0.034677
#
#
# Mechanical properties :
#
#
# Convention : Reuss Voigt Hill
#
# Bulk Modulus (GPa) = 53.11768 66.00752 59.56260
# Shear Modulus (GPa) = 19.00291 22.13638 20.56964
#
# Velocity S-wave (km/s) = 3.48146 3.75755 3.62214
# Velocity P-wave (km/s) = 7.07395 7.80558 7.44875
#
# Compressibility (1/GPa) = 0.01882612
#
# Stress axis : x y z
#
# Youngs Moduli (GPa) = 57.47069 52.89269 55.04323
#
# Poissons Ratio (x) = 0.42954 0.23775
# Poissons Ratio (y) = 0.46672 0.29633
# Poissons Ratio (z) = 0.24823 0.28475
#
# Static dielectric constant tensor:
#      x y z
#    x 3.002850 0.000000 0.413560 
#    y 0.000000 3.189060 0.000000 
#    z 0.413560 0.000000 3.464090 
# 
# 
# High freq. dielectric constant tensor:
#      x y z
#    x 1.586770 0.000000 0.028180 
#    y 0.000000 1.623340 0.000000 
#    z 0.028180 0.000000 1.571410 
# 
# From -- ./inp_files/51333.got.cif
#   From: 2010.06.25/outbox.cif.g09.slc.cpg/sg11_26_cif.got.tgz:51333.got - 2010.06.27 23:14:04.
