data_PCOD8068775
_publ_section_title
;
Structure prediction by ZEFSAII (Michael W. Deem and Ramdas Pophale) SiO2 
 PCOD8068775
Probable space group: P 21/M
;
_chemical_formula_sum "Si O2"
_cell_formula_units_Z 28
_cell_length_a 15.950964
_cell_length_b 9.025428
_cell_length_c 13.622502
_cell_angle_alpha 90.000000
_cell_angle_beta 65.900859
_cell_angle_gamma 90.000000
_cell_volume 1790.220087
_symmetry_space_group_name_H-M "P 21/M"
_symmetry_group_IT_number 11
_symmetry_cell_setting 'monoclinic'
loop_
_space_group_symop_operation_xyz
x,y,z
-x,1/2+y,-z
-x,-y,-z
x,1/2-y,z
loop_
_atom_site_type_symbol
_atom_site_label
_atom_site_fract_x
_atom_site_fract_y
_atom_site_fract_z
Si Si1 0.637756 0.075757 0.898718
Si Si2 0.992693 0.923435 0.399363
Si Si3 0.550929 0.577855 0.111718
Si Si4 0.806007 0.422179 0.696046
Si Si5 0.814692 0.426085 0.468608
Si Si6 0.522801 0.920984 0.344661
Si Si7 0.639519 0.921796 0.477145
O O1 0.647294 0.250000 0.907391
O O2 0.550903 0.031096 0.873687
O O3 0.727896 0.006212 0.802722
O O4 0.627643 0.007347 0.012005
O O5 0.971201 0.750000 0.421214
O O6 0.093508 0.948033 0.302288
O O7 0.000000 0.000000 0.500000
O O8 0.909837 0.003460 0.380505
O O9 0.567404 0.750000 0.086350
O O10 0.562733 0.533940 0.219773
O O11 0.783833 0.250000 0.697067
O O12 0.800711 0.484534 0.587179
O O13 0.821203 0.250000 0.458274
O O14 0.732474 0.485192 0.441128
O O15 0.490134 0.750000 0.361032
O O16 0.602745 0.949264 0.384980
O O17 0.434528 0.020975 0.408982
O O18 0.658931 0.750000 0.488570
#
# Coordination Sequence:
#
# PCOD8068775 Si02
#       7
#     4   4   4   4   4   4   4
#     4   9  16  27  43  62  83 110 144 174 203 244
#     4   9  16  27  42  62  87 114 145 177 212 255
#     4   9  17  29  43  60  85 115 142 170 207 249
#     4   8  15  27  43  61  84 115 143 169 208 254
#     4  10  18  29  44  62  88 119 144 171 213 258
#     4   9  18  32  46  60  85 117 143 172 213 256
#     4  10  19  29  44  66  86 109 145 180 209 248
#
# _framework density 15.640535
#
# number of rings (size 3 to 8) (size 9 to 14) (size 15 to 20)
#    0.000    2.857    0.000    3.000    0.000    3.429 
#    0.000    7.143    0.000    0.000    0.000    1.000 
#    0.000    0.000    0.000    0.000    0.000    0.000 
#
# Total GULP energy -347072.486862 kJ/mol
# GULP energy per Si atom -12395.445959 kJ/mol
# Density = 1.560494 g / cm^3
# Si number density = 15.640535 Si / 1000 Ang^3
#
#
#
# Elastic Constant Matrix: (Units=GPa)
#
#
# Indices 1 2 3 4 5 6 
#
# 1 92.6814 40.4365 43.8889 0.0000 -14.1104 0.0000
# 2 40.4365 61.9540 29.5928 0.0000 -7.2099 0.0000
# 3 43.8889 29.5928 94.4920 0.0000 -7.5534 0.0000
# 4 0.0000 0.0000 0.0000 21.8590 0.0000 -2.2100
# 5 -14.1104 -7.2099 -7.5534 0.0000 24.5011 0.0000
# 6 0.0000 0.0000 0.0000 -2.2100 0.0000 26.2925
#
#
#
# Elastic Compliance Matrix: (Units=1/GPa)
#
#
# Indices 1 2 3 4 5 6 
#
# 1 0.017875 -0.008485 -0.005149 0.000000 0.006210 0.000000
# 2 -0.008485 0.023368 -0.003300 0.000000 0.000973 0.000000
# 3 -0.005149 -0.003300 0.014039 0.000000 0.000392 0.000000
# 4 0.000000 0.000000 0.000000 0.046140 0.000000 0.003878
# 5 0.006210 0.000973 0.000392 0.000000 0.044798 0.000000
# 6 0.000000 0.000000 0.000000 0.003878 0.000000 0.038360
#
#
# Mechanical properties :
#
#
# Convention : Reuss Voigt Hill
#
# Bulk Modulus (GPa) = 46.69430 52.99598 49.84514
# Shear Modulus (GPa) = 22.16454 23.54448 22.85451
#
# Velocity S-wave (km/s) = 3.76855 3.88409 3.82676
# Velocity P-wave (km/s) = 6.98967 7.35338 7.17383
#
# Compressibility (1/GPa) = 0.02141589
#
# Stress axis : x y z
#
# Youngs Moduli (GPa) = 55.94318 42.79309 71.22952
#
# Poissons Ratio (x) = 0.36309 0.36675
# Poissons Ratio (y) = 0.47467 0.23504
# Poissons Ratio (z) = 0.28804 0.14120
#
# Static dielectric constant tensor:
#      x y z
#    x 3.059990 0.000000 -0.223760 
#    y 0.000000 2.988880 0.000000 
#    z -0.223760 0.000000 3.010130 
# 
# 
# High freq. dielectric constant tensor:
#      x y z
#    x 1.591440 0.000000 -0.014960 
#    y 0.000000 1.598310 0.000000 
#    z -0.014960 0.000000 1.574920 
# 
# From -- ./inp_files/51121.got.cif
#   From: 2010.06.25/outbox.cif.g09.slc.cpg/sg11_26_cif.got.tgz:51121.got - 2010.06.27 23:14:04.
