data_PCOD8068876
_publ_section_title
;
Structure prediction by ZEFSAII (Michael W. Deem and Ramdas Pophale) SiO2 
 PCOD8068876
Probable space group: P 21/M
;
_chemical_formula_sum "Si O2"
_cell_formula_units_Z 24
_cell_length_a 15.924231
_cell_length_b 8.725198
_cell_length_c 27.870793
_cell_angle_alpha 90.000000
_cell_angle_beta 159.644084
_cell_angle_gamma 90.000000
_cell_volume 1347.026311
_symmetry_space_group_name_H-M "P 21/M"
_symmetry_group_IT_number 11
_symmetry_cell_setting 'monoclinic'
loop_
_space_group_symop_operation_xyz
x,y,z
-x,1/2+y,-z
-x,-y,-z
x,1/2-y,z
loop_
_atom_site_type_symbol
_atom_site_label
_atom_site_fract_x
_atom_site_fract_y
_atom_site_fract_z
Si Si1 0.105109 0.070216 0.008268
Si Si2 0.383810 0.427591 0.715411
Si Si3 0.078249 0.573751 0.473159
Si Si4 0.782347 0.431731 0.746732
Si Si5 0.742499 0.071226 0.533597
Si Si6 0.232529 0.432034 0.357855
O O1 0.086602 0.250000 0.003542
O O2 0.379690 0.023584 0.146304
O O3 0.948493 0.012426 0.879397
O O4 0.000000 0.000000 0.000000
O O5 0.452938 0.250000 0.751884
O O6 0.277056 0.470792 0.606275
O O7 0.189567 0.468957 0.652483
O O8 0.137420 0.750000 0.517160
O O9 0.089610 0.542166 0.422581
O O10 0.775688 0.250000 0.737644
O O11 0.514410 0.492478 0.613101
O O12 0.897405 0.504760 0.759673
O O13 0.698523 0.250000 0.519771
O O14 0.882597 0.996255 0.654268
O O15 0.500000 0.500000 0.500000
O O16 0.231753 0.250000 0.357785
#
# Coordination Sequence:
#
# PCOD8068876 Si02
#       6
#     4   4   4   4   4   4
#     4  11  23  36  52  74 101 133 166 202 244 294
#     4  10  20  34  52  74 101 132 166 205 246 290
#     4   9  19  34  52  74 100 132 167 203 245 291
#     4  10  20  33  48  70 100 131 163 199 243 291
#     4  10  18  30  50  74 100 128 161 201 243 289
#     4  10  18  29  47  71  98 127 160 199 244 290
#
# _framework density 17.817022999999999
#
# number of rings (size 3 to 8) (size 9 to 14) (size 15 to 20)
#    0.000    2.000    0.000    6.500    0.000    7.333 
#    0.000    0.000    0.000    1.000    0.000    0.000 
#    0.000    0.000    0.000    0.000    0.000    0.000 
#
# Total GULP energy -297594.898782 kJ/mol
# GULP energy per Si atom -12399.787449 kJ/mol
# Density = 1.777647 g / cm^3
# Si number density = 17.817023 Si / 1000 Ang^3
#
#
#
# Elastic Constant Matrix: (Units=GPa)
#
#
# Indices 1 2 3 4 5 6 
#
# 1 147.2921 49.8317 61.3611 0.0000 -27.4376 0.0000
# 2 49.8317 79.1854 33.3075 0.0000 -16.0155 0.0000
# 3 61.3611 33.3075 90.4184 0.0000 -17.2804 0.0000
# 4 0.0000 0.0000 0.0000 26.9931 0.0000 -2.9608
# 5 -27.4376 -16.0155 -17.2804 0.0000 29.1931 0.0000
# 6 0.0000 0.0000 0.0000 -2.9608 0.0000 30.3404
#
#
#
# Elastic Compliance Matrix: (Units=1/GPa)
#
#
# Indices 1 2 3 4 5 6 
#
# 1 0.011248 -0.003797 -0.005201 0.000000 0.005410 0.000000
# 2 -0.003797 0.017075 -0.002937 0.000000 0.004060 0.000000
# 3 -0.005201 -0.002937 0.016270 0.000000 0.003131 0.000000
# 4 0.000000 0.000000 0.000000 0.037447 0.000000 0.003654
# 5 0.005410 0.004060 0.003131 0.000000 0.043421 0.000000
# 6 0.000000 0.000000 0.000000 0.003654 0.000000 0.033316
#
#
# Mechanical properties :
#
#
# Convention : Reuss Voigt Hill
#
# Bulk Modulus (GPa) = 48.25603 67.32184 57.78894
# Shear Modulus (GPa) = 26.37781 28.79834 27.58808
#
# Velocity S-wave (km/s) = 3.85188 4.02473 3.93925
# Velocity P-wave (km/s) = 6.85023 7.71136 7.29352
#
# Compressibility (1/GPa) = 0.02072280
#
# Stress axis : x y z
#
# Youngs Moduli (GPa) = 88.90316 58.56676 61.46448
#
# Poissons Ratio (x) = 0.22236 0.31967
# Poissons Ratio (y) = 0.33754 0.18054
# Poissons Ratio (z) = 0.46237 0.17202
#
# Static dielectric constant tensor:
#      x y z
#    x 3.819000 0.000000 -0.361170 
#    y 0.000000 3.423020 0.000000 
#    z -0.361170 0.000000 3.231130 
# 
# 
# High freq. dielectric constant tensor:
#      x y z
#    x 1.700860 0.000000 -0.019110 
#    y 0.000000 1.706130 0.000000 
#    z -0.019110 0.000000 1.654860 
# 
# From -- ./inp_files/48702.got.cif
#   From: 2010.06.25/outbox.cif.g09.slc.cpg/sg11_25_cif.got.tgz:48702.got - 2010.06.27 23:14:04.
