data_PCOD8068232
_publ_section_title
;
Structure prediction by ZEFSAII (Michael W. Deem and Ramdas Pophale) SiO2 
 PCOD8068232
Probable space group: P 21/M
;
_chemical_formula_sum "Si O2"
_cell_formula_units_Z 28
_cell_length_a 22.755583
_cell_length_b 8.757768
_cell_length_c 16.426071
_cell_angle_alpha 90.000000
_cell_angle_beta 31.281205
_cell_angle_gamma 90.000000
_cell_volume 1699.738961
_symmetry_space_group_name_H-M "P 21/M"
_symmetry_group_IT_number 11
_symmetry_cell_setting 'monoclinic'
loop_
_space_group_symop_operation_xyz
x,y,z
-x,1/2+y,-z
-x,-y,-z
x,1/2-y,z
loop_
_atom_site_type_symbol
_atom_site_label
_atom_site_fract_x
_atom_site_fract_y
_atom_site_fract_z
Si Si1 0.675633 0.074224 0.261786
Si Si2 0.408762 0.929844 0.048702
Si Si3 0.566144 0.429994 0.165129
Si Si4 0.035149 0.073853 0.341972
Si Si5 0.170493 0.072664 0.341806
Si Si6 0.778358 0.926823 0.000946
Si Si7 0.462804 0.928791 0.429226
O O1 0.704995 0.250000 0.211978
O O2 0.656550 0.041851 0.381518
O O3 0.775088 0.974952 0.100868
O O4 0.558052 0.032981 0.357836
O O5 0.414963 0.750000 0.047174
O O6 0.284683 0.981564 0.223146
O O7 0.436313 0.986580 0.924851
O O8 0.500000 0.000000 0.000000
O O9 0.548782 0.250000 0.192272
O O10 0.686662 0.474980 0.060644
O O11 0.462262 0.515455 0.335812
O O12 0.000358 0.250000 0.392456
O O13 0.121915 0.027570 0.310919
O O14 0.097147 0.040583 0.182735
O O15 0.921824 0.973322 0.480536
O O16 0.197969 0.250000 0.316348
O O17 0.746843 0.750000 0.028114
O O18 0.494904 0.750000 0.397318
#
# Coordination Sequence:
#
# PCOD8068232 Si02
#       7
#     4   4   4   4   4   4   4
#     4   9  16  24  35  56  84 114 147 180 215 259
#     4  11  23  36  50  67  90 119 154 195 234 273
#     4  10  19  29  43  62  84 113 150 188 225 267
#     4   9  18  30  45  67  93 120 152 187 224 272
#     4  10  19  32  49  67  89 118 152 190 231 271
#     4  10  17  26  42  63  89 120 150 182 220 265
#     4   9  16  25  38  55  80 114 147 180 218 262
#
# _framework density 16.473119000000001
#
# number of rings (size 3 to 8) (size 9 to 14) (size 15 to 20)
#    0.000    2.286    1.429    4.286    0.000    5.143 
#    0.000    0.000    0.000    0.000    0.000    0.000 
#    0.000    1.143    0.000    3.714    0.000    6.000 
#
# Total GULP energy -347002.557003 kJ/mol
# GULP energy per Si atom -12392.948464 kJ/mol
# Density = 1.643563 g / cm^3
# Si number density = 16.473119 Si / 1000 Ang^3
#
#
#
# Elastic Constant Matrix: (Units=GPa)
#
#
# Indices 1 2 3 4 5 6 
#
# 1 46.5975 19.1498 46.2480 0.0000 7.1571 0.0000
# 2 19.1498 49.1843 38.0012 0.0000 7.7767 0.0000
# 3 46.2480 38.0012 133.4490 0.0000 27.7735 0.0000
# 4 0.0000 0.0000 0.0000 30.7954 0.0000 4.3784
# 5 7.1571 7.7767 27.7735 0.0000 24.7133 0.0000
# 6 0.0000 0.0000 0.0000 4.3784 0.0000 19.1524
#
#
#
# Elastic Compliance Matrix: (Units=1/GPa)
#
#
# Indices 1 2 3 4 5 6 
#
# 1 0.034105 -0.005301 -0.011227 0.000000 0.004409 0.000000
# 2 -0.005301 0.026891 -0.005716 0.000000 -0.000503 0.000000
# 3 -0.011227 -0.005716 0.015613 0.000000 -0.012496 0.000000
# 4 0.000000 0.000000 0.000000 0.033563 0.000000 -0.007673
# 5 0.004409 -0.000503 -0.012496 0.000000 0.053389 0.000000
# 6 0.000000 0.000000 0.000000 -0.007673 0.000000 0.053967
#
#
# Mechanical properties :
#
#
# Convention : Reuss Voigt Hill
#
# Bulk Modulus (GPa) = 31.13274 48.44766 39.79020
# Shear Modulus (GPa) = 18.33358 23.32101 20.82730
#
# Velocity S-wave (km/s) = 3.33969 3.76666 3.55959
# Velocity P-wave (km/s) = 5.81477 6.95636 6.41103
#
# Compressibility (1/GPa) = 0.03212053
#
# Stress axis : x y z
#
# Youngs Moduli (GPa) = 29.32119 37.18656 64.05032
#
# Poissons Ratio (x) = 0.19713 0.71912
# Poissons Ratio (y) = 0.15544 0.36609
# Poissons Ratio (z) = 0.32920 0.21255
#
# Static dielectric constant tensor:
#      x y z
#    x 2.953720 0.000000 0.764960 
#    y 0.000000 3.159380 0.000000 
#    z 0.764960 0.000000 3.795380 
# 
# 
# High freq. dielectric constant tensor:
#      x y z
#    x 1.566020 0.000000 0.043620 
#    y 0.000000 1.649590 0.000000 
#    z 0.043620 0.000000 1.642600 
# 
# From -- ./inp_files/61689.got.cif
#   From: 2010.06.25/outbox.cif.g09.slc.cpg/sg11_31_cif.got.tgz:61689.got - 2010.06.27 23:14:04.
