data_PCOD8068447
_publ_section_title
;
Structure prediction by ZEFSAII (Michael W. Deem and Ramdas Pophale) SiO2 
 PCOD8068447
Probable space group: P 21/M
;
_chemical_formula_sum "Si O2"
_cell_formula_units_Z 28
_cell_length_a 8.409405
_cell_length_b 17.136846
_cell_length_c 14.743574
_cell_angle_alpha 90.000000
_cell_angle_beta 143.506557
_cell_angle_gamma 90.000000
_cell_volume 1263.628343
_symmetry_space_group_name_H-M "P 21/M"
_symmetry_group_IT_number 11
_symmetry_cell_setting 'monoclinic'
loop_
_space_group_symop_operation_xyz
x,y,z
-x,1/2+y,-z
-x,-y,-z
x,1/2-y,z
loop_
_atom_site_type_symbol
_atom_site_label
_atom_site_fract_x
_atom_site_fract_y
_atom_site_fract_z
Si Si1 0.294177 0.160713 0.414337
Si Si2 0.450753 0.563424 0.749437
Si Si3 0.784202 0.340015 0.507464
Si Si4 0.199982 0.660509 0.930268
Si Si5 0.692086 0.916864 0.223751
Si Si6 0.949967 0.660121 0.010791
Si Si7 0.535435 0.411268 0.695784
O O1 0.303667 0.250000 0.452907
O O2 0.505168 0.149374 0.430428
O O3 0.358538 0.103207 0.526122
O O4 0.999273 0.138929 0.243048
O O5 0.243065 0.621460 0.604991
O O6 0.300747 0.510972 0.757561
O O7 0.572422 0.504307 0.728679
O O8 0.681191 0.611768 0.905218
O O9 0.860843 0.250000 0.530427
O O10 0.017840 0.384049 0.671111
O O11 0.291495 0.750000 0.965622
O O12 0.465725 0.606772 0.046230
O O13 0.040811 0.645239 0.949891
O O14 0.611678 0.875031 0.282821
O O15 0.888201 0.750000 0.002620
O O16 0.175787 0.629590 0.183821
#
# Coordination Sequence:
#
# PCOD8068447 Si02
#       7
#     4   4   4   4   4   4   4
#     4  10  20  35  57  85 114 143 186 234 279 331
#     4  10  20  34  56  83 114 145 187 234 277 329
#     4  11  21  36  58  83 112 151 190 226 275 340
#     4   9  17  32  56  82 108 146 191 227 266 334
#     4   9  21  36  59  81 112 145 189 232 276 329
#     4  10  17  32  56  84 111 145 191 233 268 325
#     4   9  21  34  58  87 116 140 183 237 285 319
#
# _framework density 22.158415000000002
#
# number of rings (size 3 to 8) (size 9 to 14) (size 15 to 20)
#    0.857    1.429    1.429    2.143    0.000    2.286 
#    0.000    0.000    3.143    1.714    0.000    0.000 
#    0.000    0.000    0.000    0.000    0.000    0.000 
#
# Total GULP energy -347115.301978 kJ/mol
# GULP energy per Si atom -12396.975071 kJ/mol
# Density = 2.210798 g / cm^3
# Si number density = 22.158415 Si / 1000 Ang^3
#
#
#
# Elastic Constant Matrix: (Units=GPa)
#
#
# Indices 1 2 3 4 5 6 
#
# 1 6.6842 6.9834 10.8993 0.0000 6.7389 0.0000
# 2 6.9834 90.7397 32.3077 0.0000 0.2457 0.0000
# 3 10.8993 32.3077 136.6644 0.0000 9.3161 0.0000
# 4 0.0000 0.0000 0.0000 41.0347 0.0000 8.4800
# 5 6.7389 0.2457 9.3161 0.0000 26.5826 0.0000
# 6 0.0000 0.0000 0.0000 8.4800 0.0000 16.9793
#
#
#
# Elastic Compliance Matrix: (Units=1/GPa)
#
#
# Indices 1 2 3 4 5 6 
#
# 1 0.241265 -0.014132 -0.012028 0.000000 -0.056817 0.000000
# 2 -0.014132 0.012883 -0.002207 0.000000 0.004237 0.000000
# 3 -0.012028 -0.002207 0.008799 0.000000 -0.000014 0.000000
# 4 0.000000 0.000000 0.000000 0.027174 0.000000 -0.013572
# 5 -0.056817 0.004237 -0.000014 0.000000 0.051988 0.000000
# 6 0.000000 0.000000 0.000000 -0.013572 0.000000 0.065673
#
#
# Mechanical properties :
#
#
# Convention : Reuss Voigt Hill
#
# Bulk Modulus (GPa) = 4.84934 37.16325 21.00630
# Shear Modulus (GPa) = 9.37641 29.17920 19.27780
#
# Velocity S-wave (km/s) = 2.05930 3.63277 2.95277
# Velocity P-wave (km/s) = 2.80135 5.86550 4.59628
#
# Compressibility (1/GPa) = 0.20621351
#
# Stress axis : x y z
#
# Youngs Moduli (GPa) = 4.14482 77.62453 113.64675
#
# Poissons Ratio (x) = 1.09696 1.36691
# Poissons Ratio (y) = 0.05857 0.25085
# Poissons Ratio (z) = 0.04985 0.17134
#
# Static dielectric constant tensor:
#      x y z
#    x 3.380440 0.000000 0.180030 
#    y 0.000000 3.892340 0.000000 
#    z 0.180030 0.000000 4.000090 
# 
# 
# High freq. dielectric constant tensor:
#      x y z
#    x 1.819050 0.000000 0.015320 
#    y 0.000000 1.870700 0.000000 
#    z 0.015320 0.000000 1.883320 
# 
# From -- ./inp_files/59585.got.cif
#   From: 2010.06.25/outbox.cif.g09.slc.cpg/sg11_30_cif.got.tgz:59585.got - 2010.06.27 23:14:04.
