data_PCOD8068240
_publ_section_title
;
Structure prediction by ZEFSAII (Michael W. Deem and Ramdas Pophale) SiO2 
 PCOD8068240
Probable space group: P 21/M
;
_chemical_formula_sum "Si O2"
_cell_formula_units_Z 32
_cell_length_a 22.961584
_cell_length_b 9.003764
_cell_length_c 31.706215
_cell_angle_alpha 90.000000
_cell_angle_beta 15.572683
_cell_angle_gamma 90.000000
_cell_volume 1759.749597
_symmetry_space_group_name_H-M "P 21/M"
_symmetry_group_IT_number 11
_symmetry_cell_setting 'monoclinic'
loop_
_space_group_symop_operation_xyz
x,y,z
-x,1/2+y,-z
-x,-y,-z
x,1/2-y,z
loop_
_atom_site_type_symbol
_atom_site_label
_atom_site_fract_x
_atom_site_fract_y
_atom_site_fract_z
Si Si1 0.985112 0.920752 0.300429
Si Si2 0.896347 0.422874 0.532477
Si Si3 0.544749 0.074921 0.594232
Si Si4 0.407229 0.076382 0.854822
Si Si5 0.899340 0.416611 0.869250
Si Si6 0.967481 0.914023 0.402628
Si Si7 0.411009 0.077856 0.520921
Si Si8 0.537715 0.082121 0.266539
O O1 0.890418 0.750000 0.364970
O O2 0.152338 0.939931 0.144798
O O3 0.098295 0.947867 0.267472
O O4 0.796745 0.040772 0.426075
O O5 0.927139 0.250000 0.516646
O O6 0.645863 0.471524 0.704092
O O7 0.021247 0.471475 0.402443
O O8 0.000000 0.500000 0.500000
O O9 0.504355 0.250000 0.620237
O O10 0.474308 0.999580 0.599309
O O11 0.405352 0.006250 0.730196
O O12 0.398526 0.250000 0.851963
O O13 0.342997 0.994049 0.856369
O O14 0.237059 0.034956 0.009569
O O15 0.833003 0.250000 0.929482
O O16 0.153041 0.443856 0.699512
O O17 0.024346 0.750000 0.380094
O O18 0.718122 0.923765 0.562787
O O19 0.476003 0.250000 0.475779
O O20 0.500000 0.000000 0.500000
O O21 0.623369 0.250000 0.210896
#
# Coordination Sequence:
#
# PCOD8068240 Si02
#       8
#     4   4   4   4   4   4   4   4
#     4   8  15  28  45  67  94 124 159 196 235 281
#     4  10  20  32  47  69  96 125 158 197 239 286
#     4  10  17  26  44  70  97 124 157 199 242 280
#     4  10  20  32  48  73 100 125 159 201 242 285
#     4   9  18  32  50  72  99 130 161 193 234 287
#     4   8  14  26  45  67  91 119 152 194 239 278
#     4  10  20  34  51  73 100 130 165 200 238 285
#     4   9  16  28  46  67  93 125 159 196 239 284
#
# _framework density 18.184405000000002
#
# number of rings (size 3 to 8) (size 9 to 14) (size 15 to 20)
#    0.000    2.750    0.000    4.125    0.000    7.000 
#    0.000    0.000    0.000    1.500    0.000    0.000 
#    0.000    0.000    0.000    0.000    0.000    0.000 
#
# Total GULP energy -396609.466282 kJ/mol
# GULP energy per Si atom -12394.045821 kJ/mol
# Density = 1.814302 g / cm^3
# Si number density = 18.184405 Si / 1000 Ang^3
#
#
#
# Elastic Constant Matrix: (Units=GPa)
#
#
# Indices 1 2 3 4 5 6 
#
# 1 131.0174 64.2671 41.2244 0.0000 42.8603 0.0000
# 2 64.2671 113.4526 34.1197 0.0000 21.1166 0.0000
# 3 41.2244 34.1197 58.6766 0.0000 31.1064 0.0000
# 4 0.0000 0.0000 0.0000 25.3630 0.0000 9.1370
# 5 42.8603 21.1166 31.1064 0.0000 31.5586 0.0000
# 6 0.0000 0.0000 0.0000 9.1370 0.0000 33.9726
#
#
#
# Elastic Compliance Matrix: (Units=1/GPa)
#
#
# Indices 1 2 3 4 5 6 
#
# 1 0.017013 -0.006599 0.003755 0.000000 -0.022391 0.000000
# 2 -0.006599 0.013312 -0.006563 0.000000 0.006524 0.000000
# 3 0.003755 -0.006563 0.038948 0.000000 -0.039098 0.000000
# 4 0.000000 0.000000 0.000000 0.043657 0.000000 -0.011742
# 5 -0.022391 0.006524 -0.039098 0.000000 0.096269 0.000000
# 6 0.000000 0.000000 0.000000 -0.011742 0.000000 0.032593
#
#
# Mechanical properties :
#
#
# Convention : Reuss Voigt Hill
#
# Bulk Modulus (GPa) = 19.81828 64.70766 42.26297
# Shear Modulus (GPa) = 18.02278 29.08121 23.55199
#
# Velocity S-wave (km/s) = 3.15161 4.00339 3.60276
# Velocity P-wave (km/s) = 4.91586 7.55188 6.37168
#
# Compressibility (1/GPa) = 0.05045845
#
# Stress axis : x y z
#
# Youngs Moduli (GPa) = 58.77867 75.12151 25.67522
#
# Poissons Ratio (x) = 0.49572 -0.09640
# Poissons Ratio (y) = 0.38787 0.16850
# Poissons Ratio (z) = -0.22069 0.49301
#
# Static dielectric constant tensor:
#      x y z
#    x 3.538840 0.000000 0.552960 
#    y 0.000000 3.402170 0.000000 
#    z 0.552960 0.000000 3.103680 
# 
# 
# High freq. dielectric constant tensor:
#      x y z
#    x 1.700420 0.000000 0.049960 
#    y 0.000000 1.712740 0.000000 
#    z 0.049960 0.000000 1.659780 
# 
# From -- ./inp_files/73693.got.cif
#   From: 2010.06.25/outbox.cif.g09.slc.cpg/sg11_37_cif.got.tgz:73693.got - 2010.06.27 23:14:04.
