data_PCOD8068554
_publ_section_title
;
Structure prediction by ZEFSAII (Michael W. Deem and Ramdas Pophale) SiO2 
 PCOD8068554
Probable space group: P 21/M
;
_chemical_formula_sum "Si O2"
_cell_formula_units_Z 32
_cell_length_a 16.167818
_cell_length_b 9.079337
_cell_length_c 20.785545
_cell_angle_alpha 90.000000
_cell_angle_beta 137.427337
_cell_angle_gamma 90.000000
_cell_volume 2064.194480
_symmetry_space_group_name_H-M "P 21/M"
_symmetry_group_IT_number 11
_symmetry_cell_setting 'monoclinic'
loop_
_space_group_symop_operation_xyz
x,y,z
-x,1/2+y,-z
-x,-y,-z
x,1/2-y,z
loop_
_atom_site_type_symbol
_atom_site_label
_atom_site_fract_x
_atom_site_fract_y
_atom_site_fract_z
Si Si1 0.513795 0.076463 0.665346
Si Si2 0.240546 0.576520 0.999496
Si Si3 0.392643 0.081991 0.472162
Si Si4 0.591136 0.087446 0.136445
Si Si5 0.738223 0.577651 0.723969
Si Si6 0.468006 0.074826 0.192744
Si Si7 0.007448 0.078219 0.071919
Si Si8 0.678392 0.586333 0.074774
O O1 0.528613 0.250000 0.687982
O O2 0.396899 0.042363 0.550842
O O3 0.639508 0.017166 0.706614
O O4 0.483175 0.989949 0.712725
O O5 0.267573 0.750000 0.014269
O O6 0.338351 0.497440 0.101265
O O7 0.108005 0.536862 0.950750
O O8 0.244129 0.516035 0.928763
O O9 0.429422 0.250000 0.487418
O O10 0.271338 0.049850 0.359693
O O11 0.500000 0.000000 0.500000
O O12 0.650222 0.250000 0.169519
O O13 0.570191 0.033237 0.197700
O O14 0.681200 0.979716 0.148798
O O15 0.459779 0.093547 0.027931
O O16 0.716834 0.750000 0.727712
O O17 0.872121 0.524649 0.821317
O O18 0.449072 0.250000 0.185576
O O19 0.012479 0.250000 0.060798
O O20 0.000000 0.000000 0.000000
O O21 0.735621 0.750000 0.109337
#
# Coordination Sequence:
#
# PCOD8068554 Si02
#       8
#     4   4   4   4   4   4   4   4
#     4  10  18  27  41  63  85 105 132 167 208 248
#     4  10  19  30  42  58  81 109 141 175 205 234
#     4   8  15  27  43  60  78 101 131 167 205 245
#     4   8  15  26  39  56  78 104 134 165 196 234
#     4   9  17  31  46  58  77 108 142 173 204 240
#     4  10  19  29  41  59  83 112 140 164 198 244
#     4  10  21  32  43  59  80 109 143 175 205 235
#     4   9  16  26  41  59  78 104 136 166 200 241
#
# _framework density 15.502416
#
# number of rings (size 3 to 8) (size 9 to 14) (size 15 to 20)
#    0.000    2.750    0.000    3.000    0.000    7.500 
#    0.000    0.000    0.000    0.000    0.000    0.000 
#    0.000    1.000    0.000    2.000    0.000    2.875 
#
# Total GULP energy -396494.449413 kJ/mol
# GULP energy per Si atom -12390.451544 kJ/mol
# Density = 1.546713 g / cm^3
# Si number density = 15.502416 Si / 1000 Ang^3
#
#
#
# Elastic Constant Matrix: (Units=GPa)
#
#
# Indices 1 2 3 4 5 6 
#
# 1 102.9847 49.6324 55.1681 0.0000 -26.6535 0.0000
# 2 49.6324 73.3214 37.2776 0.0000 -14.1678 0.0000
# 3 55.1681 37.2776 97.1350 0.0000 -22.4274 0.0000
# 4 0.0000 0.0000 0.0000 16.3286 0.0000 -5.9654
# 5 -26.6535 -14.1678 -22.4274 0.0000 22.3822 0.0000
# 6 0.0000 0.0000 0.0000 -5.9654 0.0000 26.5685
#
#
#
# Elastic Compliance Matrix: (Units=1/GPa)
#
#
# Indices 1 2 3 4 5 6 
#
# 1 0.019857 -0.008316 -0.004998 0.000000 0.013374 0.000000
# 2 -0.008316 0.020960 -0.003310 0.000000 0.000048 0.000000
# 3 -0.004998 -0.003310 0.016322 0.000000 0.008308 0.000000
# 4 0.000000 0.000000 0.000000 0.066715 0.000000 0.014980
# 5 0.013374 0.000048 0.008308 0.000000 0.068959 0.000000
# 6 0.000000 0.000000 0.000000 0.014980 0.000000 0.041002
#
#
# Mechanical properties :
#
#
# Convention : Reuss Voigt Hill
#
# Bulk Modulus (GPa) = 41.85715 61.95524 51.90620
# Shear Modulus (GPa) = 18.18008 21.81340 19.99674
#
# Velocity S-wave (km/s) = 3.42822 3.75520 3.59543
# Velocity P-wave (km/s) = 6.53677 7.67161 7.12681
#
# Compressibility (1/GPa) = 0.02389078
#
# Stress axis : x y z
#
# Youngs Moduli (GPa) = 50.36041 47.71064 61.26639
#
# Poissons Ratio (x) = 0.39676 0.30624
# Poissons Ratio (y) = 0.41879 0.20276
# Poissons Ratio (z) = 0.25173 0.15790
#
# Static dielectric constant tensor:
#      x y z
#    x 3.090070 0.000000 -0.432130 
#    y 0.000000 3.109530 0.000000 
#    z -0.432130 0.000000 3.239780 
# 
# 
# High freq. dielectric constant tensor:
#      x y z
#    x 1.579020 0.000000 -0.031590 
#    y 0.000000 1.608320 0.000000 
#    z -0.031590 0.000000 1.562190 
# 
# From -- ./inp_files/65243.got.cif
#   From: 2010.06.25/outbox.cif.g09.slc.cpg/sg11_33_cif.got.tgz:65243.got - 2010.06.27 23:14:04.
