data_PCOD8068981
_publ_section_title
;
Structure prediction by ZEFSAII (Michael W. Deem and Ramdas Pophale) SiO2 
 PCOD8068981
Probable space group: P 21/M
;
_chemical_formula_sum "Si O2"
_cell_formula_units_Z 32
_cell_length_a 15.111967
_cell_length_b 9.265106
_cell_length_c 15.169218
_cell_angle_alpha 90.000000
_cell_angle_beta 78.287026
_cell_angle_gamma 90.000000
_cell_volume 2079.676221
_symmetry_space_group_name_H-M "P 21/M"
_symmetry_group_IT_number 11
_symmetry_cell_setting 'monoclinic'
loop_
_space_group_symop_operation_xyz
x,y,z
-x,1/2+y,-z
-x,-y,-z
x,1/2-y,z
loop_
_atom_site_type_symbol
_atom_site_label
_atom_site_fract_x
_atom_site_fract_y
_atom_site_fract_z
Si Si1 0.199583 0.420899 0.932158
Si Si2 0.059295 0.080901 0.610143
Si Si3 0.885882 0.584612 0.587632
Si Si4 0.759625 0.583485 0.765950
Si Si5 0.921278 0.920308 0.201766
Si Si6 0.400346 0.417157 0.930308
Si Si7 0.122771 0.577901 0.116145
Si Si8 0.571602 0.916675 0.874809
O O1 0.186078 0.250000 0.951488
O O2 0.154398 0.477207 0.850615
O O3 0.305444 0.459989 0.905322
O O4 0.152662 0.508010 0.019112
O O5 0.040783 0.250000 0.620770
O O6 0.124709 0.042786 0.514028
O O7 0.101914 0.025166 0.693938
O O8 0.961864 0.010493 0.617868
O O9 0.917553 0.750000 0.588750
O O10 0.791792 0.560051 0.658327
O O11 0.773870 0.750000 0.793528
O O12 0.815388 0.479533 0.817750
O O13 0.653511 0.544250 0.792163
O O14 0.919580 0.750000 0.198978
O O15 0.020473 0.974196 0.153872
O O16 0.420637 0.250000 0.915370
O O17 0.481659 0.498641 0.864102
O O18 0.396695 0.462486 0.033644
O O19 0.131912 0.750000 0.109203
O O20 0.546405 0.750000 0.875969
#
# Coordination Sequence:
#
# PCOD8068981 Si02
#       8
#     4   4   4   4   4   4   4   4
#     4  10  19  33  47  60  85 121 152 179 214 256
#     4   9  16  29  44  64  90 114 144 180 215 250
#     4   9  17  27  45  66  87 115 145 177 213 257
#     4  10  18  30  45  65  89 119 148 172 214 265
#     4   9  18  30  45  63  88 120 150 180 213 248
#     4   9  17  29  44  62  81 108 144 180 216 256
#     4  11  20  29  42  65  91 118 150 182 210 245
#     4   9  17  29  44  61  84 110 139 179 220 257
#
# _framework density 15.387010999999999
#
# number of rings (size 3 to 8) (size 9 to 14) (size 15 to 20)
#    0.000    2.500    2.500    0.750    0.000    1.000 
#    0.000    1.250    0.000    0.000    0.000    0.875 
#    0.000    0.000    0.000    0.000    0.000    0.000 
#
# Total GULP energy -396648.885088 kJ/mol
# GULP energy per Si atom -12395.277659 kJ/mol
# Density = 1.535199 g / cm^3
# Si number density = 15.387011 Si / 1000 Ang^3
#
#
#
# Elastic Constant Matrix: (Units=GPa)
#
#
# Indices 1 2 3 4 5 6 
#
# 1 111.7592 34.4482 73.7353 0.0000 -7.1763 0.0000
# 2 34.4482 35.6692 35.5276 0.0000 -1.3481 0.0000
# 3 73.7353 35.5276 125.1598 0.0000 -8.3876 0.0000
# 4 0.0000 0.0000 0.0000 13.4523 0.0000 -2.7671
# 5 -7.1763 -1.3481 -8.3876 0.0000 21.3697 0.0000
# 6 0.0000 0.0000 0.0000 -2.7671 0.0000 21.5761
#
#
#
# Elastic Compliance Matrix: (Units=1/GPa)
#
#
# Indices 1 2 3 4 5 6 
#
# 1 0.016446 -0.008778 -0.007049 0.000000 0.002202 0.000000
# 2 -0.008778 0.043850 -0.007485 0.000000 -0.003119 0.000000
# 3 -0.007049 -0.007485 0.014457 0.000000 0.002835 0.000000
# 4 0.000000 0.000000 0.000000 0.076351 0.000000 0.009792
# 5 0.002202 -0.003119 0.002835 0.000000 0.048451 0.000000
# 6 0.000000 0.000000 0.000000 0.009792 0.000000 0.047603
#
#
# Mechanical properties :
#
#
# Convention : Reuss Voigt Hill
#
# Bulk Modulus (GPa) = 35.55084 62.22339 48.88712
# Shear Modulus (GPa) = 16.49292 19.87142 18.18217
#
# Velocity S-wave (km/s) = 3.27750 3.59756 3.44125
# Velocity P-wave (km/s) = 6.12187 7.60153 6.90147
#
# Compressibility (1/GPa) = 0.02812873
#
# Stress axis : x y z
#
# Youngs Moduli (GPa) = 60.80500 22.80483 69.16868
#
# Poissons Ratio (x) = 0.20019 0.48760
# Poissons Ratio (y) = 0.53377 0.51771
# Poissons Ratio (z) = 0.42864 0.17069
#
# Static dielectric constant tensor:
#      x y z
#    x 2.988910 0.000000 -0.004000 
#    y 0.000000 2.896500 0.000000 
#    z -0.004000 0.000000 3.251820 
# 
# 
# High freq. dielectric constant tensor:
#      x y z
#    x 1.570920 0.000000 -0.011810 
#    y 0.000000 1.582960 0.000000 
#    z -0.011810 0.000000 1.581690 
# 
# From -- ./inp_files/51218.got.cif
#   From: 2010.06.25/outbox.cif.g09.slc.cpg/sg11_26_cif.got.tgz:51218.got - 2010.06.27 23:14:04.
