data_PCOD8068272
_publ_section_title
;
Structure prediction by ZEFSAII (Michael W. Deem and Ramdas Pophale) SiO2 
 PCOD8068272
Probable space group: P 21/M
;
_chemical_formula_sum "Si O2"
_cell_formula_units_Z 28
_cell_length_a 16.347015
_cell_length_b 8.942120
_cell_length_c 12.125338
_cell_angle_alpha 90.000000
_cell_angle_beta 74.570826
_cell_angle_gamma 90.000000
_cell_volume 1708.566354
_symmetry_space_group_name_H-M "P 21/M"
_symmetry_group_IT_number 11
_symmetry_cell_setting 'monoclinic'
loop_
_space_group_symop_operation_xyz
x,y,z
-x,1/2+y,-z
-x,-y,-z
x,1/2-y,z
loop_
_atom_site_type_symbol
_atom_site_label
_atom_site_fract_x
_atom_site_fract_y
_atom_site_fract_z
Si Si1 0.054938 0.418932 0.325339
Si Si2 0.369566 0.425104 0.042358
Si Si3 0.733440 0.076468 0.559519
Si Si4 0.487402 0.925136 0.832619
Si Si5 0.894208 0.581819 0.438590
Si Si6 0.458919 0.926930 0.408821
Si Si7 0.219387 0.925580 0.209624
O O1 0.054313 0.250000 0.280586
O O2 0.078395 0.423383 0.444740
O O3 0.123337 0.515032 0.232383
O O4 0.961829 0.489753 0.341398
O O5 0.364435 0.250000 0.019046
O O6 0.429298 0.459700 0.125384
O O7 0.276539 0.489685 0.099569
O O8 0.404947 0.509326 0.922643
O O9 0.751888 0.250000 0.534935
O O10 0.640024 0.029322 0.555372
O O11 0.743935 0.033908 0.683565
O O12 0.800650 0.988153 0.459792
O O13 0.474570 0.750000 0.817534
O O14 0.495025 0.007600 0.714181
O O15 0.891973 0.750000 0.394148
O O16 0.471569 0.750000 0.405367
O O17 0.500000 0.000000 0.500000
O O18 0.221444 0.750000 0.185354
#
# Coordination Sequence:
#
# PCOD8068272 Si02
#       7
#     4   4   4   4   4   4   4
#     4   9  16  25  37  57  86 118 150 183 224 271
#     4  10  19  30  47  69  94 122 155 193 234 282
#     4   9  18  30  44  61  86 119 154 191 232 277
#     4  10  20  33  49  68  91 121 157 195 237 281
#     4   9  16  25  39  58  82 114 151 187 224 270
#     4  11  22  36  51  69  93 123 160 201 242 281
#     4  10  17  27  43  64  91 121 155 190 228 275
#
# _framework density 16.388009
#
# number of rings (size 3 to 8) (size 9 to 14) (size 15 to 20)
#    0.000    2.286    1.429    2.571    0.000    6.286 
#    0.000    0.000    0.000    0.000    0.000    0.000 
#    0.000    1.143    0.000    4.286    0.000    6.571 
#
# Total GULP energy -347244.961617 kJ/mol
# GULP energy per Si atom -12401.605772 kJ/mol
# Density = 1.635071 g / cm^3
# Si number density = 16.388009 Si / 1000 Ang^3
#
#
#
# Elastic Constant Matrix: (Units=GPa)
#
#
# Indices 1 2 3 4 5 6 
#
# 1 84.2742 48.4943 56.0071 0.0000 -27.6536 0.0000
# 2 48.4943 95.0489 47.5468 0.0000 -16.2648 0.0000
# 3 56.0071 47.5468 82.6441 0.0000 -19.5107 0.0000
# 4 0.0000 0.0000 0.0000 28.4702 0.0000 -9.6726
# 5 -27.6536 -16.2648 -19.5107 0.0000 29.0451 0.0000
# 6 0.0000 0.0000 0.0000 -9.6726 0.0000 27.8251
#
#
#
# Elastic Compliance Matrix: (Units=1/GPa)
#
#
# Indices 1 2 3 4 5 6 
#
# 1 0.028454 -0.005676 -0.012327 0.000000 0.015632 0.000000
# 2 -0.005676 0.016135 -0.005442 0.000000 -0.000024 0.000000
# 3 -0.012327 -0.005442 0.023882 0.000000 0.001259 0.000000
# 4 0.000000 0.000000 0.000000 0.039828 0.000000 0.013845
# 5 0.015632 -0.000024 0.001259 0.000000 0.050144 0.000000
# 6 0.000000 0.000000 0.000000 0.013845 0.000000 0.040752
#
#
# Mechanical properties :
#
#
# Convention : Reuss Voigt Hill
#
# Bulk Modulus (GPa) = 46.33743 62.89595 54.61669
# Shear Modulus (GPa) = 19.74117 24.39602 22.06859
#
# Velocity S-wave (km/s) = 3.47452 3.86249 3.67363
# Velocity P-wave (km/s) = 6.66580 7.63900 7.16893
#
# Compressibility (1/GPa) = 0.02158083
#
# Stress axis : x y z
#
# Youngs Moduli (GPa) = 35.14469 61.97763 41.87264
#
# Poissons Ratio (x) = 0.35178 0.51617
# Poissons Ratio (y) = 0.19948 0.22787
# Poissons Ratio (z) = 0.43323 0.33728
#
# Static dielectric constant tensor:
#      x y z
#    x 2.941260 0.000000 -0.382330 
#    y 0.000000 3.229240 0.000000 
#    z -0.382330 0.000000 2.802230 
# 
# 
# High freq. dielectric constant tensor:
#      x y z
#    x 1.607950 0.000000 -0.045320 
#    y 0.000000 1.649830 0.000000 
#    z -0.045320 0.000000 1.594580 
# 
# From -- ./inp_files/37491.got.cif
#   From: 2010.06.25/outbox.cif.g09.slc.cpg/sg11_19_cif.got.tgz:37491.got - 2010.06.27 23:14:04.
