data_PCOD8068176
_publ_section_title
;
Structure prediction by ZEFSAII (Michael W. Deem and Ramdas Pophale) SiO2 
 PCOD8068176
Probable space group: P 21/M
;
_chemical_formula_sum "Si O2"
_cell_formula_units_Z 24
_cell_length_a 9.311137
_cell_length_b 17.583647
_cell_length_c 16.703496
_cell_angle_alpha 90.000000
_cell_angle_beta 149.283604
_cell_angle_gamma 90.000000
_cell_volume 1396.884663
_symmetry_space_group_name_H-M "P 21/M"
_symmetry_group_IT_number 11
_symmetry_cell_setting 'monoclinic'
loop_
_space_group_symop_operation_xyz
x,y,z
-x,1/2+y,-z
-x,-y,-z
x,1/2-y,z
loop_
_atom_site_type_symbol
_atom_site_label
_atom_site_fract_x
_atom_site_fract_y
_atom_site_fract_z
Si Si1 0.540616 0.164926 0.994253
Si Si2 0.876536 0.336971 0.699076
Si Si3 0.250022 0.953466 0.221062
Si Si4 0.318249 0.536155 0.840182
Si Si5 0.726187 0.446857 0.949072
Si Si6 0.700907 0.471782 0.527469
O O1 0.654716 0.250000 0.047083
O O2 0.677698 0.126096 0.139196
O O3 0.641942 0.126371 0.960418
O O4 0.206959 0.161253 0.842566
O O5 0.766274 0.250000 0.651405
O O6 0.794595 0.382139 0.740965
O O7 0.734041 0.380161 0.554270
O O8 0.239045 0.920920 0.125888
O O9 0.549042 0.998383 0.374309
O O10 0.011149 0.016803 0.120548
O O11 0.481073 0.511571 0.837485
O O12 0.002190 0.509076 0.683896
O O13 0.500000 0.500000 0.000000
O O14 0.500000 0.500000 0.500000
#
# Coordination Sequence:
#
# PCOD8068176 Si02
#       6
#     4   4   4   4   4   4
#     4  10  18  31  54  77  99 134 174 212 252 299
#     4  10  18  32  53  75 102 134 169 211 257 305
#     4  10  21  34  52  78 104 135 171 212 254 299
#     4  10  16  32  52  73 100 130 172 207 241 301
#     4  10  19  35  53  75 103 134 174 211 247 301
#     4  10  18  32  52  78 101 129 172 209 250 298
#
# _framework density 17.181089
#
# number of rings (size 3 to 8) (size 9 to 14) (size 15 to 20)
#    0.000    2.000    5.000    3.000    0.000    1.333 
#    0.000    7.500    0.000    2.000    0.000    0.000 
#    0.000    0.000    0.000    0.000    0.000    0.000 
#
# Total GULP energy -297322.184329 kJ/mol
# GULP energy per Si atom -12388.424347 kJ/mol
# Density = 1.714198 g / cm^3
# Si number density = 17.181089 Si / 1000 Ang^3
#
#
#
# Elastic Constant Matrix: (Units=GPa)
#
#
# Indices 1 2 3 4 5 6 
#
# 1 63.3774 43.3703 20.2302 0.0000 10.5490 0.0000
# 2 43.3703 158.6408 47.0465 0.0000 -1.6819 0.0000
# 3 20.2302 47.0465 102.9523 0.0000 17.3325 0.0000
# 4 0.0000 0.0000 0.0000 20.8841 0.0000 4.1464
# 5 10.5490 -1.6819 17.3325 0.0000 20.0661 0.0000
# 6 0.0000 0.0000 0.0000 4.1464 0.0000 22.7470
#
#
#
# Elastic Compliance Matrix: (Units=1/GPa)
#
#
# Indices 1 2 3 4 5 6 
#
# 1 0.022029 -0.006374 0.000730 0.000000 -0.012745 0.000000
# 2 -0.006374 0.009434 -0.004395 0.000000 0.007938 0.000000
# 3 0.000730 -0.004395 0.013696 0.000000 -0.012583 0.000000
# 4 0.000000 0.000000 0.000000 0.049681 0.000000 -0.009056
# 5 -0.012745 0.007938 -0.012583 0.000000 0.068069 0.000000
# 6 0.000000 0.000000 0.000000 -0.009056 0.000000 0.045613
#
#
# Mechanical properties :
#
#
# Convention : Reuss Voigt Hill
#
# Bulk Modulus (GPa) = 39.87081 60.69607 50.28344
# Shear Modulus (GPa) = 21.10059 27.02767 24.06413
#
# Velocity S-wave (km/s) = 3.50827 3.97054 3.74654
# Velocity P-wave (km/s) = 6.29819 7.51161 6.93150
#
# Compressibility (1/GPa) = 0.02508101
#
# Stress axis : x y z
#
# Youngs Moduli (GPa) = 45.39517 106.00474 73.01178
#
# Poissons Ratio (x) = 0.67567 -0.05328
# Poissons Ratio (y) = 0.28935 0.32087
# Poissons Ratio (z) = -0.03313 0.46586
#
# Static dielectric constant tensor:
#      x y z
#    x 3.284600 0.000000 0.048750 
#    y 0.000000 2.904610 0.000000 
#    z 0.048750 0.000000 5.351610 
# 
# 
# High freq. dielectric constant tensor:
#      x y z
#    x 1.657600 0.000000 0.018670 
#    y 0.000000 1.653750 0.000000 
#    z 0.018670 0.000000 1.658020 
# 
# From -- ./inp_files/58280.got.cif
#   From: 2010.06.25/outbox.cif.g09.slc.cpg/sg11_30_cif.got.tgz:58280.got - 2010.06.27 23:14:04.
