data_PCOD8068295
_publ_section_title
;
Structure prediction by ZEFSAII (Michael W. Deem and Ramdas Pophale) SiO2 
 PCOD8068295
Probable space group: P 21/M
;
_chemical_formula_sum "Si O2"
_cell_formula_units_Z 32
_cell_length_a 17.016529
_cell_length_b 8.743039
_cell_length_c 24.108949
_cell_angle_alpha 90.000000
_cell_angle_beta 33.758496
_cell_angle_gamma 90.000000
_cell_volume 1993.182220
_symmetry_space_group_name_H-M "P 21/M"
_symmetry_group_IT_number 11
_symmetry_cell_setting 'monoclinic'
loop_
_space_group_symop_operation_xyz
x,y,z
-x,1/2+y,-z
-x,-y,-z
x,1/2-y,z
loop_
_atom_site_type_symbol
_atom_site_label
_atom_site_fract_x
_atom_site_fract_y
_atom_site_fract_z
Si Si1 0.876270 0.927252 0.607434
Si Si2 0.484958 0.427136 0.924210
Si Si3 0.106981 0.431347 0.892342
Si Si4 0.094786 0.430624 0.066964
Si Si5 0.198857 0.573330 0.114841
Si Si6 0.301806 0.926446 0.856253
Si Si7 0.201782 0.926616 0.235735
Si Si8 0.562473 0.925386 0.769832
O O1 0.904393 0.750000 0.590965
O O2 0.727035 0.969459 0.665248
O O3 0.881441 0.980927 0.668380
O O4 0.000000 0.000000 0.500000
O O5 0.448072 0.250000 0.955351
O O6 0.633969 0.477147 0.863316
O O7 0.491377 0.460266 0.855033
O O8 0.363781 0.530717 0.022003
O O9 0.101089 0.250000 0.893099
O O10 0.262055 0.486375 0.822106
O O11 0.058825 0.502501 0.861648
O O12 0.000000 0.500000 0.000000
O O13 0.098065 0.250000 0.056418
O O14 0.116137 0.470065 0.119055
O O15 0.218568 0.506205 0.958016
O O16 0.183999 0.750000 0.106413
O O17 0.134448 0.544450 0.214330
O O18 0.257918 0.750000 0.876180
O O19 0.470849 0.944513 0.767131
O O20 0.193420 0.750000 0.257746
O O21 0.551558 0.750000 0.797772
#
# Coordination Sequence:
#
# PCOD8068295 Si02
#       8
#     4   4   4   4   4   4   4   4
#     4  10  20  35  53  71  91 118 149 188 234 278
#     4  10  18  28  43  63  88 118 153 189 223 261
#     4  10  18  28  41  58  83 117 154 189 226 265
#     4  11  20  29  41  60  86 120 159 192 225 262
#     4  11  20  30  43  61  90 123 154 188 226 266
#     4  10  17  28  44  62  87 117 152 191 227 265
#     4   9  20  34  47  65  88 117 152 189 227 270
#     4   9  18  30  46  66  90 120 153 186 227 272
#
# _framework density 16.054728999999998
#
# number of rings (size 3 to 8) (size 9 to 14) (size 15 to 20)
#    0.000    2.000    1.250    5.625    0.000    2.500 
#    0.000    0.000    0.000    0.000    0.000    0.000 
#    0.000    1.000    0.000    3.000    0.000    4.000 
#
# Total GULP energy -396641.304088 kJ/mol
# GULP energy per Si atom -12395.040753 kJ/mol
# Density = 1.601819 g / cm^3
# Si number density = 16.054729 Si / 1000 Ang^3
#
#
#
# Elastic Constant Matrix: (Units=GPa)
#
#
# Indices 1 2 3 4 5 6 
#
# 1 105.9993 36.7915 38.7686 0.0000 2.6649 0.0000
# 2 36.7915 86.8665 27.2005 0.0000 3.3156 0.0000
# 3 38.7686 27.2005 62.1896 0.0000 2.0000 0.0000
# 4 0.0000 0.0000 0.0000 19.2119 0.0000 -0.0497
# 5 2.6649 3.3156 2.0000 0.0000 11.7397 0.0000
# 6 0.0000 0.0000 0.0000 -0.0497 0.0000 27.6294
#
#
#
# Elastic Compliance Matrix: (Units=1/GPa)
#
#
# Indices 1 2 3 4 5 6 
#
# 1 0.013066 -0.003429 -0.006618 0.000000 -0.000870 0.000000
# 2 -0.003429 0.014330 -0.004047 0.000000 -0.002579 0.000000
# 3 -0.006618 -0.004047 0.022011 0.000000 -0.001105 0.000000
# 4 0.000000 0.000000 0.000000 0.052051 0.000000 0.000094
# 5 -0.000870 -0.002579 -0.001105 0.000000 0.086295 0.000000
# 6 0.000000 0.000000 0.000000 0.000094 0.000000 0.036193
#
#
# Mechanical properties :
#
#
# Convention : Reuss Voigt Hill
#
# Bulk Modulus (GPa) = 47.12580 51.17516 49.15048
# Shear Modulus (GPa) = 19.28949 21.86918 20.57933
#
# Velocity S-wave (km/s) = 3.47000 3.69476 3.58414
# Velocity P-wave (km/s) = 6.74326 7.08140 6.91440
#
# Compressibility (1/GPa) = 0.02121980
#
# Stress axis : x y z
#
# Youngs Moduli (GPa) = 76.53198 69.78432 45.43157
#
# Poissons Ratio (x) = 0.23927 0.30066
# Poissons Ratio (y) = 0.26240 0.18387
# Poissons Ratio (z) = 0.50648 0.28243
#
# Static dielectric constant tensor:
#      x y z
#    x 3.206330 0.000000 -0.043410 
#    y 0.000000 3.144150 0.000000 
#    z -0.043410 0.000000 2.583620 
# 
# 
# High freq. dielectric constant tensor:
#      x y z
#    x 1.628040 0.000000 -0.006480 
#    y 0.000000 1.634420 0.000000 
#    z -0.006480 0.000000 1.546820 
# 
# From -- ./inp_files/69420.got.cif
#   From: 2010.06.25/outbox.cif.g09.slc.cpg/sg11_35_cif.got.tgz:69420.got - 2010.06.27 23:14:04.
