data_PCOD8068125
_publ_section_title
;
Structure prediction by ZEFSAII (Michael W. Deem and Ramdas Pophale) SiO2 
 PCOD8068125
Probable space group: P 21/M
;
_chemical_formula_sum "Si O2"
_cell_formula_units_Z 20
_cell_length_a 8.263307
_cell_length_b 14.099684
_cell_length_c 9.463856
_cell_angle_alpha 90.000000
_cell_angle_beta 58.793155
_cell_angle_gamma 90.000000
_cell_volume 943.085494
_symmetry_space_group_name_H-M "P 21/M"
_symmetry_group_IT_number 11
_symmetry_cell_setting 'monoclinic'
loop_
_space_group_symop_operation_xyz
x,y,z
-x,1/2+y,-z
-x,-y,-z
x,1/2-y,z
loop_
_atom_site_type_symbol
_atom_site_label
_atom_site_fract_x
_atom_site_fract_y
_atom_site_fract_z
Si Si1 0.685735 0.250000 0.491591
Si Si2 0.538589 0.399716 0.757395
Si Si3 0.269405 0.750000 0.138849
Si Si4 0.824941 0.941052 0.638616
Si Si5 0.170234 0.356436 0.062620
Si Si6 0.166938 0.750000 0.872913
Si Si7 0.944943 0.750000 0.487350
O O1 0.576162 0.343098 0.595548
O O2 0.684666 0.250000 0.323244
O O3 0.901223 0.250000 0.453565
O O4 0.633074 0.344833 0.846645
O O5 0.628182 0.503962 0.703887
O O6 0.314940 0.406840 0.888317
O O7 0.050714 0.750000 0.288732
O O8 0.284118 0.750000 0.963737
O O9 0.813012 0.842283 0.559084
O O10 0.855026 0.922591 0.790528
O O11 0.000000 0.000000 0.500000
O O12 0.246653 0.250000 0.070160
O O13 0.966678 0.344037 0.077586
#
# Coordination Sequence:
#
# PCOD8068125 Si02
#       7
#     2   4   2   4   4   2   2
#     4  10  15  33  56  76 104 146 188 216 264 341
#     4  10  20  34  60  83 110 140 194 233 274 314
#     4  10  19  33  56  88 110 142 184 240 267 322
#     4  12  18  32  61  87 104 145 194 237 258 330
#     4  10  19  35  56  80 114 148 181 221 281 332
#     4  10  18  33  58  77 116 152 179 219 284 328
#     4  10  18  33  54  83 108 136 197 227 269 311
#
# _framework density 21.206987000000002
#
# number of rings (size 3 to 8) (size 9 to 14) (size 15 to 20)
#    0.600    1.200    9.000    0.600    0.000    0.000 
#    0.000    1.000    8.800    1.200    0.000    0.000 
#    0.000    0.000    0.000    0.000    0.000    0.000 
#
# Total GULP energy -247949.602095 kJ/mol
# GULP energy per Si atom -12397.480105 kJ/mol
# Density = 2.115872 g / cm^3
# Si number density = 21.206987 Si / 1000 Ang^3
#
#
#
# Elastic Constant Matrix: (Units=GPa)
#
#
# Indices 1 2 3 4 5 6 
#
# 1 25.1883 4.9087 39.4223 0.0000 -0.8895 0.0000
# 2 4.9087 100.6527 32.0878 0.0000 -7.6381 0.0000
# 3 39.4223 32.0878 157.7767 0.0000 1.9086 0.0000
# 4 0.0000 0.0000 0.0000 35.7226 0.0000 -8.8329
# 5 -0.8895 -7.6381 1.9086 0.0000 31.9935 0.0000
# 6 0.0000 0.0000 0.0000 -8.8329 0.0000 13.0449
#
#
#
# Elastic Compliance Matrix: (Units=1/GPa)
#
#
# Indices 1 2 3 4 5 6 
#
# 1 0.066005 0.002474 -0.017037 0.000000 0.003442 0.000000
# 2 0.002474 0.010949 -0.002879 0.000000 0.002854 0.000000
# 3 -0.017037 -0.002879 0.011203 0.000000 -0.001829 0.000000
# 4 0.000000 0.000000 0.000000 0.033623 0.000000 0.022767
# 5 0.003442 0.002854 -0.001829 0.000000 0.032143 0.000000
# 6 0.000000 0.000000 0.000000 0.022767 0.000000 0.092074
#
#
# Mechanical properties :
#
#
# Convention : Reuss Voigt Hill
#
# Bulk Modulus (GPa) = 18.77185 48.49505 33.63345
# Shear Modulus (GPa) = 16.74268 29.96546 23.35407
#
# Velocity S-wave (km/s) = 2.81283 3.76307 3.32210
# Velocity P-wave (km/s) = 4.40685 6.46514 5.53256
#
# Compressibility (1/GPa) = 0.05327126
#
# Stress axis : x y z
#
# Youngs Moduli (GPa) = 15.15045 91.33205 89.26501
#
# Poissons Ratio (x) = -0.22591 1.52078
# Poissons Ratio (y) = -0.03747 0.25702
# Poissons Ratio (z) = 0.25811 0.26297
#
# Static dielectric constant tensor:
#      x y z
#    x 3.200960 0.000000 -0.331000 
#    y 0.000000 3.847870 0.000000 
#    z -0.331000 0.000000 3.951920 
# 
# 
# High freq. dielectric constant tensor:
#      x y z
#    x 1.775550 0.000000 -0.028320 
#    y 0.000000 1.820450 0.000000 
#    z -0.028320 0.000000 1.847100 
# 
# From -- ./inp_files/12297.got.cif
#   From: 2010.06.25/outbox.cif.g09.slc.cpg/sg11_7_cif.got.tgz:12297.got - 2010.06.27 23:14:04.
