data_PCOD8068738
_publ_section_title
;
Structure prediction by ZEFSAII (Michael W. Deem and Ramdas Pophale) SiO2 
 PCOD8068738
Probable space group: P 21/M
;
_chemical_formula_sum "Si O2"
_cell_formula_units_Z 24
_cell_length_a 14.296180
_cell_length_b 9.009372
_cell_length_c 26.704930
_cell_angle_alpha 90.000000
_cell_angle_beta 24.952905
_cell_angle_gamma 90.000000
_cell_volume 1451.068368
_symmetry_space_group_name_H-M "P 21/M"
_symmetry_group_IT_number 11
_symmetry_cell_setting 'monoclinic'
loop_
_space_group_symop_operation_xyz
x,y,z
-x,1/2+y,-z
-x,-y,-z
x,1/2-y,z
loop_
_atom_site_type_symbol
_atom_site_label
_atom_site_fract_x
_atom_site_fract_y
_atom_site_fract_z
Si Si1 0.961342 0.576384 0.442259
Si Si2 0.726026 0.922592 0.904641
Si Si3 0.669329 0.422723 0.658145
Si Si4 0.825093 0.919208 0.748291
Si Si5 0.686234 0.425363 0.020944
Si Si6 0.201345 0.425977 0.930774
O O1 0.928833 0.750000 0.455598
O O2 0.737929 0.507685 0.574184
O O3 0.171934 0.527340 0.373401
O O4 0.001801 0.517982 0.366597
O O5 0.684991 0.750000 0.936864
O O6 0.882196 0.939438 0.779704
O O7 0.500000 0.000000 0.000000
O O8 0.819697 0.006526 0.908304
O O9 0.696114 0.250000 0.634515
O O10 0.420572 0.466337 0.793047
O O11 0.857994 0.750000 0.715701
O O12 0.572572 0.967281 0.858731
O O13 0.726194 0.250000 0.003797
O O14 0.787108 0.502791 0.020306
O O15 0.169422 0.250000 0.951166
O O16 0.000000 0.500000 0.000000
#
# Coordination Sequence:
#
# PCOD8068738 Si02
#       6
#     4   4   4   4   4   4
#     4  10  18  28  47  71  95 126 160 196 239 288
#     4   9  17  28  43  66  95 128 161 196 239 289
#     4   9  19  33  46  66  95 127 160 197 242 286
#     4   9  17  28  44  68  98 129 158 191 238 290
#     4  10  19  31  47  68  95 129 163 201 243 286
#     4  11  22  36  52  71  96 129 167 205 242 285
#
# _framework density 16.539539000000001
#
# number of rings (size 3 to 8) (size 9 to 14) (size 15 to 20)
#    0.000    2.333    1.667    3.000    0.000    5.333 
#    0.000    0.000    0.000    0.000    0.000    1.167 
#    0.000    0.000    0.000    0.000    0.000    0.000 
#
# Total GULP energy -297542.347959 kJ/mol
# GULP energy per Si atom -12397.597832 kJ/mol
# Density = 1.650189 g / cm^3
# Si number density = 16.539539 Si / 1000 Ang^3
#
#
#
# Elastic Constant Matrix: (Units=GPa)
#
#
# Indices 1 2 3 4 5 6 
#
# 1 110.8535 58.7837 60.1816 0.0000 23.4760 0.0000
# 2 58.7837 90.5860 51.6393 0.0000 16.4967 0.0000
# 3 60.1816 51.6393 84.5640 0.0000 19.4358 0.0000
# 4 0.0000 0.0000 0.0000 25.4133 0.0000 6.9568
# 5 23.4760 16.4967 19.4358 0.0000 28.1425 0.0000
# 6 0.0000 0.0000 0.0000 6.9568 0.0000 30.6236
#
#
#
# Elastic Compliance Matrix: (Units=1/GPa)
#
#
# Indices 1 2 3 4 5 6 
#
# 1 0.017509 -0.006067 -0.007389 0.000000 -0.005946 0.000000
# 2 -0.006067 0.019300 -0.007169 0.000000 -0.001301 0.000000
# 3 -0.007389 -0.007169 0.022679 0.000000 -0.005297 0.000000
# 4 0.000000 0.000000 0.000000 0.041959 0.000000 -0.009532
# 5 -0.005946 -0.001301 -0.005297 0.000000 0.044914 0.000000
# 6 0.000000 0.000000 0.000000 -0.009532 0.000000 0.034820
#
#
# Mechanical properties :
#
#
# Convention : Reuss Voigt Hill
#
# Bulk Modulus (GPa) = 54.83031 69.69030 62.26031
# Shear Modulus (GPa) = 21.88093 24.52913 23.20503
#
# Velocity S-wave (km/s) = 3.64118 3.85523 3.74973
# Velocity P-wave (km/s) = 7.13447 7.87681 7.51481
#
# Compressibility (1/GPa) = 0.01823809
#
# Stress axis : x y z
#
# Youngs Moduli (GPa) = 57.11402 51.81403 44.09379
#
# Poissons Ratio (x) = 0.31435 0.32581
# Poissons Ratio (y) = 0.34650 0.31610
# Poissons Ratio (z) = 0.42202 0.37144
#
# Static dielectric constant tensor:
#      x y z
#    x 3.143800 0.000000 0.392900 
#    y 0.000000 3.281270 0.000000 
#    z 0.392900 0.000000 3.008340 
# 
# 
# High freq. dielectric constant tensor:
#      x y z
#    x 1.617830 0.000000 0.040200 
#    y 0.000000 1.652410 0.000000 
#    z 0.040200 0.000000 1.607920 
# 
# From -- ./inp_files/36999.got.cif
#   From: 2010.06.25/outbox.cif.g09.slc.cpg/sg11_19_cif.got.tgz:36999.got - 2010.06.27 23:14:04.
