data_PCOD8068616
_publ_section_title
;
Structure prediction by ZEFSAII (Michael W. Deem and Ramdas Pophale) SiO2 
 PCOD8068616
Probable space group: P 21/M
;
_chemical_formula_sum "Si O2"
_cell_formula_units_Z 32
_cell_length_a 13.723746
_cell_length_b 9.094568
_cell_length_c 18.265417
_cell_angle_alpha 90.000000
_cell_angle_beta 68.287974
_cell_angle_gamma 90.000000
_cell_volume 2117.998930
_symmetry_space_group_name_H-M "P 21/M"
_symmetry_group_IT_number 11
_symmetry_cell_setting 'monoclinic'
loop_
_space_group_symop_operation_xyz
x,y,z
-x,1/2+y,-z
-x,-y,-z
x,1/2-y,z
loop_
_atom_site_type_symbol
_atom_site_label
_atom_site_fract_x
_atom_site_fract_y
_atom_site_fract_z
Si Si1 0.029501 0.578729 0.884434
Si Si2 0.619093 0.920320 0.039102
Si Si3 0.590491 0.579642 0.878488
Si Si4 0.230181 0.924662 0.256482
Si Si5 0.073347 0.086527 0.578361
Si Si6 0.840884 0.577080 0.038706
Si Si7 0.021276 0.076693 0.265815
Si Si8 0.846659 0.087753 0.569156
O O1 0.047090 0.750000 0.891841
O O2 0.024387 0.538405 0.800823
O O3 0.128498 0.496151 0.892650
O O4 0.921934 0.526514 0.953140
O O5 0.594168 0.750000 0.062815
O O6 0.725490 0.975115 0.047525
O O7 0.527396 0.020793 0.097016
O O8 0.632109 0.944508 0.948896
O O9 0.594079 0.750000 0.854898
O O10 0.661628 0.485541 0.804385
O O11 0.221013 0.750000 0.247611
O O12 0.227993 0.965055 0.343688
O O13 0.133850 0.000358 0.241551
O O14 0.109347 0.250000 0.591568
O O15 0.963580 0.093076 0.567767
O O16 0.160331 0.020349 0.498578
O O17 0.062899 0.984847 0.652777
O O18 0.843399 0.750000 0.048429
O O19 0.036456 0.250000 0.273518
O O20 0.813563 0.250000 0.551521
#
# Coordination Sequence:
#
# PCOD8068616 Si02
#       8
#     4   4   4   4   4   4   4   4
#     4   9  18  30  43  62  85 109 140 175 210 249
#     4   9  18  32  46  61  84 112 142 175 211 250
#     4  10  19  30  45  64  85 110 141 175 211 251
#     4  10  19  29  42  61  85 112 143 177 209 246
#     4   9  16  25  38  57  80 107 140 173 204 243
#     4   9  17  30  46  61  81 110 141 175 212 247
#     4  10  18  28  42  59  84 115 143 174 210 248
#     4   8  15  26  38  54  78 109 140 168 203 245
#
# _framework density 15.108601
#
# number of rings (size 3 to 8) (size 9 to 14) (size 15 to 20)
#    0.000    2.750    0.000    3.000    0.000    7.500 
#    0.000    2.500    0.000    0.000    0.000    0.000 
#    0.000    1.000    0.000    3.250    0.000    4.250 
#
# Total GULP energy -396757.503548 kJ/mol
# GULP energy per Si atom -12398.671986 kJ/mol
# Density = 1.507421 g / cm^3
# Si number density = 15.108601 Si / 1000 Ang^3
#
#
#
# Elastic Constant Matrix: (Units=GPa)
#
#
# Indices 1 2 3 4 5 6 
#
# 1 83.3024 39.9271 46.8330 0.0000 2.6355 0.0000
# 2 39.9271 80.1080 56.0468 0.0000 -1.0258 0.0000
# 3 46.8330 56.0468 108.9033 0.0000 -4.6004 0.0000
# 4 0.0000 0.0000 0.0000 27.4971 0.0000 -0.8783
# 5 2.6355 -1.0258 -4.6004 0.0000 15.5777 0.0000
# 6 0.0000 0.0000 0.0000 -0.8783 0.0000 21.7752
#
#
#
# Elastic Compliance Matrix: (Units=1/GPa)
#
#
# Indices 1 2 3 4 5 6 
#
# 1 0.017504 -0.005278 -0.005014 0.000000 -0.004790 0.000000
# 2 -0.005278 0.021143 -0.008623 0.000000 -0.000261 0.000000
# 3 -0.005014 -0.008623 0.015987 0.000000 0.005002 0.000000
# 4 0.000000 0.000000 0.000000 0.036414 0.000000 0.001469
# 5 -0.004790 -0.000261 0.005002 0.000000 0.066464 0.000000
# 6 0.000000 0.000000 0.000000 0.001469 0.000000 0.045983
#
#
# Mechanical properties :
#
#
# Convention : Reuss Voigt Hill
#
# Bulk Modulus (GPa) = 59.50064 61.99194 60.74629
# Shear Modulus (GPa) = 20.24885 21.60378 20.92631
#
# Velocity S-wave (km/s) = 3.66487 3.78550 3.72568
# Velocity P-wave (km/s) = 7.57468 7.76059 7.66820
#
# Compressibility (1/GPa) = 0.01680654
#
# Stress axis : x y z
#
# Youngs Moduli (GPa) = 57.12821 47.29660 62.54929
#
# Poissons Ratio (x) = 0.24964 0.31360
# Poissons Ratio (y) = 0.30153 0.53933
# Poissons Ratio (z) = 0.28642 0.40782
#
# Static dielectric constant tensor:
#      x y z
#    x 2.608720 0.000000 -0.034080 
#    y 0.000000 3.043760 0.000000 
#    z -0.034080 0.000000 3.016330 
# 
# 
# High freq. dielectric constant tensor:
#      x y z
#    x 1.532440 0.000000 -0.003710 
#    y 0.000000 1.590960 0.000000 
#    z -0.003710 0.000000 1.577500 
# 
# From -- ./inp_files/59863.got.cif
#   From: 2010.06.25/outbox.cif.g09.slc.cpg/sg11_30_cif.got.tgz:59863.got - 2010.06.27 23:14:04.
