data_PCOD8068403
_publ_section_title
;
Structure prediction by ZEFSAII (Michael W. Deem and Ramdas Pophale) SiO2 
 PCOD8068403
Probable space group: P 21/M
;
_chemical_formula_sum "Si O2"
_cell_formula_units_Z 20
_cell_length_a 9.572677
_cell_length_b 17.728791
_cell_length_c 9.501928
_cell_angle_alpha 90.000000
_cell_angle_beta 43.685639
_cell_angle_gamma 90.000000
_cell_volume 1113.818581
_symmetry_space_group_name_H-M "P 21/M"
_symmetry_group_IT_number 11
_symmetry_cell_setting 'monoclinic'
loop_
_space_group_symop_operation_xyz
x,y,z
-x,1/2+y,-z
-x,-y,-z
x,1/2-y,z
loop_
_atom_site_type_symbol
_atom_site_label
_atom_site_fract_x
_atom_site_fract_y
_atom_site_fract_z
Si Si1 0.233853 0.443924 0.243732
Si Si2 0.924517 0.052916 0.865943
Si Si3 0.328155 0.473516 0.728827
Si Si4 0.564251 0.411551 0.793409
Si Si5 0.932693 0.336545 0.620903
O O1 0.086969 0.482214 0.233953
O O2 0.317033 0.508370 0.287634
O O3 0.117021 0.382033 0.418561
O O4 0.422252 0.402548 0.033300
O O5 0.882357 0.130082 0.812352
O O6 0.144099 0.060500 0.774944
O O7 0.754137 0.041370 0.110937
O O8 0.500000 0.500000 0.500000
O O9 0.428068 0.407983 0.752325
O O10 0.730042 0.344864 0.673472
O O11 0.995859 0.250000 0.586950
#
# Coordination Sequence:
#
# PCOD8068403 Si02
#       5
#     4   4   4   4   4
#     4   9  17  33  53  74  99 129 167 211 251 292
#     4   9  19  32  51  78 100 126 170 211 246 296
#     4  10  17  30  55  77  95 122 163 213 253 285
#     4   9  18  32  53  76  97 126 171 214 244 291
#     4  11  21  33  50  74 106 138 165 203 258 311
#
# _framework density 17.956246
#
# number of rings (size 3 to 8) (size 9 to 14) (size 15 to 20)
#    0.000    2.400    0.000    6.000    0.000    0.800 
#    0.000    1.000    0.000   15.600    0.000    0.000 
#    0.000    0.000    0.000    0.000    0.000    0.000 
#
# Total GULP energy -247915.041042 kJ/mol
# GULP energy per Si atom -12395.752052 kJ/mol
# Density = 1.791538 g / cm^3
# Si number density = 17.956246 Si / 1000 Ang^3
#
#
#
# Elastic Constant Matrix: (Units=GPa)
#
#
# Indices 1 2 3 4 5 6 
#
# 1 116.4329 23.6684 28.6848 0.0000 -7.0620 0.0000
# 2 23.6684 82.5886 45.2161 0.0000 -2.2966 0.0000
# 3 28.6848 45.2161 110.0225 0.0000 -9.9624 0.0000
# 4 0.0000 0.0000 0.0000 14.5060 0.0000 -0.2895
# 5 -7.0620 -2.2966 -9.9624 0.0000 25.7827 0.0000
# 6 0.0000 0.0000 0.0000 -0.2895 0.0000 14.7340
#
#
#
# Elastic Compliance Matrix: (Units=1/GPa)
#
#
# Indices 1 2 3 4 5 6 
#
# 1 0.009450 -0.001805 -0.001556 0.000000 0.001826 0.000000
# 2 -0.001805 0.016000 -0.006239 0.000000 -0.001480 0.000000
# 3 -0.001556 -0.006239 0.012404 0.000000 0.003811 0.000000
# 4 0.000000 0.000000 0.000000 0.068964 0.000000 0.001355
# 5 0.001826 -0.001480 0.003811 0.000000 0.040626 0.000000
# 6 0.000000 0.000000 0.000000 0.001355 0.000000 0.067897
#
#
# Mechanical properties :
#
#
# Convention : Reuss Voigt Hill
#
# Bulk Modulus (GPa) = 53.61186 56.02029 54.81608
# Shear Modulus (GPa) = 20.76757 25.10286 22.93522
#
# Velocity S-wave (km/s) = 3.40452 3.74304 3.57779
# Velocity P-wave (km/s) = 6.73618 7.06728 6.90371
#
# Compressibility (1/GPa) = 0.01865259
#
# Stress axis : x y z
#
# Youngs Moduli (GPa) = 105.82206 62.49950 80.61948
#
# Poissons Ratio (x) = 0.11282 0.12548
# Poissons Ratio (y) = 0.19103 0.50298
# Poissons Ratio (z) = 0.16471 0.38993
#
# Static dielectric constant tensor:
#      x y z
#    x 3.713050 0.000000 -0.039090 
#    y 0.000000 2.809930 0.000000 
#    z -0.039090 0.000000 3.490100 
# 
# 
# High freq. dielectric constant tensor:
#      x y z
#    x 1.711370 0.000000 -0.009820 
#    y 0.000000 1.628940 0.000000 
#    z -0.009820 0.000000 1.711650 
# 
# From -- ./inp_files/13054.got.cif
#   From: 2010.06.25/outbox.cif.g09.slc.cpg/sg11_7_cif.got.tgz:13054.got - 2010.06.27 23:14:04.
