data_PCOD8068830
_publ_section_title
;
Structure prediction by ZEFSAII (Michael W. Deem and Ramdas Pophale) SiO2 
 PCOD8068830
Probable space group: P 21/M
;
_chemical_formula_sum "Si O2"
_cell_formula_units_Z 28
_cell_length_a 22.270042
_cell_length_b 8.751921
_cell_length_c 13.769160
_cell_angle_alpha 90.000000
_cell_angle_beta 38.954842
_cell_angle_gamma 90.000000
_cell_volume 1687.254672
_symmetry_space_group_name_H-M "P 21/M"
_symmetry_group_IT_number 11
_symmetry_cell_setting 'monoclinic'
loop_
_space_group_symop_operation_xyz
x,y,z
-x,1/2+y,-z
-x,-y,-z
x,1/2-y,z
loop_
_atom_site_type_symbol
_atom_site_label
_atom_site_fract_x
_atom_site_fract_y
_atom_site_fract_z
Si Si1 0.472932 0.071911 0.635121
Si Si2 0.103347 0.426249 0.466582
Si Si3 0.890716 0.426688 0.746344
Si Si4 0.397492 0.570809 0.018272
Si Si5 0.291198 0.428318 0.978770
Si Si6 0.295059 0.427621 0.325009
Si Si7 0.424532 0.569581 0.301468
O O1 0.486085 0.250000 0.607308
O O2 0.362945 0.030945 0.800309
O O3 0.543462 0.012383 0.631636
O O4 0.500000 0.000000 0.500000
O O5 0.106550 0.250000 0.427838
O O6 0.123890 0.530491 0.347922
O O7 0.182464 0.458702 0.449708
O O8 0.999251 0.464917 0.642275
O O9 0.866900 0.250000 0.790239
O O10 0.818089 0.522845 0.906728
O O11 0.419139 0.750000 0.985957
O O12 0.358128 0.526729 0.172480
O O13 0.318126 0.524714 0.039656
O O14 0.493926 0.477138 0.877617
O O15 0.298886 0.250000 0.994375
O O16 0.319096 0.250000 0.281669
O O17 0.325863 0.485866 0.393853
O O18 0.410155 0.750000 0.317993
#
# Coordination Sequence:
#
# PCOD8068830 Si02
#       7
#     4   4   4   4   4   4   4
#     4   9  20  36  54  73  95 120 151 194 245 291
#     4   9  19  31  44  64  97 132 165 204 238 270
#     4  10  18  29  46  69  93 128 170 201 235 278
#     4  11  20  30  45  67  93 127 166 199 229 277
#     4  10  19  32  48  70  99 129 157 196 243 286
#     4  11  20  31  46  66  95 132 164 196 235 275
#     4  10  21  35  48  67  95 125 156 194 237 287
#
# _framework density 16.595003999999999
#
# number of rings (size 3 to 8) (size 9 to 14) (size 15 to 20)
#    0.000    2.000    1.429    4.286    0.000    4.571 
#    0.000    0.000    0.000    0.000    0.000    1.000 
#    0.000    0.000    0.000    0.000    0.000    0.000 
#
# Total GULP energy -347129.845123 kJ/mol
# GULP energy per Si atom -12397.494469 kJ/mol
# Density = 1.655723 g / cm^3
# Si number density = 16.595004 Si / 1000 Ang^3
#
#
#
# Elastic Constant Matrix: (Units=GPa)
#
#
# Indices 1 2 3 4 5 6 
#
# 1 112.0104 32.0036 60.5814 0.0000 -16.3326 0.0000
# 2 32.0036 54.8264 29.4465 0.0000 -4.2822 0.0000
# 3 60.5814 29.4465 88.9169 0.0000 -6.1314 0.0000
# 4 0.0000 0.0000 0.0000 25.5260 0.0000 -1.5240
# 5 -16.3326 -4.2822 -6.1314 0.0000 21.2853 0.0000
# 6 0.0000 0.0000 0.0000 -1.5240 0.0000 26.8259
#
#
#
# Elastic Compliance Matrix: (Units=1/GPa)
#
#
# Indices 1 2 3 4 5 6 
#
# 1 0.016358 -0.003878 -0.009232 0.000000 0.009112 0.000000
# 2 -0.003878 0.023225 -0.005032 0.000000 0.000247 0.000000
# 3 -0.009232 -0.005032 0.019023 0.000000 -0.002617 0.000000
# 4 0.000000 0.000000 0.000000 0.039309 0.000000 0.002233
# 5 0.009112 0.000247 -0.002617 0.000000 0.053269 0.000000
# 6 0.000000 0.000000 0.000000 0.002233 0.000000 0.037404
#
#
# Mechanical properties :
#
#
# Convention : Reuss Voigt Hill
#
# Bulk Modulus (GPa) = 44.80201 55.53518 50.16860
# Shear Modulus (GPa) = 21.52268 23.64224 22.58246
#
# Velocity S-wave (km/s) = 3.60521 3.77856 3.69290
# Velocity P-wave (km/s) = 6.66228 7.25082 6.96277
#
# Compressibility (1/GPa) = 0.02232043
#
# Stress axis : x y z
#
# Youngs Moduli (GPa) = 61.13291 43.05670 52.56881
#
# Poissons Ratio (x) = 0.16698 0.48533
# Poissons Ratio (y) = 0.23709 0.26453
# Poissons Ratio (z) = 0.56440 0.21667
#
# Static dielectric constant tensor:
#      x y z
#    x 3.440490 0.000000 -0.178150 
#    y 0.000000 3.341530 0.000000 
#    z -0.178150 0.000000 3.091050 
# 
# 
# High freq. dielectric constant tensor:
#      x y z
#    x 1.631150 0.000000 -0.028170 
#    y 0.000000 1.650710 0.000000 
#    z -0.028170 0.000000 1.601270 
# 
# From -- ./inp_files/42322.got.cif
#   From: 2010.06.25/outbox.cif.g09.slc.cpg/sg11_22_cif.got.tgz:42322.got - 2010.06.27 23:14:04.
