data_PCOD8068536
_publ_section_title
;
Structure prediction by ZEFSAII (Michael W. Deem and Ramdas Pophale) SiO2 
 PCOD8068536
Probable space group: P 21/M
;
_chemical_formula_sum "Si O2"
_cell_formula_units_Z 32
_cell_length_a 31.418370
_cell_length_b 9.007092
_cell_length_c 14.134825
_cell_angle_alpha 90.000000
_cell_angle_beta 31.276597
_cell_angle_gamma 90.000000
_cell_volume 2076.673979
_symmetry_space_group_name_H-M "P 21/M"
_symmetry_group_IT_number 11
_symmetry_cell_setting 'monoclinic'
loop_
_space_group_symop_operation_xyz
x,y,z
-x,1/2+y,-z
-x,-y,-z
x,1/2-y,z
loop_
_atom_site_type_symbol
_atom_site_label
_atom_site_fract_x
_atom_site_fract_y
_atom_site_fract_z
Si Si1 0.420366 0.922307 0.687717
Si Si2 0.642423 0.077629 0.383583
Si Si3 0.057621 0.415051 0.019280
Si Si4 0.431373 0.572798 0.065782
Si Si5 0.519494 0.075609 0.234727
Si Si6 0.218317 0.575596 0.739841
Si Si7 0.094335 0.413955 0.728469
Si Si8 0.269865 0.073429 0.450300
O O1 0.438228 0.750000 0.649798
O O2 0.349524 0.962874 0.745141
O O3 0.411307 0.967405 0.816066
O O4 0.500000 0.000000 0.500000
O O5 0.622244 0.250000 0.435344
O O6 0.728674 0.038295 0.267836
O O7 0.568744 0.993094 0.575014
O O8 0.063578 0.250000 0.051131
O O9 0.126502 0.518798 0.935956
O O10 0.071337 0.411446 0.881868
O O11 0.966359 0.477752 0.213759
O O12 0.432900 0.750000 0.074442
O O13 0.343641 0.510093 0.260551
O O14 0.500000 0.500000 0.000000
O O15 0.447446 0.518838 0.928261
O O16 0.505300 0.250000 0.256771
O O17 0.215871 0.750000 0.720623
O O18 0.259600 0.487855 0.575383
O O19 0.083254 0.250000 0.706380
O O20 0.189086 0.464417 0.541092
O O21 0.284886 0.250000 0.427725
#
# Coordination Sequence:
#
# PCOD8068536 Si02
#       8
#     4   4   4   4   4   4   4   4
#     4   8  14  27  43  59  78 100 130 167 204 243
#     4   9  17  27  42  62  82 106 135 166 203 244
#     4   9  16  25  39  59  81 107 136 165 200 241
#     4  11  22  33  44  60  82 111 144 175 207 240
#     4   9  18  30  44  59  78 106 138 172 207 241
#     4  10  18  27  40  60  86 113 138 166 201 243
#     4   8  15  27  41  56  76 103 136 170 202 238
#     4  10  20  32  44  59  80 110 144 175 206 239
#
# _framework density 15.409255999999999
#
# number of rings (size 3 to 8) (size 9 to 14) (size 15 to 20)
#    0.000    2.750    0.000    3.000    0.000    7.500 
#    0.000    0.000    0.000    0.000    0.000    0.000 
#    0.000    1.000    0.000    2.000    0.000    2.875 
#
# Total GULP energy -396437.183081 kJ/mol
# GULP energy per Si atom -12388.661971 kJ/mol
# Density = 1.537418 g / cm^3
# Si number density = 15.409256 Si / 1000 Ang^3
#
#
#
# Elastic Constant Matrix: (Units=GPa)
#
#
# Indices 1 2 3 4 5 6 
#
# 1 121.6955 41.6236 55.3320 0.0000 -7.0489 0.0000
# 2 41.6236 61.4238 34.5462 0.0000 -6.2582 0.0000
# 3 55.3320 34.5462 79.5714 0.0000 -16.3959 0.0000
# 4 0.0000 0.0000 0.0000 23.2544 0.0000 -6.2385
# 5 -7.0489 -6.2582 -16.3959 0.0000 20.2404 0.0000
# 6 0.0000 0.0000 0.0000 -6.2385 0.0000 18.2963
#
#
#
# Elastic Compliance Matrix: (Units=1/GPa)
#
#
# Indices 1 2 3 4 5 6 
#
# 1 0.013230 -0.004957 -0.007699 0.000000 -0.003162 0.000000
# 2 -0.004957 0.023418 -0.006702 0.000000 0.000085 0.000000
# 3 -0.007699 -0.006702 0.023829 0.000000 0.014549 0.000000
# 4 0.000000 0.000000 0.000000 0.047332 0.000000 0.016139
# 5 -0.003162 0.000085 0.014549 0.000000 0.060117 0.000000
# 6 0.000000 0.000000 0.000000 0.016139 0.000000 0.060159
#
#
# Mechanical properties :
#
#
# Convention : Reuss Voigt Hill
#
# Bulk Modulus (GPa) = 45.95731 58.41048 52.18390
# Shear Modulus (GPa) = 18.24444 21.10415 19.67429
#
# Velocity S-wave (km/s) = 3.44465 3.70479 3.57709
# Velocity P-wave (km/s) = 6.76092 7.50260 7.14140
#
# Compressibility (1/GPa) = 0.02175932
#
# Stress axis : x y z
#
# Youngs Moduli (GPa) = 75.58362 42.70258 41.96573
#
# Poissons Ratio (x) = 0.21169 0.32311
# Poissons Ratio (y) = 0.37470 0.28126
# Poissons Ratio (z) = 0.58195 0.28620
#
# Static dielectric constant tensor:
#      x y z
#    x 3.389680 0.000000 -0.161010 
#    y 0.000000 3.102330 0.000000 
#    z -0.161010 0.000000 2.822810 
# 
# 
# High freq. dielectric constant tensor:
#      x y z
#    x 1.583020 0.000000 -0.024690 
#    y 0.000000 1.603740 0.000000 
#    z -0.024690 0.000000 1.553100 
# 
# From -- ./inp_files/51262.got.cif
#   From: 2010.06.25/outbox.cif.g09.slc.cpg/sg11_26_cif.got.tgz:51262.got - 2010.06.27 23:14:04.
