data_PCOD8068710
_publ_section_title
;
Structure prediction by ZEFSAII (Michael W. Deem and Ramdas Pophale) SiO2 
 PCOD8068710
Probable space group: P 21/M
;
_chemical_formula_sum "Si O2"
_cell_formula_units_Z 24
_cell_length_a 16.326554
_cell_length_b 20.668043
_cell_length_c 13.752596
_cell_angle_alpha 90.000000
_cell_angle_beta 17.086402
_cell_angle_gamma 90.000000
_cell_volume 1363.484753
_symmetry_space_group_name_H-M "P 21/M"
_symmetry_group_IT_number 11
_symmetry_cell_setting 'monoclinic'
loop_
_space_group_symop_operation_xyz
x,y,z
-x,1/2+y,-z
-x,-y,-z
x,1/2-y,z
loop_
_atom_site_type_symbol
_atom_site_label
_atom_site_fract_x
_atom_site_fract_y
_atom_site_fract_z
Si Si1 0.395070 0.036817 0.712616
Si Si2 0.890350 0.750000 0.786635
Si Si3 0.745838 0.250000 0.435925
Si Si4 0.866599 0.118225 0.516167
Si Si5 0.535383 0.938774 0.893406
Si Si6 0.860870 0.386859 0.296270
Si Si7 0.874698 0.481782 0.800731
O O1 0.659973 0.063728 0.469779
O O2 0.500000 0.000000 0.500000
O O3 0.184055 0.093520 0.918968
O O4 0.224461 0.988112 0.975393
O O5 0.079799 0.750000 0.664938
O O6 0.958492 0.682711 0.653497
O O7 0.574972 0.750000 0.174738
O O8 0.823287 0.315707 0.290030
O O9 0.770920 0.116238 0.511943
O O10 0.596215 0.120098 0.894273
O O11 0.050017 0.053229 0.328518
O O12 0.863428 0.932056 0.497775
O O13 0.372024 0.948664 0.978500
O O14 0.500000 0.000000 0.000000
#
# Coordination Sequence:
#
# PCOD8068710 Si02
#       7
#     4   2   2   4   4   4   4
#     4  11  21  34  50  72  99 127 163 208 255 291
#     4  10  20  28  46  70 101 132 155 186 232 296
#     4  10  18  32  48  72  99 130 157 188 244 298
#     4   9  18  31  46  71 100 126 154 187 234 285
#     4  10  18  28  46  67  93 124 155 185 222 276
#     4  10  20  32  50  73 102 128 155 197 242 302
#     4  10  19  30  46  67  92 124 157 194 232 279
#
# _framework density 17.601958
#
# number of rings (size 3 to 8) (size 9 to 14) (size 15 to 20)
#    0.000    2.000    0.000    8.500    0.000    6.667 
#    0.000    0.000    0.000    0.000    0.000    7.000 
#    0.000    0.000    0.000    0.000    0.000    0.000 
#
# Total GULP energy -297425.907823 kJ/mol
# GULP energy per Si atom -12392.746159 kJ/mol
# Density = 1.756190 g / cm^3
# Si number density = 17.601958 Si / 1000 Ang^3
#
#
#
# Elastic Constant Matrix: (Units=GPa)
#
#
# Indices 1 2 3 4 5 6 
#
# 1 64.8014 26.1742 41.8006 0.0000 -8.7790 0.0000
# 2 26.1742 73.8507 35.6980 0.0000 6.9522 0.0000
# 3 41.8006 35.6980 98.8938 0.0000 -1.8777 0.0000
# 4 0.0000 0.0000 0.0000 29.5503 0.0000 -4.0164
# 5 -8.7790 6.9522 -1.8777 0.0000 37.4483 0.0000
# 6 0.0000 0.0000 0.0000 -4.0164 0.0000 14.9893
#
#
#
# Elastic Compliance Matrix: (Units=1/GPa)
#
#
# Indices 1 2 3 4 5 6 
#
# 1 0.023415 -0.005011 -0.007974 0.000000 0.006020 0.000000
# 2 -0.005011 0.017905 -0.004435 0.000000 -0.004721 0.000000
# 3 -0.007974 -0.004435 0.015078 0.000000 -0.000290 0.000000
# 4 0.000000 0.000000 0.000000 0.035120 0.000000 0.009410
# 5 0.006020 -0.004721 -0.000290 0.000000 0.028977 0.000000
# 6 0.000000 0.000000 0.000000 0.009410 0.000000 0.069236
#
#
# Mechanical properties :
#
#
# Convention : Reuss Voigt Hill
#
# Bulk Modulus (GPa) = 46.38628 49.43239 47.90934
# Shear Modulus (GPa) = 21.57454 25.32246 23.44850
#
# Velocity S-wave (km/s) = 3.50478 3.79702 3.65383
# Velocity P-wave (km/s) = 6.54126 6.88241 6.71401
#
# Compressibility (1/GPa) = 0.02155810
#
# Stress axis : x y z
#
# Youngs Moduli (GPa) = 42.70788 55.85044 66.32341
#
# Poissons Ratio (x) = 0.27986 0.52886
# Poissons Ratio (y) = 0.21401 0.29413
# Poissons Ratio (z) = 0.34055 0.24769
#
# Static dielectric constant tensor:
#      x y z
#    x 3.177930 0.000000 -0.109870 
#    y 0.000000 8.869560 0.000000 
#    z -0.109870 0.000000 3.849530 
# 
# 
# High freq. dielectric constant tensor:
#      x y z
#    x 1.664770 0.000000 -0.029420 
#    y 0.000000 1.653200 0.000000 
#    z -0.029420 0.000000 1.679740 
# 
# From -- ./inp_files/40180.got.cif
#   From: 2010.06.25/outbox.cif.g09.slc.cpg/sg11_21_cif.got.tgz:40180.got - 2010.06.27 23:14:04.
