data_PCOD8068872
_publ_section_title
;
Structure prediction by ZEFSAII (Michael W. Deem and Ramdas Pophale) SiO2 
 PCOD8068872
Probable space group: P 21/M
;
_chemical_formula_sum "Si O2"
_cell_formula_units_Z 24
_cell_length_a 19.965743
_cell_length_b 8.900219
_cell_length_c 11.425188
_cell_angle_alpha 90.000000
_cell_angle_beta 136.812148
_cell_angle_gamma 90.000000
_cell_volume 1389.487957
_symmetry_space_group_name_H-M "P 21/M"
_symmetry_group_IT_number 11
_symmetry_cell_setting 'monoclinic'
loop_
_space_group_symop_operation_xyz
x,y,z
-x,1/2+y,-z
-x,-y,-z
x,1/2-y,z
loop_
_atom_site_type_symbol
_atom_site_label
_atom_site_fract_x
_atom_site_fract_y
_atom_site_fract_z
Si Si1 0.318430 0.072070 0.097153
Si Si2 0.943309 0.924711 0.590287
Si Si3 0.281248 0.074424 0.311333
Si Si4 0.851140 0.075607 0.258419
Si Si5 0.493012 0.073944 0.616599
Si Si6 0.086696 0.071759 0.182576
O O1 0.326587 0.250000 0.104949
O O2 0.288741 0.009691 0.188435
O O3 0.425073 0.003936 0.197160
O O4 0.240355 0.018405 0.903571
O O5 0.919022 0.750000 0.539239
O O6 0.921568 0.978241 0.693641
O O7 0.056769 0.958032 0.707930
O O8 0.874187 0.022592 0.418960
O O9 0.264026 0.250000 0.276156
O O10 0.380448 0.043492 0.513469
O O11 0.188692 0.005487 0.261776
O O12 0.823677 0.250000 0.224605
O O13 0.514779 0.250000 0.636344
O O14 0.500000 0.000000 0.500000
O O15 0.079765 0.250000 0.162608
O O16 0.000000 0.000000 0.000000
#
# Coordination Sequence:
#
# PCOD8068872 Si02
#       6
#     4   4   4   4   4   4
#     4  10  18  29  47  71  96 122 154 191 233 276
#     4   9  19  33  48  68  94 124 156 190 229 272
#     4   8  16  29  46  68  95 125 151 183 229 275
#     4  10  19  31  48  69  93 122 156 194 232 271
#     4   9  16  28  45  67  94 123 155 190 231 274
#     4  10  19  32  49  70  96 124 154 185 223 273
#
# _framework density 17.272548
#
# number of rings (size 3 to 8) (size 9 to 14) (size 15 to 20)
#    0.000    2.667    0.000    3.500    0.000    1.333 
#    0.000    4.167    0.000    1.000    0.000    0.000 
#    0.000    0.000    0.000    0.000    0.000    0.000 
#
# Total GULP energy -297497.185135 kJ/mol
# GULP energy per Si atom -12395.716047 kJ/mol
# Density = 1.723324 g / cm^3
# Si number density = 17.272548 Si / 1000 Ang^3
#
#
#
# Elastic Constant Matrix: (Units=GPa)
#
#
# Indices 1 2 3 4 5 6 
#
# 1 97.8450 30.9867 65.3206 0.0000 9.5558 0.0000
# 2 30.9867 66.8756 51.1393 0.0000 7.7895 0.0000
# 3 65.3206 51.1393 134.6746 0.0000 19.6767 0.0000
# 4 0.0000 0.0000 0.0000 35.3477 0.0000 2.3074
# 5 9.5558 7.7895 19.6767 0.0000 27.7159 0.0000
# 6 0.0000 0.0000 0.0000 2.3074 0.0000 17.0694
#
#
#
# Elastic Compliance Matrix: (Units=1/GPa)
#
#
# Indices 1 2 3 4 5 6 
#
# 1 0.015301 -0.001994 -0.006667 0.000000 0.000018 0.000000
# 2 -0.001994 0.021333 -0.007094 0.000000 -0.000272 0.000000
# 3 -0.006667 -0.007094 0.014198 0.000000 -0.005788 0.000000
# 4 0.000000 0.000000 0.000000 0.028542 0.000000 -0.003858
# 5 0.000018 -0.000272 -0.005788 0.000000 0.040259 0.000000
# 6 0.000000 0.000000 0.000000 -0.003858 0.000000 0.059106
#
#
# Mechanical properties :
#
#
# Convention : Reuss Voigt Hill
#
# Bulk Modulus (GPa) = 51.75118 66.03206 58.89162
# Shear Modulus (GPa) = 23.07444 26.15649 24.61547
#
# Velocity S-wave (km/s) = 3.65897 3.89567 3.77917
# Velocity P-wave (km/s) = 6.91934 7.65163 7.29468
#
# Compressibility (1/GPa) = 0.01932323
#
# Stress axis : x y z
#
# Youngs Moduli (GPa) = 65.35723 46.87486 70.43090
#
# Poissons Ratio (x) = 0.09345 0.46955
# Poissons Ratio (y) = 0.13029 0.49965
# Poissons Ratio (z) = 0.43572 0.33254
#
# Static dielectric constant tensor:
#      x y z
#    x 3.402620 0.000000 0.306610 
#    y 0.000000 3.202500 0.000000 
#    z 0.306610 0.000000 3.369350 
# 
# 
# High freq. dielectric constant tensor:
#      x y z
#    x 1.641520 0.000000 0.020350 
#    y 0.000000 1.661470 0.000000 
#    z 0.020350 0.000000 1.671570 
# 
# From -- ./inp_files/36967.got.cif
#   From: 2010.06.25/outbox.cif.g09.slc.cpg/sg11_19_cif.got.tgz:36967.got - 2010.06.27 23:14:04.
