data_PCOD8068071
_publ_section_title
;
Structure prediction by ZEFSAII (Michael W. Deem and Ramdas Pophale) SiO2 
 PCOD8068071
Probable space group: P 2/M
;
_chemical_formula_sum "Si O2"
_cell_formula_units_Z 32
_cell_length_a 21.000000
_cell_length_b 9.000000
_cell_length_c 30.000000
_cell_angle_alpha 90.000000
_cell_angle_beta 20.000000
_cell_angle_gamma 90.000000
_cell_volume 1939.254213
_symmetry_space_group_name_H-M "P 2/M"
_symmetry_group_IT_number 10
_symmetry_cell_setting 'monoclinic'
loop_
_space_group_symop_operation_xyz
x,y,z
-x,y,-z
-x,-y,-z
x,-y,z
loop_
_atom_site_type_symbol
_atom_site_label
_atom_site_fract_x
_atom_site_fract_y
_atom_site_fract_z
Si Si1 0.393169 0.331414 0.702380
Si Si2 0.308939 0.164579 0.036658
Si Si3 0.180894 0.834366 0.911736
Si Si4 0.084828 0.163755 0.275340
Si Si5 0.018628 0.672899 0.788365
Si Si6 0.967347 0.333337 0.120202
Si Si7 0.385780 0.334924 0.120866
Si Si8 0.245496 0.824793 0.564467
O O1 0.464390 0.500000 0.660063
O O2 0.338093 0.271214 0.787313
O O3 0.222328 0.317580 0.781607
O O4 0.547619 0.226439 0.580131
O O5 0.209397 0.156267 0.149451
O O6 0.188074 0.263933 0.082866
O O7 0.332921 0.000000 0.000704
O O8 0.512017 0.236748 0.909041
O O9 0.261840 0.000000 0.863150
O O10 0.000000 0.831974 0.000000
O O11 0.126226 0.774241 0.996335
O O12 0.177729 0.272702 0.250069
O O13 0.881723 0.222927 0.394253
O O14 0.071763 0.000000 0.305436
O O15 0.016508 0.500000 0.778157
O O16 0.077330 0.708604 0.799945
O O17 0.173802 0.750487 0.656586
O O18 0.045978 0.500000 0.064661
O O19 0.366935 0.500000 0.152244
O O20 0.500000 0.333256 0.000000
O O21 0.234532 0.000000 0.578693
#
# Coordination Sequence:
#
# PCOD8068071 Si02
#       8
#     4   4   4   4   4   4   4   4
#     4  10  19  32  49  66  87 116 149 184 224 267
#     4   9  16  26  39  56  81 112 144 177 216 258
#     4   9  17  30  49  70  88 107 138 183 229 268
#     4   8  15  26  38  53  78 111 142 176 216 256
#     4  10  19  31  45  62  88 120 153 185 219 261
#     4   9  19  33  48  66  88 116 148 184 225 267
#     4   9  15  22  36  57  78 104 141 179 212 252
#     4  10  20  32  44  62  90 121 152 184 221 263
#
# _framework density 16.501189
#
# number of rings (size 3 to 8) (size 9 to 14) (size 15 to 20)
#    0.000    2.750    0.000    3.000    0.000    8.500 
#    0.000    2.500    0.000    0.000    0.000    0.000 
#    0.000    1.000    0.000   10.500    0.000    6.750 
#
# Total GULP energy -396681.745526 kJ/mol
# GULP energy per Si atom -12396.304548 kJ/mol
# Density = 1.646363 g / cm^3
# Si number density = 16.501189 Si / 1000 Ang^3
#
#
#
# Elastic Constant Matrix: (Units=GPa)
#
#
# Indices 1 2 3 4 5 6 
#
# 1 20.9948 29.9172 41.0238 0.0000 0.5144 0.0000
# 2 29.9172 87.8701 44.8188 0.0000 4.2016 0.0000
# 3 41.0238 44.8188 44.0576 0.0000 11.4570 0.0000
# 4 0.0000 0.0000 0.0000 23.2311 0.0000 -6.7004
# 5 0.5144 4.2016 11.4570 0.0000 0.1162 0.0000
# 6 0.0000 0.0000 0.0000 -6.7004 0.0000 14.8085
#
#
#
# Elastic Compliance Matrix: (Units=1/GPa)
#
#
# Indices 1 2 3 4 5 6 
#
# 1 0.065187 -0.015448 0.004675 0.000000 -0.190960 0.000000
# 2 -0.015448 0.019874 -0.006626 0.000000 0.003048 0.000000
# 3 0.004675 -0.006626 0.001292 0.000000 0.091493 0.000000
# 4 0.000000 0.000000 0.000000 0.049506 0.000000 0.022400
# 5 -0.190960 0.003048 0.091493 0.000000 0.320007 0.000000
# 6 0.000000 0.000000 0.000000 0.022400 0.000000 0.077664
#
#
# Mechanical properties :
#
#
# Convention : Reuss Voigt Hill
#
# Bulk Modulus (GPa) = 19.39634 42.71578 31.05606
# Shear Modulus (GPa) = 8.53951 10.10868 9.32410
#
# Velocity S-wave (km/s) = 2.27735 2.47777 2.37967
# Velocity P-wave (km/s) = 4.32379 5.84196 5.13924
#
# Compressibility (1/GPa) = 0.05155611
#
# Stress axis : x y z
#
# Youngs Moduli (GPa) = 15.34041 50.31783 773.85270
#
# Poissons Ratio (x) = 0.77730 -3.61768
# Poissons Ratio (y) = 0.23698 5.12728
# Poissons Ratio (z) = -0.07171 0.33339
#
# Static dielectric constant tensor:
#      x y z
#    x 2.972300 0.000000 -0.208560 
#    y 0.000000 3.296410 0.000000 
#    z -0.208560 0.000000 2.858080 
# 
# 
# High freq. dielectric constant tensor:
#      x y z
#    x 1.599970 0.000000 -0.020800 
#    y 0.000000 1.648780 0.000000 
#    z -0.020800 0.000000 1.594820 
# 
# From -- ./inp_files/54899.got.cif
#   From: 2010.06.25/outbox.ucp.g09.slc.cvg/sg10_28_cif.got.tgz:54899.got - 2010.06.28 13:37:52.
