data_PCOD8068851
_publ_section_title
;
Structure prediction by ZEFSAII (Michael W. Deem and Ramdas Pophale) SiO2 
 PCOD8068851
Probable space group: P 21/M
;
_chemical_formula_sum "Si O2"
_cell_formula_units_Z 32
_cell_length_a 28.788181
_cell_length_b 9.232642
_cell_length_c 19.321359
_cell_angle_alpha 90.000000
_cell_angle_beta 156.512374
_cell_angle_gamma 90.000000
_cell_volume 2046.735861
_symmetry_space_group_name_H-M "P 21/M"
_symmetry_group_IT_number 11
_symmetry_cell_setting 'monoclinic'
loop_
_space_group_symop_operation_xyz
x,y,z
-x,1/2+y,-z
-x,-y,-z
x,1/2-y,z
loop_
_atom_site_type_symbol
_atom_site_label
_atom_site_fract_x
_atom_site_fract_y
_atom_site_fract_z
Si Si1 0.811283 0.413534 0.213903
Si Si2 0.573356 0.078831 0.042137
Si Si3 0.744350 0.915375 0.915159
Si Si4 0.507977 0.583462 0.666679
Si Si5 0.417105 0.417711 0.082203
Si Si6 0.157228 0.913727 0.588407
Si Si7 0.595315 0.916502 0.586596
Si Si8 0.945448 0.416317 0.258773
O O1 0.758462 0.250000 0.137699
O O2 0.874298 0.433533 0.373751
O O3 0.903751 0.440398 0.280217
O O4 0.709979 0.530758 0.067418
O O5 0.549227 0.250000 0.009257
O O6 0.534910 0.013748 0.915448
O O7 0.708574 0.042563 0.240560
O O8 0.500000 0.000000 0.000000
O O9 0.773797 0.750000 0.974696
O O10 0.634486 0.968740 0.811230
O O11 0.716338 0.930451 0.794523
O O12 0.856684 0.011851 0.083785
O O13 0.490635 0.750000 0.621570
O O14 0.498372 0.562119 0.736141
O O15 0.404123 0.490327 0.488820
O O16 0.410381 0.250000 0.050468
O O17 0.135609 0.750000 0.534728
O O18 0.073720 0.013977 0.427968
O O19 0.559039 0.750000 0.528858
O O20 0.500000 0.000000 0.500000
O O21 0.955946 0.250000 0.252566
#
# Coordination Sequence:
#
# PCOD8068851 Si02
#       8
#     4   4   4   4   4   4   4   4
#     4   9  18  30  41  60  88 118 153 188 222 260
#     4  10  21  37  54  71  90 115 146 184 231 276
#     4   9  17  29  40  56  85 122 157 186 224 265
#     4   9  17  28  42  62  87 117 154 189 224 264
#     4  10  18  29  47  69  91 119 152 187 226 269
#     4   9  19  33  46  61  86 116 146 182 224 269
#     4   9  17  27  40  57  81 116 155 191 226 263
#     4  11  20  27  41  64  88 117 155 191 221 258
#
# _framework density 15.634649
#
# number of rings (size 3 to 8) (size 9 to 14) (size 15 to 20)
#    0.000    2.500    1.250    3.375    0.000    6.500 
#    0.000    0.000    0.000    0.000    0.000    0.000 
#    0.000    1.000    0.000    3.250    0.000    4.000 
#
# Total GULP energy -396678.156036 kJ/mol
# GULP energy per Si atom -12396.192376 kJ/mol
# Density = 1.559906 g / cm^3
# Si number density = 15.634649 Si / 1000 Ang^3
#
#
#
# Elastic Constant Matrix: (Units=GPa)
#
#
# Indices 1 2 3 4 5 6 
#
# 1 63.3229 45.8976 41.7263 0.0000 -10.1752 0.0000
# 2 45.8976 105.2167 57.3528 0.0000 -13.9380 0.0000
# 3 41.7263 57.3528 80.9403 0.0000 -17.8484 0.0000
# 4 0.0000 0.0000 0.0000 28.6600 0.0000 -5.5205
# 5 -10.1752 -13.9380 -17.8484 0.0000 17.4426 0.0000
# 6 0.0000 0.0000 0.0000 -5.5205 0.0000 23.9690
#
#
#
# Elastic Compliance Matrix: (Units=1/GPa)
#
#
# Indices 1 2 3 4 5 6 
#
# 1 0.026560 -0.006691 -0.008669 0.000000 0.001276 0.000000
# 2 -0.006691 0.017201 -0.008482 0.000000 0.001162 0.000000
# 3 -0.008669 -0.008482 0.026118 0.000000 0.014890 0.000000
# 4 0.000000 0.000000 0.000000 0.036512 0.000000 0.008409
# 5 0.001276 0.001162 0.014890 0.000000 0.074240 0.000000
# 6 0.000000 0.000000 0.000000 0.008409 0.000000 0.043657
#
#
# Mechanical properties :
#
#
# Convention : Reuss Voigt Hill
#
# Bulk Modulus (GPa) = 45.06107 59.93703 52.49905
# Shear Modulus (GPa) = 17.89735 20.98119 19.43927
#
# Velocity S-wave (km/s) = 3.38705 3.66726 3.52994
# Velocity P-wave (km/s) = 6.64680 7.50673 7.08982
#
# Compressibility (1/GPa) = 0.02219210
#
# Stress axis : x y z
#
# Youngs Moduli (GPa) = 37.65112 58.13738 38.28759
#
# Poissons Ratio (x) = 0.38901 0.33193
# Poissons Ratio (y) = 0.25193 0.32477
# Poissons Ratio (z) = 0.32641 0.49315
#
# Static dielectric constant tensor:
#      x y z
#    x 2.869390 0.000000 -0.367730 
#    y 0.000000 3.140270 0.000000 
#    z -0.367730 0.000000 2.908490 
# 
# 
# High freq. dielectric constant tensor:
#      x y z
#    x 1.561550 0.000000 -0.031890 
#    y 0.000000 1.615370 0.000000 
#    z -0.031890 0.000000 1.577090 
# 
# From -- ./inp_files/51357.got.cif
#   From: 2010.06.25/outbox.cif.g09.slc.cpg/sg11_26_cif.got.tgz:51357.got - 2010.06.27 23:14:04.
