data_PCOD8068701
_publ_section_title
;
Structure prediction by ZEFSAII (Michael W. Deem and Ramdas Pophale) SiO2 
 PCOD8068701
Probable space group: P 21/M
;
_chemical_formula_sum "Si O2"
_cell_formula_units_Z 28
_cell_length_a 30.921404
_cell_length_b 9.087660
_cell_length_c 9.613793
_cell_angle_alpha 90.000000
_cell_angle_beta 34.985061
_cell_angle_gamma 90.000000
_cell_volume 1548.943517
_symmetry_space_group_name_H-M "P 21/M"
_symmetry_group_IT_number 11
_symmetry_cell_setting 'monoclinic'
loop_
_space_group_symop_operation_xyz
x,y,z
-x,1/2+y,-z
-x,-y,-z
x,1/2-y,z
loop_
_atom_site_type_symbol
_atom_site_label
_atom_site_fract_x
_atom_site_fract_y
_atom_site_fract_z
Si Si1 0.766393 0.579582 0.634967
Si Si2 0.921212 0.420815 0.723467
Si Si3 0.190914 0.421654 0.785401
Si Si4 0.440205 0.580505 0.469012
Si Si5 0.598779 0.918557 0.150928
Si Si6 0.687044 0.578155 0.315566
Si Si7 0.797995 0.420948 0.822194
O O1 0.783013 0.750000 0.622407
O O2 0.799963 0.532460 0.398224
O O3 0.809064 0.481718 0.637298
O O4 0.676841 0.548733 0.866946
O O5 0.934869 0.250000 0.715779
O O6 0.874738 0.448243 0.704670
O O7 0.000000 0.500000 0.500000
O O8 0.877489 0.486098 0.970994
O O9 0.172064 0.250000 0.852952
O O10 0.269033 0.459957 0.658554
O O11 0.419382 0.750000 0.506428
O O12 0.409493 0.527417 0.698705
O O13 0.530284 0.553386 0.222371
O O14 0.396912 0.491881 0.460455
O O15 0.595061 0.750000 0.215009
O O16 0.680112 0.750000 0.308691
O O17 0.729999 0.510594 0.070013
O O18 0.776456 0.250000 0.876159
#
# Coordination Sequence:
#
# PCOD8068701 Si02
#       7
#     4   4   4   4   4   4   4
#     4  10  19  34  54  77 105 139 176 214 260 313
#     4  10  21  38  60  84 109 135 168 208 252 304
#     4   9  20  36  55  78 106 139 174 212 257 309
#     4  10  18  28  45  71 101 133 177 228 267 303
#     4   9  18  30  46  70 101 137 175 219 268 309
#     4  10  18  31  50  72 100 137 179 219 259 308
#     4  10  20  33  53  81 106 132 170 215 256 301
#
# _framework density 18.076836
#
# number of rings (size 3 to 8) (size 9 to 14) (size 15 to 20)
#    0.000    2.286    1.429    1.714    0.000    3.429 
#    0.000    1.429    0.000    0.000    0.000    0.000 
#    0.000    0.000    0.000    0.000    0.000    0.000 
#
# Total GULP energy -347211.559862 kJ/mol
# GULP energy per Si atom -12400.412852 kJ/mol
# Density = 1.803569 g / cm^3
# Si number density = 18.076836 Si / 1000 Ang^3
#
#
#
# Elastic Constant Matrix: (Units=GPa)
#
#
# Indices 1 2 3 4 5 6 
#
# 1 87.8327 47.1472 50.9603 0.0000 0.5534 0.0000
# 2 47.1472 91.2547 47.3863 0.0000 -3.2512 0.0000
# 3 50.9603 47.3863 90.4453 0.0000 -1.1703 0.0000
# 4 0.0000 0.0000 0.0000 23.5084 0.0000 -4.4949
# 5 0.5534 -3.2512 -1.1703 0.0000 30.8837 0.0000
# 6 0.0000 0.0000 0.0000 -4.4949 0.0000 33.3664
#
#
#
# Elastic Compliance Matrix: (Units=1/GPa)
#
#
# Indices 1 2 3 4 5 6 
#
# 1 0.018978 -0.005891 -0.007622 0.000000 -0.001249 0.000000
# 2 -0.005891 0.016934 -0.005531 0.000000 0.001679 0.000000
# 3 -0.007622 -0.005531 0.018252 0.000000 0.000246 0.000000
# 4 0.000000 0.000000 0.000000 0.043663 0.000000 0.005882
# 5 -0.001249 0.001679 0.000246 0.000000 0.032588 0.000000
# 6 0.000000 0.000000 0.000000 0.005882 0.000000 0.030763
#
#
# Mechanical properties :
#
#
# Convention : Reuss Voigt Hill
#
# Bulk Modulus (GPa) = 62.21005 62.28006 62.24506
# Shear Modulus (GPa) = 24.43487 25.82097 25.12792
#
# Velocity S-wave (km/s) = 3.68057 3.78352 3.73240
# Velocity P-wave (km/s) = 7.24921 7.32219 7.28579
#
# Compressibility (1/GPa) = 0.01607457
#
# Stress axis : x y z
#
# Youngs Moduli (GPa) = 52.69216 59.05248 54.78800
#
# Poissons Ratio (x) = 0.34791 0.41762
# Poissons Ratio (y) = 0.31043 0.30303
# Poissons Ratio (z) = 0.40165 0.32662
#
# Static dielectric constant tensor:
#      x y z
#    x 3.486700 0.000000 -0.145990 
#    y 0.000000 3.408900 0.000000 
#    z -0.145990 0.000000 3.127650 
# 
# 
# High freq. dielectric constant tensor:
#      x y z
#    x 1.703150 0.000000 -0.013360 
#    y 0.000000 1.708440 0.000000 
#    z -0.013360 0.000000 1.670600 
# 
# From -- ./inp_files/29003.got.cif
#   From: 2010.06.25/outbox.cif.g09.slc.cpg/sg11_15_cif.got.tgz:29003.got - 2010.06.27 23:14:04.
