data_PCOD8068127
_publ_section_title
;
Structure prediction by ZEFSAII (Michael W. Deem and Ramdas Pophale) SiO2 
 PCOD8068127
Probable space group: P 21/M
;
_chemical_formula_sum "Si O2"
_cell_formula_units_Z 28
_cell_length_a 30.635749
_cell_length_b 8.587201
_cell_length_c 9.708934
_cell_angle_alpha 90.000000
_cell_angle_beta 37.466863
_cell_angle_gamma 90.000000
_cell_volume 1553.714702
_symmetry_space_group_name_H-M "P 21/M"
_symmetry_group_IT_number 11
_symmetry_cell_setting 'monoclinic'
loop_
_space_group_symop_operation_xyz
x,y,z
-x,1/2+y,-z
-x,-y,-z
x,1/2-y,z
loop_
_atom_site_type_symbol
_atom_site_label
_atom_site_fract_x
_atom_site_fract_y
_atom_site_fract_z
Si Si1 0.644026 0.566259 0.981950
Si Si2 0.784968 0.430935 0.649832
Si Si3 0.500666 0.934648 0.652461
Si Si4 0.644018 0.434155 0.289201
Si Si5 0.211994 0.432016 0.059252
Si Si6 0.063999 0.565202 0.429231
Si Si7 0.942017 0.071365 0.244514
O O1 0.643568 0.750000 0.965065
O O2 0.717018 0.493831 0.730544
O O3 0.572299 0.494989 0.090164
O O4 0.645106 0.517132 0.138376
O O5 0.773720 0.250000 0.717889
O O6 0.788458 0.533385 0.777960
O O7 0.861719 0.453777 0.381753
O O8 0.502979 0.750000 0.647093
O O9 0.500000 0.000000 0.500000
O O10 0.572243 0.003774 0.547463
O O11 0.640504 0.250000 0.280907
O O12 0.716901 0.486425 0.185745
O O13 0.215623 0.250000 0.020028
O O14 0.138909 0.501876 0.178017
O O15 0.065991 0.750000 0.419123
O O16 0.053937 0.502225 0.610859
O O17 0.000000 0.500000 0.500000
O O18 0.961419 0.250000 0.206445
O O19 0.000000 0.000000 0.000000
#
# Coordination Sequence:
#
# PCOD8068127 Si02
#       7
#     4   4   4   4   4   4   4
#     4  10  16  22  32  48  68  96 133 171 210 256
#     4   9  16  27  39  55  78 106 139 178 216 259
#     4  10  16  22  30  43  65  95 130 169 209 252
#     4  10  16  23  33  47  69  98 132 172 210 252
#     4  10  17  26  40  58  78 106 140 176 216 263
#     4  10  20  34  49  69  92 119 152 190 229 272
#     4   9  19  32  48  68  92 118 151 188 228 272
#
# _framework density 18.021328
#
# number of rings (size 3 to 8) (size 9 to 14) (size 15 to 20)
#    0.000    2.286    0.000   10.286    0.000    3.429 
#    0.000    0.000    0.000    0.000    0.000    0.000 
#    0.000    0.000    0.000    1.286    0.000   18.857 
#
# Total GULP energy -346878.060369 kJ/mol
# GULP energy per Si atom -12388.502156 kJ/mol
# Density = 1.798031 g / cm^3
# Si number density = 18.021328 Si / 1000 Ang^3
#
#
#
# Elastic Constant Matrix: (Units=GPa)
#
#
# Indices 1 2 3 4 5 6 
#
# 1 79.3720 36.2756 62.6142 0.0000 -48.8623 0.0000
# 2 36.2756 112.1405 46.0454 0.0000 -26.4994 0.0000
# 3 62.6142 46.0454 100.1948 0.0000 -52.7697 0.0000
# 4 0.0000 0.0000 0.0000 28.0625 0.0000 -14.7915
# 5 -48.8623 -26.4994 -52.7697 0.0000 44.6497 0.0000
# 6 0.0000 0.0000 0.0000 -14.7915 0.0000 24.1875
#
#
#
# Elastic Compliance Matrix: (Units=1/GPa)
#
#
# Indices 1 2 3 4 5 6 
#
# 1 0.040073 -0.002378 -0.004229 0.000000 0.037445 0.000000
# 2 -0.002378 0.011169 -0.004042 0.000000 -0.000751 0.000000
# 3 -0.004229 -0.004042 0.028553 0.000000 0.026719 0.000000
# 4 0.000000 0.000000 0.000000 0.052585 0.000000 0.032157
# 5 0.037445 -0.000751 0.026719 0.000000 0.094506 0.000000
# 6 0.000000 0.000000 0.000000 0.032157 0.000000 0.061009
#
#
# Mechanical properties :
#
#
# Convention : Reuss Voigt Hill
#
# Bulk Modulus (GPa) = 17.09504 64.61977 40.85740
# Shear Modulus (GPa) = 15.21182 29.16475 22.18829
#
# Velocity S-wave (km/s) = 2.90849 4.02723 3.51269
# Velocity P-wave (km/s) = 4.55914 7.58683 6.25882
#
# Compressibility (1/GPa) = 0.05849650
#
# Stress axis : x y z
#
# Youngs Moduli (GPa) = 24.95436 89.53402 35.02288
#
# Poissons Ratio (x) = 0.21294 0.14810
# Poissons Ratio (y) = 0.05935 0.14157
# Poissons Ratio (z) = 0.10552 0.36192
#
# Static dielectric constant tensor:
#      x y z
#    x 3.742880 0.000000 -1.035740 
#    y 0.000000 3.417670 0.000000 
#    z -1.035740 0.000000 4.548290 
# 
# 
# High freq. dielectric constant tensor:
#      x y z
#    x 1.650880 0.000000 -0.082590 
#    y 0.000000 1.715130 0.000000 
#    z -0.082590 0.000000 1.671830 
# 
# From -- ./inp_files/28993.got.cif
#   From: 2010.06.25/outbox.cif.g09.slc.cpg/sg11_15_cif.got.tgz:28993.got - 2010.06.27 23:14:04.
