data_PCOD8068755
_publ_section_title
;
Structure prediction by ZEFSAII (Michael W. Deem and Ramdas Pophale) SiO2 
 PCOD8068755
Probable space group: P 21/M
;
_chemical_formula_sum "Si O2"
_cell_formula_units_Z 32
_cell_length_a 26.740109
_cell_length_b 9.084778
_cell_length_c 21.349405
_cell_angle_alpha 90.000000
_cell_angle_beta 159.358370
_cell_angle_gamma 90.000000
_cell_volume 1828.306895
_symmetry_space_group_name_H-M "P 21/M"
_symmetry_group_IT_number 11
_symmetry_cell_setting 'monoclinic'
loop_
_space_group_symop_operation_xyz
x,y,z
-x,1/2+y,-z
-x,-y,-z
x,1/2-y,z
loop_
_atom_site_type_symbol
_atom_site_label
_atom_site_fract_x
_atom_site_fract_y
_atom_site_fract_z
Si Si1 0.546308 0.087647 0.730059
Si Si2 0.632414 0.421752 0.961674
Si Si3 0.852838 0.078518 0.322670
Si Si4 0.236016 0.084889 0.423545
Si Si5 0.350342 0.579125 0.668449
Si Si6 0.643800 0.419839 0.182833
Si Si7 0.556569 0.422456 0.504426
Si Si8 0.136472 0.575627 0.189435
O O1 0.583640 0.250000 0.746900
O O2 0.654214 0.042174 0.912747
O O3 0.395145 0.091833 0.585990
O O4 0.545706 0.972263 0.672558
O O5 0.590391 0.250000 0.920573
O O6 0.509252 0.519615 0.847207
O O7 0.777077 0.458703 0.167727
O O8 0.880162 0.250000 0.361660
O O9 0.760544 0.017678 0.272214
O O10 0.000000 0.000000 0.500000
O O11 0.171823 0.250000 0.353235
O O12 0.237015 0.007439 0.492542
O O13 0.143666 0.986856 0.268097
O O14 0.349188 0.750000 0.647794
O O15 0.301898 0.554370 0.682962
O O16 0.615020 0.250000 0.135252
O O17 0.500000 0.500000 0.000000
O O18 0.500000 0.500000 0.500000
O O19 0.539102 0.250000 0.492642
O O20 0.720559 0.465251 0.682107
O O21 0.115225 0.750000 0.166920
O O22 0.000000 0.500000 0.000000
#
# Coordination Sequence:
#
# PCOD8068755 Si02
#       8
#     4   4   4   4   4   4   4   4
#     4   8  15  28  48  73  98 129 167 209 254 298
#     4   9  17  31  51  73 100 133 168 210 258 304
#     4  10  21  36  52  73 103 137 173 211 255 308
#     4   9  17  30  49  74 104 138 172 209 255 302
#     4  10  18  28  48  78 104 129 166 214 262 303
#     4  10  20  33  52  77 104 132 169 214 258 305
#     4  10  20  33  52  78 106 135 169 210 254 300
#     4  10  20  34  54  80 108 139 175 213 253 306
#
# _framework density 17.502531000000001
#
# number of rings (size 3 to 8) (size 9 to 14) (size 15 to 20)
#    0.000    2.500    1.250    2.250    0.000    6.000 
#    0.000    0.000    2.750    0.000    0.000    0.000 
#    0.000    0.000    0.000    0.000    0.000    0.000 
#
# Total GULP energy -396691.638700 kJ/mol
# GULP energy per Si atom -12396.613709 kJ/mol
# Density = 1.746269 g / cm^3
# Si number density = 17.502531 Si / 1000 Ang^3
#
#
#
# Elastic Constant Matrix: (Units=GPa)
#
#
# Indices 1 2 3 4 5 6 
#
# 1 113.8706 56.9799 68.1946 0.0000 -20.3455 0.0000
# 2 56.9799 93.2316 55.7138 0.0000 -11.6199 0.0000
# 3 68.1946 55.7138 121.9155 0.0000 -20.6827 0.0000
# 4 0.0000 0.0000 0.0000 31.9969 0.0000 -5.1658
# 5 -20.3455 -11.6199 -20.6827 0.0000 27.7810 0.0000
# 6 0.0000 0.0000 0.0000 -5.1658 0.0000 27.4372
#
#
#
# Elastic Compliance Matrix: (Units=1/GPa)
#
#
# Indices 1 2 3 4 5 6 
#
# 1 0.015803 -0.005854 -0.005284 0.000000 0.005191 0.000000
# 2 -0.005854 0.016966 -0.004581 0.000000 -0.000601 0.000000
# 3 -0.005284 -0.004581 0.014044 0.000000 0.004670 0.000000
# 4 0.000000 0.000000 0.000000 0.032233 0.000000 0.006069
# 5 0.005191 -0.000601 0.004670 0.000000 0.043023 0.000000
# 6 0.000000 0.000000 0.000000 0.006069 0.000000 0.037590
#
#
# Mechanical properties :
#
#
# Convention : Reuss Voigt Hill
#
# Bulk Modulus (GPa) = 65.03735 76.75492 70.89613
# Shear Modulus (GPa) = 25.48165 27.31832 26.39998
#
# Velocity S-wave (km/s) = 3.81974 3.95501 3.88796
# Velocity P-wave (km/s) = 7.52950 8.05015 7.79418
#
# Compressibility (1/GPa) = 0.01537578
#
# Stress axis : x y z
#
# Youngs Moduli (GPa) = 63.27964 58.94091 71.20704
#
# Poissons Ratio (x) = 0.34502 0.37624
# Poissons Ratio (y) = 0.37042 0.32620
# Poissons Ratio (z) = 0.33435 0.27001
#
# Static dielectric constant tensor:
#      x y z
#    x 3.188420 0.000000 -0.382030 
#    y 0.000000 3.376330 0.000000 
#    z -0.382030 0.000000 3.438750 
# 
# 
# High freq. dielectric constant tensor:
#      x y z
#    x 1.665610 0.000000 -0.034670 
#    y 0.000000 1.684190 0.000000 
#    z -0.034670 0.000000 1.658040 
# 
# From -- ./inp_files/66422.got.cif
#   From: 2010.06.25/outbox.cif.g09.slc.cpg/sg11_34_cif.got.tgz:66422.got - 2010.06.27 23:14:04.
