data_PCOD8068494
_publ_section_title
;
Structure prediction by ZEFSAII (Michael W. Deem and Ramdas Pophale) SiO2 
 PCOD8068494
Probable space group: P 21/M
;
_chemical_formula_sum "Si O2"
_cell_formula_units_Z 32
_cell_length_a 16.187791
_cell_length_b 9.365088
_cell_length_c 18.109616
_cell_angle_alpha 90.000000
_cell_angle_beta 55.490566
_cell_angle_gamma 90.000000
_cell_volume 2262.315926
_symmetry_space_group_name_H-M "P 21/M"
_symmetry_group_IT_number 11
_symmetry_cell_setting 'monoclinic'
loop_
_space_group_symop_operation_xyz
x,y,z
-x,1/2+y,-z
-x,-y,-z
x,1/2-y,z
loop_
_atom_site_type_symbol
_atom_site_label
_atom_site_fract_x
_atom_site_fract_y
_atom_site_fract_z
Si Si1 0.406911 0.414813 0.015743
Si Si2 0.302422 0.583387 0.500956
Si Si3 0.703142 0.416455 0.818510
Si Si4 0.518829 0.582690 0.669003
Si Si5 0.415502 0.911552 0.580358
Si Si6 0.903551 0.416284 0.463460
Si Si7 0.096824 0.584053 0.366244
Si Si8 0.510229 0.411634 0.818665
O O1 0.411059 0.250000 0.038911
O O2 0.308629 0.490938 0.100069
O O3 0.500000 0.500000 0.000000
O O4 0.415170 0.425454 0.922594
O O5 0.316183 0.750000 0.472616
O O6 0.383311 0.493569 0.413944
O O7 0.313692 0.558918 0.584810
O O8 0.191704 0.531355 0.535524
O O9 0.701378 0.250000 0.840452
O O10 0.807013 0.463514 0.729153
O O11 0.613885 0.452373 0.806809
O O12 0.542358 0.750000 0.665794
O O13 0.420164 0.556140 0.666030
O O14 0.490365 0.518882 0.762181
O O15 0.448176 0.750000 0.551437
O O16 0.500000 0.000000 0.500000
O O17 0.924481 0.250000 0.441710
O O18 0.881693 0.454399 0.559610
O O19 0.000714 0.499354 0.384714
O O20 0.074216 0.750000 0.367832
O O21 0.517841 0.250000 0.784569
#
# Coordination Sequence:
#
# PCOD8068494 Si02
#       8
#     4   4   4   4   4   4   4   4
#     4   9  17  28  41  57  77 101 130 162 192 226
#     4   9  16  28  43  54  73 106 135 159 192 231
#     4   9  17  29  43  57  76 104 134 160 191 231
#     4  10  18  25  37  59  81 100 129 164 192 224
#     4   8  15  26  38  54  75  99 127 159 192 225
#     4   9  17  28  41  56  74 101 135 162 186 222
#     4   9  17  28  40  56  79 102 126 161 197 223
#     4   9  17  28  40  55  78 106 131 154 186 229
#
# _framework density 14.144798
#
# number of rings (size 3 to 8) (size 9 to 14) (size 15 to 20)
#    0.000    3.000    0.000    2.250    0.000    6.000 
#    0.000    2.500    0.000    0.000    0.000    0.000 
#    0.000    1.000    0.000    2.250    0.000    3.500 
#
# Total GULP energy -396468.223697 kJ/mol
# GULP energy per Si atom -12389.631991 kJ/mol
# Density = 1.411260 g / cm^3
# Si number density = 14.144798 Si / 1000 Ang^3
#
#
#
# Elastic Constant Matrix: (Units=GPa)
#
#
# Indices 1 2 3 4 5 6 
#
# 1 96.8160 39.3249 49.5335 0.0000 3.2339 0.0000
# 2 39.3249 61.6697 46.4975 0.0000 3.1220 0.0000
# 3 49.5335 46.4975 95.7326 0.0000 -3.9099 0.0000
# 4 0.0000 0.0000 0.0000 26.2802 0.0000 -0.5857
# 5 3.2339 3.1220 -3.9099 0.0000 17.9327 0.0000
# 6 0.0000 0.0000 0.0000 -0.5857 0.0000 18.5300
#
#
#
# Elastic Compliance Matrix: (Units=1/GPa)
#
#
# Indices 1 2 3 4 5 6 
#
# 1 0.015482 -0.005664 -0.005381 0.000000 -0.002979 0.000000
# 2 -0.005664 0.028621 -0.011232 0.000000 -0.006410 0.000000
# 3 -0.005381 -0.011232 0.018974 0.000000 0.007063 0.000000
# 4 0.000000 0.000000 0.000000 0.038078 0.000000 0.001204
# 5 -0.002979 -0.006410 0.007063 0.000000 0.058957 0.000000
# 6 0.000000 0.000000 0.000000 0.001204 0.000000 0.054005
#
#
# Mechanical properties :
#
#
# Convention : Reuss Voigt Hill
#
# Bulk Modulus (GPa) = 53.99128 58.32557 56.15843
# Shear Modulus (GPa) = 18.87888 20.47275 19.67581
#
# Velocity S-wave (km/s) = 3.65730 3.80856 3.73370
# Velocity P-wave (km/s) = 7.48917 7.78873 7.64042
#
# Compressibility (1/GPa) = 0.01852151
#
# Stress axis : x y z
#
# Youngs Moduli (GPa) = 64.58970 34.93978 52.70376
#
# Poissons Ratio (x) = 0.19792 0.28361
# Poissons Ratio (y) = 0.36587 0.59197
# Poissons Ratio (z) = 0.34757 0.39245
#
# Static dielectric constant tensor:
#      x y z
#    x 2.946510 0.000000 0.189390 
#    y 0.000000 2.891210 0.000000 
#    z 0.189390 0.000000 2.912470 
# 
# 
# High freq. dielectric constant tensor:
#      x y z
#    x 1.515710 0.000000 0.010730 
#    y 0.000000 1.549980 0.000000 
#    z 0.010730 0.000000 1.520050 
# 
# From -- ./inp_files/59859.got.cif
#   From: 2010.06.25/outbox.cif.g09.slc.cpg/sg11_30_cif.got.tgz:59859.got - 2010.06.27 23:14:04.
