data_PCOD8068452
_publ_section_title
;
Structure prediction by ZEFSAII (Michael W. Deem and Ramdas Pophale) SiO2 
 PCOD8068452
Probable space group: P 21/M
;
_chemical_formula_sum "Si O2"
_cell_formula_units_Z 32
_cell_length_a 13.600583
_cell_length_b 17.119397
_cell_length_c 8.989799
_cell_angle_alpha 90.000000
_cell_angle_beta 121.974515
_cell_angle_gamma 90.000000
_cell_volume 1775.567151
_symmetry_space_group_name_H-M "P 21/M"
_symmetry_group_IT_number 11
_symmetry_cell_setting 'monoclinic'
loop_
_space_group_symop_operation_xyz
x,y,z
-x,1/2+y,-z
-x,-y,-z
x,1/2-y,z
loop_
_atom_site_type_symbol
_atom_site_label
_atom_site_fract_x
_atom_site_fract_y
_atom_site_fract_z
Si Si1 0.589825 0.057389 0.640983
Si Si2 0.189600 0.886779 0.540564
Si Si3 0.562874 0.161015 0.354592
Si Si4 0.978520 0.070774 0.171160
Si Si5 0.820231 0.971924 0.257177
Si Si6 0.425665 0.475652 0.081726
Si Si7 0.153220 0.950845 0.207675
Si Si8 0.964989 0.663454 0.515897
O O1 0.574251 0.140266 0.541760
O O2 0.500000 0.000000 0.500000
O O3 0.573529 0.052150 0.807307
O O4 0.714877 0.023159 0.702057
O O5 0.312629 0.843222 0.628017
O O6 0.096530 0.838454 0.559807
O O7 0.210999 0.972126 0.629531
O O8 0.134355 0.895232 0.333228
O O9 0.516970 0.250000 0.305660
O O10 0.475510 0.101635 0.202237
O O11 0.084333 0.031412 0.168672
O O12 0.026533 0.143945 0.301762
O O13 0.920445 0.010116 0.238676
O O14 0.886470 0.096984 0.971532
O O15 0.873610 0.891930 0.360858
O O16 0.705345 0.954962 0.070157
O O17 0.500000 0.500000 0.000000
O O18 0.914957 0.750000 0.458540
#
# Coordination Sequence:
#
# PCOD8068452 Si02
#       8
#     4   4   4   4   4   4   4   4
#     4   9  20  35  56  83 111 148 187 228 282 342
#     4  10  18  35  58  83 109 151 191 229 275 342
#     4  10  21  37  58  85 117 148 187 241 297 334
#     4  10  19  33  58  80 107 141 190 234 270 324
#     4  11  19  36  58  84 109 149 200 227 274 340
#     4  11  21  37  61  86 111 149 199 238 276 346
#     4  10  17  32  60  83 101 137 194 237 262 322
#     4  11  22  35  51  81 122 153 181 228 292 340
#
# _framework density 18.022410000000001
#
# number of rings (size 3 to 8) (size 9 to 14) (size 15 to 20)
#    0.000    1.750    5.000    1.125    0.000    0.500 
#    0.000    3.750    0.000    6.000    0.000    0.000 
#    0.000    0.000    0.000    0.000    0.000    0.000 
#
# Total GULP energy -396588.117875 kJ/mol
# GULP energy per Si atom -12393.378684 kJ/mol
# Density = 1.798139 g / cm^3
# Si number density = 18.022410 Si / 1000 Ang^3
#
#
#
# Elastic Constant Matrix: (Units=GPa)
#
#
# Indices 1 2 3 4 5 6 
#
# 1 61.9345 23.6618 28.5386 0.0000 -3.5872 0.0000
# 2 23.6618 108.6326 46.9115 0.0000 -2.4515 0.0000
# 3 28.5386 46.9115 126.0913 0.0000 -4.5896 0.0000
# 4 0.0000 0.0000 0.0000 19.2606 0.0000 2.6047
# 5 -3.5872 -2.4515 -4.5896 0.0000 35.8573 0.0000
# 6 0.0000 0.0000 0.0000 2.6047 0.0000 15.7577
#
#
#
# Elastic Compliance Matrix: (Units=1/GPa)
#
#
# Indices 1 2 3 4 5 6 
#
# 1 0.018712 -0.002666 -0.003196 0.000000 0.001280 0.000000
# 2 -0.002666 0.011349 -0.003617 0.000000 0.000046 0.000000
# 3 -0.003196 -0.003617 0.010026 0.000000 0.000716 0.000000
# 4 0.000000 0.000000 0.000000 0.053107 0.000000 -0.008778
# 5 0.001280 0.000046 0.000716 0.000000 0.028111 0.000000
# 6 0.000000 0.000000 0.000000 -0.008778 0.000000 0.064912
#
#
# Mechanical properties :
#
#
# Convention : Reuss Voigt Hill
#
# Bulk Modulus (GPa) = 47.33313 54.98690 51.16001
# Shear Modulus (GPa) = 23.56049 27.34488 25.45269
#
# Velocity S-wave (km/s) = 3.61957 3.89944 3.76211
# Velocity P-wave (km/s) = 6.61731 7.13097 6.87894
#
# Compressibility (1/GPa) = 0.02112685
#
# Stress axis : x y z
#
# Youngs Moduli (GPa) = 53.44205 88.11170 99.74006
#
# Poissons Ratio (x) = 0.23495 0.31881
# Poissons Ratio (y) = 0.14250 0.36078
# Poissons Ratio (z) = 0.17082 0.31872
#
# Static dielectric constant tensor:
#      x y z
#    x 3.615030 0.000000 -0.178100 
#    y 0.000000 3.032370 0.000000 
#    z -0.178100 0.000000 3.791070 
# 
# 
# High freq. dielectric constant tensor:
#      x y z
#    x 1.704240 0.000000 -0.000200 
#    y 0.000000 1.654730 0.000000 
#    z -0.000200 0.000000 1.717190 
# 
# From -- ./inp_files/22200.got.cif
#   From: 2010.06.25/outbox.cif.g09.slc.cpg/sg11_12_cif.got.tgz:22200.got - 2010.06.27 23:14:04.
