data_PCOD8068926
_publ_section_title
;
Structure prediction by ZEFSAII (Michael W. Deem and Ramdas Pophale) SiO2 
 PCOD8068926
Probable space group: P 21/M
;
_chemical_formula_sum "Si O2"
_cell_formula_units_Z 32
_cell_length_a 11.610681
_cell_length_b 9.339963
_cell_length_c 28.219287
_cell_angle_alpha 90.000000
_cell_angle_beta 148.821165
_cell_angle_gamma 90.000000
_cell_volume 1584.295837
_symmetry_space_group_name_H-M "P 21/M"
_symmetry_group_IT_number 11
_symmetry_cell_setting 'monoclinic'
loop_
_space_group_symop_operation_xyz
x,y,z
-x,1/2+y,-z
-x,-y,-z
x,1/2-y,z
loop_
_atom_site_type_symbol
_atom_site_label
_atom_site_fract_x
_atom_site_fract_y
_atom_site_fract_z
Si Si1 0.690817 0.082003 0.683589
Si Si2 0.181306 0.915351 0.624743
Si Si3 0.657871 0.096457 0.085103
Si Si4 0.260684 0.584062 0.543860
Si Si5 0.846512 0.417005 0.982018
Si Si6 0.949495 0.906747 0.846983
Si Si7 0.900649 0.910365 0.237556
Si Si8 0.374372 0.412001 0.772993
O O1 0.641979 0.250000 0.672566
O O2 0.853781 0.052485 0.695824
O O3 0.466947 0.996799 0.592151
O O4 0.779203 0.023553 0.765647
O O5 0.129967 0.750000 0.618551
O O6 0.280385 0.931755 0.607325
O O7 0.363699 0.978446 0.725323
O O8 0.960203 0.008902 0.553035
O O9 0.545820 0.250000 0.057078
O O10 0.879507 0.121181 0.134256
O O11 0.714709 0.017932 0.153448
O O12 0.500000 0.000000 0.000000
O O13 0.258491 0.750000 0.527611
O O14 0.891677 0.250000 0.991793
O O15 0.587341 0.452362 0.880688
O O16 0.921093 0.465775 0.061141
O O17 0.000000 0.500000 0.000000
O O18 0.834179 0.750000 0.816543
O O19 0.841459 0.750000 0.199197
O O20 0.859367 0.922202 0.279542
O O21 0.401974 0.250000 0.763302
#
# Coordination Sequence:
#
# PCOD8068926 Si02
#       8
#     4   4   4   4   4   4   4   4
#     4  10  20  34  58  88 116 146 188 240 283 331
#     4  10  22  39  61  89 115 145 188 236 280 333
#     4  10  18  29  49  73 100 137 184 234 281 327
#     4  10  21  39  62  87 117 148 183 230 286 342
#     4  10  22  37  53  76 109 150 193 234 277 332
#     4   9  19  35  51  72 106 147 187 227 278 331
#     4   9  19  36  55  79 111 148 189 231 281 336
#     4  10  21  39  60  81 114 155 190 230 287 344
#
# _framework density 20.198248
#
# number of rings (size 3 to 8) (size 9 to 14) (size 15 to 20)
#    0.000    2.250    0.000    2.250    1.750    6.000 
#    0.000    1.875    0.000    0.000    0.000    0.000 
#    0.000    0.000    0.000    0.000    0.000    0.000 
#
# Total GULP energy -396577.529385 kJ/mol
# GULP energy per Si atom -12393.047793 kJ/mol
# Density = 2.015228 g / cm^3
# Si number density = 20.198248 Si / 1000 Ang^3
#
#
#
# Elastic Constant Matrix: (Units=GPa)
#
#
# Indices 1 2 3 4 5 6 
#
# 1 61.6068 22.5433 14.4758 0.0000 4.1314 0.0000
# 2 22.5433 113.4035 27.2154 0.0000 12.2910 0.0000
# 3 14.4758 27.2154 48.2321 0.0000 10.1684 0.0000
# 4 0.0000 0.0000 0.0000 38.4812 0.0000 2.1667
# 5 4.1314 12.2910 10.1684 0.0000 28.1649 0.0000
# 6 0.0000 0.0000 0.0000 2.1667 0.0000 27.8557
#
#
#
# Elastic Compliance Matrix: (Units=1/GPa)
#
#
# Indices 1 2 3 4 5 6 
#
# 1 0.018131 -0.002653 -0.003927 0.000000 -0.000084 0.000000
# 2 -0.002653 0.010762 -0.004728 0.000000 -0.002600 0.000000
# 3 -0.003927 -0.004728 0.026002 0.000000 -0.006748 0.000000
# 4 0.000000 0.000000 0.000000 0.026101 0.000000 -0.002030
# 5 -0.000084 -0.002600 -0.006748 0.000000 0.039089 0.000000
# 6 0.000000 0.000000 0.000000 -0.002030 0.000000 0.036057
#
#
# Mechanical properties :
#
#
# Convention : Reuss Voigt Hill
#
# Bulk Modulus (GPa) = 30.97951 39.07905 35.02928
# Shear Modulus (GPa) = 26.38277 29.50091 27.94184
#
# Velocity S-wave (km/s) = 3.61805 3.82588 3.72342
# Velocity P-wave (km/s) = 5.72929 6.23749 5.98878
#
# Compressibility (1/GPa) = 0.03227940
#
# Stress axis : x y z
#
# Youngs Moduli (GPa) = 55.15405 92.92025 38.45818
#
# Poissons Ratio (x) = 0.24649 0.15103
# Poissons Ratio (y) = 0.14630 0.18184
# Poissons Ratio (z) = 0.21659 0.43934
#
# Static dielectric constant tensor:
#      x y z
#    x 3.687910 0.000000 0.355760 
#    y 0.000000 4.088710 0.000000 
#    z 0.355760 0.000000 4.305810 
# 
# 
# High freq. dielectric constant tensor:
#      x y z
#    x 1.777200 0.000000 0.005790 
#    y 0.000000 1.798810 0.000000 
#    z 0.005790 0.000000 1.773670 
# 
# From -- ./inp_files/73038.got.cif
#   From: 2010.06.25/outbox.cif.g09.slc.cpg/sg11_37_cif.got.tgz:73038.got - 2010.06.27 23:14:04.
