data_PCOD8068210
_publ_section_title
;
Structure prediction by ZEFSAII (Michael W. Deem and Ramdas Pophale) SiO2 
 PCOD8068210
Probable space group: P 21/M
;
_chemical_formula_sum "Si O2"
_cell_formula_units_Z 32
_cell_length_a 23.381774
_cell_length_b 9.127529
_cell_length_c 20.459068
_cell_angle_alpha 90.000000
_cell_angle_beta 23.975160
_cell_angle_gamma 90.000000
_cell_volume 1774.216796
_symmetry_space_group_name_H-M "P 21/M"
_symmetry_group_IT_number 11
_symmetry_cell_setting 'monoclinic'
loop_
_space_group_symop_operation_xyz
x,y,z
-x,1/2+y,-z
-x,-y,-z
x,1/2-y,z
loop_
_atom_site_type_symbol
_atom_site_label
_atom_site_fract_x
_atom_site_fract_y
_atom_site_fract_z
Si Si1 0.570095 0.920075 0.157440
Si Si2 0.135422 0.916810 0.380431
Si Si3 0.974411 0.079816 0.373029
Si Si4 0.922360 0.079645 0.281198
Si Si5 0.458734 0.579932 0.608777
Si Si6 0.238792 0.082007 0.919279
Si Si7 0.653499 0.920578 0.527093
Si Si8 0.745369 0.422124 0.873566
O O1 0.539543 0.750000 0.177412
O O2 0.695223 0.946922 0.078443
O O3 0.427201 0.994411 0.331233
O O4 0.614899 0.994347 0.042589
O O5 0.097722 0.750000 0.407104
O O6 0.152687 0.944916 0.440615
O O7 0.262240 0.956595 0.197496
O O8 0.000000 0.000000 0.500000
O O9 0.024249 0.250000 0.319618
O O10 0.913209 0.035158 0.366914
O O11 0.108034 0.980439 0.250259
O O12 0.887131 0.250000 0.307989
O O13 0.811235 0.982451 0.357511
O O14 0.075195 0.041281 0.092957
O O15 0.500000 0.500000 0.500000
O O16 0.439405 0.750000 0.614303
O O17 0.310602 0.519006 0.789858
O O18 0.580648 0.548873 0.533881
O O19 0.262652 0.250000 0.873853
O O20 0.654621 0.750000 0.543100
O O21 0.732856 0.250000 0.901951
#
# Coordination Sequence:
#
# PCOD8068210 Si02
#       8
#     4   4   4   4   4   4   4   4
#     4  10  18  32  52  73  99 136 175 216 260 306
#     4   8  15  25  39  62  95 131 167 213 261 306
#     4   9  16  29  46  67  98 136 176 212 255 308
#     4  10  19  33  53  78 106 139 175 211 254 306
#     4  10  21  38  60  83 107 136 169 204 247 297
#     4   9  18  33  54  80 106 134 173 212 248 294
#     4  10  22  37  53  79 109 135 166 210 258 303
#     4  10  17  25  42  71 101 130 169 218 268 308
#
# _framework density 18.036128000000001
#
# number of rings (size 3 to 8) (size 9 to 14) (size 15 to 20)
#    0.000    2.500    1.250    1.500    0.000    3.500 
#    0.000    0.625    0.000    0.750    0.000    0.000 
#    0.000    0.000    0.000    0.000    0.000    0.000 
#
# Total GULP energy -396630.178501 kJ/mol
# GULP energy per Si atom -12394.693078 kJ/mol
# Density = 1.799508 g / cm^3
# Si number density = 18.036128 Si / 1000 Ang^3
#
#
#
# Elastic Constant Matrix: (Units=GPa)
#
#
# Indices 1 2 3 4 5 6 
#
# 1 71.9528 47.8825 58.3154 0.0000 21.7963 0.0000
# 2 47.8825 94.4851 61.9460 0.0000 14.4588 0.0000
# 3 58.3154 61.9460 113.3989 0.0000 15.0910 0.0000
# 4 0.0000 0.0000 0.0000 34.3011 0.0000 3.6035
# 5 21.7963 14.4588 15.0910 0.0000 35.0859 0.0000
# 6 0.0000 0.0000 0.0000 3.6035 0.0000 24.1804
#
#
#
# Elastic Compliance Matrix: (Units=1/GPa)
#
#
# Indices 1 2 3 4 5 6 
#
# 1 0.030308 -0.006823 -0.010318 0.000000 -0.011579 0.000000
# 2 -0.006823 0.018349 -0.006441 0.000000 -0.000552 0.000000
# 3 -0.010318 -0.006441 0.017435 0.000000 0.001565 0.000000
# 4 0.000000 0.000000 0.000000 0.029617 0.000000 -0.004414
# 5 -0.011579 -0.000552 0.001565 0.000000 0.035249 0.000000
# 6 0.000000 0.000000 0.000000 -0.004414 0.000000 0.042014
#
#
# Mechanical properties :
#
#
# Convention : Reuss Voigt Hill
#
# Bulk Modulus (GPa) = 52.83256 68.45827 60.64541
# Shear Modulus (GPa) = 22.08038 26.15966 24.12002
#
# Velocity S-wave (km/s) = 3.50270 3.81255 3.66090
# Velocity P-wave (km/s) = 6.76127 7.57755 7.18102
#
# Compressibility (1/GPa) = 0.01892772
#
# Stress axis : x y z
#
# Youngs Moduli (GPa) = 32.99413 54.49948 57.35658
#
# Poissons Ratio (x) = 0.37185 0.59181
# Poissons Ratio (y) = 0.22512 0.36944
# Poissons Ratio (z) = 0.34044 0.35104
#
# Static dielectric constant tensor:
#      x y z
#    x 3.302420 0.000000 0.375350 
#    y 0.000000 3.369250 0.000000 
#    z 0.375350 0.000000 3.349550 
# 
# 
# High freq. dielectric constant tensor:
#      x y z
#    x 1.673840 0.000000 0.027830 
#    y 0.000000 1.706100 0.000000 
#    z 0.027830 0.000000 1.691010 
# 
# From -- ./inp_files/70335.got.cif
#   From: 2010.06.25/outbox.cif.g09.slc.cpg/sg11_36_cif.got.tgz:70335.got - 2010.06.27 23:14:04.
