data_PCOD8068056
_publ_section_title
;
Structure prediction by ZEFSAII (Michael W. Deem and Ramdas Pophale) SiO2 
 PCOD8068056
Probable space group: P 2/M
;
_chemical_formula_sum "Si O2"
_cell_formula_units_Z 20
_cell_length_a 10.920573
_cell_length_b 12.576559
_cell_length_c 10.920574
_cell_angle_alpha 90.000000
_cell_angle_beta 50.831804
_cell_angle_gamma 90.000000
_cell_volume 1162.839617
_symmetry_space_group_name_H-M "P 2/M"
_symmetry_group_IT_number 10
_symmetry_cell_setting 'monoclinic'
loop_
_space_group_symop_operation_xyz
x,y,z
-x,y,-z
-x,-y,-z
x,-y,z
loop_
_atom_site_type_symbol
_atom_site_label
_atom_site_fract_x
_atom_site_fract_y
_atom_site_fract_z
Si Si1 0.256400 0.202847 0.087593
Si Si2 0.412407 0.797153 0.243600
Si Si3 0.850017 0.379175 0.018420
Si Si4 0.481580 0.379175 0.649983
Si Si5 0.241862 0.000000 0.419297
Si Si6 0.080703 0.000000 0.258138
O O1 0.297228 0.227629 0.202772
O O2 0.172039 0.307136 0.087532
O O3 0.135838 0.104596 0.150311
O O4 0.413569 0.172929 0.913569
O O5 0.412468 0.692864 0.327961
O O6 0.349690 0.895404 0.364162
O O7 0.874325 0.500000 0.957175
O O8 0.701483 0.369671 0.201483
O O9 0.000000 0.338725 0.000000
O O10 0.500000 0.338726 0.500000
O O11 0.542825 0.500000 0.625675
O O12 0.163857 0.000000 0.336143
O O13 0.108850 0.000000 0.608850
#
# Coordination Sequence:
#
# PCOD8068056 Si02
#       6
#     4   4   4   4   2   2
#     4   9  17  30  49  71  94 121 154 191 229 271
#     4   9  17  30  49  71  94 121 154 191 229 271
#     4   9  18  32  49  69  94 124 155 188 229 275
#     4   9  18  32  49  69  94 124 155 188 229 275
#     4   9  17  29  46  69  96 123 151 187 232 277
#     4   9  17  29  46  69  96 123 151 187 232 277
#
# _framework density 17.199276000000001
#
# number of rings (size 3 to 8) (size 9 to 14) (size 15 to 20)
#    0.000    3.000    0.000    0.600    0.000    4.800 
#    0.000    5.000    0.000    0.000    0.000   11.200 
#    0.000    0.000    0.000    0.000    0.000    0.000 
#
# Total GULP energy -248008.170733 kJ/mol
# GULP energy per Si atom -12400.408537 kJ/mol
# Density = 1.716013 g / cm^3
# Si number density = 17.199276 Si / 1000 Ang^3
#
#
#
# Elastic Constant Matrix: (Units=GPa)
#
#
# Indices 1 2 3 4 5 6 
#
# 1 86.2404 69.1477 41.7214 0.0000 -1.9556 0.0000
# 2 69.1477 126.2821 62.1710 0.0000 2.9272 0.0000
# 3 41.7214 62.1710 76.1577 0.0000 6.1860 0.0000
# 4 0.0000 0.0000 0.0000 22.7601 0.0000 -3.4764
# 5 -1.9556 2.9272 6.1860 0.0000 21.1744 0.0000
# 6 0.0000 0.0000 0.0000 -3.4764 0.0000 14.4741
#
#
#
# Elastic Compliance Matrix: (Units=1/GPa)
#
#
# Indices 1 2 3 4 5 6 
#
# 1 0.021663 -0.009935 -0.004129 0.000000 0.004580 0.000000
# 2 -0.009935 0.017835 -0.009057 0.000000 -0.000737 0.000000
# 3 -0.004129 -0.009057 0.023267 0.000000 -0.005927 0.000000
# 4 0.000000 0.000000 0.000000 0.045610 0.000000 0.010955
# 5 0.004580 -0.000737 -0.005927 0.000000 0.049483 0.000000
# 6 0.000000 0.000000 0.000000 0.010955 0.000000 0.071720
#
#
# Mechanical properties :
#
#
# Convention : Reuss Voigt Hill
#
# Bulk Modulus (GPa) = 60.52065 70.52894 65.52480
# Shear Modulus (GPa) = 17.77284 19.39107 18.58195
#
# Velocity S-wave (km/s) = 3.21806 3.36137 3.29050
# Velocity P-wave (km/s) = 7.00515 7.49407 7.25373
#
# Compressibility (1/GPa) = 0.01652328
#
# Stress axis : x y z
#
# Youngs Moduli (GPa) = 46.16156 56.07001 42.97842
#
# Poissons Ratio (x) = 0.55707 0.17746
# Poissons Ratio (y) = 0.45863 0.38924
# Poissons Ratio (z) = 0.19061 0.50781
#
# Static dielectric constant tensor:
#      x y z
#    x 3.051620 0.000000 -0.076860 
#    y 0.000000 3.332870 0.000000 
#    z -0.076860 0.000000 3.234810 
# 
# 
# High freq. dielectric constant tensor:
#      x y z
#    x 1.641360 0.000000 -0.007830 
#    y 0.000000 1.669090 0.000000 
#    z -0.007830 0.000000 1.660030 
# 
# From -- ./inp_files/23499.got.cif
#   From: 2010.06.25/outbox.cif.g09.slc.cpg/sg10_12_cif.got.tgz:23499.got - 2010.06.27 22:07:45.
