data_PCOD8068529
_publ_section_title
;
Structure prediction by ZEFSAII (Michael W. Deem and Ramdas Pophale) SiO2 
 PCOD8068529
Probable space group: P 21/M
;
_chemical_formula_sum "Si O2"
_cell_formula_units_Z 32
_cell_length_a 26.427214
_cell_length_b 9.325542
_cell_length_c 13.669036
_cell_angle_alpha 90.000000
_cell_angle_beta 139.807669
_cell_angle_gamma 90.000000
_cell_volume 2174.013978
_symmetry_space_group_name_H-M "P 21/M"
_symmetry_group_IT_number 11
_symmetry_cell_setting 'monoclinic'
loop_
_space_group_symop_operation_xyz
x,y,z
-x,1/2+y,-z
-x,-y,-z
x,1/2-y,z
loop_
_atom_site_type_symbol
_atom_site_label
_atom_site_fract_x
_atom_site_fract_y
_atom_site_fract_z
Si Si1 0.455714 0.082711 0.298357
Si Si2 0.390832 0.415186 0.791882
Si Si3 0.919522 0.589112 0.990607
Si Si4 0.476017 0.082439 0.110650
Si Si5 0.767762 0.419697 0.743100
Si Si6 0.234023 0.416777 0.458477
Si Si7 0.385322 0.584059 0.361560
Si Si8 0.062784 0.408742 0.215276
O O1 0.439450 0.250000 0.286184
O O2 0.444926 0.032000 0.170335
O O3 0.543602 0.041602 0.461467
O O4 0.391715 0.001638 0.269462
O O5 0.411327 0.250000 0.803233
O O6 0.442585 0.505167 0.792986
O O7 0.299504 0.447305 0.637263
O O8 0.410293 0.457285 0.932748
O O9 0.908665 0.750000 0.016076
O O10 0.844030 0.492739 0.904247
O O11 0.932002 0.592230 0.893759
O O12 0.996649 0.519077 0.154803
O O13 0.495334 0.250000 0.141476
O O14 0.781771 0.250000 0.753244
O O15 0.748700 0.484415 0.609059
O O16 0.695493 0.457224 0.706194
O O17 0.234133 0.250000 0.424607
O O18 0.149324 0.454461 0.381435
O O19 0.388502 0.750000 0.339412
O O20 0.040303 0.250000 0.219987
#
# Coordination Sequence:
#
# PCOD8068529 Si02
#       8
#     4   4   4   4   4   4   4   4
#     4   9  17  29  43  57  76 103 132 163 197 230
#     4   9  17  28  42  60  81 105 133 164 196 231
#     4   9  16  25  37  54  76 102 132 161 190 229
#     4   9  17  29  43  59  80 105 133 164 198 235
#     4  10  18  27  40  57  79 106 133 163 197 231
#     4   9  17  27  39  57  80 106 135 164 193 228
#     4   9  18  29  40  57  78 101 132 165 195 230
#     4   8  14  24  36  51  74 103 132 159 188 225
#
# _framework density 14.719315999999999
#
# number of rings (size 3 to 8) (size 9 to 14) (size 15 to 20)
#    0.000    3.000    0.000    2.250    0.000    6.000 
#    0.000    2.500    0.000    0.000    0.000    0.000 
#    0.000    1.000    0.000    2.000    0.000    2.875 
#
# Total GULP energy -396699.528826 kJ/mol
# GULP energy per Si atom -12396.860276 kJ/mol
# Density = 1.468581 g / cm^3
# Si number density = 14.719316 Si / 1000 Ang^3
#
#
#
# Elastic Constant Matrix: (Units=GPa)
#
#
# Indices 1 2 3 4 5 6 
#
# 1 77.3466 44.0596 48.8560 0.0000 5.6610 0.0000
# 2 44.0596 67.0146 41.8873 0.0000 9.0258 0.0000
# 3 48.8560 41.8873 95.8895 0.0000 16.5043 0.0000
# 4 0.0000 0.0000 0.0000 19.3359 0.0000 4.5722
# 5 5.6610 9.0258 16.5043 0.0000 23.4640 0.0000
# 6 0.0000 0.0000 0.0000 4.5722 0.0000 23.6112
#
#
#
# Elastic Compliance Matrix: (Units=1/GPa)
#
#
# Indices 1 2 3 4 5 6 
#
# 1 0.024253 -0.011468 -0.008078 0.000000 0.004242 0.000000
# 2 -0.011468 0.026017 -0.004865 0.000000 -0.003819 0.000000
# 3 -0.008078 -0.004865 0.018217 0.000000 -0.008994 0.000000
# 4 0.000000 0.000000 0.000000 0.054199 0.000000 -0.010495
# 5 0.004242 -0.003819 -0.008994 0.000000 0.049390 0.000000
# 6 0.000000 0.000000 0.000000 -0.010495 0.000000 0.044385
#
#
# Mechanical properties :
#
#
# Convention : Reuss Voigt Hill
#
# Bulk Modulus (GPa) = 50.84665 56.65072 53.74869
# Shear Modulus (GPa) = 18.39331 20.31207 19.35269
#
# Velocity S-wave (km/s) = 3.53881 3.71881 3.62993
# Velocity P-wave (km/s) = 7.16357 7.55052 7.35959
#
# Compressibility (1/GPa) = 0.01966698
#
# Stress axis : x y z
#
# Youngs Moduli (GPa) = 41.23160 38.43655 54.89307
#
# Poissons Ratio (x) = 0.44079 0.44341
# Poissons Ratio (y) = 0.47284 0.26703
# Poissons Ratio (z) = 0.33305 0.18698
#
# Static dielectric constant tensor:
#      x y z
#    x 2.670800 0.000000 0.181470 
#    y 0.000000 2.966630 0.000000 
#    z 0.181470 0.000000 2.960540 
# 
# 
# High freq. dielectric constant tensor:
#      x y z
#    x 1.528230 0.000000 0.022020 
#    y 0.000000 1.571180 0.000000 
#    z 0.022020 0.000000 1.550370 
# 
# From -- ./inp_files/56013.got.cif
#   From: 2010.06.25/outbox.cif.g09.slc.cpg/sg11_29_cif.got.tgz:56013.got - 2010.06.27 23:14:04.
