data_PCOD8068055
_publ_section_title
;
Structure prediction by ZEFSAII (Michael W. Deem and Ramdas Pophale) SiO2 
 PCOD8068055
Probable space group: P 2/M
;
_chemical_formula_sum "Si O2"
_cell_formula_units_Z 32
_cell_length_a 22.614219
_cell_length_b 9.392448
_cell_length_c 27.856807
_cell_angle_alpha 90.000000
_cell_angle_beta 17.859710
_cell_angle_gamma 90.000000
_cell_volume 1814.628150
_symmetry_space_group_name_H-M "P 2/M"
_symmetry_group_IT_number 10
_symmetry_cell_setting 'monoclinic'
loop_
_space_group_symop_operation_xyz
x,y,z
-x,y,-z
-x,-y,-z
x,-y,z
loop_
_atom_site_type_symbol
_atom_site_label
_atom_site_fract_x
_atom_site_fract_y
_atom_site_fract_z
Si Si1 0.080848 0.164571 0.542783
Si Si2 0.413690 0.835429 0.209933
Si Si3 0.164709 0.164687 0.585290
Si Si4 0.835298 0.164687 0.914692
Si Si5 0.417307 0.666401 0.459046
Si Si6 0.169382 0.338929 0.330614
Si Si7 0.838913 0.669377 0.161091
Si Si8 0.911911 0.666401 0.211744
O O1 0.269946 0.189745 0.365019
O O2 0.129346 0.217092 0.558641
O O3 0.901974 0.257478 0.661815
O O4 0.016589 0.000000 0.591632
O O5 0.353173 0.742522 0.210604
O O6 0.416306 0.000000 0.191907
O O7 0.622621 0.782903 0.065353
O O8 0.341166 0.253314 0.470851
O O9 0.970190 0.194331 0.764897
O O10 0.224140 0.000000 0.540775
O O11 0.906897 0.253311 0.905110
O O12 0.835520 0.000000 0.929384
O O13 0.419819 0.500000 0.445180
O O14 0.629891 0.725575 0.306327
O O15 0.283484 0.699792 0.608259
O O16 0.228210 0.500000 0.271785
O O17 0.000000 0.336245 0.500000
O O18 0.836234 0.500000 0.163769
O O19 0.885055 0.725574 0.178739
O O20 0.000000 0.728187 0.000000
O O21 0.959838 0.500000 0.175173
#
# Coordination Sequence:
#
# PCOD8068055 Si02
#       8
#     4   4   4   4   4   4   4   4
#     4   9  17  30  48  67  88 118 153 185 220 266
#     4   9  17  30  48  67  88 118 153 185 220 266
#     4   9  18  32  48  67  92 120 150 185 224 266
#     4   9  18  32  48  67  92 120 150 185 224 266
#     4   9  17  30  48  67  88 118 153 185 220 266
#     4   9  17  29  46  69  94 118 148 187 226 264
#     4   9  17  29  46  69  94 118 148 187 226 264
#     4   9  17  30  48  67  88 118 153 185 220 266
#
# _framework density 17.634467999999998
#
# number of rings (size 3 to 8) (size 9 to 14) (size 15 to 20)
#    0.000    3.000    0.000    0.750    0.000    5.000 
#    0.000    1.250    0.000    7.500    0.000    0.000 
#    0.000    0.000    0.000    0.000    0.000    0.000 
#
# Total GULP energy -396835.662448 kJ/mol
# GULP energy per Si atom -12401.114452 kJ/mol
# Density = 1.759433 g / cm^3
# Si number density = 17.634468 Si / 1000 Ang^3
#
#
#
# Elastic Constant Matrix: (Units=GPa)
#
#
# Indices 1 2 3 4 5 6 
#
# 1 178.2186 67.6836 72.4712 0.0000 -25.1467 0.0000
# 2 67.6836 64.7823 42.8527 0.0000 -17.1431 0.0000
# 3 72.4712 42.8527 97.1696 0.0000 -30.8233 0.0000
# 4 0.0000 0.0000 0.0000 19.4440 0.0000 -7.7669
# 5 -25.1467 -17.1431 -30.8233 0.0000 30.7592 0.0000
# 6 0.0000 0.0000 0.0000 -7.7669 0.0000 30.7015
#
#
#
# Elastic Compliance Matrix: (Units=1/GPa)
#
#
# Indices 1 2 3 4 5 6 
#
# 1 0.010380 -0.008105 -0.004264 0.000000 -0.000304 0.000000
# 2 -0.008105 0.028412 -0.005225 0.000000 0.003973 0.000000
# 3 -0.004264 -0.005225 0.020152 0.000000 0.013796 0.000000
# 4 0.000000 0.000000 0.000000 0.057211 0.000000 0.014473
# 5 -0.000304 0.003973 0.013796 0.000000 0.048301 0.000000
# 6 0.000000 0.000000 0.000000 0.014473 0.000000 0.036233
#
#
# Mechanical properties :
#
#
# Convention : Reuss Voigt Hill
#
# Bulk Modulus (GPa) = 42.09310 78.46505 60.27907
# Shear Modulus (GPa) = 20.50905 26.65846 23.58376
#
# Velocity S-wave (km/s) = 3.41399 3.89231 3.66097
# Velocity P-wave (km/s) = 6.28188 8.04935 7.21990
#
# Compressibility (1/GPa) = 0.02375686
#
# Stress axis : x y z
#
# Youngs Moduli (GPa) = 96.33790 35.19678 49.62392
#
# Poissons Ratio (x) = 0.28527 0.21158
# Poissons Ratio (y) = 0.78082 0.25927
# Poissons Ratio (z) = 0.41075 0.18389
#
# Static dielectric constant tensor:
#      x y z
#    x 3.391220 0.000000 -0.123160 
#    y 0.000000 3.150280 0.000000 
#    z -0.123160 0.000000 3.212780 
# 
# 
# High freq. dielectric constant tensor:
#      x y z
#    x 1.687280 0.000000 -0.012070 
#    y 0.000000 1.663670 0.000000 
#    z -0.012070 0.000000 1.669800 
# 
# From -- ./inp_files/93603.got.cif
#   From: 2010.06.25/outbox.cif.g09.slc.cpg/sg10_47_cif.got.tgz:93603.got - 2010.06.27 22:07:45.
