data_PCOD8068336
_publ_section_title
;
Structure prediction by ZEFSAII (Michael W. Deem and Ramdas Pophale) SiO2 
 PCOD8068336
Probable space group: P 21/M
;
_chemical_formula_sum "Si O2"
_cell_formula_units_Z 32
_cell_length_a 16.604816
_cell_length_b 15.488849
_cell_length_c 11.364429
_cell_angle_alpha 90.000000
_cell_angle_beta 35.434225
_cell_angle_gamma 90.000000
_cell_volume 1694.552609
_symmetry_space_group_name_H-M "P 21/M"
_symmetry_group_IT_number 11
_symmetry_cell_setting 'monoclinic'
loop_
_space_group_symop_operation_xyz
x,y,z
-x,1/2+y,-z
-x,-y,-z
x,1/2-y,z
loop_
_atom_site_type_symbol
_atom_site_label
_atom_site_fract_x
_atom_site_fract_y
_atom_site_fract_z
Si Si1 0.933489 0.615259 0.629757
Si Si2 0.907150 0.430997 0.774826
Si Si3 0.361604 0.601791 0.178802
Si Si4 0.372813 0.653279 0.903231
Si Si5 0.683308 0.650122 0.533366
Si Si6 0.081145 0.480745 0.785345
Si Si7 0.119503 0.658696 0.614254
Si Si8 0.671576 0.593673 0.811399
O O1 0.925482 0.518847 0.685132
O O2 0.775393 0.639489 0.780849
O O3 0.028436 0.633862 0.400023
O O4 0.995209 0.666847 0.666238
O O5 0.990352 0.429475 0.797786
O O6 0.748053 0.409802 0.999768
O O7 0.267515 0.658990 0.374032
O O8 0.289018 0.507507 0.253171
O O9 0.373964 0.650283 0.041810
O O10 0.516338 0.596030 0.049366
O O11 0.338304 0.750000 0.902254
O O12 0.526927 0.626893 0.674444
O O13 0.720415 0.750000 0.456530
O O14 0.689478 0.641423 0.666464
O O15 0.785576 0.580857 0.349069
O O16 0.118504 0.576488 0.698670
O O17 0.000000 0.500000 0.000000
O O18 0.111158 0.750000 0.695523
#
# Coordination Sequence:
#
# PCOD8068336 Si02
#       8
#     4   4   4   4   4   4   4   4
#     4  10  17  30  51  79 114 144 173 217 281 340
#     4  10  18  32  52  79 110 141 180 228 275 331
#     4  10  17  28  53  83 117 149 180 217 274 345
#     4  10  19  31  53  85 117 148 181 223 283 345
#     4  10  21  36  55  82 114 148 187 231 280 335
#     4  11  24  42  60  79 107 151 200 242 279 320
#     4  11  22  36  56  82 114 149 184 230 286 340
#     4  10  17  30  52  83 117 151 178 216 276 348
#
# _framework density 18.884041
#
# number of rings (size 3 to 8) (size 9 to 14) (size 15 to 20)
#    0.000    1.750    5.000    1.125    0.000    2.000 
#    0.000    0.625    0.000    0.000    0.000    0.000 
#    0.000    0.000    0.000    0.000    0.000    0.000 
#
# Total GULP energy -396427.982166 kJ/mol
# GULP energy per Si atom -12388.374443 kJ/mol
# Density = 1.884106 g / cm^3
# Si number density = 18.884041 Si / 1000 Ang^3
#
#
#
# Elastic Constant Matrix: (Units=GPa)
#
#
# Indices 1 2 3 4 5 6 
#
# 1 43.2430 19.8275 40.1264 0.0000 -18.0576 0.0000
# 2 19.8275 100.0978 49.6560 0.0000 -4.7056 0.0000
# 3 40.1264 49.6560 107.8206 0.0000 -17.5194 0.0000
# 4 0.0000 0.0000 0.0000 -8.0015 0.0000 -0.8420
# 5 -18.0576 -4.7056 -17.5194 0.0000 30.4304 0.0000
# 6 0.0000 0.0000 0.0000 -0.8420 0.0000 10.9830
#
#
#
# Elastic Compliance Matrix: (Units=1/GPa)
#
#
# Indices 1 2 3 4 5 6 
#
# 1 0.042762 -0.001533 -0.012272 0.000000 0.018073 0.000000
# 2 -0.001533 0.013073 -0.005813 0.000000 -0.002235 0.000000
# 3 -0.012272 -0.005813 0.016757 0.000000 0.001466 0.000000
# 4 0.000000 0.000000 0.000000 -0.123977 0.000000 -0.009504
# 5 0.018073 -0.002235 0.001466 0.000000 0.044085 0.000000
# 6 0.000000 0.000000 0.000000 -0.009504 0.000000 0.090321
#
#
# Mechanical properties :
#
#
# Convention : Reuss Voigt Hill
#
# Bulk Modulus (GPa) = 29.97929 52.26458 41.12193
# Shear Modulus (GPa) = 37.48815 16.11918 26.80367
#
# Velocity S-wave (km/s) = 4.46037 2.92479 3.77156
# Velocity P-wave (km/s) = 6.51432 6.25640 6.38666
#
# Compressibility (1/GPa) = 0.03335636
#
# Stress axis : x y z
#
# Youngs Moduli (GPa) = 23.38501 76.49617 59.67622
#
# Poissons Ratio (x) = 0.11728 0.73233
# Poissons Ratio (y) = 0.03585 0.34690
# Poissons Ratio (z) = 0.28697 0.44468
#
# Static dielectric constant tensor:
#      x y z
#    x 3.441280 0.000000 -0.409000 
#    y 0.000000 3.516630 0.000000 
#    z -0.409000 0.000000 3.524170 
# 
# 
# High freq. dielectric constant tensor:
#      x y z
#    x 1.703640 0.000000 -0.040750 
#    y 0.000000 1.732970 0.000000 
#    z -0.040750 0.000000 1.717370 
# 
# From -- ./inp_files/41648.got.cif
#   From: 2010.06.25/outbox.cif.g09.slc.cpg/sg11_21_cif.got.tgz:41648.got - 2010.06.27 23:14:04.
