data_PCOD8068082
_publ_section_title
;
Structure prediction by ZEFSAII (Michael W. Deem and Ramdas Pophale) SiO2 
 PCOD8068082
Probable space group: P 2/M
;
_chemical_formula_sum "Si O2"
_cell_formula_units_Z 28
_cell_length_a 30.000000
_cell_length_b 9.000000
_cell_length_c 30.000000
_cell_angle_alpha 90.000000
_cell_angle_beta 170.000000
_cell_angle_gamma 90.000000
_cell_volume 1406.550239
_symmetry_space_group_name_H-M "P 2/M"
_symmetry_group_IT_number 10
_symmetry_cell_setting 'monoclinic'
loop_
_space_group_symop_operation_xyz
x,y,z
-x,y,-z
-x,-y,-z
x,-y,z
loop_
_atom_site_type_symbol
_atom_site_label
_atom_site_fract_x
_atom_site_fract_y
_atom_site_fract_z
Si Si1 0.472242 0.324451 0.075100
Si Si2 0.822834 0.329723 0.662229
Si Si3 0.443612 0.822014 0.140281
Si Si4 0.929957 0.329053 0.664332
Si Si5 0.735277 0.330092 0.764154
Si Si6 0.696310 0.823318 0.817774
Si Si7 0.008711 0.674287 0.459231
O O1 0.474691 0.500000 0.089380
O O2 0.405327 0.226618 0.051858
O O3 0.744296 0.266090 0.324350
O O4 0.253834 0.286179 0.824146
O O5 0.817600 0.500000 0.674827
O O6 0.560851 0.247845 0.416173
O O7 0.844790 0.327732 0.631160
O O8 0.059699 0.243593 0.916847
O O9 0.713135 0.755532 0.422613
O O10 0.445940 0.000000 0.147571
O O11 0.203226 0.753896 0.930440
O O12 0.955617 0.500000 0.672404
O O13 0.500000 0.296033 0.500000
O O14 0.723815 0.500000 0.770381
O O15 0.716681 0.215052 0.786010
O O16 0.000000 0.298505 0.000000
O O17 0.689779 0.000000 0.817978
O O18 0.047086 0.500000 0.501955
O O19 0.000000 0.746689 0.500000
#
# Coordination Sequence:
#
# PCOD8068082 Si02
#       7
#     4   4   4   4   4   4   4
#     4  10  19  33  55  80 111 151 193 238 288 350
#     4  11  24  43  66  90 121 162 205 248 297 362
#     4  12  25  40  61  90 125 160 197 248 305 360
#     4  11  24  43  66  90 118 158 207 252 297 355
#     4  10  21  38  61  87 118 160 206 249 296 354
#     4  12  25  40  63  95 129 161 198 251 307 359
#     4   9  17  30  52  82 110 141 190 247 292 334
#
# _framework density 19.906860999999999
#
# number of rings (size 3 to 8) (size 9 to 14) (size 15 to 20)
#    0.000    1.286    0.000    6.429    0.000   10.286 
#    0.000    0.000    0.000    2.571    0.000    0.000 
#    0.000    0.000    0.000    0.000    0.000    0.000 
#
# Total GULP energy -347305.566254 kJ/mol
# GULP energy per Si atom -12403.770223 kJ/mol
# Density = 1.986155 g / cm^3
# Si number density = 19.906861 Si / 1000 Ang^3
#
#
#
# Elastic Constant Matrix: (Units=GPa)
#
#
# Indices 1 2 3 4 5 6 
#
# 1 84.4771 38.6749 24.2270 0.0000 3.3102 0.0000
# 2 38.6749 150.7248 49.1813 0.0000 0.8969 0.0000
# 3 24.2270 49.1813 145.8886 0.0000 9.1637 0.0000
# 4 0.0000 0.0000 0.0000 33.9988 0.0000 5.7117
# 5 3.3102 0.8969 9.1637 0.0000 37.1789 0.0000
# 6 0.0000 0.0000 0.0000 5.7117 0.0000 15.3682
#
#
#
# Elastic Compliance Matrix: (Units=1/GPa)
#
#
# Indices 1 2 3 4 5 6 
#
# 1 0.013629 -0.003113 -0.001160 0.000000 -0.000852 0.000000
# 2 -0.003113 0.008173 -0.002279 0.000000 0.000642 0.000000
# 3 -0.001160 -0.002279 0.007928 0.000000 -0.001796 0.000000
# 4 0.000000 0.000000 0.000000 0.031372 0.000000 -0.011659
# 5 -0.000852 0.000642 -0.001796 0.000000 0.027400 0.000000
# 6 0.000000 0.000000 0.000000 -0.011659 0.000000 0.069403
#
#
# Mechanical properties :
#
#
# Convention : Reuss Voigt Hill
#
# Bulk Modulus (GPa) = 60.14693 67.25075 63.69884
# Shear Modulus (GPa) = 28.32043 35.24302 31.78172
#
# Velocity S-wave (km/s) = 3.77589 4.21217 3.99998
# Velocity P-wave (km/s) = 7.02065 7.58370 7.30760
#
# Compressibility (1/GPa) = 0.01662595
#
# Stress axis : x y z
#
# Youngs Moduli (GPa) = 73.37271 122.35144 126.13282
#
# Poissons Ratio (x) = 0.38094 0.14634
# Poissons Ratio (y) = 0.22844 0.28740
# Poissons Ratio (z) = 0.08512 0.27879
#
# Static dielectric constant tensor:
#      x y z
#    x 3.756410 0.000000 0.074350 
#    y 0.000000 3.697280 0.000000 
#    z 0.074350 0.000000 4.008370 
# 
# 
# High freq. dielectric constant tensor:
#      x y z
#    x 1.791500 0.000000 0.002580 
#    y 0.000000 1.769580 0.000000 
#    z 0.002580 0.000000 1.809460 
# 
# From -- ./inp_files/95997.got.cif
#   From: 2010.06.25/outbox.ucp.g09.slc.cvg/sg10_48_cif.got.tgz:95997.got - 2010.06.28 13:37:52.
