data_PCOD8068162
_publ_section_title
;
Structure prediction by ZEFSAII (Michael W. Deem and Ramdas Pophale) SiO2 
 PCOD8068162
Probable space group: P 21/M
;
_chemical_formula_sum "Si O2"
_cell_formula_units_Z 32
_cell_length_a 14.140424
_cell_length_b 26.577420
_cell_length_c 14.585758
_cell_angle_alpha 90.000000
_cell_angle_beta 159.135582
_cell_angle_gamma 90.000000
_cell_volume 1952.300548
_symmetry_space_group_name_H-M "P 21/M"
_symmetry_group_IT_number 11
_symmetry_cell_setting 'monoclinic'
loop_
_space_group_symop_operation_xyz
x,y,z
-x,1/2+y,-z
-x,-y,-z
x,1/2-y,z
loop_
_atom_site_type_symbol
_atom_site_label
_atom_site_fract_x
_atom_site_fract_y
_atom_site_fract_z
Si Si1 0.940662 0.562896 0.760079
Si Si2 0.256908 0.693676 0.583411
Si Si3 0.243989 0.133385 0.916710
Si Si4 0.243721 0.466572 0.027448
Si Si5 0.507950 0.563148 0.223997
Si Si6 0.589516 0.865633 0.141370
Si Si7 0.259105 0.032787 0.244841
Si Si8 0.909695 0.305976 0.358240
O O1 0.746096 0.581830 0.504290
O O2 0.809020 0.575716 0.740431
O O3 0.978932 0.501622 0.790004
O O4 0.231481 0.588141 0.010986
O O5 0.293158 0.750000 0.575679
O O6 0.178039 0.697874 0.616871
O O7 0.026077 0.665139 0.319107
O O8 0.530821 0.663099 0.823032
O O9 0.326592 0.123742 0.886593
O O10 0.193484 0.079459 0.914944
O O11 0.481957 0.502213 0.203369
O O12 0.322415 0.445806 0.200515
O O13 0.564259 0.581229 0.171358
O O14 0.804836 0.832085 0.389728
O O15 0.309106 0.837312 0.895336
O O16 0.500000 0.000000 0.500000
O O17 0.000000 0.000000 0.000000
O O18 0.930419 0.250000 0.334845
#
# Coordination Sequence:
#
# PCOD8068162 Si02
#       8
#     4   4   4   4   4   4   4   4
#     4   9  18  31  45  65  89 128 148 192 224 256
#     4   9  18  32  48  65  88 119 151 196 239 267
#     4  10  20  30  47  68  95 121 158 185 220 275
#     4   9  21  29  48  67  96 125 153 190 222 267
#     4  10  19  30  45  63  98 127 154 177 220 268
#     4  10  19  31  44  68  94 126 152 185 222 277
#     4  10  16  30  48  65  86 121 150 193 232 252
#     4   9  17  31  49  65  85 115 157 200 237 260
#
# _framework density 16.390919
#
# number of rings (size 3 to 8) (size 9 to 14) (size 15 to 20)
#    0.750    1.750    1.250    1.500    1.750    3.500 
#    0.000    0.625    0.000    0.000    0.000    0.000 
#    0.000   20.000    0.000    0.000    0.000    0.000 
#
# Total GULP energy -396463.396724 kJ/mol
# GULP energy per Si atom -12389.481148 kJ/mol
# Density = 1.635361 g / cm^3
# Si number density = 16.390919 Si / 1000 Ang^3
#
#
#
# Elastic Constant Matrix: (Units=GPa)
#
#
# Indices 1 2 3 4 5 6 
#
# 1 61.2413 35.8826 27.4931 0.0000 -9.7155 0.0000
# 2 35.8826 68.0548 26.5663 0.0000 -8.3436 0.0000
# 3 27.4931 26.5663 132.4256 0.0000 0.4086 0.0000
# 4 0.0000 0.0000 0.0000 17.8723 0.0000 0.4644
# 5 -9.7155 -8.3436 0.4086 0.0000 16.9360 0.0000
# 6 0.0000 0.0000 0.0000 0.4644 0.0000 2.9436
#
#
#
# Elastic Compliance Matrix: (Units=1/GPa)
#
#
# Indices 1 2 3 4 5 6 
#
# 1 0.025800 -0.011236 -0.003131 0.000000 0.009340 0.000000
# 2 -0.011236 0.021977 -0.002090 0.000000 0.004432 0.000000
# 3 -0.003131 -0.002090 0.008630 0.000000 -0.003034 0.000000
# 4 0.000000 0.000000 0.000000 0.056183 0.000000 -0.008864
# 5 0.009340 0.004432 -0.003034 0.000000 0.066661 0.000000
# 6 0.000000 0.000000 0.000000 -0.008864 0.000000 0.341118
#
#
# Mechanical properties :
#
#
# Convention : Reuss Voigt Hill
#
# Bulk Modulus (GPa) = 42.56480 49.06729 45.81605
# Shear Modulus (GPa) = 8.91085 19.00237 13.95661
#
# Velocity S-wave (km/s) = 2.33415 3.40858 2.92119
# Velocity P-wave (km/s) = 5.76968 6.74476 6.27619
#
# Compressibility (1/GPa) = 0.02349359
#
# Stress axis : x y z
#
# Youngs Moduli (GPa) = 38.76043 45.50134 115.87357
#
# Poissons Ratio (x) = 0.51124 0.36281
# Poissons Ratio (y) = 0.43550 0.24217
# Poissons Ratio (z) = 0.12136 0.09510
#
# Static dielectric constant tensor:
#      x y z
#    x 3.047880 0.000000 0.008830 
#    y 0.000000 2.834670 0.000000 
#    z 0.008830 0.000000 3.273080 
# 
# 
# High freq. dielectric constant tensor:
#      x y z
#    x 1.603850 0.000000 0.003380 
#    y 0.000000 1.590620 0.000000 
#    z 0.003380 0.000000 1.652260 
# 
# From -- ./inp_files/52767.got.cif
#   From: 2010.06.25/outbox.cif.g09.slc.cpg/sg11_27_cif.got.tgz:52767.got - 2010.06.27 23:14:04.
