data_PCOD8068109
_publ_section_title
;
Structure prediction by ZEFSAII (Michael W. Deem and Ramdas Pophale) SiO2 
 PCOD8068109
Probable space group: P 2/M
;
_chemical_formula_sum "Si O2"
_cell_formula_units_Z 28
_cell_length_a 30.000000
_cell_length_b 9.000000
_cell_length_c 30.000000
_cell_angle_alpha 90.000000
_cell_angle_beta 170.000000
_cell_angle_gamma 90.000000
_cell_volume 1406.550239
_symmetry_space_group_name_H-M "P 2/M"
_symmetry_group_IT_number 10
_symmetry_cell_setting 'monoclinic'
loop_
_space_group_symop_operation_xyz
x,y,z
-x,y,-z
-x,-y,-z
x,-y,z
loop_
_atom_site_type_symbol
_atom_site_label
_atom_site_fract_x
_atom_site_fract_y
_atom_site_fract_z
Si Si1 0.434387 0.819735 0.675143
Si Si2 0.764438 0.331298 0.235386
Si Si3 0.518585 0.322596 0.467830
Si Si4 0.958121 0.326984 0.055719
Si Si5 0.207715 0.177796 0.827729
Si Si6 0.314268 0.319390 0.651093
Si Si7 0.041058 0.323492 0.839939
O O1 0.345641 0.749500 0.633689
O O2 0.229184 0.755257 0.437733
O O3 0.434465 0.000000 0.675646
O O4 0.721475 0.758324 0.949903
O O5 0.773718 0.500000 0.225244
O O6 0.786590 0.208026 0.219101
O O7 0.000000 0.303368 0.500000
O O8 0.500000 0.302667 0.000000
O O9 0.500000 0.266651 0.500000
O O10 0.517704 0.500000 0.463983
O O11 0.279056 0.255109 0.204616
O O12 0.776446 0.255244 0.699943
O O13 0.968645 0.500000 0.055100
O O14 0.915517 0.297862 0.065418
O O15 0.960872 0.261676 0.603849
O O16 0.199971 0.000000 0.829522
O O17 0.462517 0.252856 0.098467
O O18 0.321921 0.500000 0.658319
O O19 0.033481 0.500000 0.820245
#
# Coordination Sequence:
#
# PCOD8068109 Si02
#       7
#     4   4   4   4   4   4   4
#     4  12  25  42  62  89 122 154 196 250 304 353
#     4  10  21  38  61  89 123 164 208 251 298 356
#     4   9  15  24  40  67 106 147 182 225 288 348
#     4   9  17  28  45  71 105 145 187 232 282 344
#     4  12  25  42  65  96 130 162 202 255 309 356
#     4  12  25  44  67  91 122 163 206 245 298 366
#     4  11  22  39  61  86 118 158 201 242 295 361
#
# _framework density 19.906860999999999
#
# number of rings (size 3 to 8) (size 9 to 14) (size 15 to 20)
#    0.000    1.286    0.000    7.286    0.000    5.714 
#    0.000    0.000    0.000    0.000    0.000    0.000 
#    0.000   40.000    0.000    0.000    0.000    0.000 
#
# Total GULP energy -347174.605540 kJ/mol
# GULP energy per Si atom -12399.093055 kJ/mol
# Density = 1.986155 g / cm^3
# Si number density = 19.906861 Si / 1000 Ang^3
#
#
#
# Elastic Constant Matrix: (Units=GPa)
#
#
# Indices 1 2 3 4 5 6 
#
# 1 84.7907 30.9803 36.8351 0.0000 2.2146 0.0000
# 2 30.9803 145.2502 37.4152 0.0000 -0.6901 0.0000
# 3 36.8351 37.4152 162.9554 0.0000 1.7061 0.0000
# 4 0.0000 0.0000 0.0000 -3.1400 0.0000 -10.7277
# 5 2.2146 -0.6901 1.7061 0.0000 36.9054 0.0000
# 6 0.0000 0.0000 0.0000 -10.7277 0.0000 7.9603
#
#
#
# Elastic Compliance Matrix: (Units=1/GPa)
#
#
# Indices 1 2 3 4 5 6 
#
# 1 0.013766 -0.002275 -0.002582 0.000000 -0.000749 0.000000
# 2 -0.002275 0.007695 -0.001256 0.000000 0.000338 0.000000
# 3 -0.002582 -0.001256 0.007011 0.000000 -0.000193 0.000000
# 4 0.000000 0.000000 0.000000 -0.056828 0.000000 -0.076584
# 5 -0.000749 0.000338 -0.000193 0.000000 0.027156 0.000000
# 6 0.000000 0.000000 0.000000 -0.076584 0.000000 0.022416
#
#
# Mechanical properties :
#
#
# Convention : Reuss Voigt Hill
#
# Bulk Modulus (GPa) = 61.55094 67.05081 64.30088
# Shear Modulus (GPa) = 128.67874 27.52955 78.10414
#
# Velocity S-wave (km/s) = 8.04865 3.72279 6.27056
# Velocity P-wave (km/s) = 10.83332 7.22733 9.20856
#
# Compressibility (1/GPa) = 0.01624671
#
# Stress axis : x y z
#
# Youngs Moduli (GPa) = 72.64318 129.95409 142.64037
#
# Poissons Ratio (x) = 0.29560 0.36824
# Poissons Ratio (y) = 0.16524 0.17918
# Poissons Ratio (z) = 0.18753 0.16324
#
# Static dielectric constant tensor:
#      x y z
#    x 3.689200 0.000000 -0.035170 
#    y 0.000000 3.711160 0.000000 
#    z -0.035170 0.000000 4.066620 
# 
# 
# High freq. dielectric constant tensor:
#      x y z
#    x 1.789760 0.000000 0.001130 
#    y 0.000000 1.763350 0.000000 
#    z 0.001130 0.000000 1.813260 
# 
# From -- ./inp_files/96040.got.cif
#   From: 2010.06.25/outbox.ucp.g09.slc.cvg/sg10_49_cif.got.tgz:96040.got - 2010.06.28 13:37:52.
