data_PCOD8068416
_publ_section_title
;
Structure prediction by ZEFSAII (Michael W. Deem and Ramdas Pophale) SiO2 
 PCOD8068416
Probable space group: P 21/M
;
_chemical_formula_sum "Si O2"
_cell_formula_units_Z 32
_cell_length_a 19.667971
_cell_length_b 9.379654
_cell_length_c 11.260420
_cell_angle_alpha 90.000000
_cell_angle_beta 55.073448
_cell_angle_gamma 90.000000
_cell_volume 1703.157373
_symmetry_space_group_name_H-M "P 21/M"
_symmetry_group_IT_number 11
_symmetry_cell_setting 'monoclinic'
loop_
_space_group_symop_operation_xyz
x,y,z
-x,1/2+y,-z
-x,-y,-z
x,1/2-y,z
loop_
_atom_site_type_symbol
_atom_site_label
_atom_site_fract_x
_atom_site_fract_y
_atom_site_fract_z
Si Si1 0.326920 0.090397 0.380032
Si Si2 0.811755 0.078957 0.064633
Si Si3 0.906787 0.407290 0.400075
Si Si4 0.811755 0.578957 0.311856
Si Si5 0.785318 0.500000 0.714681
Si Si6 0.906787 0.907290 0.786351
Si Si7 0.326920 0.909603 0.966128
Si Si8 0.500000 0.077950 0.123850
O O1 0.344040 0.250000 0.401084
O O2 0.273859 0.022841 0.541006
O O3 0.274637 0.091644 0.310032
O O4 0.417953 0.020446 0.274665
O O5 0.816055 0.250000 0.074208
O O6 0.820951 0.000000 0.179049
O O7 0.726141 0.022841 0.088723
O O8 0.885559 0.027758 0.904763
O O9 0.901217 0.250000 0.346613
O O10 0.885559 0.527758 0.324118
O O11 0.844763 0.403428 0.574189
O O12 1.000000 0.438406 0.351926
O O13 0.816056 0.750000 0.293680
O O14 0.844764 0.596572 0.736282
O O15 0.725363 0.408358 0.859306
O O16 0.901217 0.750000 0.850953
O O17 0.344039 0.750000 0.910838
O O18 0.417953 0.979554 0.889429
O O19 0.500000 0.250000 0.105930
O O20 0.500000 0.000000 0.000000
#
# Coordination Sequence:
#
# PCOD8068416 Si02
#       8
#     4   4   4   4   4   4   4   4
#     4   9  18  31  51  77 108 140 172 209 258 309
#     4  10  21  38  57  77 101 138 180 224 269 316
#     4  10  21  35  53  79 109 141 177 220 267 317
#     4  10  21  38  57  77 101 138 180 224 269 316
#     4  10  17  31  52  78 110 142 176 209 259 310
#     4  10  21  35  53  79 109 141 177 220 267 317
#     4   9  18  31  51  77 108 140 172 209 258 309
#     4  10  18  32  51  80 112 142 171 207 252 307
#
# _framework density 18.788636
#
# number of rings (size 3 to 8) (size 9 to 14) (size 15 to 20)
#    0.000    2.250    1.250    1.875    0.000    2.000 
#    0.000    1.875    0.000    0.000    0.000    0.000 
#    0.000    0.000    0.000    0.000    0.000    0.000 
#
# Total GULP energy -396445.334376 kJ/mol
# GULP energy per Si atom -12388.916699 kJ/mol
# Density = 1.874587 g / cm^3
# Si number density = 18.788636 Si / 1000 Ang^3
#
#
#
# Elastic Constant Matrix: (Units=GPa)
#
#
# Indices 1 2 3 4 5 6 
#
# 1 103.0624 26.0184 57.7325 0.0000 -19.5844 0.0000
# 2 26.0184 72.7537 25.6767 0.0000 -0.6303 0.0000
# 3 57.7325 25.6767 87.7808 0.0000 -8.6188 0.0000
# 4 0.0000 0.0000 0.0000 25.9656 0.0000 3.1324
# 5 -19.5844 -0.6303 -8.6188 0.0000 37.5984 0.0000
# 6 0.0000 0.0000 0.0000 3.1324 0.0000 24.2684
#
#
#
# Elastic Compliance Matrix: (Units=1/GPa)
#
#
# Indices 1 2 3 4 5 6 
#
# 1 0.017142 -0.002591 -0.009866 0.000000 0.006624 0.000000
# 2 -0.002591 0.015742 -0.003076 0.000000 -0.001791 0.000000
# 3 -0.009866 -0.003076 0.018692 0.000000 -0.000906 0.000000
# 4 0.000000 0.000000 0.000000 0.039122 0.000000 -0.005050
# 5 0.006624 -0.001791 -0.000906 0.000000 0.029810 0.000000
# 6 0.000000 0.000000 0.000000 -0.005050 0.000000 0.041858
#
#
# Mechanical properties :
#
#
# Convention : Reuss Voigt Hill
#
# Bulk Modulus (GPa) = 48.75919 53.60579 51.18249
# Shear Modulus (GPa) = 24.96648 27.84441 26.40544
#
# Velocity S-wave (km/s) = 3.64924 3.85383 3.75293
# Velocity P-wave (km/s) = 6.61541 6.95669 6.78820
#
# Compressibility (1/GPa) = 0.02050896
#
# Stress axis : x y z
#
# Youngs Moduli (GPa) = 58.33474 63.52492 53.49954
#
# Poissons Ratio (x) = 0.16460 0.52783
# Poissons Ratio (y) = 0.15115 0.16458
# Poissons Ratio (z) = 0.57554 0.19542
#
# Static dielectric constant tensor:
#      x y z
#    x 3.818780 0.000000 -0.378020 
#    y 0.000000 3.286940 0.000000 
#    z -0.378020 0.000000 3.613960 
# 
# 
# High freq. dielectric constant tensor:
#      x y z
#    x 1.732250 0.000000 -0.015220 
#    y 0.000000 1.712930 0.000000 
#    z -0.015220 0.000000 1.724000 
# 
# From -- ./inp_files/42842.got.cif
#   From: 2010.06.25/outbox.cif.g09.slc.cpg/sg11_22_cif.got.tgz:42842.got - 2010.06.27 23:14:04.
