data_PCOD8068732
_publ_section_title
;
Structure prediction by ZEFSAII (Michael W. Deem and Ramdas Pophale) SiO2 
 PCOD8068732
Probable space group: P 21/M
;
_chemical_formula_sum "Si O2"
_cell_formula_units_Z 28
_cell_length_a 14.005954
_cell_length_b 8.742789
_cell_length_c 13.281216
_cell_angle_alpha 90.000000
_cell_angle_beta 61.880845
_cell_angle_gamma 90.000000
_cell_volume 1434.346326
_symmetry_space_group_name_H-M "P 21/M"
_symmetry_group_IT_number 11
_symmetry_cell_setting 'monoclinic'
loop_
_space_group_symop_operation_xyz
x,y,z
-x,1/2+y,-z
-x,-y,-z
x,1/2-y,z
loop_
_atom_site_type_symbol
_atom_site_label
_atom_site_fract_x
_atom_site_fract_y
_atom_site_fract_z
Si Si1 0.690500 0.930408 0.770062
Si Si2 0.247762 0.071727 0.692682
Si Si3 0.759161 0.921335 0.943233
Si Si4 0.882735 0.428605 0.061379
Si Si5 0.467881 0.423134 0.857790
Si Si6 0.543596 0.428628 0.338852
Si Si7 0.698304 0.930050 0.544606
O O1 0.664226 0.750000 0.781187
O O2 0.737944 0.983975 0.636435
O O3 0.580232 0.020721 0.849568
O O4 0.778132 0.966487 0.815490
O O5 0.228280 0.250000 0.723651
O O6 0.220749 0.026187 0.588459
O O7 0.176829 0.979053 0.806974
O O8 0.374398 0.031403 0.637663
O O9 0.801875 0.750000 0.944728
O O10 0.628996 0.927820 0.013940
O O11 0.818621 0.031698 0.991357
O O12 0.896072 0.250000 0.059646
O O13 0.000000 0.500000 0.000000
O O14 0.481901 0.250000 0.809447
O O15 0.429057 0.539976 0.791019
O O16 0.560248 0.250000 0.354956
O O17 0.422607 0.493240 0.417359
O O18 0.685289 0.750000 0.552449
#
# Coordination Sequence:
#
# PCOD8068732 Si02
#       7
#     4   4   4   4   4   4   4
#     4   9  18  33  52  78 114 153 188 220 261 321
#     4  11  20  34  55  79 110 145 183 228 276 326
#     4  10  20  35  56  80 111 146 182 227 277 328
#     4  12  26  43  63  84 107 137 180 235 287 336
#     4  10  18  28  46  76 113 152 188 226 269 319
#     4  10  18  30  48  75 110 152 192 225 267 322
#     4   8  17  31  50  78 114 152 186 220 262 317
#
# _framework density 19.521087999999999
#
# number of rings (size 3 to 8) (size 9 to 14) (size 15 to 20)
#    0.000    2.000    1.429    4.286    0.000    1.143 
#    0.000    6.429    0.000    0.857    0.000    0.000 
#    0.000    0.000    0.000    0.000    0.000    0.000 
#
# Total GULP energy -346876.591530 kJ/mol
# GULP energy per Si atom -12388.449698 kJ/mol
# Density = 1.947666 g / cm^3
# Si number density = 19.521088 Si / 1000 Ang^3
#
#
#
# Elastic Constant Matrix: (Units=GPa)
#
#
# Indices 1 2 3 4 5 6 
#
# 1 69.8715 35.4370 65.8320 0.0000 16.6207 0.0000
# 2 35.4370 89.8297 42.9253 0.0000 6.4962 0.0000
# 3 65.8320 42.9253 137.6322 0.0000 26.1519 0.0000
# 4 0.0000 0.0000 0.0000 17.8376 0.0000 -3.3643
# 5 16.6207 6.4962 26.1519 0.0000 15.2995 0.0000
# 6 0.0000 0.0000 0.0000 -3.3643 0.0000 25.2298
#
#
#
# Elastic Compliance Matrix: (Units=1/GPa)
#
#
# Indices 1 2 3 4 5 6 
#
# 1 0.029793 -0.006088 -0.009912 0.000000 -0.012837 0.000000
# 2 -0.006088 0.014372 -0.002470 0.000000 0.004733 0.000000
# 3 -0.009912 -0.002470 0.015598 0.000000 -0.014845 0.000000
# 4 0.000000 0.000000 0.000000 0.057508 0.000000 0.007669
# 5 -0.012837 0.004733 -0.014845 0.000000 0.102673 0.000000
# 6 0.000000 0.000000 0.000000 0.007669 0.000000 0.040658
#
#
# Mechanical properties :
#
#
# Convention : Reuss Voigt Hill
#
# Bulk Modulus (GPa) = 43.81677 65.08021 54.44849
# Shear Modulus (GPa) = 16.38549 21.88266 19.13407
#
# Velocity S-wave (km/s) = 2.90034 3.35173 3.13417
# Velocity P-wave (km/s) = 5.80608 6.95626 6.40703
#
# Compressibility (1/GPa) = 0.02282231
#
# Stress axis : x y z
#
# Youngs Moduli (GPa) = 33.56547 69.58141 64.11057
#
# Poissons Ratio (x) = 0.42360 0.63549
# Poissons Ratio (y) = 0.20434 0.15833
# Poissons Ratio (z) = 0.33272 0.17184
#
# Static dielectric constant tensor:
#      x y z
#    x 3.328660 0.000000 0.327240 
#    y 0.000000 3.504290 0.000000 
#    z 0.327240 0.000000 4.033160 
# 
# 
# High freq. dielectric constant tensor:
#      x y z
#    x 1.718060 0.000000 0.032270 
#    y 0.000000 1.751620 0.000000 
#    z 0.032270 0.000000 1.769130 
# 
# From -- ./inp_files/48928.got.cif
#   From: 2010.06.25/outbox.cif.g09.slc.cpg/sg11_25_cif.got.tgz:48928.got - 2010.06.27 23:14:04.
