data_PCOD8068935
_publ_section_title
;
Structure prediction by ZEFSAII (Michael W. Deem and Ramdas Pophale) SiO2 
 PCOD8068935
Probable space group: P 21/M
;
_chemical_formula_sum "Si O2"
_cell_formula_units_Z 28
_cell_length_a 14.719061
_cell_length_b 8.860228
_cell_length_c 18.986973
_cell_angle_alpha 90.000000
_cell_angle_beta 141.122925
_cell_angle_gamma 90.000000
_cell_volume 1554.173105
_symmetry_space_group_name_H-M "P 21/M"
_symmetry_group_IT_number 11
_symmetry_cell_setting 'monoclinic'
loop_
_space_group_symop_operation_xyz
x,y,z
-x,1/2+y,-z
-x,-y,-z
x,1/2-y,z
loop_
_atom_site_type_symbol
_atom_site_label
_atom_site_fract_x
_atom_site_fract_y
_atom_site_fract_z
Si Si1 0.671301 0.928624 0.334019
Si Si2 0.243001 0.578183 0.889544
Si Si3 0.135438 0.073319 0.423918
Si Si4 0.823940 0.420971 0.300055
Si Si5 0.037835 0.925906 0.231767
Si Si6 0.632487 0.423922 0.894505
Si Si7 0.948017 0.429620 0.040706
O O1 0.663144 0.750000 0.328037
O O2 0.735527 0.984505 0.447239
O O3 0.510911 0.001346 0.225492
O O4 0.778059 0.971994 0.335313
O O5 0.180093 0.750000 0.862054
O O6 0.285748 0.557648 0.833341
O O7 0.121257 0.456815 0.834361
O O8 0.374020 0.553778 0.023935
O O9 0.147649 0.250000 0.416118
O O10 0.984549 0.035424 0.371549
O O11 0.151035 0.987826 0.358560
O O12 0.818607 0.250000 0.324640
O O13 0.064852 0.750000 0.236128
O O14 0.053874 0.010936 0.166562
O O15 0.627099 0.250000 0.870756
O O16 0.783452 0.488984 0.955308
O O17 0.956244 0.250000 0.042895
O O18 0.000000 0.500000 0.000000
#
# Coordination Sequence:
#
# PCOD8068935 Si02
#       7
#     4   4   4   4   4   4   4
#     4  10  19  30  46  67  92 128 168 199 233 280
#     4   8  15  30  47  63  92 129 159 195 244 286
#     4   9  18  32  47  64  93 131 167 201 236 273
#     4   9  17  28  42  63  92 128 167 207 245 270
#     4  10  18  29  49  75  97 120 156 196 234 277
#     4   8  16  31  49  69  95 125 154 189 237 287
#     4  10  19  34  56  79 102 122 145 184 233 285
#
# _framework density 18.016012
#
# number of rings (size 3 to 8) (size 9 to 14) (size 15 to 20)
#    0.000    2.857    0.000    3.857    0.000    3.429 
#    0.000    3.571    0.000    0.857    0.000    0.000 
#    0.000    0.000    0.000    0.000    0.000    0.000 
#
# Total GULP energy -346922.817655 kJ/mol
# GULP energy per Si atom -12390.100631 kJ/mol
# Density = 1.797501 g / cm^3
# Si number density = 18.016012 Si / 1000 Ang^3
#
#
#
# Elastic Constant Matrix: (Units=GPa)
#
#
# Indices 1 2 3 4 5 6 
#
# 1 52.5846 27.7143 53.6940 0.0000 -23.0228 0.0000
# 2 27.7143 55.6892 41.1921 0.0000 -12.7025 0.0000
# 3 53.6940 41.1921 169.1714 0.0000 -24.4855 0.0000
# 4 0.0000 0.0000 0.0000 17.9811 0.0000 -9.2616
# 5 -23.0228 -12.7025 -24.4855 0.0000 27.4608 0.0000
# 6 0.0000 0.0000 0.0000 -9.2616 0.0000 23.1113
#
#
#
# Elastic Compliance Matrix: (Units=1/GPa)
#
#
# Indices 1 2 3 4 5 6 
#
# 1 0.042785 -0.010111 -0.007581 0.000000 0.024433 0.000000
# 2 -0.010111 0.025242 -0.002840 0.000000 0.000666 0.000000
# 3 -0.007581 -0.002840 0.009069 0.000000 0.000417 0.000000
# 4 0.000000 0.000000 0.000000 0.070079 0.000000 0.028083
# 5 0.024433 0.000666 0.000417 0.000000 0.057580 0.000000
# 6 0.000000 0.000000 0.000000 0.028083 0.000000 0.054523
#
#
# Mechanical properties :
#
#
# Convention : Reuss Voigt Hill
#
# Bulk Modulus (GPa) = 27.75492 58.07178 42.91335
# Shear Modulus (GPa) = 16.00749 24.03364 20.02057
#
# Velocity S-wave (km/s) = 2.98403 3.65638 3.33718
# Velocity P-wave (km/s) = 5.22606 7.08018 6.22256
#
# Compressibility (1/GPa) = 0.03602965
#
# Stress axis : x y z
#
# Youngs Moduli (GPa) = 23.37285 39.61679 110.26158
#
# Poissons Ratio (x) = 0.40058 0.83591
# Poissons Ratio (y) = 0.23633 0.31320
# Poissons Ratio (z) = 0.17719 0.11253
#
# Static dielectric constant tensor:
#      x y z
#    x 3.031580 0.000000 -0.184590 
#    y 0.000000 3.087440 0.000000 
#    z -0.184590 0.000000 3.913390 
# 
# 
# High freq. dielectric constant tensor:
#      x y z
#    x 1.652760 0.000000 -0.026670 
#    y 0.000000 1.678730 0.000000 
#    z -0.026670 0.000000 1.709930 
# 
# From -- ./inp_files/42312.got.cif
#   From: 2010.06.25/outbox.cif.g09.slc.cpg/sg11_22_cif.got.tgz:42312.got - 2010.06.27 23:14:04.
