data_PCOD8068538
_publ_section_title
;
Structure prediction by ZEFSAII (Michael W. Deem and Ramdas Pophale) SiO2 
 PCOD8068538
Probable space group: P 21/M
;
_chemical_formula_sum "Si O2"
_cell_formula_units_Z 32
_cell_length_a 23.224447
_cell_length_b 9.103847
_cell_length_c 16.607007
_cell_angle_alpha 90.000000
_cell_angle_beta 30.167399
_cell_angle_gamma 90.000000
_cell_volume 1764.501573
_symmetry_space_group_name_H-M "P 21/M"
_symmetry_group_IT_number 11
_symmetry_cell_setting 'monoclinic'
loop_
_space_group_symop_operation_xyz
x,y,z
-x,1/2+y,-z
-x,-y,-z
x,1/2-y,z
loop_
_atom_site_type_symbol
_atom_site_label
_atom_site_fract_x
_atom_site_fract_y
_atom_site_fract_z
Si Si1 0.483907 0.911931 0.939860
Si Si2 0.975560 0.578954 0.112400
Si Si3 0.481661 0.576390 0.257276
Si Si4 0.218085 0.589416 0.246036
Si Si5 0.735991 0.578002 0.482294
Si Si6 0.073220 0.418598 0.140419
Si Si7 0.162378 0.578793 0.490388
Si Si8 0.740701 0.578164 0.958653
O O1 0.543114 0.750000 0.870410
O O2 0.539783 0.016512 0.806220
O O3 0.352216 0.888788 0.083000
O O4 0.500000 0.000000 0.000000
O O5 0.998996 0.750000 0.073850
O O6 0.062423 0.519055 0.074964
O O7 0.845390 0.544798 0.294616
O O8 0.000000 0.500000 0.000000
O O9 0.467365 0.750000 0.280051
O O10 0.373119 0.497843 0.432333
O O11 0.608574 0.525887 0.133054
O O12 0.159150 0.750000 0.306644
O O13 0.178022 0.518893 0.379759
O O14 0.192256 0.489864 0.199259
O O15 0.712485 0.750000 0.519630
O O16 0.757361 0.511097 0.545529
O O17 0.076333 0.250000 0.108061
O O18 0.969685 0.445158 0.327360
O O19 0.190312 0.462882 0.044215
O O20 0.198458 0.750000 0.451067
O O21 0.740912 0.750000 0.940992
#
# Coordination Sequence:
#
# PCOD8068538 Si02
#       8
#     4   4   4   4   4   4   4   4
#     4  10  18  27  40  60  89 126 170 219 264 300
#     4  10  21  37  59  86 109 128 153 191 243 302
#     4  10  19  31  47  67  95 133 173 209 248 296
#     4   9  18  29  41  62  93 130 173 216 253 291
#     4  10  20  33  51  77 104 128 161 206 253 298
#     4   9  18  34  54  75 102 134 166 204 249 297
#     4   9  17  30  48  70  98 133 171 211 258 304
#     4   9  19  33  48  69  98 136 178 212 246 289
#
# _framework density 18.135434
#
# number of rings (size 3 to 8) (size 9 to 14) (size 15 to 20)
#    0.000    2.500    0.000    2.250    0.000    5.000 
#    0.000    0.000    0.000    0.750    0.000    0.000 
#    0.000    0.000    0.000    0.000    0.000    0.000 
#
# Total GULP energy -396571.280049 kJ/mol
# GULP energy per Si atom -12392.852502 kJ/mol
# Density = 1.809416 g / cm^3
# Si number density = 18.135434 Si / 1000 Ang^3
#
#
#
# Elastic Constant Matrix: (Units=GPa)
#
#
# Indices 1 2 3 4 5 6 
#
# 1 104.3724 59.9186 63.9577 0.0000 -0.6694 0.0000
# 2 59.9186 83.3457 47.7645 0.0000 0.9367 0.0000
# 3 63.9577 47.7645 82.4806 0.0000 3.4651 0.0000
# 4 0.0000 0.0000 0.0000 28.1669 0.0000 2.1347
# 5 -0.6694 0.9367 3.4651 0.0000 28.5927 0.0000
# 6 0.0000 0.0000 0.0000 2.1347 0.0000 25.1475
#
#
#
# Elastic Compliance Matrix: (Units=1/GPa)
#
#
# Indices 1 2 3 4 5 6 
#
# 1 0.022184 -0.009072 -0.012044 0.000000 0.002276 0.000000
# 2 -0.009072 0.021681 -0.005510 0.000000 -0.000255 0.000000
# 3 -0.012044 -0.005510 0.024785 0.000000 -0.003105 0.000000
# 4 0.000000 0.000000 0.000000 0.035733 0.000000 -0.003033
# 5 0.002276 -0.000255 -0.003105 0.000000 0.035412 0.000000
# 6 0.000000 0.000000 0.000000 -0.003033 0.000000 0.040023
#
#
# Mechanical properties :
#
#
# Convention : Reuss Voigt Hill
#
# Bulk Modulus (GPa) = 64.94614 68.16446 66.55530
# Shear Modulus (GPa) = 20.99058 22.95196 21.97127
#
# Velocity S-wave (km/s) = 3.40580 3.56137 3.48445
# Velocity P-wave (km/s) = 7.16627 7.38776 7.27786
#
# Compressibility (1/GPa) = 0.01539737
#
# Stress axis : x y z
#
# Youngs Moduli (GPa) = 45.07717 46.12410 40.34686
#
# Poissons Ratio (x) = 0.41842 0.48596
# Poissons Ratio (y) = 0.40892 0.22232
# Poissons Ratio (z) = 0.54293 0.25415
#
# Static dielectric constant tensor:
#      x y z
#    x 3.159480 0.000000 -0.139770 
#    y 0.000000 3.409530 0.000000 
#    z -0.139770 0.000000 3.310190 
# 
# 
# High freq. dielectric constant tensor:
#      x y z
#    x 1.681040 0.000000 -0.016850 
#    y 0.000000 1.707530 0.000000 
#    z -0.016850 0.000000 1.692840 
# 
# From -- ./inp_files/55537.got.cif
#   From: 2010.06.25/outbox.cif.g09.slc.cpg/sg11_28_cif.got.tgz:55537.got - 2010.06.27 23:14:04.
