data_PCOD8068822
_publ_section_title
;
Structure prediction by ZEFSAII (Michael W. Deem and Ramdas Pophale) SiO2 
 PCOD8068822
Probable space group: P 21/M
;
_chemical_formula_sum "Si O2"
_cell_formula_units_Z 28
_cell_length_a 14.997712
_cell_length_b 9.432604
_cell_length_c 15.786157
_cell_angle_alpha 90.000000
_cell_angle_beta 45.061976
_cell_angle_gamma 90.000000
_cell_volume 1580.837734
_symmetry_space_group_name_H-M "P 21/M"
_symmetry_group_IT_number 11
_symmetry_cell_setting 'monoclinic'
loop_
_space_group_symop_operation_xyz
x,y,z
-x,1/2+y,-z
-x,-y,-z
x,1/2-y,z
loop_
_atom_site_type_symbol
_atom_site_label
_atom_site_fract_x
_atom_site_fract_y
_atom_site_fract_z
Si Si1 0.818172 0.912119 0.209317
Si Si2 0.599944 0.911146 0.483241
Si Si3 0.568839 0.917626 0.691322
Si Si4 0.714160 0.082936 0.121323
Si Si5 0.057517 0.583060 0.144555
Si Si6 0.961355 0.415352 0.652885
Si Si7 0.189295 0.415356 0.378084
O O1 0.826248 0.750000 0.170972
O O2 0.735627 0.921472 0.349530
O O3 0.954109 0.974167 0.146603
O O4 0.759210 0.007331 0.176056
O O5 0.550659 0.750000 0.518766
O O6 0.607719 0.974291 0.572588
O O7 0.500000 0.000000 0.500000
O O8 0.578723 0.750000 0.685070
O O9 0.426841 0.967596 0.809107
O O10 0.671674 0.973289 0.689855
O O11 0.717693 0.250000 0.137424
O O12 0.804479 0.041488 0.982599
O O13 0.037354 0.750000 0.163192
O O14 0.038289 0.521696 0.251892
O O15 0.926186 0.250000 0.675760
O O16 0.852718 0.496942 0.675209
O O17 0.096787 0.443145 0.519708
O O18 0.189691 0.250000 0.353673
#
# Coordination Sequence:
#
# PCOD8068822 Si02
#       7
#     4   4   4   4   4   4   4
#     4  10  19  31  48  70  96 127 161 197 237 277
#     4  10  18  29  46  68  95 124 155 191 230 275
#     4   9  17  30  48  69  94 126 158 187 231 284
#     4  10  19  32  49  68  95 129 164 196 226 277
#     4   9  18  32  50  70  93 127 164 194 232 281
#     4   9  17  32  52  72  93 118 154 197 237 281
#     4   9  17  31  52  73  93 119 152 194 240 285
#
# _framework density 17.712128
#
# number of rings (size 3 to 8) (size 9 to 14) (size 15 to 20)
#    0.000    2.571    1.429    1.286    0.000    3.429 
#    0.000    3.571    0.000    3.429    0.000    0.000 
#    0.000    0.000    0.000    0.000    0.000    0.000 
#
# Total GULP energy -347118.605824 kJ/mol
# GULP energy per Si atom -12397.093065 kJ/mol
# Density = 1.767181 g / cm^3
# Si number density = 17.712128 Si / 1000 Ang^3
#
#
#
# Elastic Constant Matrix: (Units=GPa)
#
#
# Indices 1 2 3 4 5 6 
#
# 1 154.4301 34.0778 50.2425 0.0000 -16.7025 0.0000
# 2 34.0778 33.3096 19.0460 0.0000 -3.7793 0.0000
# 3 50.2425 19.0460 79.2696 0.0000 -11.3577 0.0000
# 4 0.0000 0.0000 0.0000 16.4032 0.0000 2.8913
# 5 -16.7025 -3.7793 -11.3577 0.0000 24.4524 0.0000
# 6 0.0000 0.0000 0.0000 2.8913 0.0000 27.1425
#
#
#
# Elastic Compliance Matrix: (Units=1/GPa)
#
#
# Indices 1 2 3 4 5 6 
#
# 1 0.009765 -0.007342 -0.003891 0.000000 0.003728 0.000000
# 2 -0.007342 0.040382 -0.005221 0.000000 -0.001199 0.000000
# 3 -0.003891 -0.005221 0.016968 0.000000 0.004417 0.000000
# 4 0.000000 0.000000 0.000000 0.062130 0.000000 -0.006618
# 5 0.003728 -0.001199 0.004417 0.000000 0.045308 0.000000
# 6 0.000000 0.000000 0.000000 -0.006618 0.000000 0.037548
#
#
# Mechanical properties :
#
#
# Convention : Reuss Voigt Hill
#
# Bulk Modulus (GPa) = 29.23310 52.63798 40.93554
# Shear Modulus (GPa) = 19.49994 24.50916 22.00455
#
# Velocity S-wave (km/s) = 3.32164 3.72391 3.52851
# Velocity P-wave (km/s) = 5.59030 6.94789 6.30574
#
# Compressibility (1/GPa) = 0.03420780
#
# Stress axis : x y z
#
# Youngs Moduli (GPa) = 102.41049 24.76357 58.93293
#
# Poissons Ratio (x) = 0.18182 0.22929
# Poissons Ratio (y) = 0.75191 0.30767
# Poissons Ratio (z) = 0.39846 0.12928
#
# Static dielectric constant tensor:
#      x y z
#    x 3.461790 0.000000 -0.126930 
#    y 0.000000 3.010350 0.000000 
#    z -0.126930 0.000000 3.503290 
# 
# 
# High freq. dielectric constant tensor:
#      x y z
#    x 1.689990 0.000000 -0.007710 
#    y 0.000000 1.649130 0.000000 
#    z -0.007710 0.000000 1.684400 
# 
# From -- ./inp_files/34379.got.cif
#   From: 2010.06.25/outbox.cif.g09.slc.cpg/sg11_18_cif.got.tgz:34379.got - 2010.06.27 23:14:04.
