data_PCOD8068282
_publ_section_title
;
Structure prediction by ZEFSAII (Michael W. Deem and Ramdas Pophale) SiO2 
 PCOD8068282
Probable space group: P 21/M
;
_chemical_formula_sum "Si O2"
_cell_formula_units_Z 28
_cell_length_a 13.161607
_cell_length_b 8.991364
_cell_length_c 13.761036
_cell_angle_alpha 90.000000
_cell_angle_beta 116.026735
_cell_angle_gamma 90.000000
_cell_volume 1463.345647
_symmetry_space_group_name_H-M "P 21/M"
_symmetry_group_IT_number 11
_symmetry_cell_setting 'monoclinic'
loop_
_space_group_symop_operation_xyz
x,y,z
-x,1/2+y,-z
-x,-y,-z
x,1/2-y,z
loop_
_atom_site_type_symbol
_atom_site_label
_atom_site_fract_x
_atom_site_fract_y
_atom_site_fract_z
Si Si1 0.443747 0.919168 0.246131
Si Si2 0.051523 0.075117 0.303291
Si Si3 0.268313 0.081019 0.284749
Si Si4 0.639012 0.585664 0.470002
Si Si5 0.562469 0.072242 0.116075
Si Si6 0.186185 0.575206 0.750593
Si Si7 0.840052 0.423129 0.475504
O O1 0.431340 0.750000 0.203338
O O2 0.512667 0.928425 0.375991
O O3 0.318879 0.983513 0.217712
O O4 0.504874 0.017308 0.190631
O O5 0.069356 0.250000 0.319688
O O6 0.143552 0.016505 0.263173
O O7 0.919858 0.036088 0.221422
O O8 0.074140 0.010286 0.419465
O O9 0.256919 0.250000 0.242898
O O10 0.355614 0.070370 0.411432
O O11 0.687491 0.750000 0.462259
O O12 0.711655 0.454779 0.453194
O O13 0.554786 0.250000 0.107652
O O14 0.692604 0.011837 0.164569
O O15 0.500000 0.000000 0.000000
O O16 0.202731 0.750000 0.748687
O O17 0.149606 0.515172 0.629576
O O18 0.866289 0.250000 0.495494
#
# Coordination Sequence:
#
# PCOD8068282 Si02
#       7
#     4   4   4   4   4   4   4
#     4  11  21  34  54  78 106 141 180 224 270 317
#     4   9  18  33  50  74 109 147 180 211 256 316
#     4   9  18  31  49  75 109 147 180 213 255 312
#     4   9  18  31  47  72 107 147 184 218 260 314
#     4  11  23  41  61  83 107 135 176 227 278 326
#     4   9  18  33  54  76 104 140 176 218 269 319
#     4  10  17  27  46  76 108 143 180 217 259 311
#
# _framework density 19.134235
#
# number of rings (size 3 to 8) (size 9 to 14) (size 15 to 20)
#    0.000    2.286    1.429    3.000    0.000    2.857 
#    0.000    2.143    0.000    0.857    0.000    0.000 
#    0.000    0.000    0.000    0.000    0.000    0.000 
#
# Total GULP energy -346918.356173 kJ/mol
# GULP energy per Si atom -12389.941292 kJ/mol
# Density = 1.909068 g / cm^3
# Si number density = 19.134235 Si / 1000 Ang^3
#
#
#
# Elastic Constant Matrix: (Units=GPa)
#
#
# Indices 1 2 3 4 5 6 
#
# 1 152.8300 42.7064 56.4521 0.0000 19.1794 0.0000
# 2 42.7064 59.6136 22.9423 0.0000 2.4435 0.0000
# 3 56.4521 22.9423 49.5522 0.0000 10.3392 0.0000
# 4 0.0000 0.0000 0.0000 22.5942 0.0000 -5.4044
# 5 19.1794 2.4435 10.3392 0.0000 15.7680 0.0000
# 6 0.0000 0.0000 0.0000 -5.4044 0.0000 23.4805
#
#
#
# Elastic Compliance Matrix: (Units=1/GPa)
#
#
# Indices 1 2 3 4 5 6 
#
# 1 0.012830 -0.004712 -0.010810 0.000000 -0.007787 0.000000
# 2 -0.004712 0.022312 -0.006298 0.000000 0.006404 0.000000
# 3 -0.010810 -0.006298 0.037611 0.000000 -0.010537 0.000000
# 4 0.000000 0.000000 0.000000 0.046838 0.000000 0.010780
# 5 -0.007787 0.006404 -0.010537 0.000000 0.078808 0.000000
# 6 0.000000 0.000000 0.000000 0.010780 0.000000 0.045070
#
#
# Mechanical properties :
#
#
# Convention : Reuss Voigt Hill
#
# Bulk Modulus (GPa) = 34.35035 56.24415 45.29725
# Shear Modulus (GPa) = 16.84556 21.69487 19.27022
#
# Velocity S-wave (km/s) = 2.97035 3.37088 3.17694
# Velocity P-wave (km/s) = 5.45484 6.67898 6.09771
#
# Compressibility (1/GPa) = 0.02911178
#
# Stress axis : x y z
#
# Youngs Moduli (GPa) = 77.94040 44.81966 26.58798
#
# Poissons Ratio (x) = 0.21118 0.28743
# Poissons Ratio (y) = 0.36725 0.16746
# Poissons Ratio (z) = 0.84257 0.28229
#
# Static dielectric constant tensor:
#      x y z
#    x 3.733420 0.000000 0.151370 
#    y 0.000000 3.402190 0.000000 
#    z 0.151370 0.000000 3.190330 
# 
# 
# High freq. dielectric constant tensor:
#      x y z
#    x 1.757620 0.000000 0.007960 
#    y 0.000000 1.733000 0.000000 
#    z 0.007960 0.000000 1.694280 
# 
# From -- ./inp_files/51445.got.cif
#   From: 2010.06.25/outbox.cif.g09.slc.cpg/sg11_26_cif.got.tgz:51445.got - 2010.06.27 23:14:04.
