data_PCOD8068825
_publ_section_title
;
Structure prediction by ZEFSAII (Michael W. Deem and Ramdas Pophale) SiO2 
 PCOD8068825
Probable space group: P 21/M
;
_chemical_formula_sum "Si O2"
_cell_formula_units_Z 32
_cell_length_a 14.016156
_cell_length_b 8.639750
_cell_length_c 14.758125
_cell_angle_alpha 90.000000
_cell_angle_beta 87.833516
_cell_angle_gamma 90.000000
_cell_volume 1785.873688
_symmetry_space_group_name_H-M "P 21/M"
_symmetry_group_IT_number 11
_symmetry_cell_setting 'monoclinic'
loop_
_space_group_symop_operation_xyz
x,y,z
-x,1/2+y,-z
-x,-y,-z
x,1/2-y,z
loop_
_atom_site_type_symbol
_atom_site_label
_atom_site_fract_x
_atom_site_fract_y
_atom_site_fract_z
Si Si1 0.391838 0.068334 0.252676
Si Si2 0.526496 0.933571 0.095552
Si Si3 0.330895 0.931855 0.786129
Si Si4 0.685372 0.074246 0.480341
Si Si5 0.780542 0.066591 0.659150
Si Si6 0.462057 0.430019 0.630349
Si Si7 0.986313 0.070128 0.599834
Si Si8 0.160510 0.923488 0.681949
O O1 0.401538 0.250000 0.236546
O O2 0.444032 0.980717 0.169001
O O3 0.280169 0.017573 0.259364
O O4 0.439284 0.017326 0.347443
O O5 0.536449 0.750000 0.091401
O O6 0.629759 0.009521 0.118410
O O7 0.500000 0.000000 0.000000
O O8 0.354173 0.750000 0.770454
O O9 0.216523 0.960055 0.774964
O O10 0.387639 0.034714 0.712388
O O11 0.654969 0.250000 0.497594
O O12 0.736575 0.006644 0.566349
O O13 0.760041 0.057830 0.397068
O O14 0.586001 0.986218 0.462183
O O15 0.773068 0.250000 0.672534
O O16 0.890555 0.010025 0.653612
O O17 0.484776 0.250000 0.624068
O O18 0.975870 0.250000 0.582610
O O19 0.000000 0.000000 0.500000
O O20 0.073246 0.037617 0.665390
O O21 0.118576 0.750000 0.684048
#
# Coordination Sequence:
#
# PCOD8068825 Si02
#       8
#     4   4   4   4   4   4   4   4
#     4  11  22  36  52  73 100 132 168 208 254 305
#     4  11  21  36  59  85 111 136 164 200 246 305
#     4   9  17  31  50  74 105 136 167 206 252 301
#     4   9  17  31  47  64  93 132 173 215 257 299
#     4  10  21  36  49  66  96 135 175 218 263 303
#     4  10  18  29  46  68  95 129 169 209 251 300
#     4  11  21  33  50  71  98 134 180 227 268 306
#     4   9  17  31  49  71 100 135 173 219 264 299
#
# _framework density 17.918400999999999
#
# number of rings (size 3 to 8) (size 9 to 14) (size 15 to 20)
#    0.000    2.000    1.250    6.375    0.000    4.500 
#    0.000    0.000    0.000    0.000    0.000    0.875 
#    0.000    0.000    0.000    0.000    0.000    0.000 
#
# Total GULP energy -396596.729585 kJ/mol
# GULP energy per Si atom -12393.647800 kJ/mol
# Density = 1.787762 g / cm^3
# Si number density = 17.918401 Si / 1000 Ang^3
#
#
#
# Elastic Constant Matrix: (Units=GPa)
#
#
# Indices 1 2 3 4 5 6 
#
# 1 130.0541 40.4871 44.0692 0.0000 9.7467 0.0000
# 2 40.4871 75.1906 21.1191 0.0000 0.8165 0.0000
# 3 44.0692 21.1191 51.0274 0.0000 16.0470 0.0000
# 4 0.0000 0.0000 0.0000 21.7664 0.0000 5.6496
# 5 9.7467 0.8165 16.0470 0.0000 22.5915 0.0000
# 6 0.0000 0.0000 0.0000 5.6496 0.0000 28.5211
#
#
#
# Elastic Compliance Matrix: (Units=1/GPa)
#
#
# Indices 1 2 3 4 5 6 
#
# 1 0.011866 -0.003841 -0.009132 0.000000 0.001506 0.000000
# 2 -0.003841 0.016743 -0.005078 0.000000 0.004659 0.000000
# 3 -0.009132 -0.005078 0.036426 0.000000 -0.021750 0.000000
# 4 0.000000 0.000000 0.000000 0.048433 0.000000 -0.009594
# 5 0.001506 0.004659 -0.021750 0.000000 0.058896 0.000000
# 6 0.000000 0.000000 0.000000 -0.009594 0.000000 0.036962
#
#
# Mechanical properties :
#
#
# Convention : Reuss Voigt Hill
#
# Bulk Modulus (GPa) = 34.56142 51.95811 43.25976
# Shear Modulus (GPa) = 19.60232 24.61558 22.10895
#
# Velocity S-wave (km/s) = 3.31112 3.71045 3.51646
# Velocity P-wave (km/s) = 5.82650 6.88597 6.37827
#
# Compressibility (1/GPa) = 0.02893400
#
# Stress axis : x y z
#
# Youngs Moduli (GPa) = 84.27122 59.72545 27.45318
#
# Poissons Ratio (x) = 0.22940 0.25071
# Poissons Ratio (y) = 0.32368 0.13939
# Poissons Ratio (z) = 0.76958 0.30326
#
# Static dielectric constant tensor:
#      x y z
#    x 3.786600 0.000000 0.344560 
#    y 0.000000 3.327370 0.000000 
#    z 0.344560 0.000000 3.212910 
# 
# 
# High freq. dielectric constant tensor:
#      x y z
#    x 1.697760 0.000000 0.012010 
#    y 0.000000 1.697540 0.000000 
#    z 0.012010 0.000000 1.649240 
# 
# From -- ./inp_files/51191.got.cif
#   From: 2010.06.25/outbox.cif.g09.slc.cpg/sg11_26_cif.got.tgz:51191.got - 2010.06.27 23:14:04.
