data_PCOD8068836
_publ_section_title
;
Structure prediction by ZEFSAII (Michael W. Deem and Ramdas Pophale) SiO2 
 PCOD8068836
Probable space group: P 21/M
;
_chemical_formula_sum "Si O2"
_cell_formula_units_Z 32
_cell_length_a 28.634611
_cell_length_b 9.491814
_cell_length_c 14.485170
_cell_angle_alpha 90.000000
_cell_angle_beta 25.511819
_cell_angle_gamma 90.000000
_cell_volume 1695.650045
_symmetry_space_group_name_H-M "P 21/M"
_symmetry_group_IT_number 11
_symmetry_cell_setting 'monoclinic'
loop_
_space_group_symop_operation_xyz
x,y,z
-x,1/2+y,-z
-x,-y,-z
x,1/2-y,z
loop_
_atom_site_type_symbol
_atom_site_label
_atom_site_fract_x
_atom_site_fract_y
_atom_site_fract_z
Si Si1 0.831949 0.914008 0.924261
Si Si2 0.475790 0.409163 0.277607
Si Si3 0.326401 0.094220 0.059989
Si Si4 0.192944 0.095581 0.480259
Si Si5 0.413043 0.413928 0.595593
Si Si6 0.398969 0.087354 0.219203
Si Si7 0.032846 0.592005 0.673644
Si Si8 0.165783 0.587586 0.249877
O O1 0.841374 0.750000 0.878461
O O2 0.905181 0.940906 0.885525
O O3 0.883811 0.010232 0.751022
O O4 0.708720 0.959941 0.162465
O O5 0.523632 0.250000 0.194553
O O6 0.423001 0.448345 0.469343
O O7 0.390558 0.422231 0.345477
O O8 0.567517 0.521349 0.088646
O O9 0.352564 0.250000 0.972480
O O10 0.240270 0.109155 0.294045
O O11 0.279857 0.993468 0.063191
O O12 0.158966 0.250000 0.578020
O O13 0.284564 0.027785 0.383729
O O14 0.084479 0.001949 0.663416
O O15 0.500000 0.500000 0.500000
O O16 0.432630 0.250000 0.581046
O O17 0.412641 0.250000 0.161890
O O18 0.500000 0.000000 0.000000
O O19 0.050831 0.750000 0.676459
O O20 0.087539 0.570852 0.476210
O O21 0.190309 0.750000 0.183534
#
# Coordination Sequence:
#
# PCOD8068836 Si02
#       8
#     4   4   4   4   4   4   4   4
#     4  10  20  35  52  70  96 130 171 213 254 300
#     4  10  20  33  51  74 102 135 173 212 253 300
#     4  10  18  29  46  70 102 135 166 201 246 301
#     4   9  18  31  47  72 103 132 161 196 248 307
#     4  10  22  38  54  74 100 135 174 212 252 296
#     4  10  19  32  51  77 107 136 167 207 255 308
#     4   9  19  33  50  72  98 131 167 206 253 305
#     4  10  19  30  47  73 101 128 165 208 255 305
#
# _framework density 18.871818000000001
#
# number of rings (size 3 to 8) (size 9 to 14) (size 15 to 20)
#    0.000    2.250    1.250    1.875    0.000    5.000 
#    0.000    0.000    0.000    0.750    0.000    0.000 
#    0.000    0.000    0.000    0.000    0.000    0.000 
#
# Total GULP energy -396631.413439 kJ/mol
# GULP energy per Si atom -12394.731670 kJ/mol
# Density = 1.882887 g / cm^3
# Si number density = 18.871818 Si / 1000 Ang^3
#
#
#
# Elastic Constant Matrix: (Units=GPa)
#
#
# Indices 1 2 3 4 5 6 
#
# 1 118.6480 48.7215 36.4585 0.0000 -25.3935 0.0000
# 2 48.7215 91.5673 33.1198 0.0000 -20.3020 0.0000
# 3 36.4585 33.1198 58.3441 0.0000 -24.7608 0.0000
# 4 0.0000 0.0000 0.0000 17.9095 0.0000 -9.5320
# 5 -25.3935 -20.3020 -24.7608 0.0000 35.3710 0.0000
# 6 0.0000 0.0000 0.0000 -9.5320 0.0000 29.3715
#
#
#
# Elastic Compliance Matrix: (Units=1/GPa)
#
#
# Indices 1 2 3 4 5 6 
#
# 1 0.012085 -0.004334 -0.003507 0.000000 0.003733 0.000000
# 2 -0.004334 0.015600 -0.005218 0.000000 0.002190 0.000000
# 3 -0.003507 -0.005218 0.028387 0.000000 0.014359 0.000000
# 4 0.000000 0.000000 0.000000 0.067494 0.000000 0.021904
# 5 0.003733 0.002190 0.014359 0.000000 0.042261 0.000000
# 6 0.000000 0.000000 0.000000 0.021904 0.000000 0.041155
#
#
# Mechanical properties :
#
#
# Convention : Reuss Voigt Hill
#
# Bulk Modulus (GPa) = 33.38449 56.12876 44.75663
# Shear Modulus (GPa) = 20.56904 26.54770 23.55837
#
# Velocity S-wave (km/s) = 3.30500 3.75472 3.53701
# Velocity P-wave (km/s) = 5.68265 6.97165 6.35989
#
# Compressibility (1/GPa) = 0.02995403
#
# Stress axis : x y z
#
# Youngs Moduli (GPa) = 82.75017 64.10380 35.22719
#
# Poissons Ratio (x) = 0.27781 0.12354
# Poissons Ratio (y) = 0.35862 0.18381
# Poissons Ratio (z) = 0.29020 0.33449
#
# Static dielectric constant tensor:
#      x y z
#    x 3.566590 0.000000 -0.248590 
#    y 0.000000 3.656500 0.000000 
#    z -0.248590 0.000000 3.202620 
# 
# 
# High freq. dielectric constant tensor:
#      x y z
#    x 1.735010 0.000000 -0.024090 
#    y 0.000000 1.734600 0.000000 
#    z -0.024090 0.000000 1.694950 
# 
# From -- ./inp_files/56168.got.cif
#   From: 2010.06.25/outbox.cif.g09.slc.cpg/sg11_29_cif.got.tgz:56168.got - 2010.06.27 23:14:04.
