data_PCOD8068694
_publ_section_title
;
Structure prediction by ZEFSAII (Michael W. Deem and Ramdas Pophale) SiO2 
 PCOD8068694
Probable space group: P 21/M
;
_chemical_formula_sum "Si O2"
_cell_formula_units_Z 32
_cell_length_a 11.198141
_cell_length_b 8.957225
_cell_length_c 23.212198
_cell_angle_alpha 90.000000
_cell_angle_beta 54.379542
_cell_angle_gamma 90.000000
_cell_volume 1892.644246
_symmetry_space_group_name_H-M "P 21/M"
_symmetry_group_IT_number 11
_symmetry_cell_setting 'monoclinic'
loop_
_space_group_symop_operation_xyz
x,y,z
-x,1/2+y,-z
-x,-y,-z
x,1/2-y,z
loop_
_atom_site_type_symbol
_atom_site_label
_atom_site_fract_x
_atom_site_fract_y
_atom_site_fract_z
Si Si1 0.392229 0.075939 0.485799
Si Si2 0.837895 0.915820 0.364560
Si Si3 0.662860 0.580178 0.898820
Si Si4 0.628632 0.921999 0.040375
Si Si5 0.802434 0.927152 0.197460
Si Si6 0.430238 0.415261 0.648550
Si Si7 0.150128 0.926963 0.937534
Si Si8 0.986821 0.922585 0.772649
O O1 0.423071 0.250000 0.478667
O O2 0.223885 0.041410 0.553951
O O3 0.500000 0.000000 0.500000
O O4 0.431343 0.016696 0.410509
O O5 0.907879 0.750000 0.345798
O O6 0.697662 0.917255 0.362564
O O7 0.958781 0.031511 0.306838
O O8 0.609398 0.750000 0.904212
O O9 0.541782 0.468378 0.907594
O O10 0.813483 0.547809 0.823298
O O11 0.688880 0.551835 0.959201
O O12 0.644899 0.750000 0.054920
O O13 0.720793 0.027649 0.055868
O O14 0.816602 0.750000 0.183405
O O15 0.644914 0.968958 0.270658
O O16 0.808856 0.016263 0.136878
O O17 0.935873 0.976954 0.200858
O O18 0.494522 0.250000 0.638158
O O19 0.131126 0.750000 0.942144
O O20 0.000000 0.000000 0.000000
O O21 0.024591 0.750000 0.773662
#
# Coordination Sequence:
#
# PCOD8068694 Si02
#       8
#     4   4   4   4   4   4   4   4
#     4   9  15  22  34  52  78 113 150 187 225 268
#     4   8  15  25  35  54  85 118 152 189 228 271
#     4   9  19  34  50  70  95 120 151 191 231 274
#     4  10  20  35  54  73  93 120 154 190 231 276
#     4  10  20  33  47  66  94 125 158 194 232 276
#     4   8  15  26  39  56  81 114 150 188 226 267
#     4  12  24  37  53  72  96 124 155 191 230 272
#     4  10  18  28  45  68  94 125 159 194 233 275
#
# _framework density 16.907563
#
# number of rings (size 3 to 8) (size 9 to 14) (size 15 to 20)
#    0.000    2.500    0.000    4.875    0.000    8.000 
#    0.000    0.000    0.000    0.000    0.000    0.000 
#    0.000    1.000    0.000    3.250    0.000    6.500 
#
# Total GULP energy -396613.400705 kJ/mol
# GULP energy per Si atom -12394.168772 kJ/mol
# Density = 1.686908 g / cm^3
# Si number density = 16.907563 Si / 1000 Ang^3
#
#
#
# Elastic Constant Matrix: (Units=GPa)
#
#
# Indices 1 2 3 4 5 6 
#
# 1 42.1897 33.1100 37.1990 0.0000 -4.3617 0.0000
# 2 33.1100 110.3897 70.5089 0.0000 -5.7390 0.0000
# 3 37.1990 70.5089 150.3888 0.0000 -11.7299 0.0000
# 4 0.0000 0.0000 0.0000 33.3813 0.0000 -1.9592
# 5 -4.3617 -5.7390 -11.7299 0.0000 14.8305 0.0000
# 6 0.0000 0.0000 0.0000 -1.9592 0.0000 21.9549
#
#
#
# Elastic Compliance Matrix: (Units=1/GPa)
#
#
# Indices 1 2 3 4 5 6 
#
# 1 0.033704 -0.006819 -0.004873 0.000000 0.003420 0.000000
# 2 -0.006819 0.014311 -0.005060 0.000000 -0.000469 0.000000
# 3 -0.004873 -0.005060 0.010618 0.000000 0.005007 0.000000
# 4 0.000000 0.000000 0.000000 0.030115 0.000000 0.002687
# 5 0.003420 -0.000469 0.005007 0.000000 0.072213 0.000000
# 6 0.000000 0.000000 0.000000 0.002687 0.000000 0.045788
#
#
# Mechanical properties :
#
#
# Convention : Reuss Voigt Hill
#
# Bulk Modulus (GPa) = 39.79363 64.95598 52.37480
# Shear Modulus (GPa) = 20.11041 24.84337 22.47689
#
# Velocity S-wave (km/s) = 3.45256 3.83739 3.65005
# Velocity P-wave (km/s) = 6.28336 7.62468 6.98629
#
# Compressibility (1/GPa) = 0.02512965
#
# Stress axis : x y z
#
# Youngs Moduli (GPa) = 29.67020 69.87418 94.18354
#
# Poissons Ratio (x) = 0.47645 0.45897
# Poissons Ratio (y) = 0.20231 0.47655
# Poissons Ratio (z) = 0.14459 0.35355
#
# Static dielectric constant tensor:
#      x y z
#    x 2.644280 0.000000 -0.034340 
#    y 0.000000 2.974470 0.000000 
#    z -0.034340 0.000000 3.391870 
# 
# 
# High freq. dielectric constant tensor:
#      x y z
#    x 1.584260 0.000000 -0.011990 
#    y 0.000000 1.664500 0.000000 
#    z -0.011990 0.000000 1.671540 
# 
# From -- ./inp_files/68316.got.cif
#   From: 2010.06.25/outbox.cif.g09.slc.cpg/sg11_35_cif.got.tgz:68316.got - 2010.06.27 23:14:04.
