data_PCOD8068789
_publ_section_title
;
Structure prediction by ZEFSAII (Michael W. Deem and Ramdas Pophale) SiO2 
 PCOD8068789
Probable space group: P 21/M
;
_chemical_formula_sum "Si O2"
_cell_formula_units_Z 32
_cell_length_a 20.509359
_cell_length_b 8.677346
_cell_length_c 21.793460
_cell_angle_alpha 90.000000
_cell_angle_beta 25.970227
_cell_angle_gamma 90.000000
_cell_volume 1698.416267
_symmetry_space_group_name_H-M "P 21/M"
_symmetry_group_IT_number 11
_symmetry_cell_setting 'monoclinic'
loop_
_space_group_symop_operation_xyz
x,y,z
-x,1/2+y,-z
-x,-y,-z
x,1/2-y,z
loop_
_atom_site_type_symbol
_atom_site_label
_atom_site_fract_x
_atom_site_fract_y
_atom_site_fract_z
Si Si1 0.527083 0.931099 0.043177
Si Si2 0.636410 0.931283 0.256068
Si Si3 0.664817 0.067025 0.354634
Si Si4 0.844554 0.428195 0.439283
Si Si5 0.821143 0.926644 0.863188
Si Si6 0.310584 0.431893 0.543158
Si Si7 0.383546 0.430753 0.279298
Si Si8 0.688506 0.071507 0.088372
O O1 0.501604 0.750000 0.063190
O O2 0.694550 0.975987 0.921845
O O3 0.500000 0.000000 0.000000
O O4 0.408240 0.004768 0.190316
O O5 0.626376 0.750000 0.273288
O O6 0.727663 0.003621 0.236628
O O7 0.471706 0.000896 0.390819
O O8 0.722608 0.974374 0.120835
O O9 0.665278 0.250000 0.354510
O O10 0.500000 0.000000 0.500000
O O11 0.754098 0.003134 0.338326
O O12 0.805553 0.250000 0.460554
O O13 0.801378 0.526032 0.416220
O O14 0.760775 0.487588 0.570423
O O15 0.019730 0.453555 0.303047
O O16 0.798140 0.750000 0.902442
O O17 0.809537 0.027948 0.934655
O O18 0.324568 0.250000 0.537800
O O19 0.354747 0.250000 0.300198
O O20 0.524538 0.471109 0.202489
O O21 0.702076 0.250000 0.093145
#
# Coordination Sequence:
#
# PCOD8068789 Si02
#       8
#     4   4   4   4   4   4   4   4
#     4  10  20  38  62  86 113 144 180 220 263 315
#     4  11  19  29  48  73 103 138 179 227 276 323
#     4  10  18  29  44  67 100 136 177 225 275 325
#     4  11  21  35  55  80 110 145 181 222 271 322
#     4   9  21  38  56  80 111 144 180 220 267 322
#     4  11  20  31  47  72 105 140 179 222 273 326
#     4  10  20  34  55  83 112 142 180 223 265 315
#     4  10  19  32  52  78 107 139 180 227 273 321
#
# _framework density 18.841083000000001
#
# number of rings (size 3 to 8) (size 9 to 14) (size 15 to 20)
#    0.000    1.750    1.250    6.375    0.000    2.500 
#    0.000    0.625    0.000    0.750    0.000    0.000 
#    0.000    0.000    0.000    0.000    0.000    0.000 
#
# Total GULP energy -396850.937936 kJ/mol
# GULP energy per Si atom -12401.591810 kJ/mol
# Density = 1.879820 g / cm^3
# Si number density = 18.841083 Si / 1000 Ang^3
#
#
#
# Elastic Constant Matrix: (Units=GPa)
#
#
# Indices 1 2 3 4 5 6 
#
# 1 104.7675 41.0992 52.4201 0.0000 31.1089 0.0000
# 2 41.0992 129.4349 44.0540 0.0000 14.6041 0.0000
# 3 52.4201 44.0540 105.0333 0.0000 16.6280 0.0000
# 4 0.0000 0.0000 0.0000 26.9016 0.0000 9.8115
# 5 31.1089 14.6041 16.6280 0.0000 30.5020 0.0000
# 6 0.0000 0.0000 0.0000 9.8115 0.0000 32.1669
#
#
#
# Elastic Compliance Matrix: (Units=1/GPa)
#
#
# Indices 1 2 3 4 5 6 
#
# 1 0.017119 -0.002023 -0.005565 0.000000 -0.013457 0.000000
# 2 -0.002023 0.009425 -0.002797 0.000000 -0.000924 0.000000
# 3 -0.005565 -0.002797 0.013528 0.000000 -0.000360 0.000000
# 4 0.000000 0.000000 0.000000 0.041825 0.000000 -0.012757
# 5 -0.013457 -0.000924 -0.000360 0.000000 0.047148 0.000000
# 6 0.000000 0.000000 0.000000 -0.012757 0.000000 0.034979
#
#
# Mechanical properties :
#
#
# Convention : Reuss Voigt Hill
#
# Bulk Modulus (GPa) = 51.80847 68.26469 60.03658
# Shear Modulus (GPa) = 26.14683 31.35826 28.75255
#
# Velocity S-wave (km/s) = 3.72930 4.08408 3.91071
# Velocity P-wave (km/s) = 6.78976 7.65180 7.23364
#
# Compressibility (1/GPa) = 0.01930186
#
# Stress axis : x y z
#
# Youngs Moduli (GPa) = 58.41549 106.10587 73.92037
#
# Poissons Ratio (x) = 0.21469 0.41134
# Poissons Ratio (y) = 0.11820 0.20674
# Poissons Ratio (z) = 0.32506 0.29676
#
# Static dielectric constant tensor:
#      x y z
#    x 3.591820 0.000000 0.311160 
#    y 0.000000 3.571990 0.000000 
#    z 0.311160 0.000000 3.317260 
# 
# 
# High freq. dielectric constant tensor:
#      x y z
#    x 1.719810 0.000000 0.027100 
#    y 0.000000 1.749880 0.000000 
#    z 0.027100 0.000000 1.707750 
# 
# From -- ./inp_files/66420.got.cif
#   From: 2010.06.25/outbox.cif.g09.slc.cpg/sg11_34_cif.got.tgz:66420.got - 2010.06.27 23:14:04.
