data_PCOD8068379
_publ_section_title
;
Structure prediction by ZEFSAII (Michael W. Deem and Ramdas Pophale) SiO2 
 PCOD8068379
Probable space group: P 21/M
;
_chemical_formula_sum "Si O2"
_cell_formula_units_Z 32
_cell_length_a 14.331408
_cell_length_b 9.001266
_cell_length_c 16.684925
_cell_angle_alpha 90.000000
_cell_angle_beta 65.222543
_cell_angle_gamma 90.000000
_cell_volume 1954.227104
_symmetry_space_group_name_H-M "P 21/M"
_symmetry_group_IT_number 11
_symmetry_cell_setting 'monoclinic'
loop_
_space_group_symop_operation_xyz
x,y,z
-x,1/2+y,-z
-x,-y,-z
x,1/2-y,z
loop_
_atom_site_type_symbol
_atom_site_label
_atom_site_fract_x
_atom_site_fract_y
_atom_site_fract_z
Si Si1 0.054830 0.075926 0.093542
Si Si2 0.049047 0.417461 0.277660
Si Si3 0.717887 0.075455 0.545784
Si Si4 0.496680 0.074598 0.587967
Si Si5 0.094492 0.926594 0.418767
Si Si6 0.156962 0.923521 0.915438
Si Si7 0.708862 0.924470 0.251556
Si Si8 0.187636 0.581749 0.649193
O O1 0.074428 0.250000 0.075670
O O2 0.071304 0.026088 0.179497
O O3 0.939179 0.037099 0.107499
O O4 0.137195 0.987410 0.011047
O O5 0.091158 0.250000 0.273745
O O6 0.100849 0.525486 0.323642
O O7 0.928534 0.419861 0.338163
O O8 0.734035 0.250000 0.538376
O O9 0.598706 0.032374 0.603193
O O10 0.797502 0.013274 0.582965
O O11 0.745074 0.016336 0.447516
O O12 0.489846 0.250000 0.575671
O O13 0.401025 0.018134 0.675720
O O14 0.500000 0.000000 0.500000
O O15 0.082246 0.750000 0.429119
O O16 0.000000 0.000000 0.500000
O O17 0.175943 0.750000 0.915403
O O18 0.260778 0.998056 0.843173
O O19 0.709027 0.750000 0.237993
O O20 0.796364 0.971554 0.282862
O O21 0.219231 0.750000 0.663292
#
# Coordination Sequence:
#
# PCOD8068379 Si02
#       8
#     4   4   4   4   4   4   4   4
#     4   9  18  32  49  70  97 127 159 196 237 285
#     4  10  19  33  49  70  98 130 162 193 239 287
#     4   9  18  33  49  64  93 132 164 197 238 282
#     4  10  20  33  49  69  94 127 165 202 239 283
#     4  11  21  33  49  70  95 128 167 202 238 282
#     4  10  19  32  49  69  96 131 162 191 238 293
#     4  11  21  30  45  73 100 125 164 205 239 278
#     4  10  17  30  49  66  94 134 166 191 234 289
#
# _framework density 16.374760999999999
#
# number of rings (size 3 to 8) (size 9 to 14) (size 15 to 20)
#    0.000    2.000    3.750    1.125    0.000    2.000 
#    0.000    1.250    0.000    0.000    0.000    0.875 
#    0.000    0.000    0.000    0.000    0.000    0.000 
#
# Total GULP energy -396687.253640 kJ/mol
# GULP energy per Si atom -12396.476676 kJ/mol
# Density = 1.633749 g / cm^3
# Si number density = 16.374761 Si / 1000 Ang^3
#
#
#
# Elastic Constant Matrix: (Units=GPa)
#
#
# Indices 1 2 3 4 5 6 
#
# 1 79.0310 28.5602 46.8209 0.0000 -1.0573 0.0000
# 2 28.5602 51.4574 45.6335 0.0000 -3.2211 0.0000
# 3 46.8209 45.6335 125.5807 0.0000 -8.6548 0.0000
# 4 0.0000 0.0000 0.0000 30.2171 0.0000 2.7677
# 5 -1.0573 -3.2211 -8.6548 0.0000 25.3354 0.0000
# 6 0.0000 0.0000 0.0000 2.7677 0.0000 17.1911
#
#
#
# Elastic Compliance Matrix: (Units=1/GPa)
#
#
# Indices 1 2 3 4 5 6 
#
# 1 0.017374 -0.005756 -0.004492 0.000000 -0.001541 0.000000
# 2 -0.005756 0.030581 -0.008925 0.000000 0.000599 0.000000
# 3 -0.004492 -0.008925 0.013098 0.000000 0.003152 0.000000
# 4 0.000000 0.000000 0.000000 0.033589 0.000000 -0.005408
# 5 -0.001541 0.000599 0.003152 0.000000 0.040559 0.000000
# 6 0.000000 0.000000 0.000000 -0.005408 0.000000 0.059040
#
#
# Mechanical properties :
#
#
# Convention : Reuss Voigt Hill
#
# Bulk Modulus (GPa) = 44.03992 55.34426 49.69209
# Shear Modulus (GPa) = 20.81970 23.55235 22.18602
#
# Velocity S-wave (km/s) = 3.56961 3.79665 3.68488
# Velocity P-wave (km/s) = 6.62894 7.28638 6.96542
#
# Compressibility (1/GPa) = 0.02270667
#
# Stress axis : x y z
#
# Youngs Moduli (GPa) = 57.55700 32.70040 76.34501
#
# Poissons Ratio (x) = 0.18821 0.34297
# Poissons Ratio (y) = 0.33128 0.68140
# Poissons Ratio (z) = 0.25857 0.29186
#
# Static dielectric constant tensor:
#      x y z
#    x 3.066770 0.000000 -0.071420 
#    y 0.000000 3.016360 0.000000 
#    z -0.071420 0.000000 3.216600 
# 
# 
# High freq. dielectric constant tensor:
#      x y z
#    x 1.600780 0.000000 -0.003600 
#    y 0.000000 1.623420 0.000000 
#    z -0.003600 0.000000 1.628660 
# 
# From -- ./inp_files/51689.got.cif
#   From: 2010.06.25/outbox.cif.g09.slc.cpg/sg11_26_cif.got.tgz:51689.got - 2010.06.27 23:14:04.
