data_PCOD8068834
_publ_section_title
;
Structure prediction by ZEFSAII (Michael W. Deem and Ramdas Pophale) SiO2 
 PCOD8068834
Probable space group: P 21/M
;
_chemical_formula_sum "Si O2"
_cell_formula_units_Z 32
_cell_length_a 21.295702
_cell_length_b 8.947196
_cell_length_c 30.805816
_cell_angle_alpha 90.000000
_cell_angle_beta 19.490355
_cell_angle_gamma 90.000000
_cell_volume 1958.395400
_symmetry_space_group_name_H-M "P 21/M"
_symmetry_group_IT_number 11
_symmetry_cell_setting 'monoclinic'
loop_
_space_group_symop_operation_xyz
x,y,z
-x,1/2+y,-z
-x,-y,-z
x,1/2-y,z
loop_
_atom_site_type_symbol
_atom_site_label
_atom_site_fract_x
_atom_site_fract_y
_atom_site_fract_z
Si Si1 0.173340 0.923515 0.512879
Si Si2 0.171557 0.924580 0.412623
Si Si3 0.221293 0.073661 0.948845
Si Si4 0.566240 0.074212 0.021006
Si Si5 0.215485 0.073881 0.192870
Si Si6 0.554338 0.425097 0.275771
Si Si7 0.106792 0.921185 0.892628
Si Si8 0.453647 0.927305 0.867042
O O1 0.212980 0.750000 0.496106
O O2 0.144015 0.953572 0.481329
O O3 0.987517 0.980467 0.658623
O O4 0.344179 0.019036 0.421030
O O5 0.176054 0.750000 0.398564
O O6 0.363648 0.999414 0.272731
O O7 0.000000 0.000000 0.500000
O O8 0.257757 0.250000 0.931193
O O9 0.355325 0.016588 0.822764
O O10 0.270885 0.986637 0.960536
O O11 0.998775 0.036054 0.083803
O O12 0.591877 0.250000 0.001103
O O13 0.369780 0.021701 0.127692
O O14 0.567623 0.019881 0.069616
O O15 0.740649 0.999366 0.882226
O O16 0.220380 0.250000 0.184154
O O17 0.554873 0.250000 0.263325
O O18 0.670456 0.454624 0.245602
O O19 0.065551 0.750000 0.927623
O O20 0.000000 0.000000 0.000000
O O21 0.470831 0.750000 0.852012
#
# Coordination Sequence:
#
# PCOD8068834 Si02
#       8
#     4   4   4   4   4   4   4   4
#     4  10  20  33  48  69  99 130 158 196 241 284
#     4  11  22  34  48  67  97 132 163 194 236 286
#     4  10  18  30  46  67  97 130 161 196 238 283
#     4   9  19  35  52  70  93 121 157 206 247 279
#     4   9  18  34  53  70  91 122 160 200 242 287
#     4  10  18  29  46  69  96 128 163 197 234 283
#     4   8  16  28  43  64  92 125 160 195 233 278
#     4  11  21  33  49  71  99 128 161 198 240 287
#
# _framework density 16.339908000000001
#
# number of rings (size 3 to 8) (size 9 to 14) (size 15 to 20)
#    0.000    2.250    1.250    2.250    0.000    5.000 
#    0.000    2.500    0.000    0.000    0.000    0.875 
#    0.000    0.000    0.000    0.000    0.000    0.000 
#
# Total GULP energy -396621.668336 kJ/mol
# GULP energy per Si atom -12394.427135 kJ/mol
# Density = 1.630272 g / cm^3
# Si number density = 16.339908 Si / 1000 Ang^3
#
#
#
# Elastic Constant Matrix: (Units=GPa)
#
#
# Indices 1 2 3 4 5 6 
#
# 1 65.4410 29.3730 34.8805 0.0000 -15.5783 0.0000
# 2 29.3730 52.0903 28.3856 0.0000 -5.5940 0.0000
# 3 34.8805 28.3856 78.4827 0.0000 -6.7935 0.0000
# 4 0.0000 0.0000 0.0000 24.4305 0.0000 -1.5025
# 5 -15.5783 -5.5940 -6.7935 0.0000 29.0983 0.0000
# 6 0.0000 0.0000 0.0000 -1.5025 0.0000 26.5727
#
#
#
# Elastic Compliance Matrix: (Units=1/GPa)
#
#
# Indices 1 2 3 4 5 6 
#
# 1 0.025835 -0.009577 -0.007124 0.000000 0.010327 0.000000
# 2 -0.009577 0.027659 -0.005849 0.000000 -0.001175 0.000000
# 3 -0.007124 -0.005849 0.017959 0.000000 -0.000746 0.000000
# 4 0.000000 0.000000 0.000000 0.041075 0.000000 0.002322
# 5 0.010327 -0.001175 -0.000746 0.000000 0.039495 0.000000
# 6 0.000000 0.000000 0.000000 0.002322 0.000000 0.037764
#
#
# Mechanical properties :
#
#
# Convention : Reuss Voigt Hill
#
# Bulk Modulus (GPa) = 37.94735 42.36579 40.15657
# Shear Modulus (GPa) = 20.51941 22.91194 21.71568
#
# Velocity S-wave (km/s) = 3.54755 3.74867 3.64950
# Velocity P-wave (km/s) = 6.32885 6.68736 6.51057
#
# Compressibility (1/GPa) = 0.02635230
#
# Stress axis : x y z
#
# Youngs Moduli (GPa) = 38.70695 36.15500 55.68252
#
# Poissons Ratio (x) = 0.34625 0.39671
# Poissons Ratio (y) = 0.37069 0.32569
# Poissons Ratio (z) = 0.27577 0.21147
#
# Static dielectric constant tensor:
#      x y z
#    x 3.374770 0.000000 -0.341980 
#    y 0.000000 3.170700 0.000000 
#    z -0.341980 0.000000 3.123520 
# 
# 
# High freq. dielectric constant tensor:
#      x y z
#    x 1.623900 0.000000 -0.024320 
#    y 0.000000 1.638460 0.000000 
#    z -0.024320 0.000000 1.606780 
# 
# From -- ./inp_files/40667.got.cif
#   From: 2010.06.25/outbox.cif.g09.slc.cpg/sg11_21_cif.got.tgz:40667.got - 2010.06.27 23:14:04.
