data_PCOD8068075
_publ_section_title
;
Structure prediction by ZEFSAII (Michael W. Deem and Ramdas Pophale) SiO2 
 PCOD8068075
Probable space group: P 2/M
;
_chemical_formula_sum "Si O2"
_cell_formula_units_Z 32
_cell_length_a 21.000000
_cell_length_b 9.000000
_cell_length_c 30.000000
_cell_angle_alpha 90.000000
_cell_angle_beta 20.000000
_cell_angle_gamma 90.000000
_cell_volume 1939.254213
_symmetry_space_group_name_H-M "P 2/M"
_symmetry_group_IT_number 10
_symmetry_cell_setting 'monoclinic'
loop_
_space_group_symop_operation_xyz
x,y,z
-x,y,-z
-x,-y,-z
x,-y,z
loop_
_atom_site_type_symbol
_atom_site_label
_atom_site_fract_x
_atom_site_fract_y
_atom_site_fract_z
Si Si1 0.081518 0.835455 0.776436
Si Si2 0.827790 0.666017 0.579907
Si Si3 0.054315 0.825764 0.265629
Si Si4 0.231182 0.674833 0.067094
Si Si5 0.314614 0.163224 0.533308
Si Si6 0.403786 0.169231 0.200769
Si Si7 0.615776 0.334942 0.378325
Si Si8 0.060422 0.832038 0.361168
O O1 0.211779 0.843740 0.648022
O O2 0.197205 0.761785 0.740520
O O3 0.900620 0.738788 0.884801
O O4 0.018864 0.000000 0.832423
O O5 0.748696 0.500000 0.625478
O O6 0.667848 0.773021 0.704322
O O7 0.000000 0.665834 0.500000
O O8 0.895385 0.728521 0.487998
O O9 0.183828 0.735304 0.147117
O O10 0.114722 0.782852 0.275616
O O11 0.836609 0.780798 0.403221
O O12 0.080209 0.000000 0.237549
O O13 0.210022 0.500000 0.081402
O O14 0.438786 0.721202 0.919536
O O15 0.489882 0.272915 0.420688
O O16 0.390243 0.000000 0.470997
O O17 0.243396 0.181429 0.269963
O O18 0.474607 0.000000 0.159157
O O19 0.500000 0.332872 0.500000
O O20 0.676540 0.500000 0.325478
O O21 0.983919 0.000000 0.411423
#
# Coordination Sequence:
#
# PCOD8068075 Si02
#       8
#     4   4   4   4   4   4   4   4
#     4   9  16  27  41  56  78 110 146 179 214 257
#     4   9  17  30  48  69  90 109 136 181 232 271
#     4   9  18  32  46  62  88 121 154 184 217 260
#     4  11  21  31  43  62  90 120 150 184 224 265
#     4   8  14  24  38  55  78 110 144 177 212 252
#     4  10  19  32  49  66  86 115 151 186 222 265
#     4   9  15  22  35  56  80 106 139 177 214 253
#     4   9  18  32  50  68  86 114 151 187 221 262
#
# _framework density 16.501189
#
# number of rings (size 3 to 8) (size 9 to 14) (size 15 to 20)
#    0.000    2.750    0.000    3.375    0.000    7.500 
#    0.000    2.500    0.000    0.000    0.000    0.000 
#    0.000    1.000    0.000   10.750    0.000    7.000 
#
# Total GULP energy -396679.651350 kJ/mol
# GULP energy per Si atom -12396.239105 kJ/mol
# Density = 1.646363 g / cm^3
# Si number density = 16.501189 Si / 1000 Ang^3
#
#
#
# Elastic Constant Matrix: (Units=GPa)
#
#
# Indices 1 2 3 4 5 6 
#
# 1 14.5673 23.9587 37.5422 0.0000 -4.5657 0.0000
# 2 23.9587 99.0736 49.0810 0.0000 -0.2298 0.0000
# 3 37.5422 49.0810 51.0699 0.0000 6.8756 0.0000
# 4 0.0000 0.0000 0.0000 24.0990 0.0000 -3.9892
# 5 -4.5657 -0.2298 6.8756 0.0000 4.6752 0.0000
# 6 0.0000 0.0000 0.0000 -3.9892 0.0000 13.7809
#
#
#
# Elastic Compliance Matrix: (Units=1/GPa)
#
#
# Indices 1 2 3 4 5 6 
#
# 1 -0.016659 -0.012532 0.033121 0.000000 -0.065595 0.000000
# 2 -0.012532 0.015931 -0.005682 0.000000 -0.003100 0.000000
# 3 0.033121 -0.005682 -0.004518 0.000000 0.038711 0.000000
# 4 0.000000 0.000000 0.000000 0.043584 0.000000 0.012616
# 5 -0.065595 -0.003100 0.038711 0.000000 0.092754 0.000000
# 6 0.000000 0.000000 0.000000 0.012616 0.000000 0.076216
#
#
# Mechanical properties :
#
#
# Convention : Reuss Voigt Hill
#
# Bulk Modulus (GPa) = 40.70015 42.87494 41.78754
# Shear Modulus (GPa) = 26.92760 12.11962 19.52361
#
# Velocity S-wave (km/s) = 4.04401 2.71305 3.44345
# Velocity P-wave (km/s) = 6.82084 5.98778 6.41784
#
# Compressibility (1/GPa) = 0.02456994
#
# Stress axis : x y z
#
# Youngs Moduli (GPa) = -60.02756 62.76901 -221.33343
#
# Poissons Ratio (x) = 0.78660 7.33077
# Poissons Ratio (y) = -0.75224 -1.25751
# Poissons Ratio (z) = 1.98817 0.35662
#
# Static dielectric constant tensor:
#      x y z
#    x 3.088950 0.000000 -0.200150 
#    y 0.000000 3.279760 0.000000 
#    z -0.200150 0.000000 2.823370 
# 
# 
# High freq. dielectric constant tensor:
#      x y z
#    x 1.601670 0.000000 -0.021470 
#    y 0.000000 1.643870 0.000000 
#    z -0.021470 0.000000 1.596700 
# 
# From -- ./inp_files/54940.got.cif
#   From: 2010.06.25/outbox.ucp.g09.slc.cvg/sg10_28_cif.got.tgz:54940.got - 2010.06.28 13:37:52.
