data_PCOD8068768
_publ_section_title
;
Structure prediction by ZEFSAII (Michael W. Deem and Ramdas Pophale) SiO2 
 PCOD8068768
Probable space group: P 21/M
;
_chemical_formula_sum "Si O2"
_cell_formula_units_Z 32
_cell_length_a 23.523370
_cell_length_b 9.150109
_cell_length_c 12.111028
_cell_angle_alpha 90.000000
_cell_angle_beta 50.864714
_cell_angle_gamma 90.000000
_cell_volume 2021.980718
_symmetry_space_group_name_H-M "P 21/M"
_symmetry_group_IT_number 11
_symmetry_cell_setting 'monoclinic'
loop_
_space_group_symop_operation_xyz
x,y,z
-x,1/2+y,-z
-x,-y,-z
x,1/2-y,z
loop_
_atom_site_type_symbol
_atom_site_label
_atom_site_fract_x
_atom_site_fract_y
_atom_site_fract_z
Si Si1 0.497518 0.917466 0.340490
Si Si2 0.457981 0.078793 0.954135
Si Si3 0.114873 0.411993 0.161493
Si Si4 0.245388 0.583653 0.934462
Si Si5 0.168648 0.082268 0.346089
Si Si6 0.032296 0.923280 0.567022
Si Si7 0.304901 0.579564 0.106756
Si Si8 0.387798 0.578720 0.654517
O O1 0.516694 0.750000 0.343847
O O2 0.492452 0.944259 0.216131
O O3 0.419676 0.959495 0.493892
O O4 0.562029 0.012508 0.311748
O O5 0.447260 0.250000 0.993202
O O6 0.500000 0.000000 0.000000
O O7 0.380111 0.004100 0.033458
O O8 0.127678 0.250000 0.102124
O O9 0.139339 0.426698 0.257944
O O10 0.027818 0.450954 0.261645
O O11 0.166036 0.509063 0.020198
O O12 0.228126 0.750000 0.931780
O O13 0.304106 0.521332 0.772456
O O14 0.281016 0.558270 0.010140
O O15 0.178739 0.250000 0.372127
O O16 0.110257 0.999833 0.498253
O O17 0.245183 0.995478 0.260383
O O18 0.042654 0.750000 0.532948
O O19 0.000000 0.000000 0.500000
O O20 0.313044 0.750000 0.127788
O O21 0.387415 0.750000 0.679032
#
# Coordination Sequence:
#
# PCOD8068768 Si02
#       8
#     4   4   4   4   4   4   4   4
#     4   9  18  30  45  63  82 106 137 173 214 257
#     4  11  22  34  47  63  83 111 143 179 219 259
#     4   8  15  23  32  48  74 104 135 167 199 237
#     4   9  16  24  38  58  80 106 134 167 206 245
#     4   9  16  25  37  53  73 101 134 172 208 244
#     4   9  15  23  33  48  70 101 137 172 205 241
#     4  10  18  29  43  60  80 105 137 174 211 253
#     4   9  16  28  44  63  85 107 135 173 213 253
#
# _framework density 15.826067
#
# number of rings (size 3 to 8) (size 9 to 14) (size 15 to 20)
#    0.000    2.750    1.250    2.250    0.000    5.000 
#    0.000    0.000    0.000    0.000    0.000    0.000 
#    0.000    0.000    0.000    1.125    0.000   13.125 
#
# Total GULP energy -396492.187158 kJ/mol
# GULP energy per Si atom -12390.380849 kJ/mol
# Density = 1.579005 g / cm^3
# Si number density = 15.826067 Si / 1000 Ang^3
#
#
#
# Elastic Constant Matrix: (Units=GPa)
#
#
# Indices 1 2 3 4 5 6 
#
# 1 24.1302 28.5338 39.2302 0.0000 -10.5362 0.0000
# 2 28.5338 94.9194 61.5949 0.0000 -19.2960 0.0000
# 3 39.2302 61.5949 130.1854 0.0000 -37.1410 0.0000
# 4 0.0000 0.0000 0.0000 24.6887 0.0000 -10.5390
# 5 -10.5362 -19.2960 -37.1410 0.0000 27.6498 0.0000
# 6 0.0000 0.0000 0.0000 -10.5390 0.0000 20.1723
#
#
#
# Elastic Compliance Matrix: (Units=1/GPa)
#
#
# Indices 1 2 3 4 5 6 
#
# 1 0.093049 -0.014239 -0.022734 0.000000 -0.005018 0.000000
# 2 -0.014239 0.017422 -0.003294 0.000000 0.002308 0.000000
# 3 -0.022734 -0.003294 0.021018 0.000000 0.017271 0.000000
# 4 0.000000 0.000000 0.000000 0.052131 0.000000 0.027236
# 5 -0.005018 0.002308 0.017271 0.000000 0.059064 0.000000
# 6 0.000000 0.000000 0.000000 0.027236 0.000000 0.063802
#
#
# Mechanical properties :
#
#
# Convention : Reuss Voigt Hill
#
# Bulk Modulus (GPa) = 19.62509 56.43921 38.03215
# Shear Modulus (GPa) = 12.37610 22.49391 17.43501
#
# Velocity S-wave (km/s) = 2.79947 3.77413 3.32273
# Velocity P-wave (km/s) = 4.78297 7.39809 6.22931
#
# Compressibility (1/GPa) = 0.05095519
#
# Stress axis : x y z
#
# Youngs Moduli (GPa) = 10.74703 57.39782 47.57922
#
# Poissons Ratio (x) = 0.81729 1.08167
# Poissons Ratio (y) = 0.15303 0.15671
# Poissons Ratio (z) = 0.24432 0.18905
#
# Static dielectric constant tensor:
#      x y z
#    x 0.763110 0.000000 -0.754690 
#    y 0.000000 3.185200 0.000000 
#    z -0.754690 0.000000 3.458570 
# 
# 
# High freq. dielectric constant tensor:
#      x y z
#    x 1.541680 0.000000 -0.047170 
#    y 0.000000 1.620700 0.000000 
#    z -0.047170 0.000000 1.610600 
# 
# From -- ./inp_files/43787.got.cif
#   From: 2010.06.25/outbox.cif.g09.slc.cpg/sg11_22_cif.got.tgz:43787.got - 2010.06.27 23:14:04.
