data_PCOD8068849
_publ_section_title
;
Structure prediction by ZEFSAII (Michael W. Deem and Ramdas Pophale) SiO2 
 PCOD8068849
Probable space group: P 21/M
;
_chemical_formula_sum "Si O2"
_cell_formula_units_Z 32
_cell_length_a 11.566662
_cell_length_b 14.223393
_cell_length_c 11.566662
_cell_angle_alpha 90.000000
_cell_angle_beta 103.892069
_cell_angle_gamma 90.000000
_cell_volume 1847.253831
_symmetry_space_group_name_H-M "P 21/M"
_symmetry_group_IT_number 11
_symmetry_cell_setting 'monoclinic'
loop_
_space_group_symop_operation_xyz
x,y,z
-x,1/2+y,-z
-x,-y,-z
x,1/2-y,z
loop_
_atom_site_type_symbol
_atom_site_label
_atom_site_fract_x
_atom_site_fract_y
_atom_site_fract_z
Si Si1 0.854931 0.858906 0.929231
Si Si2 0.902393 0.857657 0.681171
Si Si3 0.788174 0.857014 0.422023
Si Si4 0.932879 0.977546 0.286446
Si Si5 0.422023 0.142986 0.788174
Si Si6 0.681171 0.142343 0.902393
Si Si7 0.713554 0.977546 0.067121
Si Si8 0.929230 0.358906 0.854931
O O1 0.823712 0.750000 0.934888
O O2 0.857763 0.890410 0.796298
O O3 0.749227 0.914977 0.965245
O O4 0.983181 0.882061 0.016819
O O5 0.947674 0.750000 0.697093
O O6 0.794991 0.869125 0.562480
O O7 0.012645 0.921717 0.666158
O O8 0.820088 0.750000 0.394390
O O9 0.886155 0.924683 0.388593
O O10 0.655104 0.882142 0.344896
O O11 0.826391 0.995408 0.173610
O O12 0.034755 0.914977 0.250773
O O13 0.394390 0.250000 0.820088
O O14 0.562480 0.130875 0.794991
O O15 0.388593 0.075317 0.886155
O O16 0.697093 0.250000 0.947674
O O17 0.796297 0.109590 0.857763
O O18 0.666158 0.078283 0.012645
O O19 0.934888 0.250000 0.823712
#
# Coordination Sequence:
#
# PCOD8068849 Si02
#       8
#     4   4   4   4   4   4   4   4
#     4   9  17  29  46  69  93 115 142 177 219 265
#     4  10  19  29  43  66  94 119 143 176 219 264
#     4   9  18  32  48  65  85 114 153 188 215 248
#     4  10  18  29  47  68  91 117 143 177 220 264
#     4   9  18  32  48  65  85 114 153 188 215 248
#     4  10  19  29  43  66  94 119 143 176 219 264
#     4  10  18  29  47  68  91 117 143 177 220 264
#     4   9  17  29  46  69  93 115 142 177 219 265
#
# _framework density 17.323011999999999
#
# number of rings (size 3 to 8) (size 9 to 14) (size 15 to 20)
#    0.000    2.500    0.000    3.000    0.000    6.500 
#    0.000    0.000    0.000    3.000    0.000    0.000 
#    0.000   20.000    0.000    0.000    0.000    0.000 
#
# Total GULP energy -396736.823953 kJ/mol
# GULP energy per Si atom -12398.025749 kJ/mol
# Density = 1.728358 g / cm^3
# Si number density = 17.323012 Si / 1000 Ang^3
#
#
#
# Elastic Constant Matrix: (Units=GPa)
#
#
# Indices 1 2 3 4 5 6 
#
# 1 79.4929 19.0435 37.3736 0.0000 6.6713 0.0000
# 2 19.0435 49.3214 21.9350 0.0000 3.9721 0.0000
# 3 37.3736 21.9350 82.6007 0.0000 -2.4020 0.0000
# 4 0.0000 0.0000 0.0000 20.8449 0.0000 1.0953
# 5 6.6713 3.9721 -2.4020 0.0000 11.0235 0.0000
# 6 0.0000 0.0000 0.0000 1.0953 0.0000 20.0476
#
#
#
# Elastic Compliance Matrix: (Units=1/GPa)
#
#
# Indices 1 2 3 4 5 6 
#
# 1 0.017774 -0.002504 -0.007712 0.000000 -0.011535 0.000000
# 2 -0.002504 0.024416 -0.005598 0.000000 -0.008503 0.000000
# 3 -0.007712 -0.005598 0.017387 0.000000 0.010473 0.000000
# 4 0.000000 0.000000 0.000000 0.048111 0.000000 -0.002629
# 5 -0.011535 -0.008503 0.010473 0.000000 0.103042 0.000000
# 6 0.000000 0.000000 0.000000 -0.002629 0.000000 0.050025
#
#
# Mechanical properties :
#
#
# Convention : Reuss Voigt Hill
#
# Bulk Modulus (GPa) = 35.78022 40.90212 38.34117
# Shear Modulus (GPa) = 16.57275 19.25407 17.91341
#
# Velocity S-wave (km/s) = 3.09640 3.33749 3.21920
# Velocity P-wave (km/s) = 5.78646 6.20601 5.99990
#
# Compressibility (1/GPa) = 0.02794840
#
# Stress axis : x y z
#
# Youngs Moduli (GPa) = 56.26348 40.95611 57.51346
#
# Poissons Ratio (x) = 0.10254 0.44357
# Poissons Ratio (y) = 0.14086 0.32198
# Poissons Ratio (z) = 0.43393 0.22929
#
# Static dielectric constant tensor:
#      x y z
#    x 3.107730 0.000000 0.092090 
#    y 0.000000 3.359530 0.000000 
#    z 0.092090 0.000000 3.174770 
# 
# 
# High freq. dielectric constant tensor:
#      x y z
#    x 1.648490 0.000000 0.008010 
#    y 0.000000 1.680990 0.000000 
#    z 0.008010 0.000000 1.654320 
# 
# From -- ./inp_files/35514.got.cif
#   From: 2010.06.25/outbox.cif.g09.slc.cpg/sg11_18_cif.got.tgz:35514.got - 2010.06.27 23:14:04.
