data_PCOD8068411
_publ_section_title
;
Structure prediction by ZEFSAII (Michael W. Deem and Ramdas Pophale) SiO2 
 PCOD8068411
Probable space group: P 21/M
;
_chemical_formula_sum "Si O2"
_cell_formula_units_Z 32
_cell_length_a 14.966298
_cell_length_b 8.827635
_cell_length_c 15.007734
_cell_angle_alpha 90.000000
_cell_angle_beta 101.914583
_cell_angle_gamma 90.000000
_cell_volume 1940.061017
_symmetry_space_group_name_H-M "P 21/M"
_symmetry_group_IT_number 11
_symmetry_cell_setting 'monoclinic'
loop_
_space_group_symop_operation_xyz
x,y,z
-x,1/2+y,-z
-x,-y,-z
x,1/2-y,z
loop_
_atom_site_type_symbol
_atom_site_label
_atom_site_fract_x
_atom_site_fract_y
_atom_site_fract_z
Si Si1 0.293608 0.571212 0.414672
Si Si2 0.416458 0.070509 0.293637
Si Si3 0.431120 0.572973 0.109411
Si Si4 0.911981 0.423058 0.385641
Si Si5 0.883538 0.924432 0.563128
Si Si6 0.262484 0.574554 0.753881
Si Si7 0.628372 0.926608 0.076542
Si Si8 0.383802 0.570349 0.614699
O O1 0.303124 0.750000 0.408114
O O2 0.336267 0.494615 0.337206
O O3 0.187349 0.526107 0.396624
O O4 0.344850 0.507600 0.513335
O O5 0.413606 0.250000 0.294840
O O6 0.513621 0.009192 0.350334
O O7 0.399761 0.014988 0.190353
O O8 0.416342 0.750000 0.120944
O O9 0.536224 0.532170 0.110855
O O10 0.368062 0.517109 0.015270
O O11 0.902007 0.250000 0.418476
O O12 0.882808 0.532980 0.459093
O O13 0.844757 0.450116 0.288417
O O14 0.015529 0.455219 0.375711
O O15 0.855172 0.750000 0.566702
O O16 0.285854 0.750000 0.776654
O O17 0.286277 0.478585 0.846261
O O18 0.320604 0.511582 0.682156
O O19 0.634654 0.750000 0.056387
O O20 0.380920 0.750000 0.612251
#
# Coordination Sequence:
#
# PCOD8068411 Si02
#       8
#     4   4   4   4   4   4   4   4
#     4  11  21  35  50  68  97 136 173 206 245 293
#     4  11  21  34  50  71  97 130 170 212 246 282
#     4  10  20  34  50  70  96 131 166 200 245 295
#     4   9  18  32  50  70  98 131 163 201 249 297
#     4  10  19  31  48  72  97 127 167 209 247 287
#     4  10  17  31  51  72  98 133 166 197 244 298
#     4  10  20  32  49  74 100 126 161 206 247 288
#     4   9  18  31  48  68  97 134 170 202 238 284
#
# _framework density 16.494327999999999
#
# number of rings (size 3 to 8) (size 9 to 14) (size 15 to 20)
#    0.000    2.000    2.500    2.250    0.000    2.000 
#    0.000    1.875    0.000    0.000    0.000    0.875 
#    0.000    0.000    0.000    0.000    0.000    0.000 
#
# Total GULP energy -396892.876480 kJ/mol
# GULP energy per Si atom -12402.902390 kJ/mol
# Density = 1.645679 g / cm^3
# Si number density = 16.494328 Si / 1000 Ang^3
#
#
#
# Elastic Constant Matrix: (Units=GPa)
#
#
# Indices 1 2 3 4 5 6 
#
# 1 94.8222 30.3827 55.1761 0.0000 4.1478 0.0000
# 2 30.3827 59.5486 35.7639 0.0000 0.1008 0.0000
# 3 55.1761 35.7639 100.5209 0.0000 3.4274 0.0000
# 4 0.0000 0.0000 0.0000 27.6681 0.0000 -0.6342
# 5 4.1478 0.1008 3.4274 0.0000 22.8746 0.0000
# 6 0.0000 0.0000 0.0000 -0.6342 0.0000 23.6468
#
#
#
# Elastic Compliance Matrix: (Units=1/GPa)
#
#
# Indices 1 2 3 4 5 6 
#
# 1 0.016185 -0.003759 -0.007485 0.000000 -0.001797 0.000000
# 2 -0.003759 0.022255 -0.005905 0.000000 0.001468 0.000000
# 3 -0.007485 -0.005905 0.016193 0.000000 -0.001043 0.000000
# 4 0.000000 0.000000 0.000000 0.036165 0.000000 0.000970
# 5 -0.001797 0.001468 -0.001043 0.000000 0.044192 0.000000
# 6 0.000000 0.000000 0.000000 0.000970 0.000000 0.042315
#
#
# Mechanical properties :
#
#
# Convention : Reuss Voigt Hill
#
# Bulk Modulus (GPa) = 49.17681 55.28191 52.22936
# Shear Modulus (GPa) = 22.89582 23.74249 23.31915
#
# Velocity S-wave (km/s) = 3.72977 3.79810 3.76409
# Velocity P-wave (km/s) = 6.95897 7.26791 7.11512
#
# Compressibility (1/GPa) = 0.02033479
#
# Stress axis : x y z
#
# Youngs Moduli (GPa) = 61.78702 44.93431 61.75494
#
# Poissons Ratio (x) = 0.16892 0.46224
# Poissons Ratio (y) = 0.23227 0.36463
# Poissons Ratio (z) = 0.46248 0.26532
#
# Static dielectric constant tensor:
#      x y z
#    x 3.088930 0.000000 0.135960 
#    y 0.000000 3.039290 0.000000 
#    z 0.135960 0.000000 3.011480 
# 
# 
# High freq. dielectric constant tensor:
#      x y z
#    x 1.617940 0.000000 0.011110 
#    y 0.000000 1.636750 0.000000 
#    z 0.011110 0.000000 1.619680 
# 
# From -- ./inp_files/51363.got.cif
#   From: 2010.06.25/outbox.cif.g09.slc.cpg/sg11_26_cif.got.tgz:51363.got - 2010.06.27 23:14:04.
