data_PCOD8068505
_publ_section_title
;
Structure prediction by ZEFSAII (Michael W. Deem and Ramdas Pophale) SiO2 
 PCOD8068505
Probable space group: P 21/M
;
_chemical_formula_sum "Si O2"
_cell_formula_units_Z 32
_cell_length_a 16.921416
_cell_length_b 9.504408
_cell_length_c 13.508011
_cell_angle_alpha 90.000000
_cell_angle_beta 101.426616
_cell_angle_gamma 90.000000
_cell_volume 2129.407030
_symmetry_space_group_name_H-M "P 21/M"
_symmetry_group_IT_number 11
_symmetry_cell_setting 'monoclinic'
loop_
_space_group_symop_operation_xyz
x,y,z
-x,1/2+y,-z
-x,-y,-z
x,1/2-y,z
loop_
_atom_site_type_symbol
_atom_site_label
_atom_site_fract_x
_atom_site_fract_y
_atom_site_fract_z
Si Si1 0.307600 0.091265 0.882825
Si Si2 0.410371 0.087116 0.100459
Si Si3 0.326127 0.910349 0.240276
Si Si4 0.551412 0.913614 0.212637
Si Si5 0.151713 0.588661 0.154195
Si Si6 0.476787 0.910603 0.400429
Si Si7 0.169865 0.590786 0.931113
Si Si8 0.991951 0.912966 0.898073
O O1 0.275374 0.250000 0.875803
O O2 0.354857 0.056892 0.791754
O O3 0.228926 0.997010 0.876093
O O4 0.374615 0.067389 0.983037
O O5 0.422872 0.250000 0.131101
O O6 0.346860 0.018981 0.159697
O O7 0.495273 0.007142 0.127787
O O8 0.341298 0.750000 0.206419
O O9 0.231339 0.930277 0.242136
O O10 0.382839 0.938814 0.349369
O O11 0.529948 0.750000 0.188233
O O12 0.534189 0.953243 0.322532
O O13 0.120950 0.750000 0.147175
O O14 0.081135 0.487596 0.180495
O O15 0.173123 0.542653 0.046753
O O16 0.490892 0.750000 0.433280
O O17 0.500000 0.000000 0.500000
O O18 0.200047 0.750000 0.931760
O O19 0.078610 0.575731 0.865118
O O20 0.970446 0.750000 0.913630
O O21 0.000000 0.000000 0.000000
#
# Coordination Sequence:
#
# PCOD8068505 Si02
#       8
#     4   4   4   4   4   4   4   4
#     4  10  19  28  40  59  83 110 144 176 202 240
#     4  10  18  26  39  62  84 106 140 179 206 232
#     4   9  17  30  45  61  84 115 142 168 212 260
#     4   9  19  33  44  57  80 112 140 167 211 257
#     4   9  16  27  42  59  80 110 146 176 205 246
#     4   9  18  32  49  63  81 108 136 172 214 256
#     4   9  17  27  39  56  81 115 146 171 205 243
#     4   9  17  27  38  55  80 112 147 178 208 241
#
# _framework density 15.027658000000001
#
# number of rings (size 3 to 8) (size 9 to 14) (size 15 to 20)
#    0.000    2.750    1.250    2.625    0.000    6.000 
#    0.000    0.000    0.000    0.000    0.000    0.000 
#    0.000    1.000    0.000    2.250    0.000    4.000 
#
# Total GULP energy -396565.859487 kJ/mol
# GULP energy per Si atom -12392.683109 kJ/mol
# Density = 1.499345 g / cm^3
# Si number density = 15.027658 Si / 1000 Ang^3
#
#
#
# Elastic Constant Matrix: (Units=GPa)
#
#
# Indices 1 2 3 4 5 6 
#
# 1 117.2387 59.0032 38.6990 0.0000 1.1777 0.0000
# 2 59.0032 81.7752 30.8058 0.0000 -1.6284 0.0000
# 3 38.6990 30.8058 50.9943 0.0000 2.3369 0.0000
# 4 0.0000 0.0000 0.0000 17.8721 0.0000 1.1932
# 5 1.1777 -1.6284 2.3369 0.0000 12.4687 0.0000
# 6 0.0000 0.0000 0.0000 1.1932 0.0000 31.3560
#
#
#
# Elastic Compliance Matrix: (Units=1/GPa)
#
#
# Indices 1 2 3 4 5 6 
#
# 1 0.014776 -0.008399 -0.006078 0.000000 -0.001353 0.000000
# 2 -0.008399 0.020795 -0.006404 0.000000 0.004709 0.000000
# 3 -0.006078 -0.006404 0.028347 0.000000 -0.005575 0.000000
# 4 0.000000 0.000000 0.000000 0.056096 0.000000 -0.002135
# 5 -0.001353 0.004709 -0.005575 0.000000 0.081989 0.000000
# 6 0.000000 0.000000 0.000000 -0.002135 0.000000 0.031973
#
#
# Mechanical properties :
#
#
# Convention : Reuss Voigt Hill
#
# Bulk Modulus (GPa) = 45.13424 56.33601 50.73513
# Shear Modulus (GPa) = 17.66016 20.43936 19.04976
#
# Velocity S-wave (km/s) = 3.43180 3.69198 3.56427
# Velocity P-wave (km/s) = 6.76774 7.46618 7.12553
#
# Compressibility (1/GPa) = 0.02215613
#
# Stress axis : x y z
#
# Youngs Moduli (GPa) = 67.67559 48.08820 35.27744
#
# Poissons Ratio (x) = 0.40389 0.21441
# Poissons Ratio (y) = 0.56841 0.22593
# Poissons Ratio (z) = 0.41132 0.30797
#
# Static dielectric constant tensor:
#      x y z
#    x 3.257000 0.000000 0.048790 
#    y 0.000000 3.033420 0.000000 
#    z 0.048790 0.000000 2.458240 
# 
# 
# High freq. dielectric constant tensor:
#      x y z
#    x 1.581210 0.000000 0.003540 
#    y 0.000000 1.585710 0.000000 
#    z 0.003540 0.000000 1.510550 
# 
# From -- ./inp_files/51316.got.cif
#   From: 2010.06.25/outbox.cif.g09.slc.cpg/sg11_26_cif.got.tgz:51316.got - 2010.06.27 23:14:04.
