data_PCOD8068361
_publ_section_title
;
Structure prediction by ZEFSAII (Michael W. Deem and Ramdas Pophale) SiO2 
 PCOD8068361
Probable space group: P 21/M
;
_chemical_formula_sum "Si O2"
_cell_formula_units_Z 28
_cell_length_a 17.415131
_cell_length_b 17.144012
_cell_length_c 9.739065
_cell_angle_alpha 90.000000
_cell_angle_beta 28.187704
_cell_angle_gamma 90.000000
_cell_volume 1373.507631
_symmetry_space_group_name_H-M "P 21/M"
_symmetry_group_IT_number 11
_symmetry_cell_setting 'monoclinic'
loop_
_space_group_symop_operation_xyz
x,y,z
-x,1/2+y,-z
-x,-y,-z
x,1/2-y,z
loop_
_atom_site_type_symbol
_atom_site_label
_atom_site_fract_x
_atom_site_fract_y
_atom_site_fract_z
Si Si1 0.753488 0.841585 0.203476
Si Si2 0.069246 0.341426 0.546826
Si Si3 0.565647 0.159969 0.775105
Si Si4 0.849174 0.057220 0.746313
Si Si5 0.694139 0.841950 0.597215
Si Si6 0.662789 0.589669 0.071374
Si Si7 0.122581 0.660165 0.559404
O O1 0.720680 0.750000 0.244034
O O2 0.649311 0.884151 0.250518
O O3 0.943478 0.861722 0.890763
O O4 0.694679 0.876577 0.442716
O O5 0.038414 0.250000 0.598112
O O6 0.150517 0.372341 0.559674
O O7 0.189810 0.361614 0.230187
O O8 0.894297 0.382928 0.798963
O O9 0.526118 0.250000 0.803209
O O10 0.469820 0.134567 0.064703
O O11 0.506104 0.108261 0.740400
O O12 0.756277 0.146319 0.502560
O O13 0.820390 0.105161 0.653262
O O14 0.691212 0.004020 0.023701
O O15 0.000000 0.000000 0.500000
O O16 0.711368 0.750000 0.557567
O O17 0.133855 0.750000 0.492037
#
# Coordination Sequence:
#
# PCOD8068361 Si02
#       7
#     4   4   4   4   4   4   4
#     4  10  17  29  52  77  98 124 163 208 245 284
#     4   9  15  28  48  70  94 127 169 206 237 283
#     4   9  18  33  52  73  98 130 165 201 244 293
#     4  10  18  28  47  75 101 125 166 206 242 283
#     4   8  16  29  49  73  98 127 162 202 247 293
#     4  10  18  29  50  72  98 131 168 196 241 299
#     4  10  19  31  52  78  99 123 165 212 244 278
#
# _framework density 20.385763000000001
#
# number of rings (size 3 to 8) (size 9 to 14) (size 15 to 20)
#    0.000    2.571    2.857    2.571    0.000    0.571 
#    0.000    0.714    3.143    0.857    0.000    0.000 
#    0.000    0.000    0.000    0.000    0.000    0.000 
#
# Total GULP energy -347062.207824 kJ/mol
# GULP energy per Si atom -12395.078851 kJ/mol
# Density = 2.033936 g / cm^3
# Si number density = 20.385763 Si / 1000 Ang^3
#
#
#
# Elastic Constant Matrix: (Units=GPa)
#
#
# Indices 1 2 3 4 5 6 
#
# 1 131.3187 23.2022 29.7379 0.0000 10.8870 0.0000
# 2 23.2022 52.6722 1.8289 0.0000 -1.8067 0.0000
# 3 29.7379 1.8289 26.6786 0.0000 5.5656 0.0000
# 4 0.0000 0.0000 0.0000 8.5865 0.0000 -6.9648
# 5 10.8870 -1.8067 5.5656 0.0000 32.5405 0.0000
# 6 0.0000 0.0000 0.0000 -6.9648 0.0000 22.4382
#
#
#
# Elastic Compliance Matrix: (Units=1/GPa)
#
#
# Indices 1 2 3 4 5 6 
#
# 1 0.011279 -0.004626 -0.011837 0.000000 -0.002006 0.000000
# 2 -0.004626 0.020984 0.003269 0.000000 0.002154 0.000000
# 3 -0.011837 0.003269 0.051424 0.000000 -0.004654 0.000000
# 4 0.000000 0.000000 0.000000 0.155651 0.000000 0.048314
# 5 -0.002006 0.002154 -0.004654 0.000000 0.032318 0.000000
# 6 0.000000 0.000000 0.000000 0.048314 0.000000 0.059563
#
#
# Mechanical properties :
#
#
# Convention : Reuss Voigt Hill
#
# Bulk Modulus (GPa) = 17.45246 35.57862 26.51554
# Shear Modulus (GPa) = 13.27287 23.10641 18.18964
#
# Velocity S-wave (km/s) = 2.55441 3.37034 2.99033
# Velocity P-wave (km/s) = 4.15688 5.71281 4.99579
#
# Compressibility (1/GPa) = 0.05729853
#
# Stress axis : x y z
#
# Youngs Moduli (GPa) = 88.65742 47.65612 19.44602
#
# Poissons Ratio (x) = 0.22048 0.23019
# Poissons Ratio (y) = 0.41016 -0.06357
# Poissons Ratio (z) = 1.04945 -0.15579
#
# Static dielectric constant tensor:
#      x y z
#    x 4.038960 0.000000 -0.025130 
#    y 0.000000 5.747980 0.000000 
#    z -0.025130 0.000000 3.345190 
# 
# 
# High freq. dielectric constant tensor:
#      x y z
#    x 1.813450 0.000000 -0.007790 
#    y 0.000000 1.781190 0.000000 
#    z -0.007790 0.000000 1.743540 
# 
# From -- ./inp_files/22736.got.cif
#   From: 2010.06.25/outbox.cif.g09.slc.cpg/sg11_12_cif.got.tgz:22736.got - 2010.06.27 23:14:04.
