data_PCOD8068375
_publ_section_title
;
Structure prediction by ZEFSAII (Michael W. Deem and Ramdas Pophale) SiO2 
 PCOD8068375
Probable space group: P 21/M
;
_chemical_formula_sum "Si O2"
_cell_formula_units_Z 32
_cell_length_a 11.782897
_cell_length_b 13.420380
_cell_length_c 20.441144
_cell_angle_alpha 90.000000
_cell_angle_beta 42.141346
_cell_angle_gamma 90.000000
_cell_volume 2168.802143
_symmetry_space_group_name_H-M "P 21/M"
_symmetry_group_IT_number 11
_symmetry_cell_setting 'monoclinic'
loop_
_space_group_symop_operation_xyz
x,y,z
-x,1/2+y,-z
-x,-y,-z
x,1/2-y,z
loop_
_atom_site_type_symbol
_atom_site_label
_atom_site_fract_x
_atom_site_fract_y
_atom_site_fract_z
Si Si1 0.533664 0.022353 0.145839
Si Si2 0.889499 0.131615 0.208254
Si Si3 0.269441 0.476682 0.362069
Si Si4 0.739432 0.864437 0.988299
Si Si5 0.018233 0.867792 0.693069
Si Si6 0.648801 0.635394 0.881557
Si Si7 0.589829 0.368159 0.245920
Si Si8 0.070885 0.867844 0.525861
O O1 0.355543 0.990756 0.256355
O O2 0.500335 0.075662 0.090695
O O3 0.631869 0.097384 0.153461
O O4 0.649173 0.926304 0.083982
O O5 0.885713 0.250000 0.207944
O O6 0.872930 0.093579 0.290928
O O7 0.734738 0.088782 0.232018
O O8 0.068941 0.095744 0.102253
O O9 0.409953 0.416450 0.344655
O O10 0.213472 0.576557 0.423136
O O11 0.114655 0.401619 0.416994
O O12 0.739559 0.750000 0.010708
O O13 0.635142 0.877012 0.965407
O O14 0.003600 0.750000 0.704704
O O15 0.101143 0.898920 0.588790
O O16 0.827367 0.908766 0.779902
O O17 0.629936 0.750000 0.868920
O O18 0.576817 0.250000 0.254853
O O19 0.088680 0.750000 0.507342
#
# Coordination Sequence:
#
# PCOD8068375 Si02
#       8
#     4   4   4   4   4   4   4   4
#     4  10  18  27  43  64  90 114 140 171 213 258
#     4   8  15  28  45  64  83 110 145 177 211 245
#     4   9  20  28  42  71  87 110 146 168 212 262
#     4   9  18  29  42  63  90 115 142 175 209 251
#     4   8  13  24  45  64  81 109 141 175 210 242
#     4   9  15  26  44  65  86 110 141 176 214 248
#     4   9  17  30  45  62  88 110 139 183 213 244
#     4  10  17  30  47  64  90 113 139 176 212 256
#
# _framework density 14.754688
#
# number of rings (size 3 to 8) (size 9 to 14) (size 15 to 20)
#    0.750    2.250    1.250    2.625    0.000    1.000 
#    0.000    0.625    0.000    0.000    0.000    0.000 
#    0.000    2.250    0.000    0.000    0.000    0.000 
#
# Total GULP energy -396472.749622 kJ/mol
# GULP energy per Si atom -12389.773426 kJ/mol
# Density = 1.472111 g / cm^3
# Si number density = 14.754688 Si / 1000 Ang^3
#
#
#
# Elastic Constant Matrix: (Units=GPa)
#
#
# Indices 1 2 3 4 5 6 
#
# 1 107.2873 34.2120 31.4930 0.0000 -2.1457 0.0000
# 2 34.2120 63.0679 40.9976 0.0000 -0.4694 0.0000
# 3 31.4930 40.9976 68.3833 0.0000 -0.7052 0.0000
# 4 0.0000 0.0000 0.0000 23.2890 0.0000 -0.2311
# 5 -2.1457 -0.4694 -0.7052 0.0000 12.7312 0.0000
# 6 0.0000 0.0000 0.0000 -0.2311 0.0000 11.0727
#
#
#
# Elastic Compliance Matrix: (Units=1/GPa)
#
#
# Indices 1 2 3 4 5 6 
#
# 1 0.011571 -0.004607 -0.002550 0.000000 0.001639 0.000000
# 2 -0.004607 0.027816 -0.014561 0.000000 -0.000557 0.000000
# 3 -0.002550 -0.014561 0.024531 0.000000 0.000392 0.000000
# 4 0.000000 0.000000 0.000000 0.042948 0.000000 0.000896
# 5 0.001639 -0.000557 0.000392 0.000000 0.078825 0.000000
# 6 0.000000 0.000000 0.000000 0.000896 0.000000 0.090331
#
#
# Mechanical properties :
#
#
# Convention : Reuss Voigt Hill
#
# Bulk Modulus (GPa) = 48.82005 50.23819 49.52912
# Shear Modulus (GPa) = 15.32403 18.22097 16.77250
#
# Velocity S-wave (km/s) = 3.22621 3.51797 3.37524
# Velocity P-wave (km/s) = 6.85839 7.11508 6.98791
#
# Compressibility (1/GPa) = 0.02048339
#
# Stress axis : x y z
#
# Youngs Moduli (GPa) = 86.42153 35.95041 40.76429
#
# Poissons Ratio (x) = 0.16563 0.10395
# Poissons Ratio (y) = 0.39815 0.59355
# Poissons Ratio (z) = 0.22037 0.52346
#
# Static dielectric constant tensor:
#      x y z
#    x 3.052650 0.000000 0.102660 
#    y 0.000000 2.552740 0.000000 
#    z 0.102660 0.000000 2.737350 
# 
# 
# High freq. dielectric constant tensor:
#      x y z
#    x 1.564490 0.000000 0.007480 
#    y 0.000000 1.536280 0.000000 
#    z 0.007480 0.000000 1.548870 
# 
# From -- ./inp_files/64536.got.cif
#   From: 2010.06.25/outbox.cif.g09.slc.cpg/sg11_33_cif.got.tgz:64536.got - 2010.06.27 23:14:04.
