data_PCOD8068796
_publ_section_title
;
Structure prediction by ZEFSAII (Michael W. Deem and Ramdas Pophale) SiO2 
 PCOD8068796
Probable space group: P 21/M
;
_chemical_formula_sum "Si O2"
_cell_formula_units_Z 28
_cell_length_a 17.157846
_cell_length_b 8.961730
_cell_length_c 14.343981
_cell_angle_alpha 90.000000
_cell_angle_beta 50.655698
_cell_angle_gamma 90.000000
_cell_volume 1705.691738
_symmetry_space_group_name_H-M "P 21/M"
_symmetry_group_IT_number 11
_symmetry_cell_setting 'monoclinic'
loop_
_space_group_symop_operation_xyz
x,y,z
-x,1/2+y,-z
-x,-y,-z
x,1/2-y,z
loop_
_atom_site_type_symbol
_atom_site_label
_atom_site_fract_x
_atom_site_fract_y
_atom_site_fract_z
Si Si1 0.409181 0.923778 0.681472
Si Si2 0.258853 0.573775 0.447259
Si Si3 0.413350 0.420388 0.201562
Si Si4 0.364018 0.576599 0.921411
Si Si5 0.891662 0.928367 0.572812
Si Si6 0.360585 0.423255 0.533401
Si Si7 0.735939 0.581654 0.845091
O O1 0.388349 0.750000 0.678097
O O2 0.363348 0.977940 0.814823
O O3 0.528755 0.954045 0.592684
O O4 0.354784 0.020464 0.643895
O O5 0.241050 0.750000 0.461523
O O6 0.356321 0.533412 0.312487
O O7 0.160319 0.492504 0.480720
O O8 0.278019 0.514800 0.537221
O O9 0.399177 0.250000 0.250393
O O10 0.529862 0.465339 0.111232
O O11 0.368816 0.433499 0.131764
O O12 0.344348 0.750000 0.939241
O O13 0.274059 0.504144 0.049464
O O14 0.896797 0.750000 0.561531
O O15 0.826928 0.980087 0.712144
O O16 0.000000 0.000000 0.500000
O O17 0.332620 0.250000 0.551761
O O18 0.759821 0.750000 0.853974
#
# Coordination Sequence:
#
# PCOD8068796 Si02
#       7
#     4   4   4   4   4   4   4
#     4   9  18  30  44  65  95 131 170 208 241 277
#     4  11  20  30  49  74  98 128 165 201 242 294
#     4   9  17  31  44  62  95 132 165 202 238 273
#     4  10  18  29  45  65  96 133 166 200 238 280
#     4  10  21  38  56  75  99 124 156 202 249 292
#     4  10  18  31  47  65  95 131 167 207 246 282
#     4   9  19  31  46  68  96 125 158 198 239 287
#
# _framework density 16.415628000000002
#
# number of rings (size 3 to 8) (size 9 to 14) (size 15 to 20)
#    0.000    2.286    1.429    3.429    0.000    4.571 
#    0.000    0.000    0.000    0.000    0.000    1.000 
#    0.000    0.000    0.000    0.000    0.000    0.000 
#
# Total GULP energy -347165.355564 kJ/mol
# GULP energy per Si atom -12398.762699 kJ/mol
# Density = 1.637827 g / cm^3
# Si number density = 16.415628 Si / 1000 Ang^3
#
#
#
# Elastic Constant Matrix: (Units=GPa)
#
#
# Indices 1 2 3 4 5 6 
#
# 1 93.3506 49.9853 58.6482 0.0000 8.3526 0.0000
# 2 49.9853 80.7422 41.3924 0.0000 6.0767 0.0000
# 3 58.6482 41.3924 89.3554 0.0000 11.5244 0.0000
# 4 0.0000 0.0000 0.0000 27.4636 0.0000 3.9624
# 5 8.3526 6.0767 11.5244 0.0000 20.4758 0.0000
# 6 0.0000 0.0000 0.0000 3.9624 0.0000 27.8283
#
#
#
# Elastic Compliance Matrix: (Units=1/GPa)
#
#
# Indices 1 2 3 4 5 6 
#
# 1 0.021558 -0.007983 -0.010376 0.000000 -0.000585 0.000000
# 2 -0.007983 0.019206 -0.003604 0.000000 -0.000415 0.000000
# 3 -0.010376 -0.003604 0.020473 0.000000 -0.006221 0.000000
# 4 0.000000 0.000000 0.000000 0.037176 0.000000 -0.005293
# 5 -0.000585 -0.000415 -0.006221 0.000000 0.052701 0.000000
# 6 0.000000 0.000000 0.000000 -0.005293 0.000000 0.036688
#
#
# Mechanical properties :
#
#
# Convention : Reuss Voigt Hill
#
# Bulk Modulus (GPa) = 57.76438 62.61111 60.18774
# Shear Modulus (GPa) = 21.05283 22.71504 21.88393
#
# Velocity S-wave (km/s) = 3.58507 3.72391 3.65515
# Velocity P-wave (km/s) = 7.23892 7.53087 7.38634
#
# Compressibility (1/GPa) = 0.01731171
#
# Stress axis : x y z
#
# Youngs Moduli (GPa) = 46.38667 52.06816 48.84381
#
# Poissons Ratio (x) = 0.41564 0.50682
# Poissons Ratio (y) = 0.37028 0.17602
# Poissons Ratio (z) = 0.48132 0.18764
#
# Static dielectric constant tensor:
#      x y z
#    x 3.021380 0.000000 0.178390 
#    y 0.000000 3.074060 0.000000 
#    z 0.178390 0.000000 2.926460 
# 
# 
# High freq. dielectric constant tensor:
#      x y z
#    x 1.613860 0.000000 0.022940 
#    y 0.000000 1.636100 0.000000 
#    z 0.022940 0.000000 1.605710 
# 
# From -- ./inp_files/51033.got.cif
#   From: 2010.06.25/outbox.cif.g09.slc.cpg/sg11_26_cif.got.tgz:51033.got - 2010.06.27 23:14:04.
