data_PCOD8068598
_publ_section_title
;
Structure prediction by ZEFSAII (Michael W. Deem and Ramdas Pophale) SiO2 
 PCOD8068598
Probable space group: P 21/M
;
_chemical_formula_sum "Si O2"
_cell_formula_units_Z 24
_cell_length_a 23.115533
_cell_length_b 9.320367
_cell_length_c 10.322198
_cell_angle_alpha 90.000000
_cell_angle_beta 39.685845
_cell_angle_gamma 90.000000
_cell_volume 1420.112894
_symmetry_space_group_name_H-M "P 21/M"
_symmetry_group_IT_number 11
_symmetry_cell_setting 'monoclinic'
loop_
_space_group_symop_operation_xyz
x,y,z
-x,1/2+y,-z
-x,-y,-z
x,1/2-y,z
loop_
_atom_site_type_symbol
_atom_site_label
_atom_site_fract_x
_atom_site_fract_y
_atom_site_fract_z
Si Si1 0.419386 0.909008 0.984809
Si Si2 0.966302 0.416057 0.434731
Si Si3 0.241234 0.415890 0.583201
Si Si4 0.585682 0.410969 0.697477
Si Si5 0.949175 0.914667 0.976961
Si Si6 0.777182 0.083764 0.644969
O O1 0.444077 0.750000 0.891885
O O2 0.419265 0.911134 0.139984
O O3 0.317289 0.953078 0.117992
O O4 0.493504 0.018455 0.799792
O O5 0.987098 0.250000 0.422193
O O6 0.859153 0.444531 0.601934
O O7 0.000000 0.500000 0.500000
O O8 0.020132 0.472923 0.215918
O O9 0.266900 0.250000 0.514782
O O10 0.327476 0.496866 0.496480
O O11 0.209716 0.484622 0.502501
O O12 0.158978 0.431652 0.825797
O O13 0.593663 0.250000 0.628205
O O14 0.979613 0.750000 0.939507
O O15 0.000000 0.000000 0.000000
O O16 0.775225 0.250000 0.601469
#
# Coordination Sequence:
#
# PCOD8068598 Si02
#       6
#     4   4   4   4   4   4
#     4   8  14  24  39  60  87 121 156 190 233 284
#     4  10  21  36  51  71 100 131 165 203 243 291
#     4  10  18  27  44  70  95 123 159 197 238 286
#     4   9  16  25  38  60  92 126 153 189 238 284
#     4  10  20  33  51  73  98 128 164 204 245 289
#     4   9  17  30  47  66  93 127 159 197 242 284
#
# _framework density 16.900065999999999
#
# number of rings (size 3 to 8) (size 9 to 14) (size 15 to 20)
#    0.000    2.667    1.667    2.000    0.000    6.000 
#    0.000    0.000    0.000    0.000    0.000    1.167 
#    0.000    0.000    0.000    0.000    0.000    0.000 
#
# Total GULP energy -297529.219189 kJ/mol
# GULP energy per Si atom -12397.050800 kJ/mol
# Density = 1.686160 g / cm^3
# Si number density = 16.900066 Si / 1000 Ang^3
#
#
#
# Elastic Constant Matrix: (Units=GPa)
#
#
# Indices 1 2 3 4 5 6 
#
# 1 97.8652 56.0555 66.2268 0.0000 -19.6406 0.0000
# 2 56.0555 101.4809 53.8662 0.0000 -13.1240 0.0000
# 3 66.2268 53.8662 84.5531 0.0000 -16.9658 0.0000
# 4 0.0000 0.0000 0.0000 22.3370 0.0000 -5.6990
# 5 -19.6406 -13.1240 -16.9658 0.0000 29.9953 0.0000
# 6 0.0000 0.0000 0.0000 -5.6990 0.0000 27.9422
#
#
#
# Elastic Compliance Matrix: (Units=1/GPa)
#
#
# Indices 1 2 3 4 5 6 
#
# 1 0.023907 -0.004752 -0.014635 0.000000 0.005297 0.000000
# 2 -0.004752 0.015878 -0.006344 0.000000 0.000248 0.000000
# 3 -0.014635 -0.006344 0.028033 0.000000 0.003498 0.000000
# 4 0.000000 0.000000 0.000000 0.047226 0.000000 0.009632
# 5 0.005297 0.000248 0.003498 0.000000 0.038893 0.000000
# 6 0.000000 0.000000 0.000000 0.009632 0.000000 0.037753
#
#
# Mechanical properties :
#
#
# Convention : Reuss Voigt Hill
#
# Bulk Modulus (GPa) = 61.13789 70.68847 65.91318
# Shear Modulus (GPa) = 20.11231 23.23828 21.67530
#
# Velocity S-wave (km/s) = 3.45349 3.71218 3.58517
# Velocity P-wave (km/s) = 7.22196 7.76478 7.49829
#
# Compressibility (1/GPa) = 0.01635647
#
# Stress axis : x y z
#
# Youngs Moduli (GPa) = 41.82908 62.97870 35.67252
#
# Poissons Ratio (x) = 0.29930 0.52206
# Poissons Ratio (y) = 0.19879 0.22629
# Poissons Ratio (z) = 0.61216 0.39951
#
# Static dielectric constant tensor:
#      x y z
#    x 3.039760 0.000000 -0.527090 
#    y 0.000000 3.303390 0.000000 
#    z -0.527090 0.000000 3.234960 
# 
# 
# High freq. dielectric constant tensor:
#      x y z
#    x 1.622880 0.000000 -0.048310 
#    y 0.000000 1.659050 0.000000 
#    z -0.048310 0.000000 1.630120 
# 
# From -- ./inp_files/25723.got.cif
#   From: 2010.06.25/outbox.cif.g09.slc.cpg/sg11_13_cif.got.tgz:25723.got - 2010.06.27 23:14:04.
