data_PCOD8068051
_publ_section_title
;
Structure prediction by ZEFSAII (Michael W. Deem and Ramdas Pophale) SiO2 
 PCOD8068051
Probable space group: P 2/M
;
_chemical_formula_sum "Si O2"
_cell_formula_units_Z 24
_cell_length_a 12.501872
_cell_length_b 9.319062
_cell_length_c 27.954720
_cell_angle_alpha 90.000000
_cell_angle_beta 153.436974
_cell_angle_gamma 90.000000
_cell_volume 1456.420191
_symmetry_space_group_name_H-M "P 2/M"
_symmetry_group_IT_number 10
_symmetry_cell_setting 'monoclinic'
loop_
_space_group_symop_operation_xyz
x,y,z
-x,y,-z
-x,-y,-z
x,-y,z
loop_
_atom_site_type_symbol
_atom_site_label
_atom_site_fract_x
_atom_site_fract_y
_atom_site_fract_z
Si Si1 0.468157 0.666238 0.795331
Si Si2 0.713186 0.333761 0.795337
Si Si3 0.754381 0.837922 0.627189
Si Si4 0.459618 0.333766 0.377485
Si Si5 0.127183 0.162078 0.000003
Si Si6 0.949668 0.666234 0.622507
O O1 0.520818 0.500000 0.826797
O O2 0.538907 0.707031 0.769451
O O3 0.190305 0.704320 0.690315
O O4 0.619577 0.757311 0.894309
O O5 0.786385 0.500000 0.826800
O O6 0.570987 0.295674 0.690326
O O7 0.957684 0.242692 0.894320
O O8 0.500000 0.833458 0.500000
O O9 0.732452 0.757301 0.669062
O O10 0.943801 0.757302 0.669059
O O11 0.842540 0.000000 0.671268
O O12 0.407595 0.500000 0.367210
O O13 0.730509 0.292928 0.499996
O O14 0.171270 0.000000 0.000003
O O15 0.000000 0.166511 0.000000
O O16 0.938742 0.500000 0.632781
#
# Coordination Sequence:
#
# PCOD8068051 Si02
#       6
#     4   4   4   4   4   4
#     4   9  17  29  46  68  93 120 149 182 221 265
#     4   9  17  29  46  68  93 120 149 182 221 265
#     4   9  17  29  45  64  87 118 155 189 219 257
#     4   9  17  29  46  68  93 120 149 182 221 265
#     4   9  17  29  45  64  87 118 155 189 219 257
#     4   9  17  29  46  68  93 120 149 182 221 265
#
# _framework density 16.478760000000001
#
# number of rings (size 3 to 8) (size 9 to 14) (size 15 to 20)
#    0.000    3.000    0.000    1.000    0.000    6.000 
#    0.000    3.333    0.000    1.000    0.000   16.333 
#    0.000    0.000    0.000    0.000    0.000    0.000 
#
# Total GULP energy -297591.793214 kJ/mol
# GULP energy per Si atom -12399.658051 kJ/mol
# Density = 1.644125 g / cm^3
# Si number density = 16.478760 Si / 1000 Ang^3
#
#
#
# Elastic Constant Matrix: (Units=GPa)
#
#
# Indices 1 2 3 4 5 6 
#
# 1 94.8670 53.3840 57.0458 0.0000 -0.6505 0.0000
# 2 53.3840 88.5098 53.3739 0.0000 -0.0053 0.0000
# 3 57.0458 53.3739 94.8262 0.0000 0.6382 0.0000
# 4 0.0000 0.0000 0.0000 17.8824 0.0000 0.0001
# 5 -0.6505 -0.0053 0.6382 0.0000 5.6323 0.0000
# 6 0.0000 0.0000 0.0000 0.0001 0.0000 17.8823
#
#
#
# Elastic Compliance Matrix: (Units=1/GPa)
#
#
# Indices 1 2 3 4 5 6 
#
# 1 0.018989 -0.006891 -0.007565 0.000000 0.003044 0.000000
# 2 -0.006891 0.019611 -0.006893 0.000000 0.000004 0.000000
# 3 -0.007565 -0.006893 0.018997 0.000000 -0.003033 0.000000
# 4 0.000000 0.000000 0.000000 0.055921 0.000000 0.000000
# 5 0.003044 0.000004 -0.003033 0.000000 0.178242 0.000000
# 6 0.000000 0.000000 0.000000 0.000000 0.000000 0.055921
#
#
# Mechanical properties :
#
#
# Convention : Reuss Voigt Hill
#
# Bulk Modulus (GPa) = 67.11957 67.31229 67.21593
# Shear Modulus (GPa) = 12.64721 15.90601 14.27661
#
# Velocity S-wave (km/s) = 2.77336 3.11021 2.94660
# Velocity P-wave (km/s) = 7.14666 7.33720 7.24255
#
# Compressibility (1/GPa) = 0.01489879
#
# Stress axis : x y z
#
# Youngs Moduli (GPa) = 52.66310 50.99222 52.64012
#
# Poissons Ratio (x) = 0.35137 0.39824
# Poissons Ratio (y) = 0.36288 0.36284
# Poissons Ratio (z) = 0.39841 0.35149
#
# Static dielectric constant tensor:
#      x y z
#    x 2.993160 0.000000 -0.000030 
#    y 0.000000 3.217780 0.000000 
#    z -0.000030 0.000000 2.992380 
# 
# 
# High freq. dielectric constant tensor:
#      x y z
#    x 1.615760 0.000000 0.000000 
#    y 0.000000 1.637220 0.000000 
#    z 0.000000 0.000000 1.615710 
# 
# From -- ./inp_files/45137.got.cif
#   From: 2010.06.25/outbox.cif.g09.slc.cpg/sg10_23_cif.got.tgz:45137.got - 2010.06.27 22:07:45.
