data_PCOD8068603
_publ_section_title
;
Structure prediction by ZEFSAII (Michael W. Deem and Ramdas Pophale) SiO2 
 PCOD8068603
Probable space group: P 21/M
;
_chemical_formula_sum "Si O2"
_cell_formula_units_Z 32
_cell_length_a 11.218324
_cell_length_b 14.487082
_cell_length_c 11.549433
_cell_angle_alpha 90.000000
_cell_angle_beta 64.874866
_cell_angle_gamma 90.000000
_cell_volume 1699.423886
_symmetry_space_group_name_H-M "P 21/M"
_symmetry_group_IT_number 11
_symmetry_cell_setting 'monoclinic'
loop_
_space_group_symop_operation_xyz
x,y,z
-x,1/2+y,-z
-x,-y,-z
x,1/2-y,z
loop_
_atom_site_type_symbol
_atom_site_label
_atom_site_fract_x
_atom_site_fract_y
_atom_site_fract_z
Si Si1 0.354382 0.491869 0.689126
Si Si2 0.205484 0.498395 0.975255
Si Si3 0.206460 0.644981 0.411797
Si Si4 0.089414 0.355003 0.439319
Si Si5 0.818454 0.498036 0.761180
Si Si6 0.558850 0.356980 0.509219
Si Si7 0.987539 0.646066 0.045606
Si Si8 0.099240 0.080310 0.686321
O O1 0.329142 0.498823 0.837019
O O2 0.440158 0.399795 0.632741
O O3 0.428231 0.584563 0.614885
O O4 0.218601 0.485549 0.674360
O O5 0.113441 0.409243 0.993934
O O6 0.258992 0.491527 0.085269
O O7 0.127106 0.593768 0.986741
O O8 0.197280 0.750000 0.372369
O O9 0.248232 0.585493 0.282714
O O10 0.307170 0.632847 0.474171
O O11 0.062116 0.610376 0.512716
O O12 0.102982 0.250000 0.395593
O O13 0.187945 0.410919 0.315725
O O14 0.134702 0.367044 0.553563
O O15 0.971304 0.482910 0.727033
O O16 0.528286 0.250000 0.493236
O O17 0.006643 0.750000 0.989702
O O18 0.928935 0.653206 0.199624
#
# Coordination Sequence:
#
# PCOD8068603 Si02
#       8
#     4   4   4   4   4   4   4   4
#     4  10  20  36  53  73 102 130 161 210 254 293
#     4   9  20  32  46  74 103 134 169 193 242 305
#     4   9  18  33  52  73  96 127 168 208 244 283
#     4  10  18  27  46  75 103 131 161 198 243 289
#     4  10  18  31  49  73 105 133 159 194 238 297
#     4  10  21  36  55  75  93 124 171 214 253 292
#     4   9  17  30  48  71 104 138 165 199 240 295
#     4   9  17  31  51  75 101 130 163 202 250 295
#
# _framework density 18.829910999999999
#
# number of rings (size 3 to 8) (size 9 to 14) (size 15 to 20)
#    0.000    2.500    0.000    4.125    0.000    6.500 
#    0.000    1.875    0.000    0.000    0.000    0.000 
#    0.000    0.000    0.000    0.000    0.000    0.000 
#
# Total GULP energy -396744.002740 kJ/mol
# GULP energy per Si atom -12398.250086 kJ/mol
# Density = 1.878705 g / cm^3
# Si number density = 18.829911 Si / 1000 Ang^3
#
#
#
# Elastic Constant Matrix: (Units=GPa)
#
#
# Indices 1 2 3 4 5 6 
#
# 1 19.3924 13.7644 14.2243 0.0000 0.6666 0.0000
# 2 13.7644 112.3728 47.3892 0.0000 -2.8663 0.0000
# 3 14.2243 47.3892 122.8715 0.0000 -2.6998 0.0000
# 4 0.0000 0.0000 0.0000 17.8657 0.0000 1.2435
# 5 0.6666 -2.8663 -2.6998 0.0000 22.5385 0.0000
# 6 0.0000 0.0000 0.0000 1.2435 0.0000 18.6680
#
#
#
# Elastic Compliance Matrix: (Units=1/GPa)
#
#
# Indices 1 2 3 4 5 6 
#
# 1 0.058964 -0.005246 -0.004869 0.000000 -0.002994 0.000000
# 2 -0.005246 0.011111 -0.003653 0.000000 0.001131 0.000000
# 3 -0.004869 -0.003653 0.010131 0.000000 0.000893 0.000000
# 4 0.000000 0.000000 0.000000 0.056234 0.000000 -0.003746
# 5 -0.002994 0.001131 0.000893 0.000000 0.044708 0.000000
# 6 0.000000 0.000000 0.000000 -0.003746 0.000000 0.053817
#
#
# Mechanical properties :
#
#
# Convention : Reuss Voigt Hill
#
# Bulk Modulus (GPa) = 18.98584 45.04360 32.01472
# Shear Modulus (GPa) = 17.85354 23.76501 20.80928
#
# Velocity S-wave (km/s) = 3.08254 3.55644 3.32794
# Velocity P-wave (km/s) = 4.77222 6.39043 5.63967
#
# Compressibility (1/GPa) = 0.05267083
#
# Stress axis : x y z
#
# Youngs Moduli (GPa) = 16.95950 90.00168 98.70907
#
# Poissons Ratio (x) = 0.47211 0.48058
# Poissons Ratio (y) = 0.08896 0.36060
# Poissons Ratio (z) = 0.08257 0.32879
#
# Static dielectric constant tensor:
#      x y z
#    x 3.163150 0.000000 0.115280 
#    y 0.000000 3.362140 0.000000 
#    z 0.115280 0.000000 3.573730 
# 
# 
# High freq. dielectric constant tensor:
#      x y z
#    x 1.697080 0.000000 0.012980 
#    y 0.000000 1.731990 0.000000 
#    z 0.012980 0.000000 1.725260 
# 
# From -- ./inp_files/35505.got.cif
#   From: 2010.06.25/outbox.cif.g09.slc.cpg/sg11_18_cif.got.tgz:35505.got - 2010.06.27 23:14:04.
