data_PCOD8068728
_publ_section_title
;
Structure prediction by ZEFSAII (Michael W. Deem and Ramdas Pophale) SiO2 
 PCOD8068728
Probable space group: P 21/M
;
_chemical_formula_sum "Si O2"
_cell_formula_units_Z 24
_cell_length_a 10.433852
_cell_length_b 9.679866
_cell_length_c 20.451440
_cell_angle_alpha 90.000000
_cell_angle_beta 147.048796
_cell_angle_gamma 90.000000
_cell_volume 1123.509108
_symmetry_space_group_name_H-M "P 21/M"
_symmetry_group_IT_number 11
_symmetry_cell_setting 'monoclinic'
loop_
_space_group_symop_operation_xyz
x,y,z
-x,1/2+y,-z
-x,-y,-z
x,1/2-y,z
loop_
_atom_site_type_symbol
_atom_site_label
_atom_site_fract_x
_atom_site_fract_y
_atom_site_fract_z
Si Si1 0.137036 0.097802 0.701264
Si Si2 0.408869 0.908118 0.725061
Si Si3 0.665981 0.404423 0.744839
Si Si4 0.716339 0.089496 0.616307
Si Si5 0.416946 0.899930 0.019318
Si Si6 0.165904 0.098865 0.994596
O O1 0.065704 0.250000 0.641833
O O2 0.380389 0.118768 0.841742
O O3 0.942667 0.044015 0.669933
O O4 0.188999 0.983755 0.667271
O O5 0.333496 0.750000 0.678817
O O6 0.462300 0.988622 0.680012
O O7 0.657222 0.913748 0.869267
O O8 0.556548 0.250000 0.699628
O O9 0.758401 0.439715 0.711309
O O10 0.886628 0.409942 0.890893
O O11 0.661320 0.250000 0.580820
O O12 0.500000 0.000000 0.500000
O O13 0.339976 0.750000 0.958632
O O14 0.500000 0.000000 0.000000
O O15 0.195833 0.972917 0.957730
O O16 0.212718 0.250000 0.981258
#
# Coordination Sequence:
#
# PCOD8068728 Si02
#       6
#     4   4   4   4   4   4
#     4   9  19  37  57  76 105 145 181 217 271 333
#     4  10  20  33  54  87 119 145 179 222 263 311
#     4  10  20  36  57  80 112 152 185 217 268 331
#     4  10  22  40  61  82 104 137 184 234 281 327
#     4  10  18  28  46  73 106 143 181 218 261 318
#     4   9  18  32  50  76 112 148 181 216 257 314
#
# _framework density 21.361640999999999
#
# number of rings (size 3 to 8) (size 9 to 14) (size 15 to 20)
#    0.000    2.333    0.000    2.500    0.000    6.000 
#    0.000    2.500    0.000    0.000    0.000    0.000 
#    0.000    0.000    0.000    0.000    0.000    0.000 
#
# Total GULP energy -297319.327140 kJ/mol
# GULP energy per Si atom -12388.305298 kJ/mol
# Density = 2.131302 g / cm^3
# Si number density = 21.361641 Si / 1000 Ang^3
#
#
#
# Elastic Constant Matrix: (Units=GPa)
#
#
# Indices 1 2 3 4 5 6 
#
# 1 149.9245 88.4280 13.9284 0.0000 23.1329 0.0000
# 2 88.4280 169.7634 11.1359 0.0000 15.4508 0.0000
# 3 13.9284 11.1359 30.3462 0.0000 7.4137 0.0000
# 4 0.0000 0.0000 0.0000 24.1180 0.0000 1.1941
# 5 23.1329 15.4508 7.4137 0.0000 17.2470 0.0000
# 6 0.0000 0.0000 0.0000 1.1941 0.0000 36.6833
#
#
#
# Elastic Compliance Matrix: (Units=1/GPa)
#
#
# Indices 1 2 3 4 5 6 
#
# 1 0.011192 -0.004836 -0.000842 0.000000 -0.010318 0.000000
# 2 -0.004836 0.008533 -0.000703 0.000000 -0.000857 0.000000
# 3 -0.000842 -0.000703 0.037059 0.000000 -0.014171 0.000000
# 4 0.000000 0.000000 0.000000 0.041530 0.000000 -0.001352
# 5 -0.010318 -0.000857 -0.014171 0.000000 0.078680 0.000000
# 6 0.000000 0.000000 0.000000 -0.001352 0.000000 0.027304
#
#
# Mechanical properties :
#
#
# Convention : Reuss Voigt Hill
#
# Bulk Modulus (GPa) = 22.71442 64.11320 43.41381
# Shear Modulus (GPa) = 21.57641 31.37911 26.47776
#
# Velocity S-wave (km/s) = 3.18158 3.83684 3.52447
# Velocity P-wave (km/s) = 4.91457 7.05031 6.07700
#
# Compressibility (1/GPa) = 0.04402490
#
# Stress axis : x y z
#
# Youngs Moduli (GPa) = 89.34564 117.18522 26.98367
#
# Poissons Ratio (x) = 0.56668 0.02272
# Poissons Ratio (y) = 0.43205 0.01896
# Poissons Ratio (z) = 0.07522 0.08234
#
# Static dielectric constant tensor:
#      x y z
#    x 3.965680 0.000000 -0.005870 
#    y 0.000000 4.432480 0.000000 
#    z -0.005870 0.000000 3.454940 
# 
# 
# High freq. dielectric constant tensor:
#      x y z
#    x 1.832330 0.000000 0.009990 
#    y 0.000000 1.852380 0.000000 
#    z 0.009990 0.000000 1.799330 
# 
# From -- ./inp_files/44034.got.cif
#   From: 2010.06.25/outbox.cif.g09.slc.cpg/sg11_23_cif.got.tgz:44034.got - 2010.06.27 23:14:04.
