data_PCOD8068637
_publ_section_title
;
Structure prediction by ZEFSAII (Michael W. Deem and Ramdas Pophale) SiO2 
 PCOD8068637
Probable space group: P 21/M
;
_chemical_formula_sum "Si O2"
_cell_formula_units_Z 32
_cell_length_a 26.445165
_cell_length_b 8.972157
_cell_length_c 18.366882
_cell_angle_alpha 90.000000
_cell_angle_beta 28.434224
_cell_angle_gamma 90.000000
_cell_volume 2075.018467
_symmetry_space_group_name_H-M "P 21/M"
_symmetry_group_IT_number 11
_symmetry_cell_setting 'monoclinic'
loop_
_space_group_symop_operation_xyz
x,y,z
-x,1/2+y,-z
-x,-y,-z
x,1/2-y,z
loop_
_atom_site_type_symbol
_atom_site_label
_atom_site_fract_x
_atom_site_fract_y
_atom_site_fract_z
Si Si1 0.922055 0.918134 0.999888
Si Si2 0.838155 0.075526 0.699851
Si Si3 0.583171 0.922446 0.802155
Si Si4 0.996525 0.925811 0.238525
Si Si5 0.155971 0.917567 0.769582
Si Si6 0.772254 0.924179 0.457395
Si Si7 0.974123 0.924650 0.645278
Si Si8 0.630896 0.577258 0.906782
O O1 0.884993 0.750000 0.030551
O O2 0.838746 0.992630 0.161238
O O3 0.037521 0.920523 0.889127
O O4 0.922925 0.011124 0.924119
O O5 0.836916 0.250000 0.718766
O O6 0.915346 0.038179 0.534723
O O7 0.876490 0.988928 0.722752
O O8 0.721344 0.020731 0.828835
O O9 0.550080 0.750000 0.836483
O O10 0.669595 0.970246 0.633341
O O11 0.633626 0.952442 0.817164
O O12 0.481103 0.025072 0.918201
O O13 0.010700 0.750000 0.225113
O O14 0.876136 0.971889 0.371355
O O15 0.026751 0.996786 0.276388
O O16 0.194701 0.750000 0.735192
O O17 0.233942 0.991992 0.611871
O O18 0.776232 0.750000 0.435549
O O19 0.957491 0.750000 0.676941
O O20 0.649083 0.750000 0.902168
#
# Coordination Sequence:
#
# PCOD8068637 Si02
#       8
#     4   4   4   4   4   4   4   4
#     4   9  16  26  39  56  81 113 146 176 210 254
#     4  10  20  33  48  64  85 114 145 179 219 260
#     4   9  18  31  45  63  87 115 147 180 216 259
#     4  10  18  28  43  63  88 116 146 180 217 255
#     4   9  16  25  38  57  81 110 144 179 214 253
#     4   9  17  28  42  60  85 117 148 179 215 256
#     4  10  20  32  46  65  87 112 145 181 216 257
#     4  10  19  31  47  65  86 113 145 182 221 258
#
# _framework density 15.421549000000001
#
# number of rings (size 3 to 8) (size 9 to 14) (size 15 to 20)
#    0.000    2.500    0.000    3.000    0.000    7.000 
#    0.000    0.000    0.000    0.000    0.000    0.000 
#    0.000    1.000    0.000    3.750    0.000    5.750 
#
# Total GULP energy -396858.373155 kJ/mol
# GULP energy per Si atom -12401.824161 kJ/mol
# Density = 1.538645 g / cm^3
# Si number density = 15.421549 Si / 1000 Ang^3
#
#
#
# Elastic Constant Matrix: (Units=GPa)
#
#
# Indices 1 2 3 4 5 6 
#
# 1 83.7058 47.0793 47.1408 0.0000 19.7110 0.0000
# 2 47.0793 84.8343 40.5052 0.0000 15.1186 0.0000
# 3 47.1408 40.5052 86.0762 0.0000 21.2121 0.0000
# 4 0.0000 0.0000 0.0000 25.5603 0.0000 4.4501
# 5 19.7110 15.1186 21.2121 0.0000 26.1557 0.0000
# 6 0.0000 0.0000 0.0000 4.4501 0.0000 28.1299
#
#
#
# Elastic Compliance Matrix: (Units=1/GPa)
#
#
# Indices 1 2 3 4 5 6 
#
# 1 0.021449 -0.007617 -0.006579 0.000000 -0.006426 0.000000
# 2 -0.007617 0.018206 -0.004020 0.000000 -0.001523 0.000000
# 3 -0.006579 -0.004020 0.019144 0.000000 -0.008244 0.000000
# 4 0.000000 0.000000 0.000000 0.040231 0.000000 -0.006364
# 5 -0.006426 -0.001523 -0.008244 0.000000 0.050641 0.000000
# 6 0.000000 0.000000 0.000000 -0.006364 0.000000 0.036556
#
#
# Mechanical properties :
#
#
# Convention : Reuss Voigt Hill
#
# Bulk Modulus (GPa) = 44.71013 58.22966 51.46989
# Shear Modulus (GPa) = 21.72829 23.96190 22.84509
#
# Velocity S-wave (km/s) = 3.75768 3.94609 3.85304
# Velocity P-wave (km/s) = 6.91967 7.65525 7.29673
#
# Compressibility (1/GPa) = 0.02236630
#
# Stress axis : x y z
#
# Youngs Moduli (GPa) = 46.62271 54.92805 52.23523
#
# Poissons Ratio (x) = 0.41837 0.34365
# Poissons Ratio (y) = 0.35511 0.21001
# Poissons Ratio (z) = 0.30673 0.22083
#
# Static dielectric constant tensor:
#      x y z
#    x 2.780330 0.000000 0.210290 
#    y 0.000000 3.087380 0.000000 
#    z 0.210290 0.000000 2.842540 
# 
# 
# High freq. dielectric constant tensor:
#      x y z
#    x 1.566580 0.000000 0.024610 
#    y 0.000000 1.608670 0.000000 
#    z 0.024610 0.000000 1.569300 
# 
# From -- ./inp_files/60738.got.cif
#   From: 2010.06.25/outbox.cif.g09.slc.cpg/sg11_31_cif.got.tgz:60738.got - 2010.06.27 23:14:04.
