data_PCOD8068485
_publ_section_title
;
Structure prediction by ZEFSAII (Michael W. Deem and Ramdas Pophale) SiO2 
 PCOD8068485
Probable space group: P 21/M
;
_chemical_formula_sum "Si O2"
_cell_formula_units_Z 24
_cell_length_a 8.720334
_cell_length_b 14.354102
_cell_length_c 14.302138
_cell_angle_alpha 90.000000
_cell_angle_beta 138.391496
_cell_angle_gamma 90.000000
_cell_volume 1188.782815
_symmetry_space_group_name_H-M "P 21/M"
_symmetry_group_IT_number 11
_symmetry_cell_setting 'monoclinic'
loop_
_space_group_symop_operation_xyz
x,y,z
-x,1/2+y,-z
-x,-y,-z
x,1/2-y,z
loop_
_atom_site_type_symbol
_atom_site_label
_atom_site_fract_x
_atom_site_fract_y
_atom_site_fract_z
Si Si1 0.751818 0.354000 0.013078
Si Si2 0.543234 0.000656 0.233529
Si Si3 0.580060 0.568926 0.456862
Si Si4 0.107647 0.648937 0.259590
Si Si5 0.065013 0.961159 0.728158
Si Si6 0.099087 0.398257 0.029581
O O1 0.658025 0.250000 0.993701
O O2 0.788626 0.413200 0.123608
O O3 0.995518 0.340319 0.069267
O O4 0.564960 0.409395 0.865729
O O5 0.597026 0.980795 0.365094
O O6 0.778357 0.030981 0.291530
O O7 0.375581 0.091351 0.155155
O O8 0.500000 0.500000 0.500000
O O9 0.384219 0.648208 0.365846
O O10 0.840016 0.602392 0.601628
O O11 0.052163 0.750000 0.280337
O O12 0.016774 0.565576 0.282506
O O13 0.979387 0.646209 0.102429
O O14 0.000000 0.500000 0.000000
#
# Coordination Sequence:
#
# PCOD8068485 Si02
#       6
#     4   4   4   4   4   4
#     4  11  22  38  62  92 126 164 209 256 301 360
#     4  11  21  39  63  90 126 162 204 251 316 370
#     4  10  21  39  63  87 116 162 208 252 301 365
#     4  11  21  37  62  90 119 163 211 252 298 361
#     4  11  23  40  60  94 130 162 197 253 317 370
#     4  10  17  35  60  86 118 157 210 254 294 352
#
# _framework density 20.188717
#
# number of rings (size 3 to 8) (size 9 to 14) (size 15 to 20)
#    0.000    1.333    6.667    2.500    0.000    1.333 
#    0.000    0.833    0.000    9.000    0.000    0.000 
#    0.000    0.000    0.000    0.000    0.000    0.000 
#
# Total GULP energy -297410.124265 kJ/mol
# GULP energy per Si atom -12392.088511 kJ/mol
# Density = 2.014277 g / cm^3
# Si number density = 20.188717 Si / 1000 Ang^3
#
#
#
# Elastic Constant Matrix: (Units=GPa)
#
#
# Indices 1 2 3 4 5 6 
#
# 1 113.3863 6.4632 30.8867 0.0000 -1.6746 0.0000
# 2 6.4632 65.1864 11.5328 0.0000 -0.6414 0.0000
# 3 30.8867 11.5328 83.4243 0.0000 -14.0515 0.0000
# 4 0.0000 0.0000 0.0000 3.3138 0.0000 -0.4923
# 5 -1.6746 -0.6414 -14.0515 0.0000 34.8685 0.0000
# 6 0.0000 0.0000 0.0000 -0.4923 0.0000 8.5660
#
#
#
# Elastic Compliance Matrix: (Units=1/GPa)
#
#
# Indices 1 2 3 4 5 6 
#
# 1 0.009852 -0.000318 -0.003782 0.000000 -0.001057 0.000000
# 2 -0.000318 0.015748 -0.002160 0.000000 -0.000596 0.000000
# 3 -0.003782 -0.002160 0.014642 0.000000 0.005679 0.000000
# 4 0.000000 0.000000 0.000000 0.304366 0.000000 0.017492
# 5 -0.001057 -0.000596 0.005679 0.000000 0.030906 0.000000
# 6 0.000000 0.000000 0.000000 0.017492 0.000000 0.117746
#
#
# Mechanical properties :
#
#
# Convention : Reuss Voigt Hill
#
# Bulk Modulus (GPa) = 36.07019 39.97359 38.02189
# Shear Modulus (GPa) = 9.70834 23.55729 16.63281
#
# Velocity S-wave (km/s) = 2.19528 3.41963 2.87342
# Velocity P-wave (km/s) = 4.93264 5.95271 5.46652
#
# Compressibility (1/GPa) = 0.02772372
#
# Stress axis : x y z
#
# Youngs Moduli (GPa) = 101.50176 63.49857 68.29611
#
# Poissons Ratio (x) = 0.02020 0.25827
# Poissons Ratio (y) = 0.03230 0.14750
# Poissons Ratio (z) = 0.38384 0.13714
#
# Static dielectric constant tensor:
#      x y z
#    x 3.968960 0.000000 0.283410 
#    y 0.000000 2.886820 0.000000 
#    z 0.283410 0.000000 3.844050 
# 
# 
# High freq. dielectric constant tensor:
#      x y z
#    x 1.792320 0.000000 0.000220 
#    y 0.000000 1.761380 0.000000 
#    z 0.000220 0.000000 1.791070 
# 
# From -- ./inp_files/22017.got.cif
#   From: 2010.06.25/outbox.cif.g09.slc.cpg/sg11_12_cif.got.tgz:22017.got - 2010.06.27 23:14:04.
