data_PCOD8068428
_publ_section_title
;
Structure prediction by ZEFSAII (Michael W. Deem and Ramdas Pophale) SiO2 
 PCOD8068428
Probable space group: P 21/M
;
_chemical_formula_sum "Si O2"
_cell_formula_units_Z 24
_cell_length_a 11.311434
_cell_length_b 15.838563
_cell_length_c 16.985925
_cell_angle_alpha 90.000000
_cell_angle_beta 22.082904
_cell_angle_gamma 90.000000
_cell_volume 1144.063625
_symmetry_space_group_name_H-M "P 21/M"
_symmetry_group_IT_number 11
_symmetry_cell_setting 'monoclinic'
loop_
_space_group_symop_operation_xyz
x,y,z
-x,1/2+y,-z
-x,-y,-z
x,1/2-y,z
loop_
_atom_site_type_symbol
_atom_site_label
_atom_site_fract_x
_atom_site_fract_y
_atom_site_fract_z
Si Si1 0.833040 0.406665 0.275479
Si Si2 0.500703 0.846878 0.848469
Si Si3 0.260865 0.485777 0.402612
Si Si4 0.191985 0.446142 0.204739
Si Si5 0.816704 0.894548 0.260618
Si Si6 0.838094 0.586693 0.076321
O O1 0.497902 0.362198 0.500730
O O2 0.802898 0.504780 0.272633
O O3 0.074057 0.397084 0.199928
O O4 0.974389 0.363588 0.108820
O O5 0.572630 0.750000 0.786500
O O6 0.560221 0.898143 0.729528
O O7 0.733207 0.877694 0.773956
O O8 0.138631 0.860046 0.100474
O O9 0.497449 0.564320 0.251211
O O10 0.000000 0.500000 0.500000
O O11 0.089125 0.489294 0.594117
O O12 0.500000 0.500000 0.000000
O O13 0.805521 0.859894 0.177049
O O14 0.000000 0.500000 0.000000
#
# Coordination Sequence:
#
# PCOD8068428 Si02
#       6
#     4   4   4   4   4   4
#     4  10  18  31  59  91 112 145 201 250 285 335
#     4  11  23  39  57  85 124 162 195 250 323 363
#     4  10  19  34  57  85 115 154 206 244 283 357
#     4  11  20  36  61  90 116 155 210 255 291 359
#     4  10  19  33  56  89 117 150 191 249 293 354
#     4  10  17  31  55  89 114 139 192 248 287 335
#
# _framework density 20.977855000000002
#
# number of rings (size 3 to 8) (size 9 to 14) (size 15 to 20)
#    0.000    1.667    6.667    1.000    0.000    0.000 
#    0.000    1.667    0.000    1.000    0.000    0.000 
#    0.000    0.000    0.000    0.000    0.000    0.000 
#
# Total GULP energy -297364.669705 kJ/mol
# GULP energy per Si atom -12390.194571 kJ/mol
# Density = 2.093011 g / cm^3
# Si number density = 20.977855 Si / 1000 Ang^3
#
#
#
# Elastic Constant Matrix: (Units=GPa)
#
#
# Indices 1 2 3 4 5 6 
#
# 1 111.7890 3.6428 51.7582 0.0000 10.8056 0.0000
# 2 3.6428 50.8132 22.4299 0.0000 8.9784 0.0000
# 3 51.7582 22.4299 163.8352 0.0000 14.4971 0.0000
# 4 0.0000 0.0000 0.0000 8.7371 0.0000 -1.0659
# 5 10.8056 8.9784 14.4971 0.0000 45.7877 0.0000
# 6 0.0000 0.0000 0.0000 -1.0659 0.0000 11.0869
#
#
#
# Elastic Compliance Matrix: (Units=1/GPa)
#
#
# Indices 1 2 3 4 5 6 
#
# 1 0.010622 0.001007 -0.003348 0.000000 -0.001644 0.000000
# 2 0.001007 0.021535 -0.002954 0.000000 -0.003525 0.000000
# 3 -0.003348 -0.002954 0.007659 0.000000 -0.001056 0.000000
# 4 0.000000 0.000000 0.000000 0.115813 0.000000 0.011134
# 5 -0.001644 -0.003525 -0.001056 0.000000 0.023253 0.000000
# 6 0.000000 0.000000 0.000000 0.011134 0.000000 0.091267
#
#
# Mechanical properties :
#
#
# Convention : Reuss Voigt Hill
#
# Bulk Modulus (GPa) = 34.21766 53.56657 43.89211
# Shear Modulus (GPa) = 17.21279 29.69609 23.45444
#
# Velocity S-wave (km/s) = 2.86758 3.76652 3.34736
# Velocity P-wave (km/s) = 5.22597 6.67127 5.99235
#
# Compressibility (1/GPa) = 0.02922468
#
# Stress axis : x y z
#
# Youngs Moduli (GPa) = 94.14777 46.43665 130.56141
#
# Poissons Ratio (x) = -0.04676 0.43711
# Poissons Ratio (y) = -0.09479 0.38573
# Poissons Ratio (z) = 0.31520 0.13719
#
# Static dielectric constant tensor:
#      x y z
#    x 5.424780 0.000000 1.942490 
#    y 0.000000 2.838930 0.000000 
#    z 1.942490 0.000000 6.998200 
# 
# 
# High freq. dielectric constant tensor:
#      x y z
#    x 1.835110 0.000000 -0.002610 
#    y 0.000000 1.736240 0.000000 
#    z -0.002610 0.000000 1.848750 
# 
# From -- ./inp_files/59663.got.cif
#   From: 2010.06.25/outbox.cif.g09.slc.cpg/sg11_30_cif.got.tgz:59663.got - 2010.06.27 23:14:04.
