data_PCOD8068001
_publ_section_title
;
Structure prediction by ZEFSAII (Michael W. Deem and Ramdas Pophale) SiO2 
 PCOD8068001
Probable space group: P 2/M
;
_chemical_formula_sum "Si O2"
_cell_formula_units_Z 28
_cell_length_a 11.829011
_cell_length_b 9.162390
_cell_length_c 19.517484
_cell_angle_alpha 90.000000
_cell_angle_beta 127.305945
_cell_angle_gamma 90.000000
_cell_volume 1682.567188
_symmetry_space_group_name_H-M "P 2/M"
_symmetry_group_IT_number 10
_symmetry_cell_setting 'monoclinic'
loop_
_space_group_symop_operation_xyz
x,y,z
-x,y,-z
-x,-y,-z
x,-y,z
loop_
_atom_site_type_symbol
_atom_site_label
_atom_site_fract_x
_atom_site_fract_y
_atom_site_fract_z
Si Si1 0.925135 0.326433 0.663301
Si Si2 0.598533 0.326435 0.336696
Si Si3 0.699463 0.671425 0.830591
Si Si4 0.961713 0.328574 0.830587
Si Si5 0.134183 0.835838 0.999998
Si Si6 0.901850 0.673706 0.401850
Si Si7 0.626422 0.325762 0.499999
O O1 0.919809 0.500000 0.662584
O O2 0.959711 0.269105 0.752071
O O3 0.772931 0.264383 0.584304
O O4 0.040969 0.270436 0.650660
O O5 0.594654 0.500000 0.337414
O O6 0.455571 0.269114 0.247925
O O7 0.739651 0.270432 0.349341
O O8 0.604316 0.264393 0.415691
O O9 0.698657 0.500000 0.845566
O O10 0.810978 0.708040 0.810980
O O11 0.737885 0.752604 0.915203
O O12 0.992468 0.500000 0.845554
O O13 0.092517 0.247398 0.915200
O O14 0.182423 0.000000 0.999997
O O15 0.000000 0.835172 0.000000
O O16 0.906872 0.500000 0.406869
O O17 0.000000 0.734667 0.500000
O O18 0.500000 0.264167 0.500000
O O19 0.627629 0.500000 0.500001
#
# Coordination Sequence:
#
# PCOD8068001 Si02
#       7
#     4   4   4   4   4   4   4
#     4   9  15  22  34  54  82 114 144 172 205 247
#     4   9  15  22  34  54  82 114 144 172 205 247
#     4   9  16  26  41  63  89 113 138 172 214 254
#     4   9  16  26  41  63  89 113 138 172 214 254
#     4   9  17  29  45  64  85 110 140 173 212 261
#     4   9  14  22  34  51  81 118 148 173 205 244
#     4   9  14  19  29  49  80 113 139 166 204 249
#
# _framework density 16.641237
#
# number of rings (size 3 to 8) (size 9 to 14) (size 15 to 20)
#    0.000    3.000    1.429    1.286    0.000    5.143 
#    0.000    0.000    0.000    0.857    0.000    8.000 
#    0.000    6.857    0.000    0.000    0.000    0.000 
#
# Total GULP energy -347079.686486 kJ/mol
# GULP energy per Si atom -12395.703089 kJ/mol
# Density = 1.660336 g / cm^3
# Si number density = 16.641237 Si / 1000 Ang^3
#
#
#
# Elastic Constant Matrix: (Units=GPa)
#
#
# Indices 1 2 3 4 5 6 
#
# 1 125.2797 18.9883 82.8805 0.0000 0.4228 0.0000
# 2 18.9883 27.3891 35.7258 0.0000 -0.7886 0.0000
# 3 82.8805 35.7258 182.5569 0.0000 -3.1159 0.0000
# 4 0.0000 0.0000 0.0000 1.1068 0.0000 0.1634
# 5 0.4228 -0.7886 -3.1159 0.0000 16.9288 0.0000
# 6 0.0000 0.0000 0.0000 0.1634 0.0000 4.5696
#
#
#
# Elastic Compliance Matrix: (Units=1/GPa)
#
#
# Indices 1 2 3 4 5 6 
#
# 1 0.011485 -0.001570 -0.004928 0.000000 -0.001267 0.000000
# 2 -0.001570 0.049244 -0.008912 0.000000 0.000693 0.000000
# 3 -0.004928 -0.008912 0.009484 0.000000 0.001454 0.000000
# 4 0.000000 0.000000 0.000000 0.908321 0.000000 -0.032486
# 5 -0.001267 0.000693 0.001454 0.000000 0.059402 0.000000
# 6 0.000000 0.000000 0.000000 -0.032486 0.000000 0.219998
#
#
# Mechanical properties :
#
#
# Convention : Reuss Voigt Hill
#
# Bulk Modulus (GPa) = 25.38606 67.82388 46.60497
# Shear Modulus (GPa) = 3.84058 17.69645 10.76851
#
# Velocity S-wave (km/s) = 1.52081 3.26453 2.54657
# Velocity P-wave (km/s) = 4.28624 7.41988 6.05914
#
# Compressibility (1/GPa) = 0.03939170
#
# Stress axis : x y z
#
# Youngs Moduli (GPa) = 87.07086 20.30686 105.43859
#
# Poissons Ratio (x) = 0.03188 0.51965
# Poissons Ratio (y) = 0.13671 0.93970
# Poissons Ratio (z) = 0.42913 0.18098
#
# Static dielectric constant tensor:
#      x y z
#    x 3.179580 0.000000 -0.006780 
#    y 0.000000 2.578190 0.000000 
#    z -0.006780 0.000000 3.324040 
# 
# 
# High freq. dielectric constant tensor:
#      x y z
#    x 1.625370 0.000000 -0.001220 
#    y 0.000000 1.576770 0.000000 
#    z -0.001220 0.000000 1.651180 
# 
# From -- ./inp_files/53394.got.cif
#   From: 2010.06.25/outbox.cif.g09.slc.cpg/sg10_27_cif.got.tgz:53394.got - 2010.06.27 22:07:45.
