data_PCOD8068776
_publ_section_title
;
Structure prediction by ZEFSAII (Michael W. Deem and Ramdas Pophale) SiO2 
 PCOD8068776
Probable space group: P 21/M
;
_chemical_formula_sum "Si O2"
_cell_formula_units_Z 32
_cell_length_a 24.075766
_cell_length_b 8.728222
_cell_length_c 17.033201
_cell_angle_alpha 90.000000
_cell_angle_beta 145.671777
_cell_angle_gamma 90.000000
_cell_volume 2018.503951
_symmetry_space_group_name_H-M "P 21/M"
_symmetry_group_IT_number 11
_symmetry_cell_setting 'monoclinic'
loop_
_space_group_symop_operation_xyz
x,y,z
-x,1/2+y,-z
-x,-y,-z
x,1/2-y,z
loop_
_atom_site_type_symbol
_atom_site_label
_atom_site_fract_x
_atom_site_fract_y
_atom_site_fract_z
Si Si1 0.767341 0.076154 0.705077
Si Si2 0.906468 0.074697 0.006506
Si Si3 0.744290 0.570733 0.919213
Si Si4 0.894517 0.927944 0.387362
Si Si5 0.392866 0.932767 0.364820
Si Si6 0.934235 0.926475 0.604070
Si Si7 0.158905 0.570184 0.825641
Si Si8 0.106446 0.931126 0.284036
O O1 0.734349 0.250000 0.658445
O O2 0.675412 0.997976 0.643642
O O3 0.795381 0.015228 0.650404
O O4 0.867125 0.059312 0.872296
O O5 0.895842 0.250000 0.024091
O O6 0.018096 0.022230 0.140487
O O7 0.844800 0.965562 0.991354
O O8 0.722834 0.750000 0.895074
O O9 0.652196 0.486430 0.770741
O O10 0.758585 0.510290 0.024479
O O11 0.898646 0.750000 0.370868
O O12 0.867871 0.952304 0.448254
O O13 0.821700 0.011951 0.241191
O O14 0.000000 0.000000 0.500000
O O15 0.395352 0.750000 0.368058
O O16 0.500000 0.000000 0.500000
O O17 0.931666 0.750000 0.626889
O O18 0.048133 0.975877 0.723823
O O19 0.883707 0.026868 0.613085
O O20 0.174729 0.750000 0.846965
O O21 0.090328 0.750000 0.255295
#
# Coordination Sequence:
#
# PCOD8068776 Si02
#       8
#     4   4   4   4   4   4   4   4
#     4   8  18  32  45  63  87 116 148 187 228 266
#     4  10  18  30  43  58  88 122 151 189 231 260
#     4  11  20  30  47  70  91 118 156 189 225 274
#     4   9  17  28  41  57  82 117 158 193 227 267
#     4  10  20  37  55  70  92 117 146 188 236 279
#     4   9  18  29  40  57  87 124 155 188 231 263
#     4  10  18  29  44  62  89 119 152 192 233 266
#     4  11  19  27  42  63  87 119 158 189 218 264
#
# _framework density 15.853325999999999
#
# number of rings (size 3 to 8) (size 9 to 14) (size 15 to 20)
#    0.000    2.250    1.250    4.875    0.000    2.500 
#    0.000    6.875    0.000    0.000    0.000    0.000 
#    0.000    1.000    0.000    3.000    0.000    4.625 
#
# Total GULP energy -396539.366496 kJ/mol
# GULP energy per Si atom -12391.855203 kJ/mol
# Density = 1.581724 g / cm^3
# Si number density = 15.853326 Si / 1000 Ang^3
#
#
#
# Elastic Constant Matrix: (Units=GPa)
#
#
# Indices 1 2 3 4 5 6 
#
# 1 87.6666 34.8187 55.1941 0.0000 -13.7739 0.0000
# 2 34.8187 75.3600 32.5093 0.0000 -7.3045 0.0000
# 3 55.1941 32.5093 85.6572 0.0000 -9.6053 0.0000
# 4 0.0000 0.0000 0.0000 24.7086 0.0000 -6.4733
# 5 -13.7739 -7.3045 -9.6053 0.0000 19.0677 0.0000
# 6 0.0000 0.0000 0.0000 -6.4733 0.0000 20.4600
#
#
#
# Elastic Compliance Matrix: (Units=1/GPa)
#
#
# Indices 1 2 3 4 5 6 
#
# 1 0.021522 -0.004261 -0.011331 0.000000 0.008207 0.000000
# 2 -0.004261 0.016901 -0.003485 0.000000 0.001641 0.000000
# 3 -0.011331 -0.003485 0.020382 0.000000 0.000747 0.000000
# 4 0.000000 0.000000 0.000000 0.044130 0.000000 0.013962
# 5 0.008207 0.001641 0.000747 0.000000 0.059378 0.000000
# 6 0.000000 0.000000 0.000000 0.013962 0.000000 0.053293
#
#
# Mechanical properties :
#
#
# Convention : Reuss Voigt Hill
#
# Bulk Modulus (GPa) = 48.42063 54.85867 51.63965
# Shear Modulus (GPa) = 19.18338 21.25804 20.22071
#
# Velocity S-wave (km/s) = 3.48236 3.66583 3.57527
# Velocity P-wave (km/s) = 6.83946 7.25236 7.04894
#
# Compressibility (1/GPa) = 0.02065236
#
# Stress axis : x y z
#
# Youngs Moduli (GPa) = 46.46362 59.16967 49.06298
#
# Poissons Ratio (x) = 0.25209 0.55592
# Poissons Ratio (y) = 0.19796 0.17098
# Poissons Ratio (z) = 0.52647 0.20620
#
# Static dielectric constant tensor:
#      x y z
#    x 3.259900 0.000000 -0.357130 
#    y 0.000000 3.054960 0.000000 
#    z -0.357130 0.000000 2.935160 
# 
# 
# High freq. dielectric constant tensor:
#      x y z
#    x 1.592820 0.000000 -0.034430 
#    y 0.000000 1.614870 0.000000 
#    z -0.034430 0.000000 1.572000 
# 
# From -- ./inp_files/59865.got.cif
#   From: 2010.06.25/outbox.cif.g09.slc.cpg/sg11_30_cif.got.tgz:59865.got - 2010.06.27 23:14:04.
