data_PCOD8068299
_publ_section_title
;
Structure prediction by ZEFSAII (Michael W. Deem and Ramdas Pophale) SiO2 
 PCOD8068299
Probable space group: P 21/M
;
_chemical_formula_sum "Si O2"
_cell_formula_units_Z 28
_cell_length_a 6.618709
_cell_length_b 13.666549
_cell_length_c 20.911672
_cell_angle_alpha 90.000000
_cell_angle_beta 64.573967
_cell_angle_gamma 90.000000
_cell_volume 1708.347176
_symmetry_space_group_name_H-M "P 21/M"
_symmetry_group_IT_number 11
_symmetry_cell_setting 'monoclinic'
loop_
_space_group_symop_operation_xyz
x,y,z
-x,1/2+y,-z
-x,-y,-z
x,1/2-y,z
loop_
_atom_site_type_symbol
_atom_site_label
_atom_site_fract_x
_atom_site_fract_y
_atom_site_fract_z
Si Si1 0.429727 0.362051 0.998598
Si Si2 0.697326 0.636666 0.130677
Si Si3 0.426889 0.358663 0.603959
Si Si4 0.030456 0.458603 0.599481
Si Si5 0.083517 0.860358 0.512668
Si Si6 0.123535 0.971091 0.047642
Si Si7 0.378520 0.861896 0.286627
O O1 0.383331 0.250000 0.023637
O O2 0.403097 0.380800 0.926250
O O3 0.678781 0.390836 0.988046
O O4 0.243582 0.430654 0.059453
O O5 0.758220 0.750000 0.132713
O O6 0.508541 0.602370 0.206040
O O7 0.924033 0.575846 0.116784
O O8 0.329791 0.250000 0.603595
O O9 0.261544 0.443596 0.604770
O O10 0.653697 0.373399 0.533948
O O11 0.459868 0.371691 0.674857
O O12 0.004223 0.571303 0.581783
O O13 0.039158 0.389023 0.536240
O O14 0.833411 0.432003 0.675209
O O15 0.017980 0.750000 0.539707
O O16 0.000000 0.000000 0.000000
O O17 0.294525 0.750000 0.290690
#
# Coordination Sequence:
#
# PCOD8068299 Si02
#       7
#     4   4   4   4   4   4   4
#     4   9  17  29  47  70  92 117 149 183 222 265
#     4   9  17  29  45  67  95 121 146 179 220 266
#     4   9  16  27  43  63  86 110 139 176 218 261
#     4  10  17  28  45  61  85 116 143 177 222 264
#     4   9  18  29  42  63  85 107 143 185 221 262
#     4   9  17  29  45  67  94 119 146 181 218 259
#     4   9  18  29  42  66  93 115 143 175 210 260
#
# _framework density 16.390111999999998
#
# number of rings (size 3 to 8) (size 9 to 14) (size 15 to 20)
#    0.000    2.857    0.000    3.000    0.000    1.714 
#    0.000    4.286    0.000    0.857    0.000    6.000 
#    0.000    0.000    0.000    0.000    0.000    0.000 
#
# Total GULP energy -347033.384744 kJ/mol
# GULP energy per Si atom -12394.049455 kJ/mol
# Density = 1.635281 g / cm^3
# Si number density = 16.390112 Si / 1000 Ang^3
#
#
#
# Elastic Constant Matrix: (Units=GPa)
#
#
# Indices 1 2 3 4 5 6 
#
# 1 75.9417 36.5000 21.1455 0.0000 -4.6282 0.0000
# 2 36.5000 104.7753 34.9392 0.0000 -10.9054 0.0000
# 3 21.1455 34.9392 62.0837 0.0000 -14.6885 0.0000
# 4 0.0000 0.0000 0.0000 23.6685 0.0000 -4.2333
# 5 -4.6282 -10.9054 -14.6885 0.0000 11.8496 0.0000
# 6 0.0000 0.0000 0.0000 -4.2333 0.0000 25.6614
#
#
#
# Elastic Compliance Matrix: (Units=1/GPa)
#
#
# Indices 1 2 3 4 5 6 
#
# 1 0.016267 -0.004771 -0.003384 0.000000 -0.002231 0.000000
# 2 -0.004771 0.013264 -0.004800 0.000000 0.004393 0.000000
# 3 -0.003384 -0.004800 0.026323 0.000000 0.026890 0.000000
# 4 0.000000 0.000000 0.000000 0.043535 0.000000 0.007182
# 5 -0.002231 0.004393 0.026890 0.000000 0.120896 0.000000
# 6 0.000000 0.000000 0.000000 0.007182 0.000000 0.040154
#
#
# Mechanical properties :
#
#
# Convention : Reuss Voigt Hill
#
# Bulk Modulus (GPa) = 33.39431 47.55224 40.47328
# Shear Modulus (GPa) = 16.87305 22.25030 19.56168
#
# Velocity S-wave (km/s) = 3.21201 3.68848 3.45846
# Velocity P-wave (km/s) = 5.84593 6.87136 6.37928
#
# Compressibility (1/GPa) = 0.02994522
#
# Stress axis : x y z
#
# Youngs Moduli (GPa) = 61.47356 75.39021 37.98910
#
# Poissons Ratio (x) = 0.35968 0.12854
# Poissons Ratio (y) = 0.29328 0.18236
# Poissons Ratio (z) = 0.20800 0.36191
#
# Static dielectric constant tensor:
#      x y z
#    x 3.157830 0.000000 -0.090410 
#    y 0.000000 3.207820 0.000000 
#    z -0.090410 0.000000 2.906390 
# 
# 
# High freq. dielectric constant tensor:
#      x y z
#    x 1.639790 0.000000 -0.003060 
#    y 0.000000 1.624750 0.000000 
#    z -0.003060 0.000000 1.594670 
# 
# From -- ./inp_files/8625.got.cif
#   From: 2010.06.25/outbox.cif.g09.slc.cpg/sg11_5_cif.got.tgz:8625.got - 2010.06.27 23:14:04.
