data_PCOD8068409
_publ_section_title
;
Structure prediction by ZEFSAII (Michael W. Deem and Ramdas Pophale) SiO2 
 PCOD8068409
Probable space group: P 21/M
;
_chemical_formula_sum "Si O2"
_cell_formula_units_Z 32
_cell_length_a 14.977411
_cell_length_b 9.139658
_cell_length_c 30.725680
_cell_angle_alpha 90.000000
_cell_angle_beta 28.400989
_cell_angle_gamma 90.000000
_cell_volume 2000.534346
_symmetry_space_group_name_H-M "P 21/M"
_symmetry_group_IT_number 11
_symmetry_cell_setting 'monoclinic'
loop_
_space_group_symop_operation_xyz
x,y,z
-x,1/2+y,-z
-x,-y,-z
x,1/2-y,z
loop_
_atom_site_type_symbol
_atom_site_label
_atom_site_fract_x
_atom_site_fract_y
_atom_site_fract_z
Si Si1 0.041249 0.076190 0.584879
Si Si2 0.945237 0.920073 0.090536
Si Si3 0.305738 0.419622 0.304749
Si Si4 0.350683 0.423243 0.384004
Si Si5 0.738205 0.080572 0.439316
Si Si6 0.359250 0.582933 0.614186
Si Si7 0.272814 0.917365 0.888617
Si Si8 0.752172 0.419388 0.244479
O O1 0.037195 0.250000 0.589745
O O2 0.187091 0.018446 0.485826
O O3 0.099674 0.010593 0.606423
O O4 0.836070 0.018055 0.661557
O O5 0.909393 0.750000 0.111491
O O6 0.789967 0.981250 0.124063
O O7 0.919838 0.995408 0.148386
O O8 0.154153 0.954281 0.982942
O O9 0.244684 0.250000 0.329104
O O10 0.310017 0.477346 0.352602
O O11 0.508516 0.443016 0.195538
O O12 0.355978 0.250000 0.383354
O O13 0.551209 0.482510 0.314513
O O14 0.756245 0.250000 0.444248
O O15 0.762503 0.055918 0.377022
O O16 0.534930 0.024834 0.541328
O O17 0.436765 0.750000 0.582148
O O18 0.227779 0.553844 0.712349
O O19 0.236769 0.750000 0.889431
O O20 0.771372 0.250000 0.224204
#
# Coordination Sequence:
#
# PCOD8068409 Si02
#       8
#     4   4   4   4   4   4   4   4
#     4  11  21  33  47  67  95 128 161 198 236 273
#     4  10  19  29  46  73  97 119 156 200 236 277
#     4  10  19  33  49  65  88 127 168 196 226 272
#     4   9  17  30  47  64  91 129 163 187 221 273
#     4  10  19  31  48  71  94 122 159 198 235 277
#     4   9  18  32  50  69  94 125 158 193 235 283
#     4   9  18  33  49  65  93 129 158 192 240 283
#     4  10  17  31  50  68  94 131 159 184 233 288
#
# _framework density 15.995727
#
# number of rings (size 3 to 8) (size 9 to 14) (size 15 to 20)
#    0.000    2.250    2.500    1.500    0.000    2.000 
#    0.000    0.625    0.000    0.000    0.000    0.875 
#    0.000    0.000    0.000    0.000    0.000    0.000 
#
# Total GULP energy -396806.065997 kJ/mol
# GULP energy per Si atom -12400.189562 kJ/mol
# Density = 1.595932 g / cm^3
# Si number density = 15.995727 Si / 1000 Ang^3
#
#
#
# Elastic Constant Matrix: (Units=GPa)
#
#
# Indices 1 2 3 4 5 6 
#
# 1 104.6745 45.8232 53.3856 0.0000 8.8948 0.0000
# 2 45.8232 71.2915 44.4825 0.0000 6.8476 0.0000
# 3 53.3856 44.4825 101.4016 0.0000 12.4892 0.0000
# 4 0.0000 0.0000 0.0000 25.1425 0.0000 0.5946
# 5 8.8948 6.8476 12.4892 0.0000 22.7409 0.0000
# 6 0.0000 0.0000 0.0000 0.5946 0.0000 24.3597
#
#
#
# Elastic Compliance Matrix: (Units=1/GPa)
#
#
# Indices 1 2 3 4 5 6 
#
# 1 0.014985 -0.006452 -0.004908 0.000000 -0.001223 0.000000
# 2 -0.006452 0.022124 -0.006220 0.000000 -0.000723 0.000000
# 3 -0.004908 -0.006220 0.015774 0.000000 -0.004870 0.000000
# 4 0.000000 0.000000 0.000000 0.039796 0.000000 -0.000971
# 5 -0.001223 -0.000723 -0.004870 0.000000 0.047344 0.000000
# 6 0.000000 0.000000 0.000000 -0.000971 0.000000 0.041075
#
#
# Mechanical properties :
#
#
# Convention : Reuss Voigt Hill
#
# Bulk Modulus (GPa) = 56.42154 62.75002 59.58578
# Shear Modulus (GPa) = 22.50567 23.36037 22.93302
#
# Velocity S-wave (km/s) = 3.75504 3.82568 3.79053
# Velocity P-wave (km/s) = 7.35866 7.67000 7.51594
#
# Compressibility (1/GPa) = 0.01772373
#
# Stress axis : x y z
#
# Youngs Moduli (GPa) = 66.73308 45.20002 63.39451
#
# Poissons Ratio (x) = 0.29161 0.31117
# Poissons Ratio (y) = 0.43054 0.39429
# Poissons Ratio (z) = 0.32756 0.28113
#
# Static dielectric constant tensor:
#      x y z
#    x 2.993620 0.000000 0.185540 
#    y 0.000000 2.988650 0.000000 
#    z 0.185540 0.000000 3.078000 
# 
# 
# High freq. dielectric constant tensor:
#      x y z
#    x 1.596200 0.000000 0.014470 
#    y 0.000000 1.612320 0.000000 
#    z 0.014470 0.000000 1.601280 
# 
# From -- ./inp_files/51197.got.cif
#   From: 2010.06.25/outbox.cif.g09.slc.cpg/sg11_26_cif.got.tgz:51197.got - 2010.06.27 23:14:04.
