data_PCOD8068404
_publ_section_title
;
Structure prediction by ZEFSAII (Michael W. Deem and Ramdas Pophale) SiO2 
 PCOD8068404
Probable space group: P 21/M
;
_chemical_formula_sum "Si O2"
_cell_formula_units_Z 28
_cell_length_a 8.661189
_cell_length_b 19.164531
_cell_length_c 12.166981
_cell_angle_alpha 90.000000
_cell_angle_beta 50.541697
_cell_angle_gamma 90.000000
_cell_volume 1559.282990
_symmetry_space_group_name_H-M "P 21/M"
_symmetry_group_IT_number 11
_symmetry_cell_setting 'monoclinic'
loop_
_space_group_symop_operation_xyz
x,y,z
-x,1/2+y,-z
-x,-y,-z
x,1/2-y,z
loop_
_atom_site_type_symbol
_atom_site_label
_atom_site_fract_x
_atom_site_fract_y
_atom_site_fract_z
Si Si1 0.957184 0.671211 0.242405
Si Si2 0.342932 0.557778 0.284311
Si Si3 0.651883 0.408281 0.962276
Si Si4 0.238428 0.061540 0.809031
Si Si5 0.911924 0.539940 0.894725
Si Si6 0.979266 0.169598 0.534766
Si Si7 0.763395 0.909892 0.744550
O O1 0.918903 0.750000 0.225672
O O2 0.179188 0.650473 0.101546
O O3 0.786056 0.626822 0.260624
O O4 0.935592 0.658633 0.381805
O O5 0.419916 0.585643 0.131481
O O6 0.528137 0.545684 0.282060
O O7 0.224339 0.485037 0.321927
O O8 0.203124 0.616351 0.403223
O O9 0.738235 0.481913 0.963161
O O10 0.463805 0.389272 0.122892
O O11 0.131311 0.081366 0.973148
O O12 0.131951 0.994293 0.802309
O O13 0.900144 0.588907 0.792990
O O14 0.910927 0.250000 0.548059
O O15 0.155062 0.150760 0.370534
#
# Coordination Sequence:
#
# PCOD8068404 Si02
#       7
#     4   4   4   4   4   4   4
#     4   9  20  36  51  71 102 145 181 209 255 320
#     4  10  18  33  57  84 101 136 179 217 256 313
#     4   9  16  31  56  80 104 128 170 223 261 303
#     4  10  17  30  56  80 108 133 163 214 265 315
#     4   9  17  30  52  86 111 124 157 215 279 309
#     4  10  23  39  52  70 106 146 182 218 256 304
#     4  11  18  34  57  83 106 133 171 227 265 307
#
# _framework density 17.956970999999999
#
# number of rings (size 3 to 8) (size 9 to 14) (size 15 to 20)
#    0.000    2.286    2.857    2.143    0.000    1.143 
#    0.000    3.571    0.000    0.000    0.000    0.000 
#    0.000    0.000    0.000    0.000    0.000    0.000 
#
# Total GULP energy -347206.132973 kJ/mol
# GULP energy per Si atom -12400.219035 kJ/mol
# Density = 1.791610 g / cm^3
# Si number density = 17.956971 Si / 1000 Ang^3
#
#
#
# Elastic Constant Matrix: (Units=GPa)
#
#
# Indices 1 2 3 4 5 6 
#
# 1 90.4623 10.4821 18.1970 0.0000 3.4227 0.0000
# 2 10.4821 47.4109 24.2759 0.0000 10.4603 0.0000
# 3 18.1970 24.2759 87.3935 0.0000 -0.1588 0.0000
# 4 0.0000 0.0000 0.0000 23.7012 0.0000 3.3994
# 5 3.4227 10.4603 -0.1588 0.0000 19.0428 0.0000
# 6 0.0000 0.0000 0.0000 3.3994 0.0000 18.8510
#
#
#
# Elastic Compliance Matrix: (Units=1/GPa)
#
#
# Indices 1 2 3 4 5 6 
#
# 1 0.011670 -0.001178 -0.002105 0.000000 -0.001468 0.000000
# 2 -0.001178 0.028794 -0.007782 0.000000 -0.015670 0.000000
# 3 -0.002105 -0.007782 0.014051 0.000000 0.004770 0.000000
# 4 0.000000 0.000000 0.000000 0.043312 0.000000 -0.007810
# 5 -0.001468 -0.015670 0.004770 0.000000 0.061425 0.000000
# 6 0.000000 0.000000 0.000000 -0.007810 0.000000 0.054456
#
#
# Mechanical properties :
#
#
# Convention : Reuss Voigt Hill
#
# Bulk Modulus (GPa) = 30.87836 36.79742 33.83789
# Shear Modulus (GPa) = 20.27300 23.80645 22.03973
#
# Velocity S-wave (km/s) = 3.36367 3.64504 3.50718
# Velocity P-wave (km/s) = 5.68496 6.18478 5.94013
#
# Compressibility (1/GPa) = 0.03238514
#
# Stress axis : x y z
#
# Youngs Moduli (GPa) = 85.69072 34.72894 71.16895
#
# Poissons Ratio (x) = 0.04092 0.14983
# Poissons Ratio (y) = 0.10097 0.55381
# Poissons Ratio (z) = 0.18040 0.27025
#
# Static dielectric constant tensor:
#      x y z
#    x 3.382120 0.000000 0.134550 
#    y 0.000000 3.150710 0.000000 
#    z 0.134550 0.000000 3.189720 
# 
# 
# High freq. dielectric constant tensor:
#      x y z
#    x 1.697470 0.000000 0.006300 
#    y 0.000000 1.667980 0.000000 
#    z 0.006300 0.000000 1.681820 
# 
# From -- ./inp_files/13546.got.cif
#   From: 2010.06.25/outbox.cif.g09.slc.cpg/sg11_7_cif.got.tgz:13546.got - 2010.06.27 23:14:04.
