data_PCOD8068126
_publ_section_title
;
Structure prediction by ZEFSAII (Michael W. Deem and Ramdas Pophale) SiO2 
 PCOD8068126
Probable space group: P 21/M
;
_chemical_formula_sum "Si O2"
_cell_formula_units_Z 32
_cell_length_a 17.666580
_cell_length_b 15.305796
_cell_length_c 20.322812
_cell_angle_alpha 90.000000
_cell_angle_beta 161.093226
_cell_angle_gamma 90.000000
_cell_volume 1780.641322
_symmetry_space_group_name_H-M "P 21/M"
_symmetry_group_IT_number 11
_symmetry_cell_setting 'monoclinic'
loop_
_space_group_symop_operation_xyz
x,y,z
-x,1/2+y,-z
-x,-y,-z
x,1/2-y,z
loop_
_atom_site_type_symbol
_atom_site_label
_atom_site_fract_x
_atom_site_fract_y
_atom_site_fract_z
Si Si1 0.461385 0.150501 0.519691
Si Si2 0.551655 0.654232 0.149169
Si Si3 0.986129 0.428253 0.432345
Si Si4 0.805812 0.489494 0.649033
Si Si5 0.829614 0.492231 0.166068
Si Si6 0.039530 0.576187 0.084063
Si Si7 0.484843 0.402774 0.017424
Si Si8 0.573700 0.848712 0.660791
O O1 0.408902 0.250000 0.498886
O O2 0.378429 0.133895 0.376911
O O3 0.737013 0.133040 0.753125
O O4 0.319567 0.083749 0.449069
O O5 0.467174 0.750000 0.102353
O O6 0.789101 0.633193 0.382944
O O7 0.348513 0.585742 0.998876
O O8 0.612916 0.658108 0.121112
O O9 0.978481 0.470342 0.353498
O O10 0.748668 0.372885 0.252588
O O11 0.000000 0.500000 0.500000
O O12 0.620117 0.416599 0.473411
O O13 0.003407 0.493536 0.757246
O O14 0.927571 0.464076 0.817091
O O15 0.688090 0.584641 0.062345
O O16 0.813066 0.638275 0.897777
O O17 0.000000 0.500000 0.000000
O O18 0.500000 0.500000 0.000000
O O19 0.482455 0.750000 0.596986
#
# Coordination Sequence:
#
# PCOD8068126 Si02
#       8
#     4   4   4   4   4   4   4   4
#     4  10  20  35  56  83 112 146 187 231 276 328
#     4  10  19  33  55  82 107 137 184 230 262 316
#     4  10  15  33  59  76  96 137 192 210 253 323
#     4  11  22  36  56  84 118 149 179 226 285 339
#     4  10  21  34  55  79 111 148 168 219 280 333
#     4  11  18  36  60  81 104 143 197 229 271 326
#     4   8  16  32  53  74  98 137 177 211 257 312
#     4  10  20  37  60  81 107 146 193 238 273 322
#
# _framework density 17.971053999999999
#
# number of rings (size 3 to 8) (size 9 to 14) (size 15 to 20)
#    0.000    2.250    6.250    1.125    0.000    4.000 
#    0.000    0.625    0.000    0.000    0.000    0.000 
#    0.000    0.000    0.000    0.000    0.000    0.000 
#
# Total GULP energy -396599.939173 kJ/mol
# GULP energy per Si atom -12393.748099 kJ/mol
# Density = 1.793015 g / cm^3
# Si number density = 17.971054 Si / 1000 Ang^3
#
#
#
# Elastic Constant Matrix: (Units=GPa)
#
#
# Indices 1 2 3 4 5 6 
#
# 1 90.3137 26.5922 42.3390 0.0000 22.0160 0.0000
# 2 26.5922 78.6525 29.9258 0.0000 11.8740 0.0000
# 3 42.3390 29.9258 122.3756 0.0000 0.3876 0.0000
# 4 0.0000 0.0000 0.0000 22.1394 0.0000 -1.8985
# 5 22.0160 11.8740 0.3876 0.0000 30.6994 0.0000
# 6 0.0000 0.0000 0.0000 -1.8985 0.0000 9.9244
#
#
#
# Elastic Compliance Matrix: (Units=1/GPa)
#
#
# Indices 1 2 3 4 5 6 
#
# 1 0.016907 -0.001984 -0.005328 0.000000 -0.011290 0.000000
# 2 -0.001984 0.015200 -0.003016 0.000000 -0.004418 0.000000
# 3 -0.005328 -0.003016 0.010737 0.000000 0.004852 0.000000
# 4 0.000000 0.000000 0.000000 0.045922 0.000000 0.008785
# 5 -0.011290 -0.004418 0.004852 0.000000 0.042318 0.000000
# 6 0.000000 0.000000 0.000000 0.008785 0.000000 0.102442
#
#
# Mechanical properties :
#
#
# Convention : Reuss Voigt Hill
#
# Bulk Modulus (GPa) = 45.07431 54.33955 49.70693
# Shear Modulus (GPa) = 19.11468 25.38497 22.24982
#
# Velocity S-wave (km/s) = 3.26488 3.76246 3.52247
# Velocity P-wave (km/s) = 6.27285 7.01269 6.65306
#
# Compressibility (1/GPa) = 0.02218558
#
# Stress axis : x y z
#
# Youngs Moduli (GPa) = 59.14733 65.79070 93.13321
#
# Poissons Ratio (x) = 0.13056 0.49625
# Poissons Ratio (y) = 0.11737 0.28093
# Poissons Ratio (z) = 0.31516 0.19845
#
# Static dielectric constant tensor:
#      x y z
#    x 3.194670 0.000000 -0.018590 
#    y 0.000000 3.445960 0.000000 
#    z -0.018590 0.000000 3.753960 
# 
# 
# High freq. dielectric constant tensor:
#      x y z
#    x 1.661530 0.000000 -0.005330 
#    y 0.000000 1.685950 0.000000 
#    z -0.005330 0.000000 1.713050 
# 
# From -- ./inp_files/66292.got.cif
#   From: 2010.06.25/outbox.cif.g09.slc.cpg/sg11_34_cif.got.tgz:66292.got - 2010.06.27 23:14:04.
