data_PCOD8068865
_publ_section_title
;
Structure prediction by ZEFSAII (Michael W. Deem and Ramdas Pophale) SiO2 
 PCOD8068865
Probable space group: P 21/M
;
_chemical_formula_sum "Si O2"
_cell_formula_units_Z 32
_cell_length_a 21.370429
_cell_length_b 8.526975
_cell_length_c 12.552546
_cell_angle_alpha 90.000000
_cell_angle_beta 53.662145
_cell_angle_gamma 90.000000
_cell_volume 1842.576496
_symmetry_space_group_name_H-M "P 21/M"
_symmetry_group_IT_number 11
_symmetry_cell_setting 'monoclinic'
loop_
_space_group_symop_operation_xyz
x,y,z
-x,1/2+y,-z
-x,-y,-z
x,1/2-y,z
loop_
_atom_site_type_symbol
_atom_site_label
_atom_site_fract_x
_atom_site_fract_y
_atom_site_fract_z
Si Si1 0.072460 0.067585 0.802458
Si Si2 0.664388 0.067402 0.939021
Si Si3 0.174639 0.568970 0.128799
Si Si4 0.824454 0.431855 0.480744
Si Si5 0.086020 0.433455 0.410924
Si Si6 0.090835 0.068235 0.024498
Si Si7 0.668867 0.933260 0.702539
Si Si8 0.497456 0.432363 0.118537
O O1 0.050573 0.250000 0.821783
O O2 0.139554 0.031141 0.651348
O O3 0.101299 0.018438 0.890940
O O4 0.995989 0.970605 0.847948
O O5 0.664956 0.250000 0.904012
O O6 0.734336 0.029175 0.948723
O O7 0.674651 0.964229 0.823100
O O8 0.582252 0.027550 0.084031
O O9 0.157458 0.750000 0.171936
O O10 0.122374 0.462653 0.258548
O O11 0.153169 0.530030 0.029044
O O12 0.839143 0.250000 0.444384
O O13 0.861662 0.479056 0.555348
O O14 0.732757 0.466970 0.575099
O O15 0.084564 0.250000 0.438259
O O16 0.000000 0.500000 0.500000
O O17 0.107460 0.250000 0.025860
O O18 0.685022 0.750000 0.665959
O O19 0.583136 0.989794 0.744290
O O20 0.485591 0.250000 0.118724
O O21 0.500000 0.500000 0.000000
#
# Coordination Sequence:
#
# PCOD8068865 Si02
#       8
#     4   4   4   4   4   4   4   4
#     4  10  21  38  57  75  96 126 168 213 255 297
#     4   9  17  30  47  69 101 135 167 203 242 292
#     4  11  21  33  51  75 104 135 167 202 246 295
#     4  12  23  35  51  73 102 133 167 206 253 300
#     4  12  24  37  51  69  99 134 170 204 245 298
#     4  10  21  37  56  76  99 128 165 210 255 297
#     4  10  18  29  47  71 100 133 168 205 245 294
#     4   8  15  27  44  67  95 130 167 201 241 287
#
# _framework density 17.366985
#
# number of rings (size 3 to 8) (size 9 to 14) (size 15 to 20)
#    0.000    1.750    1.250    4.500    0.000    2.500 
#    0.000    0.000    0.000    0.000    0.000    0.875 
#    0.000    0.000    0.000    0.000    0.000    0.000 
#
# Total GULP energy -396667.703667 kJ/mol
# GULP energy per Si atom -12395.865740 kJ/mol
# Density = 1.732746 g / cm^3
# Si number density = 17.366985 Si / 1000 Ang^3
#
#
#
# Elastic Constant Matrix: (Units=GPa)
#
#
# Indices 1 2 3 4 5 6 
#
# 1 108.9358 17.5672 45.2177 0.0000 -19.3929 0.0000
# 2 17.5672 43.4425 5.4077 0.0000 -2.6070 0.0000
# 3 45.2177 5.4077 61.5052 0.0000 -10.0592 0.0000
# 4 0.0000 0.0000 0.0000 24.0781 0.0000 0.0596
# 5 -19.3929 -2.6070 -10.0592 0.0000 28.2854 0.0000
# 6 0.0000 0.0000 0.0000 0.0596 0.0000 22.2989
#
#
#
# Elastic Compliance Matrix: (Units=1/GPa)
#
#
# Indices 1 2 3 4 5 6 
#
# 1 0.015047 -0.004500 -0.009606 0.000000 0.006486 0.000000
# 2 -0.004500 0.024680 0.001068 0.000000 -0.000431 0.000000
# 3 -0.009606 0.001068 0.023535 0.000000 0.001882 0.000000
# 4 0.000000 0.000000 0.000000 0.041532 0.000000 -0.000111
# 5 0.006486 -0.000431 0.001882 0.000000 0.040430 0.000000
# 6 0.000000 0.000000 0.000000 -0.000111 0.000000 0.044846
#
#
# Mechanical properties :
#
#
# Convention : Reuss Voigt Hill
#
# Bulk Modulus (GPa) = 26.89197 38.91875 32.90536
# Shear Modulus (GPa) = 21.87784 24.64518 23.26151
#
# Velocity S-wave (km/s) = 3.55313 3.77116 3.66377
# Velocity P-wave (km/s) = 5.68780 6.43587 6.07337
#
# Compressibility (1/GPa) = 0.03718583
#
# Stress axis : x y z
#
# Youngs Moduli (GPa) = 66.45669 40.51896 42.48975
#
# Poissons Ratio (x) = 0.18233 0.40817
# Poissons Ratio (y) = 0.29904 -0.04537
# Poissons Ratio (z) = 0.63840 -0.04327
#
# Static dielectric constant tensor:
#      x y z
#    x 3.501230 0.000000 -0.386090 
#    y 0.000000 3.143820 0.000000 
#    z -0.386090 0.000000 3.168570 
# 
# 
# High freq. dielectric constant tensor:
#      x y z
#    x 1.664040 0.000000 -0.029250 
#    y 0.000000 1.682500 0.000000 
#    z -0.029250 0.000000 1.646300 
# 
# From -- ./inp_files/42790.got.cif
#   From: 2010.06.25/outbox.cif.g09.slc.cpg/sg11_22_cif.got.tgz:42790.got - 2010.06.27 23:14:04.
