data_PCOD8068912
_publ_section_title
;
Structure prediction by ZEFSAII (Michael W. Deem and Ramdas Pophale) SiO2 
 PCOD8068912
Probable space group: P 21/M
;
_chemical_formula_sum "Si O2"
_cell_formula_units_Z 20
_cell_length_a 21.241090
_cell_length_b 8.586950
_cell_length_c 10.266368
_cell_angle_alpha 90.000000
_cell_angle_beta 144.760164
_cell_angle_gamma 90.000000
_cell_volume 1080.459791
_symmetry_space_group_name_H-M "P 21/M"
_symmetry_group_IT_number 11
_symmetry_cell_setting 'monoclinic'
loop_
_space_group_symop_operation_xyz
x,y,z
-x,1/2+y,-z
-x,-y,-z
x,1/2-y,z
loop_
_atom_site_type_symbol
_atom_site_label
_atom_site_fract_x
_atom_site_fract_y
_atom_site_fract_z
Si Si1 0.426323 0.933020 0.989844
Si Si2 0.226348 0.570499 0.269338
Si Si3 0.989829 0.565802 0.127432
Si Si4 0.536475 0.069511 0.425989
Si Si5 0.788488 0.566626 0.472441
O O1 0.418724 0.750000 0.957502
O O2 0.477137 0.972900 0.214110
O O3 0.500000 0.000000 0.000000
O O4 0.305653 0.004696 0.781030
O O5 0.205411 0.750000 0.269372
O O6 0.333633 0.547649 0.364570
O O7 0.239653 0.478820 0.427000
O O8 0.124564 0.503679 0.012066
O O9 0.984441 0.750000 0.120584
O O10 0.096877 0.506531 0.384991
O O11 0.000000 0.500000 0.000000
O O12 0.503619 0.250000 0.358770
O O13 0.500000 0.000000 0.500000
O O14 0.796787 0.750000 0.475598
#
# Coordination Sequence:
#
# PCOD8068912 Si02
#       5
#     4   4   4   4   4
#     4  12  23  37  58  84 115 149 189 235 286 337
#     4  10  19  33  53  78 111 147 187 231 278 333
#     4  10  18  29  48  76 110 144 182 228 280 332
#     4  11  24  40  59  83 115 153 193 234 281 338
#     4  11  20  32  53  81 113 146 184 230 283 334
#
# _framework density 18.510638
#
# number of rings (size 3 to 8) (size 9 to 14) (size 15 to 20)
#    0.000    1.200    2.000    9.000    0.000    2.400 
#    0.000    0.000    0.000    1.200    0.000    0.000 
#    0.000    0.000    0.000    0.000    0.000    0.000 
#
# Total GULP energy -248016.234702 kJ/mol
# GULP energy per Si atom -12400.811735 kJ/mol
# Density = 1.846851 g / cm^3
# Si number density = 18.510638 Si / 1000 Ang^3
#
#
#
# Elastic Constant Matrix: (Units=GPa)
#
#
# Indices 1 2 3 4 5 6 
#
# 1 77.8374 38.1028 53.6925 0.0000 12.8440 0.0000
# 2 38.1028 156.4291 49.0313 0.0000 20.6321 0.0000
# 3 53.6925 49.0313 115.1572 0.0000 29.4847 0.0000
# 4 0.0000 0.0000 0.0000 35.4068 0.0000 6.4212
# 5 12.8440 20.6321 29.4847 0.0000 36.2259 0.0000
# 6 0.0000 0.0000 0.0000 6.4212 0.0000 26.9605
#
#
#
# Elastic Compliance Matrix: (Units=1/GPa)
#
#
# Indices 1 2 3 4 5 6 
#
# 1 0.019618 -0.002281 -0.008499 0.000000 0.001261 0.000000
# 2 -0.002281 0.007768 -0.001665 0.000000 -0.002260 0.000000
# 3 -0.008499 -0.001665 0.015590 0.000000 -0.008727 0.000000
# 4 0.000000 0.000000 0.000000 0.029518 0.000000 -0.007030
# 5 0.001261 -0.002260 -0.008727 0.000000 0.035548 0.000000
# 6 0.000000 0.000000 0.000000 -0.007030 0.000000 0.038766
#
#
# Mechanical properties :
#
#
# Convention : Reuss Voigt Hill
#
# Bulk Modulus (GPa) = 55.29004 70.11965 62.70484
# Shear Modulus (GPa) = 28.13300 33.62512 30.87906
#
# Velocity S-wave (km/s) = 3.90273 4.26670 4.08877
# Velocity P-wave (km/s) = 7.08820 7.88898 7.49928
#
# Compressibility (1/GPa) = 0.01808644
#
# Stress axis : x y z
#
# Youngs Moduli (GPa) = 50.97283 128.72693 64.14434
#
# Poissons Ratio (x) = 0.29363 0.54514
# Poissons Ratio (y) = 0.11627 0.10682
# Poissons Ratio (z) = 0.43320 0.21438
#
# Static dielectric constant tensor:
#      x y z
#    x 3.911670 0.000000 0.241850 
#    y 0.000000 3.615340 0.000000 
#    z 0.241850 0.000000 4.046710 
# 
# 
# High freq. dielectric constant tensor:
#      x y z
#    x 1.686000 0.000000 0.043910 
#    y 0.000000 1.744060 0.000000 
#    z 0.043910 0.000000 1.717700 
# 
# From -- ./inp_files/25486.got.cif
#   From: 2010.06.25/outbox.cif.g09.slc.cpg/sg11_13_cif.got.tgz:25486.got - 2010.06.27 23:14:04.
