data_PCOD8068866
_publ_section_title
;
Structure prediction by ZEFSAII (Michael W. Deem and Ramdas Pophale) SiO2 
 PCOD8068866
Probable space group: P 21/M
;
_chemical_formula_sum "Si O2"
_cell_formula_units_Z 28
_cell_length_a 16.389102
_cell_length_b 8.889218
_cell_length_c 18.195995
_cell_angle_alpha 90.000000
_cell_angle_beta 37.510742
_cell_angle_gamma 90.000000
_cell_volume 1614.164321
_symmetry_space_group_name_H-M "P 21/M"
_symmetry_group_IT_number 11
_symmetry_cell_setting 'monoclinic'
loop_
_space_group_symop_operation_xyz
x,y,z
-x,1/2+y,-z
-x,-y,-z
x,1/2-y,z
loop_
_atom_site_type_symbol
_atom_site_label
_atom_site_fract_x
_atom_site_fract_y
_atom_site_fract_z
Si Si1 0.101091 0.083414 0.829571
Si Si2 0.787889 0.576687 0.665685
Si Si3 0.479576 0.927705 0.093495
Si Si4 0.714848 0.071484 0.015784
Si Si5 0.805708 0.083758 0.105911
Si Si6 0.012628 0.424564 0.221543
Si Si7 0.048426 0.921356 0.570019
O O1 0.146621 0.250000 0.773034
O O2 0.208409 0.021959 0.812554
O O3 0.095077 0.977387 0.762331
O O4 0.957390 0.088328 0.969953
O O5 0.741771 0.750000 0.696503
O O6 0.663812 0.470821 0.772015
O O7 0.847585 0.532172 0.543788
O O8 0.897750 0.547525 0.650099
O O9 0.491739 0.750000 0.076968
O O10 0.500000 0.000000 0.000000
O O11 0.591067 0.986452 0.069336
O O12 0.701676 0.250000 0.014521
O O13 0.715652 0.027091 0.101863
O O14 0.851577 0.019963 0.879343
O O15 0.760130 0.250000 0.162523
O O16 0.047832 0.250000 0.184168
O O17 0.944401 0.453246 0.348712
O O18 0.088475 0.750000 0.522716
#
# Coordination Sequence:
#
# PCOD8068866 Si02
#       7
#     4   4   4   4   4   4   4
#     4   9  16  25  40  64  94 126 161 200 241 287
#     4  10  20  35  54  74  97 126 162 202 244 286
#     4  12  24  37  53  73 100 131 164 200 239 285
#     4  10  20  33  49  71  99 130 166 203 242 290
#     4   8  15  27  42  62  91 126 160 196 239 288
#     4  10  18  29  47  71 101 133 165 201 243 290
#     4   9  19  34  51  72  97 127 162 200 242 287
#
# _framework density 17.346439
#
# number of rings (size 3 to 8) (size 9 to 14) (size 15 to 20)
#    0.000    2.286    0.000    4.714    0.000    6.857 
#    0.000    0.000    0.000    0.000    0.000    1.000 
#    0.000    0.000    0.000    0.000    0.000    0.000 
#
# Total GULP energy -347186.912487 kJ/mol
# GULP energy per Si atom -12399.532589 kJ/mol
# Density = 1.730696 g / cm^3
# Si number density = 17.346439 Si / 1000 Ang^3
#
#
#
# Elastic Constant Matrix: (Units=GPa)
#
#
# Indices 1 2 3 4 5 6 
#
# 1 131.0610 62.7900 45.1564 0.0000 14.7700 0.0000
# 2 62.7900 116.9075 39.4020 0.0000 6.8372 0.0000
# 3 45.1564 39.4020 55.8698 0.0000 7.3319 0.0000
# 4 0.0000 0.0000 0.0000 26.0724 0.0000 2.4716
# 5 14.7700 6.8372 7.3319 0.0000 20.0983 0.0000
# 6 0.0000 0.0000 0.0000 2.4716 0.0000 31.4118
#
#
#
# Elastic Compliance Matrix: (Units=1/GPa)
#
#
# Indices 1 2 3 4 5 6 
#
# 1 0.012462 -0.004226 -0.006384 0.000000 -0.005391 0.000000
# 2 -0.004226 0.012672 -0.005633 0.000000 0.000850 0.000000
# 3 -0.006384 -0.005633 0.027480 0.000000 -0.003417 0.000000
# 4 0.000000 0.000000 0.000000 0.038643 0.000000 -0.003041
# 5 -0.005391 0.000850 -0.003417 0.000000 0.054675 0.000000
# 6 0.000000 0.000000 0.000000 -0.003041 0.000000 0.032074
#
#
# Mechanical properties :
#
#
# Convention : Reuss Voigt Hill
#
# Bulk Modulus (GPa) = 49.68339 66.50391 58.09365
# Shear Modulus (GPa) = 23.01997 25.94915 24.48456
#
# Velocity S-wave (km/s) = 3.64685 3.87193 3.76107
# Velocity P-wave (km/s) = 6.81445 7.64271 7.24043
#
# Compressibility (1/GPa) = 0.02012745
#
# Stress axis : x y z
#
# Youngs Moduli (GPa) = 80.24367 78.91151 36.39038
#
# Poissons Ratio (x) = 0.33350 0.23233
# Poissons Ratio (y) = 0.33913 0.20498
# Poissons Ratio (z) = 0.51230 0.44450
#
# Static dielectric constant tensor:
#      x y z
#    x 3.488330 0.000000 0.182680 
#    y 0.000000 3.450820 0.000000 
#    z 0.182680 0.000000 2.861560 
# 
# 
# High freq. dielectric constant tensor:
#      x y z
#    x 1.676250 0.000000 0.019880 
#    y 0.000000 1.685430 0.000000 
#    z 0.019880 0.000000 1.622970 
# 
# From -- ./inp_files/60095.got.cif
#   From: 2010.06.25/outbox.cif.g09.slc.cpg/sg11_31_cif.got.tgz:60095.got - 2010.06.27 23:14:04.
