data_PCOD8068217
_publ_section_title
;
Structure prediction by ZEFSAII (Michael W. Deem and Ramdas Pophale) SiO2 
 PCOD8068217
Probable space group: P 21/M
;
_chemical_formula_sum "Si O2"
_cell_formula_units_Z 32
_cell_length_a 16.963674
_cell_length_b 9.560907
_cell_length_c 19.039724
_cell_angle_alpha 90.000000
_cell_angle_beta 44.437660
_cell_angle_gamma 90.000000
_cell_volume 2162.021895
_symmetry_space_group_name_H-M "P 21/M"
_symmetry_group_IT_number 11
_symmetry_cell_setting 'monoclinic'
loop_
_space_group_symop_operation_xyz
x,y,z
-x,1/2+y,-z
-x,-y,-z
x,1/2-y,z
loop_
_atom_site_type_symbol
_atom_site_label
_atom_site_fract_x
_atom_site_fract_y
_atom_site_fract_z
Si Si1 0.974941 0.407802 0.349730
Si Si2 0.231065 0.586952 0.418355
Si Si3 0.329128 0.412821 0.729645
Si Si4 0.101188 0.412462 0.403399
Si Si5 0.665730 0.591330 0.428236
Si Si6 0.917559 0.915074 0.101465
Si Si7 0.927271 0.906480 0.256161
Si Si8 0.431486 0.911479 0.387303
O O1 0.959156 0.250000 0.333856
O O2 0.862399 0.452822 0.463840
O O3 0.996514 0.498537 0.266556
O O4 0.085831 0.421664 0.328881
O O5 0.220109 0.750000 0.404117
O O6 0.214131 0.489013 0.360060
O O7 0.355191 0.549636 0.368771
O O8 0.306868 0.250000 0.729807
O O9 0.357521 0.473698 0.634289
O O10 0.210144 0.468601 0.835530
O O11 0.435448 0.440617 0.713835
O O12 0.098043 0.250000 0.429725
O O13 0.000000 0.500000 0.500000
O O14 0.621446 0.750000 0.463462
O O15 0.797662 0.584006 0.360150
O O16 0.600140 0.498178 0.524819
O O17 0.932296 0.750000 0.078451
O O18 0.945502 0.954403 0.164291
O O19 0.000000 0.000000 0.000000
O O20 0.973056 0.750000 0.236253
O O21 0.412252 0.750000 0.418923
#
# Coordination Sequence:
#
# PCOD8068217 Si02
#       8
#     4   4   4   4   4   4   4   4
#     4   9  16  26  38  56  80 104 139 177 200 233
#     4   9  17  26  36  55  81 110 144 173 200 236
#     4   8  16  29  43  58  80 108 137 169 206 246
#     4   9  17  27  38  53  76 108 143 175 205 237
#     4   9  16  26  38  56  81 109 139 169 201 238
#     4   9  18  33  48  63  82 106 137 171 210 253
#     4   9  17  27  41  60  82 108 137 168 206 248
#     4  10  17  26  40  57  81 112 141 171 200 234
#
# _framework density 14.800960999999999
#
# number of rings (size 3 to 8) (size 9 to 14) (size 15 to 20)
#    0.000    3.000    1.250    3.000    0.000    3.500 
#    0.000    2.500    0.000    0.000    0.000    0.000 
#    0.000    1.000    0.000    2.250    0.000    3.500 
#
# Total GULP energy -396490.811388 kJ/mol
# GULP energy per Si atom -12390.337856 kJ/mol
# Density = 1.476727 g / cm^3
# Si number density = 14.800961 Si / 1000 Ang^3
#
#
#
# Elastic Constant Matrix: (Units=GPa)
#
#
# Indices 1 2 3 4 5 6 
#
# 1 120.3517 51.4134 43.7641 0.0000 0.7869 0.0000
# 2 51.4134 61.3567 34.1720 0.0000 3.5779 0.0000
# 3 43.7641 34.1720 60.8676 0.0000 -1.9802 0.0000
# 4 0.0000 0.0000 0.0000 19.9757 0.0000 5.7600
# 5 0.7869 3.5779 -1.9802 0.0000 13.2258 0.0000
# 6 0.0000 0.0000 0.0000 5.7600 0.0000 22.7807
#
#
#
# Elastic Compliance Matrix: (Units=1/GPa)
#
#
# Indices 1 2 3 4 5 6 
#
# 1 0.013937 -0.008966 -0.004959 0.000000 0.000854 0.000000
# 2 -0.008966 0.030459 -0.010957 0.000000 -0.009347 0.000000
# 3 -0.004959 -0.010957 0.026381 0.000000 0.007209 0.000000
# 4 0.000000 0.000000 0.000000 0.053998 0.000000 -0.013653
# 5 0.000854 -0.009347 0.007209 0.000000 0.079167 0.000000
# 6 0.000000 0.000000 0.000000 -0.013653 0.000000 0.047349
#
#
# Mechanical properties :
#
#
# Convention : Reuss Voigt Hill
#
# Bulk Modulus (GPa) = 47.59360 55.69720 51.64540
# Shear Modulus (GPa) = 16.23055 18.74485 17.48770
#
# Velocity S-wave (km/s) = 3.31507 3.56260 3.44106
# Velocity P-wave (km/s) = 6.84679 7.39157 7.12439
#
# Compressibility (1/GPa) = 0.02101123
#
# Stress axis : x y z
#
# Youngs Moduli (GPa) = 71.75102 32.83093 37.90592
#
# Poissons Ratio (x) = 0.29437 0.18799
# Poissons Ratio (y) = 0.64334 0.41535
# Poissons Ratio (z) = 0.35583 0.35974
#
# Static dielectric constant tensor:
#      x y z
#    x 3.234350 0.000000 0.036620 
#    y 0.000000 2.875990 0.000000 
#    z 0.036620 0.000000 2.447820 
# 
# 
# High freq. dielectric constant tensor:
#      x y z
#    x 1.573590 0.000000 0.006250 
#    y 0.000000 1.563470 0.000000 
#    z 0.006250 0.000000 1.505740 
# 
# From -- ./inp_files/56002.got.cif
#   From: 2010.06.25/outbox.cif.g09.slc.cpg/sg11_29_cif.got.tgz:56002.got - 2010.06.27 23:14:04.
