data_PCOD8068579
_publ_section_title
;
Structure prediction by ZEFSAII (Michael W. Deem and Ramdas Pophale) SiO2 
 PCOD8068579
Probable space group: P 21/M
;
_chemical_formula_sum "Si O2"
_cell_formula_units_Z 32
_cell_length_a 29.785331
_cell_length_b 8.736361
_cell_length_c 23.789259
_cell_angle_alpha 90.000000
_cell_angle_beta 163.597156
_cell_angle_gamma 90.000000
_cell_volume 1748.082022
_symmetry_space_group_name_H-M "P 21/M"
_symmetry_group_IT_number 11
_symmetry_cell_setting 'monoclinic'
loop_
_space_group_symop_operation_xyz
x,y,z
-x,1/2+y,-z
-x,-y,-z
x,1/2-y,z
loop_
_atom_site_type_symbol
_atom_site_label
_atom_site_fract_x
_atom_site_fract_y
_atom_site_fract_z
Si Si1 0.437916 0.429684 0.105400
Si Si2 0.334835 0.071100 0.102958
Si Si3 0.650193 0.071324 0.535307
Si Si4 0.218201 0.568830 0.509531
Si Si5 0.095102 0.430596 0.665381
Si Si6 0.978151 0.070057 0.303331
Si Si7 0.886065 0.929959 0.729579
Si Si8 0.115937 0.927083 0.095431
O O1 0.459391 0.250000 0.132844
O O2 0.415837 0.487302 0.142570
O O3 0.600498 0.496550 0.274682
O O4 0.281466 0.476297 0.881795
O O5 0.290766 0.250000 0.046863
O O6 0.461772 0.034102 0.304756
O O7 0.171451 0.978899 0.915507
O O8 0.678378 0.250000 0.554066
O O9 0.705655 0.035270 0.666892
O O10 0.747322 0.971746 0.606983
O O11 0.209721 0.750000 0.508434
O O12 0.128469 0.527031 0.344295
O O13 0.138710 0.484865 0.466548
O O14 0.073505 0.250000 0.639899
O O15 0.028543 0.493325 0.643841
O O16 0.000000 0.500000 0.500000
O O17 0.980530 0.250000 0.313951
O O18 0.875844 0.750000 0.703045
O O19 0.060328 0.977023 0.965879
O O20 0.082024 0.750000 0.058189
O O21 0.000000 0.000000 0.000000
#
# Coordination Sequence:
#
# PCOD8068579 Si02
#       8
#     4   4   4   4   4   4   4   4
#     4   8  16  31  54  80 104 132 173 215 250 294
#     4   9  16  31  52  75 100 134 178 222 262 312
#     4   9  15  27  47  69  96 134 179 219 260 315
#     4  11  20  35  55  76 103 142 180 217 260 311
#     4  10  20  39  63  87 111 140 173 208 248 301
#     4  11  23  37  53  80 111 140 171 214 264 312
#     4  10  18  27  42  71 106 136 169 217 271 315
#     4   8  15  25  39  63  97 133 169 214 265 313
#
# _framework density 18.305779000000001
#
# number of rings (size 3 to 8) (size 9 to 14) (size 15 to 20)
#    0.000    2.500    1.250    3.000    0.000    1.000 
#    0.000    2.500    0.000    0.750    0.000    0.000 
#    0.000    0.000    0.000    0.000    0.000    0.000 
#
# Total GULP energy -396458.261220 kJ/mol
# GULP energy per Si atom -12389.320663 kJ/mol
# Density = 1.826411 g / cm^3
# Si number density = 18.305779 Si / 1000 Ang^3
#
#
#
# Elastic Constant Matrix: (Units=GPa)
#
#
# Indices 1 2 3 4 5 6 
#
# 1 70.4284 28.6280 56.7631 0.0000 3.0885 0.0000
# 2 28.6280 60.1911 43.7133 0.0000 -4.7736 0.0000
# 3 56.7631 43.7133 145.2859 0.0000 -10.5133 0.0000
# 4 0.0000 0.0000 0.0000 23.8491 0.0000 -3.4459
# 5 3.0885 -4.7736 -10.5133 0.0000 30.1517 0.0000
# 6 0.0000 0.0000 0.0000 -3.4459 0.0000 23.9019
#
#
#
# Elastic Compliance Matrix: (Units=1/GPa)
#
#
# Indices 1 2 3 4 5 6 
#
# 1 0.023014 -0.005855 -0.007661 0.000000 -0.005956 0.000000
# 2 -0.005855 0.022788 -0.004375 0.000000 0.002682 0.000000
# 3 -0.007661 -0.004375 0.011489 0.000000 0.004098 0.000000
# 4 0.000000 0.000000 0.000000 0.042822 0.000000 0.006174
# 5 -0.005956 0.002682 0.004098 0.000000 0.035629 0.000000
# 6 0.000000 0.000000 0.000000 0.006174 0.000000 0.042728
#
#
# Mechanical properties :
#
#
# Convention : Reuss Voigt Hill
#
# Bulk Modulus (GPa) = 46.48931 59.34601 52.91766
# Shear Modulus (GPa) = 22.58124 25.36729 23.97426
#
# Velocity S-wave (km/s) = 3.51601 3.72661 3.62284
# Velocity P-wave (km/s) = 6.47567 7.14188 6.81692
#
# Compressibility (1/GPa) = 0.02151032
#
# Stress axis : x y z
#
# Youngs Moduli (GPa) = 43.45095 43.88207 87.03892
#
# Poissons Ratio (x) = 0.25691 0.66682
# Poissons Ratio (y) = 0.25439 0.38080
# Poissons Ratio (z) = 0.33289 0.19199
#
# Static dielectric constant tensor:
#      x y z
#    x 3.114130 0.000000 -0.151060 
#    y 0.000000 3.253990 0.000000 
#    z -0.151060 0.000000 3.933950 
# 
# 
# High freq. dielectric constant tensor:
#      x y z
#    x 1.668570 0.000000 -0.013010 
#    y 0.000000 1.703310 0.000000 
#    z -0.013010 0.000000 1.722530 
# 
# From -- ./inp_files/67243.got.cif
#   From: 2010.06.25/outbox.cif.g09.slc.cpg/sg11_34_cif.got.tgz:67243.got - 2010.06.27 23:14:04.
