data_PCOD8068878
_publ_section_title
;
Structure prediction by ZEFSAII (Michael W. Deem and Ramdas Pophale) SiO2 
 PCOD8068878
Probable space group: P 21/M
;
_chemical_formula_sum "Si O2"
_cell_formula_units_Z 32
_cell_length_a 17.125206
_cell_length_b 9.030936
_cell_length_c 11.813673
_cell_angle_alpha 90.000000
_cell_angle_beta 94.018373
_cell_angle_gamma 90.000000
_cell_volume 1822.571368
_symmetry_space_group_name_H-M "P 21/M"
_symmetry_group_IT_number 11
_symmetry_cell_setting 'monoclinic'
loop_
_space_group_symop_operation_xyz
x,y,z
-x,1/2+y,-z
-x,-y,-z
x,1/2-y,z
loop_
_atom_site_type_symbol
_atom_site_label
_atom_site_fract_x
_atom_site_fract_y
_atom_site_fract_z
Si Si1 0.231799 0.422576 0.127517
Si Si2 0.462901 0.424666 0.388409
Si Si3 0.250650 0.925874 0.602392
Si Si4 0.597372 0.075660 0.247055
Si Si5 0.079469 0.081186 0.982167
Si Si6 0.182144 0.078291 0.790821
Si Si7 0.715569 0.922763 0.621688
Si Si8 0.687259 0.075660 0.049717
O O1 0.240756 0.250000 0.102798
O O2 0.234851 0.457389 0.260688
O O3 0.150017 0.482891 0.067870
O O4 0.306497 0.498394 0.072188
O O5 0.500000 0.500000 0.500000
O O6 0.470371 0.250000 0.404816
O O7 0.513144 0.479554 0.283967
O O8 0.373530 0.473559 0.363761
O O9 0.239648 0.750000 0.605710
O O10 0.332713 0.983576 0.664508
O O11 0.179896 0.005779 0.665109
O O12 0.246205 0.980284 0.473004
O O13 0.603094 0.250000 0.256495
O O14 0.610009 0.029658 0.116025
O O15 0.066455 0.250000 0.015021
O O16 0.099872 0.065808 0.850161
O O17 0.000000 0.000000 0.000000
O O18 0.208695 0.250000 0.787534
O O19 0.241218 0.978815 0.867682
O O20 0.719162 0.750000 0.589642
O O21 0.692086 0.250000 0.032092
#
# Coordination Sequence:
#
# PCOD8068878 Si02
#       8
#     4   4   4   4   4   4   4   4
#     4   9  19  35  49  69 100 131 162 198 241 294
#     4  10  18  30  46  67  94 127 165 208 248 287
#     4  10  18  29  47  71  99 129 163 207 247 280
#     4   8  15  27  43  65  94 121 153 204 251 279
#     4   9  18  32  53  77 101 125 153 195 240 285
#     4   9  17  30  48  73 102 128 157 196 239 287
#     4  10  20  32  49  69  95 134 171 200 244 297
#     4   9  16  28  47  69  92 125 163 203 247 285
#
# _framework density 17.55761
#
# number of rings (size 3 to 8) (size 9 to 14) (size 15 to 20)
#    0.000    2.750    1.250    2.625    0.000    3.000 
#    0.000    1.250    0.000    0.750    0.000    0.000 
#    0.000    0.000    0.000    0.000    0.000    0.000 
#
# Total GULP energy -396499.323193 kJ/mol
# GULP energy per Si atom -12390.603850 kJ/mol
# Density = 1.751765 g / cm^3
# Si number density = 17.557610 Si / 1000 Ang^3
#
#
#
# Elastic Constant Matrix: (Units=GPa)
#
#
# Indices 1 2 3 4 5 6 
#
# 1 80.8114 30.1362 50.9706 0.0000 -17.8891 0.0000
# 2 30.1362 48.3858 43.1927 0.0000 -9.2990 0.0000
# 3 50.9706 43.1927 113.2710 0.0000 -19.0576 0.0000
# 4 0.0000 0.0000 0.0000 30.6186 0.0000 -6.9545
# 5 -17.8891 -9.2990 -19.0576 0.0000 24.8414 0.0000
# 6 0.0000 0.0000 0.0000 -6.9545 0.0000 19.6941
#
#
#
# Elastic Compliance Matrix: (Units=1/GPa)
#
#
# Indices 1 2 3 4 5 6 
#
# 1 0.019676 -0.006094 -0.005202 0.000000 0.007898 0.000000
# 2 -0.006094 0.033409 -0.009911 0.000000 0.000514 0.000000
# 3 -0.005202 -0.009911 0.015723 0.000000 0.004607 0.000000
# 4 0.000000 0.000000 0.000000 0.035508 0.000000 0.012539
# 5 0.007898 0.000514 0.004607 0.000000 0.049670 0.000000
# 6 0.000000 0.000000 0.000000 0.012539 0.000000 0.055204
#
#
# Mechanical properties :
#
#
# Convention : Reuss Voigt Hill
#
# Bulk Modulus (GPa) = 37.88486 54.56304 46.22395
# Shear Modulus (GPa) = 19.20122 22.90875 21.05498
#
# Velocity S-wave (km/s) = 3.31057 3.61609 3.46670
# Velocity P-wave (km/s) = 6.01976 6.96985 6.51215
#
# Compressibility (1/GPa) = 0.02639577
#
# Stress axis : x y z
#
# Youngs Moduli (GPa) = 50.82305 29.93250 63.60016
#
# Poissons Ratio (x) = 0.18240 0.33082
# Poissons Ratio (y) = 0.30971 0.63032
# Poissons Ratio (z) = 0.26436 0.29665
#
# Static dielectric constant tensor:
#      x y z
#    x 3.040820 0.000000 0.140350 
#    y 0.000000 3.233820 0.000000 
#    z 0.140350 0.000000 2.045720 
# 
# 
# High freq. dielectric constant tensor:
#      x y z
#    x 1.643020 0.000000 -0.033400 
#    y 0.000000 1.672390 0.000000 
#    z -0.033400 0.000000 1.679160 
# 
# From -- ./inp_files/40692.got.cif
#   From: 2010.06.25/outbox.cif.g09.slc.cpg/sg11_21_cif.got.tgz:40692.got - 2010.06.27 23:14:04.
