data_PCOD8068172
_publ_section_title
;
Structure prediction by ZEFSAII (Michael W. Deem and Ramdas Pophale) SiO2 
 PCOD8068172
Probable space group: P 21/M
;
_chemical_formula_sum "Si O2"
_cell_formula_units_Z 32
_cell_length_a 15.637395
_cell_length_b 19.538831
_cell_length_c 9.466825
_cell_angle_alpha 90.000000
_cell_angle_beta 39.472511
_cell_angle_gamma 90.000000
_cell_volume 1838.759668
_symmetry_space_group_name_H-M "P 21/M"
_symmetry_group_IT_number 11
_symmetry_cell_setting 'monoclinic'
loop_
_space_group_symop_operation_xyz
x,y,z
-x,1/2+y,-z
-x,-y,-z
x,1/2-y,z
loop_
_atom_site_type_symbol
_atom_site_label
_atom_site_fract_x
_atom_site_fract_y
_atom_site_fract_z
Si Si1 0.529490 0.826675 0.730813
Si Si2 0.945171 0.467439 0.211685
Si Si3 0.690105 0.956823 0.486950
Si Si4 0.812924 0.174571 0.342225
Si Si5 0.776342 0.507298 0.065676
Si Si6 0.438694 0.673120 0.153631
Si Si7 0.467039 0.063882 0.762622
Si Si8 0.355704 0.627487 0.696964
O O1 0.589604 0.750000 0.656805
O O2 0.657535 0.877702 0.561737
O O3 0.426335 0.830789 0.731492
O O4 0.444256 0.842202 0.980440
O O5 0.810342 0.509281 0.428293
O O6 0.919597 0.386799 0.215133
O O7 0.000000 0.500000 0.000000
O O8 0.066373 0.476821 0.170016
O O9 0.733570 0.961158 0.269834
O O10 0.555023 0.998501 0.696428
O O11 0.882213 0.250000 0.263601
O O12 0.714230 0.163099 0.600606
O O13 0.727230 0.174375 0.306112
O O14 0.687523 0.542036 0.057199
O O15 0.749104 0.426262 0.102450
O O16 0.488359 0.750000 0.124735
O O17 0.535183 0.621571 0.114712
O O18 0.525567 0.089317 0.538550
#
# Coordination Sequence:
#
# PCOD8068172 Si02
#       8
#     4   4   4   4   4   4   4   4
#     4  11  21  32  50  79 109 134 167 218 267 310
#     4  10  18  32  52  77 109 138 164 214 261 301
#     4  10  17  32  52  75 105 132 167 207 263 300
#     4  10  18  33  54  76 101 137 178 212 254 310
#     4  10  17  30  53  78 106 132 166 216 256 301
#     4   9  20  34  50  76 107 135 170 215 262 304
#     4  10  16  32  54  76  99 131 169 214 253 300
#     4  10  16  31  53  77 103 130 167 218 264 296
#
# _framework density 17.403034999999999
#
# number of rings (size 3 to 8) (size 9 to 14) (size 15 to 20)
#    0.000    2.000    7.500    1.125    0.000    1.000 
#    0.000    3.125    0.000    3.000    0.000    3.500 
#    0.000    0.000    0.000    0.000    0.000    0.000 
#
# Total GULP energy -396576.307968 kJ/mol
# GULP energy per Si atom -12393.009624 kJ/mol
# Density = 1.736343 g / cm^3
# Si number density = 17.403035 Si / 1000 Ang^3
#
#
#
# Elastic Constant Matrix: (Units=GPa)
#
#
# Indices 1 2 3 4 5 6 
#
# 1 82.1147 35.9889 37.8919 0.0000 -24.7502 0.0000
# 2 35.9889 127.2168 38.4352 0.0000 -11.9115 0.0000
# 3 37.8919 38.4352 41.7876 0.0000 -7.6905 0.0000
# 4 0.0000 0.0000 0.0000 23.3820 0.0000 -4.4124
# 5 -24.7502 -11.9115 -7.6905 0.0000 33.1959 0.0000
# 6 0.0000 0.0000 0.0000 -4.4124 0.0000 26.0055
#
#
#
# Elastic Compliance Matrix: (Units=1/GPa)
#
#
# Indices 1 2 3 4 5 6 
#
# 1 0.026466 0.000456 -0.021680 0.000000 0.014873 0.000000
# 2 0.000456 0.010981 -0.010159 0.000000 0.001927 0.000000
# 3 -0.021680 -0.010159 0.051483 0.000000 -0.007883 0.000000
# 4 0.000000 0.000000 0.000000 0.044183 0.000000 0.007496
# 5 0.014873 0.001927 -0.007883 0.000000 0.040079 0.000000
# 6 0.000000 0.000000 0.000000 0.007496 0.000000 0.039725
#
#
# Mechanical properties :
#
#
# Convention : Reuss Voigt Hill
#
# Bulk Modulus (GPa) = 38.22229 52.86121 45.54175
# Shear Modulus (GPa) = 17.58058 25.77023 21.67541
#
# Velocity S-wave (km/s) = 3.18182 3.85228 3.53299
# Velocity P-wave (km/s) = 5.95897 7.08713 6.54739
#
# Compressibility (1/GPa) = 0.02616274
#
# Stress axis : x y z
#
# Youngs Moduli (GPa) = 37.78475 91.06354 19.42390
#
# Poissons Ratio (x) = -0.04150 0.42112
# Poissons Ratio (y) = -0.01722 0.19733
# Poissons Ratio (z) = 0.81919 0.92512
#
# Static dielectric constant tensor:
#      x y z
#    x 3.524610 0.000000 -0.412460 
#    y 0.000000 3.358920 0.000000 
#    z -0.412460 0.000000 3.273210 
# 
# 
# High freq. dielectric constant tensor:
#      x y z
#    x 1.655500 0.000000 -0.004160 
#    y 0.000000 1.681990 0.000000 
#    z -0.004160 0.000000 1.635500 
# 
# From -- ./inp_files/23067.got.cif
#   From: 2010.06.25/outbox.cif.g09.slc.cpg/sg11_12_cif.got.tgz:23067.got - 2010.06.27 23:14:04.
