data_PCOD8068332
_publ_section_title
;
Structure prediction by ZEFSAII (Michael W. Deem and Ramdas Pophale) SiO2 
 PCOD8068332
Probable space group: P 21/M
;
_chemical_formula_sum "Si O2"
_cell_formula_units_Z 28
_cell_length_a 10.316011
_cell_length_b 13.433065
_cell_length_c 12.010959
_cell_angle_alpha 90.000000
_cell_angle_beta 72.951272
_cell_angle_gamma 90.000000
_cell_volume 1591.284450
_symmetry_space_group_name_H-M "P 21/M"
_symmetry_group_IT_number 11
_symmetry_cell_setting 'monoclinic'
loop_
_space_group_symop_operation_xyz
x,y,z
-x,1/2+y,-z
-x,-y,-z
x,1/2-y,z
loop_
_atom_site_type_symbol
_atom_site_label
_atom_site_fract_x
_atom_site_fract_y
_atom_site_fract_z
Si Si1 0.787745 0.995958 0.523824
Si Si2 0.402160 0.639525 0.314239
Si Si3 0.090057 0.635218 0.680867
Si Si4 0.204535 0.364244 0.274695
Si Si5 0.438289 0.360551 0.502212
Si Si6 0.648289 0.364018 0.255232
Si Si7 0.528782 0.520125 0.865445
O O1 0.838302 0.908772 0.593653
O O2 0.674110 0.945476 0.475192
O O3 0.732156 0.083036 0.615730
O O4 0.897346 0.050702 0.418672
O O5 0.360511 0.750000 0.290107
O O6 0.509904 0.638387 0.385929
O O7 0.465546 0.588253 0.190528
O O8 0.119794 0.750000 0.631256
O O9 0.195381 0.609705 0.753543
O O10 0.934252 0.628511 0.763566
O O11 0.249340 0.250000 0.279300
O O12 0.329951 0.420561 0.186247
O O13 0.382061 0.250000 0.487638
O O14 0.557171 0.389234 0.386001
O O15 0.635639 0.250000 0.224794
O O16 0.597040 0.423453 0.160397
O O17 0.500000 0.500000 0.000000
#
# Coordination Sequence:
#
# PCOD8068332 Si02
#       7
#     4   4   4   4   4   4   4
#     4  11  17  28  49  77 111 141 169 205 257 320
#     4  10  19  29  46  76 109 132 164 216 268 311
#     4  10  20  32  51  80 111 143 173 207 260 319
#     4  10  21  36  52  75 108 141 176 217 262 314
#     4  10  17  28  51  81 107 135 170 215 263 311
#     4  10  18  33  57  81 105 137 176 216 258 314
#     4  11  23  37  55  76  98 137 186 224 266 300
#
# _framework density 17.595848
#
# number of rings (size 3 to 8) (size 9 to 14) (size 15 to 20)
#    0.000    1.714    4.286    3.000    0.000    1.143 
#    0.000    0.714    0.000    0.857    0.000    0.000 
#    0.000    0.000    0.000    0.000    0.000    0.000 
#
# Total GULP energy -346971.344519 kJ/mol
# GULP energy per Si atom -12391.833733 kJ/mol
# Density = 1.755580 g / cm^3
# Si number density = 17.595848 Si / 1000 Ang^3
#
#
#
# Elastic Constant Matrix: (Units=GPa)
#
#
# Indices 1 2 3 4 5 6 
#
# 1 100.5150 37.2438 40.2920 0.0000 -0.2645 0.0000
# 2 37.2438 111.9384 44.4409 0.0000 2.7168 0.0000
# 3 40.2920 44.4409 94.5942 0.0000 15.7546 0.0000
# 4 0.0000 0.0000 0.0000 12.9115 0.0000 0.6905
# 5 -0.2645 2.7168 15.7546 0.0000 11.4612 0.0000
# 6 0.0000 0.0000 0.0000 0.6905 0.0000 22.1621
#
#
#
# Elastic Compliance Matrix: (Units=1/GPa)
#
#
# Indices 1 2 3 4 5 6 
#
# 1 0.013256 -0.002188 -0.006168 0.000000 0.009303 0.000000
# 2 -0.002188 0.011651 -0.005283 0.000000 0.004450 0.000000
# 3 -0.006168 -0.005283 0.020097 0.000000 -0.026515 0.000000
# 4 0.000000 0.000000 0.000000 0.077579 0.000000 -0.002417
# 5 0.009303 0.004450 -0.026515 0.000000 0.122858 0.000000
# 6 0.000000 0.000000 0.000000 -0.002417 0.000000 0.045197
#
#
# Mechanical properties :
#
#
# Convention : Reuss Voigt Hill
#
# Bulk Modulus (GPa) = 56.41250 61.22232 58.81741
# Shear Modulus (GPa) = 15.44042 21.64502 18.54272
#
# Velocity S-wave (km/s) = 2.96548 3.51111 3.24977
# Velocity P-wave (km/s) = 6.62232 7.16285 6.89788
#
# Compressibility (1/GPa) = 0.01772657
#
# Stress axis : x y z
#
# Youngs Moduli (GPa) = 75.43546 85.83174 49.75904
#
# Poissons Ratio (x) = 0.18776 0.30693
# Poissons Ratio (y) = 0.16502 0.26287
# Poissons Ratio (z) = 0.46530 0.45344
#
# Static dielectric constant tensor:
#      x y z
#    x 3.377570 0.000000 0.098470 
#    y 0.000000 3.722730 0.000000 
#    z 0.098470 0.000000 2.820200 
# 
# 
# High freq. dielectric constant tensor:
#      x y z
#    x 1.681270 0.000000 0.011600 
#    y 0.000000 1.702530 0.000000 
#    z 0.011600 0.000000 1.626950 
# 
# From -- ./inp_files/35248.got.cif
#   From: 2010.06.25/outbox.cif.g09.slc.cpg/sg11_18_cif.got.tgz:35248.got - 2010.06.27 23:14:04.
