data_PCOD8068629
_publ_section_title
;
Structure prediction by ZEFSAII (Michael W. Deem and Ramdas Pophale) SiO2 
 PCOD8068629
Probable space group: P 21/M
;
_chemical_formula_sum "Si O2"
_cell_formula_units_Z 28
_cell_length_a 16.350851
_cell_length_b 8.911455
_cell_length_c 17.672379
_cell_angle_alpha 90.000000
_cell_angle_beta 138.614479
_cell_angle_gamma 90.000000
_cell_volume 1702.416397
_symmetry_space_group_name_H-M "P 21/M"
_symmetry_group_IT_number 11
_symmetry_cell_setting 'monoclinic'
loop_
_space_group_symop_operation_xyz
x,y,z
-x,1/2+y,-z
-x,-y,-z
x,1/2-y,z
loop_
_atom_site_type_symbol
_atom_site_label
_atom_site_fract_x
_atom_site_fract_y
_atom_site_fract_z
Si Si1 0.157581 0.578398 0.162975
Si Si2 0.938548 0.927204 0.213513
Si Si3 0.801002 0.571893 0.572848
Si Si4 0.369823 0.574693 0.424750
Si Si5 0.872082 0.916319 0.327520
Si Si6 0.082687 0.922700 0.948586
Si Si7 0.835917 0.083117 0.445956
O O1 0.112782 0.750000 0.145028
O O2 0.288520 0.548618 0.292942
O O3 0.057516 0.467800 0.129265
O O4 0.170475 0.546452 0.081939
O O5 0.962715 0.750000 0.230384
O O6 0.855866 0.972927 0.229396
O O7 0.868078 0.980378 0.088652
O O8 0.071098 0.007329 0.306496
O O9 0.802926 0.750000 0.579200
O O10 0.689820 0.506251 0.544765
O O11 0.777981 0.522916 0.469999
O O12 0.500000 0.500000 0.500000
O O13 0.384991 0.750000 0.453383
O O14 0.816557 0.750000 0.298595
O O15 0.017454 0.913795 0.444212
O O16 0.801649 0.022353 0.338309
O O17 0.084099 0.750000 0.925578
O O18 0.780679 0.250000 0.415936
#
# Coordination Sequence:
#
# PCOD8068629 Si02
#       7
#     4   4   4   4   4   4   4
#     4   9  19  33  47  64  90 120 150 190 233 271
#     4  10  18  28  42  63  92 123 151 186 228 268
#     4  11  20  30  45  64  86 117 156 190 226 274
#     4  11  22  36  51  67  91 120 155 196 237 273
#     4   8  15  25  37  56  84 117 150 180 217 265
#     4  10  18  28  46  69  90 118 155 188 224 275
#     4   9  16  26  40  58  83 115 148 184 225 265
#
# _framework density 16.447209999999998
#
# number of rings (size 3 to 8) (size 9 to 14) (size 15 to 20)
#    0.000    2.286    1.429    3.857    0.000    5.143 
#    0.000    0.000    0.000    0.000    0.000    0.000 
#    0.000    1.143    0.000    3.429    0.000    5.571 
#
# Total GULP energy -347110.854186 kJ/mol
# GULP energy per Si atom -12396.816221 kJ/mol
# Density = 1.640978 g / cm^3
# Si number density = 16.447210 Si / 1000 Ang^3
#
#
#
# Elastic Constant Matrix: (Units=GPa)
#
#
# Indices 1 2 3 4 5 6 
#
# 1 103.5553 55.1993 48.0434 0.0000 -32.8488 0.0000
# 2 55.1993 110.9340 35.2569 0.0000 -15.5505 0.0000
# 3 48.0434 35.2569 61.3846 0.0000 -18.5242 0.0000
# 4 0.0000 0.0000 0.0000 19.3056 0.0000 -6.8732
# 5 -32.8488 -15.5505 -18.5242 0.0000 30.6462 0.0000
# 6 0.0000 0.0000 0.0000 -6.8732 0.0000 30.2232
#
#
#
# Elastic Compliance Matrix: (Units=1/GPa)
#
#
# Indices 1 2 3 4 5 6 
#
# 1 0.021697 -0.005806 -0.009195 0.000000 0.014752 0.000000
# 2 -0.005806 0.012699 -0.003282 0.000000 -0.001763 0.000000
# 3 -0.009195 -0.003282 0.026780 0.000000 0.004667 0.000000
# 4 0.000000 0.000000 0.000000 0.056362 0.000000 0.012818
# 5 0.014752 -0.001763 0.004667 0.000000 0.050369 0.000000
# 6 0.000000 0.000000 0.000000 0.012818 0.000000 0.036002
#
#
# Mechanical properties :
#
#
# Convention : Reuss Voigt Hill
#
# Bulk Modulus (GPa) = 40.63171 61.43035 51.03103
# Shear Modulus (GPa) = 20.10626 25.19327 22.64977
#
# Velocity S-wave (km/s) = 3.50018 3.91802 3.71498
# Velocity P-wave (km/s) = 6.41038 7.60914 7.03534
#
# Compressibility (1/GPa) = 0.02461132
#
# Stress axis : x y z
#
# Youngs Moduli (GPa) = 46.08949 78.74504 37.34075
#
# Poissons Ratio (x) = 0.45718 0.34334
# Poissons Ratio (y) = 0.26759 0.12255
# Poissons Ratio (z) = 0.42378 0.25844
#
# Static dielectric constant tensor:
#      x y z
#    x 3.195510 0.000000 -0.552080 
#    y 0.000000 3.274610 0.000000 
#    z -0.552080 0.000000 2.853410 
# 
# 
# High freq. dielectric constant tensor:
#      x y z
#    x 1.622820 0.000000 -0.050040 
#    y 0.000000 1.648920 0.000000 
#    z -0.050040 0.000000 1.582880 
# 
# From -- ./inp_files/60157.got.cif
#   From: 2010.06.25/outbox.cif.g09.slc.cpg/sg11_31_cif.got.tgz:60157.got - 2010.06.27 23:14:04.
