data_PCOD8068314
_publ_section_title
;
Structure prediction by ZEFSAII (Michael W. Deem and Ramdas Pophale) SiO2 
 PCOD8068314
Probable space group: P 21/M
;
_chemical_formula_sum "Si O2"
_cell_formula_units_Z 32
_cell_length_a 24.121911
_cell_length_b 9.045580
_cell_length_c 12.673891
_cell_angle_alpha 90.000000
_cell_angle_beta 46.113799
_cell_angle_gamma 90.000000
_cell_volume 1993.074439
_symmetry_space_group_name_H-M "P 21/M"
_symmetry_group_IT_number 11
_symmetry_cell_setting 'monoclinic'
loop_
_space_group_symop_operation_xyz
x,y,z
-x,1/2+y,-z
-x,-y,-z
x,1/2-y,z
loop_
_atom_site_type_symbol
_atom_site_label
_atom_site_fract_x
_atom_site_fract_y
_atom_site_fract_z
Si Si1 0.814078 0.075400 0.880784
Si Si2 0.072877 0.575269 0.688047
Si Si3 0.504271 0.576288 0.381832
Si Si4 0.337237 0.922908 0.604940
Si Si5 0.180082 0.574764 0.729704
Si Si6 0.075298 0.924081 0.445384
Si Si7 0.347774 0.574883 0.831124
Si Si8 0.085576 0.574361 0.056863
O O1 0.812815 0.250000 0.894564
O O2 0.851032 0.025395 0.720944
O O3 0.865361 0.012558 0.908995
O O4 0.725863 0.019696 0.004258
O O5 0.060289 0.750000 0.712875
O O6 0.144480 0.521255 0.665560
O O7 0.090731 0.526151 0.544814
O O8 0.997748 0.497139 0.831204
O O9 0.500000 0.500000 0.500000
O O10 0.518419 0.750000 0.376308
O O11 0.420146 0.545120 0.439843
O O12 0.575085 0.503444 0.223724
O O13 0.322599 0.750000 0.633057
O O14 0.266625 0.991829 0.630381
O O15 0.335190 0.981916 0.727891
O O16 0.183457 0.750000 0.726582
O O17 0.126947 0.520096 0.895930
O O18 0.062306 0.750000 0.453116
O O19 0.000000 0.000000 0.500000
O O20 0.360006 0.750000 0.821463
O O21 0.076648 0.750000 0.073312
#
# Coordination Sequence:
#
# PCOD8068314 Si02
#       8
#     4   4   4   4   4   4   4   4
#     4   9  16  27  45  63  79 111 151 176 203 256
#     4  10  20  30  42  63  89 110 138 187 226 243
#     4   9  16  25  40  62  87 113 138 167 205 253
#     4   8  13  23  40  59  80 107 137 163 197 248
#     4   9  16  27  43  63  85 113 147 175 205 252
#     4  10  19  31  45  62  84 111 145 183 222 256
#     4   9  15  26  43  61  81 107 142 178 208 245
#     4  10  17  28  47  62  80 116 152 173 202 259
#
# _framework density 16.055596999999999
#
# number of rings (size 3 to 8) (size 9 to 14) (size 15 to 20)
#    0.000    2.750    2.500    1.500    0.000    0.000 
#    0.000    1.250    0.000    3.750    0.000    0.875 
#    0.000    0.000    0.000    0.000    0.000    0.000 
#
# Total GULP energy -396517.103468 kJ/mol
# GULP energy per Si atom -12391.159483 kJ/mol
# Density = 1.601905 g / cm^3
# Si number density = 16.055597 Si / 1000 Ang^3
#
#
#
# Elastic Constant Matrix: (Units=GPa)
#
#
# Indices 1 2 3 4 5 6 
#
# 1 129.0817 26.0270 87.1646 0.0000 -17.6575 0.0000
# 2 26.0270 25.7245 22.1022 0.0000 -7.5042 0.0000
# 3 87.1646 22.1022 111.5161 0.0000 -20.1858 0.0000
# 4 0.0000 0.0000 0.0000 17.5694 0.0000 -7.2262
# 5 -17.6575 -7.5042 -20.1858 0.0000 34.8333 0.0000
# 6 0.0000 0.0000 0.0000 -7.2262 0.0000 16.8209
#
#
#
# Elastic Compliance Matrix: (Units=1/GPa)
#
#
# Indices 1 2 3 4 5 6 
#
# 1 0.017435 -0.007107 -0.012173 0.000000 0.000253 0.000000
# 2 -0.007107 0.050629 -0.003527 0.000000 0.005260 0.000000
# 3 -0.012173 -0.003527 0.020028 0.000000 0.004675 0.000000
# 4 0.000000 0.000000 0.000000 0.069132 0.000000 0.029699
# 5 0.000253 0.005260 0.004675 0.000000 0.032679 0.000000
# 6 0.000000 0.000000 0.000000 0.029699 0.000000 0.072209
#
#
# Mechanical properties :
#
#
# Convention : Reuss Voigt Hill
#
# Bulk Modulus (GPa) = 23.54245 59.65664 41.59955
# Shear Modulus (GPa) = 15.53348 22.57995 19.05672
#
# Velocity S-wave (km/s) = 3.11381 3.75422 3.44891
# Velocity P-wave (km/s) = 5.25573 7.48526 6.46729
#
# Compressibility (1/GPa) = 0.04247645
#
# Stress axis : x y z
#
# Youngs Moduli (GPa) = 57.35661 19.75151 49.93075
#
# Poissons Ratio (x) = 0.14037 0.60782
# Poissons Ratio (y) = 0.40763 0.17612
# Poissons Ratio (z) = 0.69822 0.06967
#
# Static dielectric constant tensor:
#      x y z
#    x 3.400670 0.000000 -0.306930 
#    y 0.000000 2.909710 0.000000 
#    z -0.306930 0.000000 3.321000 
# 
# 
# High freq. dielectric constant tensor:
#      x y z
#    x 1.607760 0.000000 -0.025430 
#    y 0.000000 1.583770 0.000000 
#    z -0.025430 0.000000 1.605580 
# 
# From -- ./inp_files/40655.got.cif
#   From: 2010.06.25/outbox.cif.g09.slc.cpg/sg11_21_cif.got.tgz:40655.got - 2010.06.27 23:14:04.
