data_PCOD8068857
_publ_section_title
;
Structure prediction by ZEFSAII (Michael W. Deem and Ramdas Pophale) SiO2 
 PCOD8068857
Probable space group: P 21/M
;
_chemical_formula_sum "Si O2"
_cell_formula_units_Z 28
_cell_length_a 15.349107
_cell_length_b 14.594247
_cell_length_c 8.104949
_cell_angle_alpha 90.000000
_cell_angle_beta 121.371675
_cell_angle_gamma 90.000000
_cell_volume 1550.156141
_symmetry_space_group_name_H-M "P 21/M"
_symmetry_group_IT_number 11
_symmetry_cell_setting 'monoclinic'
loop_
_space_group_symop_operation_xyz
x,y,z
-x,1/2+y,-z
-x,-y,-z
x,1/2-y,z
loop_
_atom_site_type_symbol
_atom_site_label
_atom_site_fract_x
_atom_site_fract_y
_atom_site_fract_z
Si Si1 0.022582 0.856512 0.052020
Si Si2 0.751175 0.015988 0.177477
Si Si3 0.155822 0.015227 0.061725
Si Si4 0.423799 0.041450 0.793587
Si Si5 0.403455 0.646640 0.163345
Si Si6 0.165197 0.648927 0.486033
Si Si7 0.329800 0.571557 0.424129
O O1 0.021932 0.750000 0.992193
O O2 0.094417 0.918146 0.004249
O O3 0.062384 0.865502 0.278819
O O4 0.909172 0.899156 0.934824
O O5 0.830590 0.071181 0.370310
O O6 0.686483 0.943512 0.226262
O O7 0.813441 0.963542 0.097395
O O8 0.673083 0.087181 0.020402
O O9 0.256432 0.007037 0.273881
O O10 0.478297 0.132241 0.775648
O O11 0.411640 0.972985 0.627323
O O12 0.500000 0.000000 0.000000
O O13 0.372654 0.750000 0.099654
O O14 0.392468 0.623870 0.345379
O O15 0.164939 0.750000 0.566584
O O16 0.261816 0.643775 0.458356
#
# Coordination Sequence:
#
# PCOD8068857 Si02
#       7
#     4   4   4   4   4   4   4
#     4   9  18  32  49  70  95 122 156 196 235 280
#     4   9  18  30  47  68  94 125 154 188 237 287
#     4   9  18  32  50  70  94 126 159 194 237 283
#     4   9  18  32  48  67  93 124 153 190 237 284
#     4  10  18  29  47  70  94 120 158 201 235 272
#     4   9  16  27  45  70  95 117 149 194 239 280
#     4   9  17  30  48  67  92 125 158 191 234 284
#
# _framework density 18.062695999999999
#
# number of rings (size 3 to 8) (size 9 to 14) (size 15 to 20)
#    0.000    2.857    0.000    1.286    0.000    4.571 
#    0.000    2.143    0.000    0.000    0.000    0.000 
#    0.000    0.000    0.000    0.000    0.000    0.000 
#
# Total GULP energy -347012.958560 kJ/mol
# GULP energy per Si atom -12393.319949 kJ/mol
# Density = 1.802158 g / cm^3
# Si number density = 18.062696 Si / 1000 Ang^3
#
#
#
# Elastic Constant Matrix: (Units=GPa)
#
#
# Indices 1 2 3 4 5 6 
#
# 1 69.3776 20.0762 16.4908 0.0000 -7.2026 0.0000
# 2 20.0762 54.4248 12.1191 0.0000 5.6883 0.0000
# 3 16.4908 12.1191 64.2498 0.0000 -1.9316 0.0000
# 4 0.0000 0.0000 0.0000 16.6672 0.0000 0.9914
# 5 -7.2026 5.6883 -1.9316 0.0000 24.3251 0.0000
# 6 0.0000 0.0000 0.0000 0.9914 0.0000 17.7210
#
#
#
# Elastic Compliance Matrix: (Units=1/GPa)
#
#
# Indices 1 2 3 4 5 6 
#
# 1 0.017721 -0.006524 -0.003122 0.000000 0.006525 0.000000
# 2 -0.006524 0.022153 -0.002725 0.000000 -0.007328 0.000000
# 3 -0.003122 -0.002725 0.016911 0.000000 0.001056 0.000000
# 4 0.000000 0.000000 0.000000 0.060198 0.000000 -0.003368
# 5 0.006525 -0.007328 0.001056 0.000000 0.044839 0.000000
# 6 0.000000 0.000000 0.000000 -0.003368 0.000000 0.056619
#
#
# Mechanical properties :
#
#
# Convention : Reuss Voigt Hill
#
# Bulk Modulus (GPa) = 31.20581 31.71385 31.45983
# Shear Modulus (GPa) = 19.69563 21.03374 20.36469
#
# Velocity S-wave (km/s) = 3.30571 3.41616 3.36139
# Velocity P-wave (km/s) = 5.64661 5.75812 5.70264
#
# Compressibility (1/GPa) = 0.03204531
#
# Stress axis : x y z
#
# Youngs Moduli (GPa) = 56.42993 45.14046 59.13262
#
# Poissons Ratio (x) = 0.29449 0.18460
# Poissons Ratio (y) = 0.36814 0.16111
# Poissons Ratio (z) = 0.17616 0.12299
#
# Static dielectric constant tensor:
#      x y z
#    x 3.557390 0.000000 -0.070070 
#    y 0.000000 3.068210 0.000000 
#    z -0.070070 0.000000 3.387630 
# 
# 
# High freq. dielectric constant tensor:
#      x y z
#    x 1.698120 0.000000 -0.006830 
#    y 0.000000 1.661120 0.000000 
#    z -0.006830 0.000000 1.701050 
# 
# From -- ./inp_files/21742.got.cif
#   From: 2010.06.25/outbox.cif.g09.slc.cpg/sg11_11_cif.got.tgz:21742.got - 2010.06.27 23:14:04.
