data_PCOD8068958
_publ_section_title
;
Structure prediction by ZEFSAII (Michael W. Deem and Ramdas Pophale) SiO2 
 PCOD8068958
Probable space group: P 21/M
;
_chemical_formula_sum "Si O2"
_cell_formula_units_Z 32
_cell_length_a 28.640747
_cell_length_b 8.786323
_cell_length_c 12.252660
_cell_angle_alpha 90.000000
_cell_angle_beta 144.420269
_cell_angle_gamma 90.000000
_cell_volume 1793.997970
_symmetry_space_group_name_H-M "P 21/M"
_symmetry_group_IT_number 11
_symmetry_cell_setting 'monoclinic'
loop_
_space_group_symop_operation_xyz
x,y,z
-x,1/2+y,-z
-x,-y,-z
x,1/2-y,z
loop_
_atom_site_type_symbol
_atom_site_label
_atom_site_fract_x
_atom_site_fract_y
_atom_site_fract_z
Si Si1 0.702431 0.570678 0.644495
Si Si2 0.822118 0.072320 0.036765
Si Si3 0.773688 0.569729 0.160429
Si Si4 0.554271 0.073448 0.453366
Si Si5 0.605517 0.073280 0.796504
Si Si6 0.046494 0.927176 0.885122
Si Si7 0.167268 0.070411 0.276677
Si Si8 0.866525 0.569370 0.548278
O O1 0.688614 0.750000 0.623328
O O2 0.616367 0.487726 0.480623
O O3 0.750679 0.519350 0.627637
O O4 0.751824 0.519700 0.844103
O O5 0.799026 0.250000 0.991256
O O6 0.906966 0.040752 0.139637
O O7 0.826882 0.011571 0.168724
O O8 0.781475 0.750000 0.161897
O O9 0.809663 0.510700 0.343429
O O10 0.681336 0.522059 0.980554
O O11 0.536919 0.250000 0.401351
O O12 0.591856 0.040788 0.643173
O O13 0.471317 0.982890 0.281311
O O14 0.620586 0.250000 0.848345
O O15 0.045120 0.750000 0.909823
O O16 0.956862 0.993410 0.702934
O O17 0.089559 0.006196 0.068398
O O18 0.159054 0.250000 0.256927
O O19 0.168817 0.009402 0.403681
O O20 0.868540 0.750000 0.551565
#
# Coordination Sequence:
#
# PCOD8068958 Si02
#       8
#     4   4   4   4   4   4   4   4
#     4  10  18  29  50  77 103 131 163 205 251 298
#     4  10  19  31  47  71 102 134 166 207 255 298
#     4  11  21  33  51  71 100 139 173 203 244 303
#     4  10  19  31  51  77 105 133 161 199 247 296
#     4  10  20  33  50  74 105 134 162 202 246 293
#     4   9  18  33  53  74  99 130 168 214 260 299
#     4   9  18  33  53  76 101 129 168 214 256 294
#     4   9  19  35  52  72  99 135 173 210 253 299
#
# _framework density 17.837256
#
# number of rings (size 3 to 8) (size 9 to 14) (size 15 to 20)
#    0.000    2.250    1.250    2.250    0.000    2.500 
#    0.000    2.500    0.000    0.750    0.000    0.000 
#    0.000    0.000    0.000    0.000    0.000    0.000 
#
# Total GULP energy -396824.443670 kJ/mol
# GULP energy per Si atom -12400.763865 kJ/mol
# Density = 1.779666 g / cm^3
# Si number density = 17.837256 Si / 1000 Ang^3
#
#
#
# Elastic Constant Matrix: (Units=GPa)
#
#
# Indices 1 2 3 4 5 6 
#
# 1 132.5836 23.7852 64.4891 0.0000 4.4932 0.0000
# 2 23.7852 29.0023 14.1863 0.0000 1.6754 0.0000
# 3 64.4891 14.1863 74.8539 0.0000 -4.2728 0.0000
# 4 0.0000 0.0000 0.0000 22.1350 0.0000 4.7429
# 5 4.4932 1.6754 -4.2728 0.0000 28.9589 0.0000
# 6 0.0000 0.0000 0.0000 4.7429 0.0000 22.4951
#
#
#
# Elastic Compliance Matrix: (Units=1/GPa)
#
#
# Indices 1 2 3 4 5 6 
#
# 1 0.014249 -0.005927 -0.011355 0.000000 -0.003543 0.000000
# 2 -0.005927 0.040781 -0.002728 0.000000 -0.001842 0.000000
# 3 -0.011355 -0.002728 0.023970 0.000000 0.005456 0.000000
# 4 0.000000 0.000000 0.000000 0.047315 0.000000 -0.009976
# 5 -0.003543 -0.001842 0.005456 0.000000 0.035993 0.000000
# 6 0.000000 0.000000 0.000000 -0.009976 0.000000 0.046557
#
#
# Mechanical properties :
#
#
# Convention : Reuss Voigt Hill
#
# Bulk Modulus (GPa) = 25.65317 49.04012 37.34664
# Shear Modulus (GPa) = 19.09280 23.64974 21.37127
#
# Velocity S-wave (km/s) = 3.27523 3.64519 3.46515
# Velocity P-wave (km/s) = 5.35872 6.72825 6.08215
#
# Compressibility (1/GPa) = 0.03898154
#
# Stress axis : x y z
#
# Youngs Moduli (GPa) = 70.18162 24.52093 41.71829
#
# Poissons Ratio (x) = 0.14533 0.47370
# Poissons Ratio (y) = 0.41595 0.11380
# Poissons Ratio (z) = 0.79690 0.06689
#
# Static dielectric constant tensor:
#      x y z
#    x 3.608410 0.000000 0.104440 
#    y 0.000000 3.227070 0.000000 
#    z 0.104440 0.000000 3.183640 
# 
# 
# High freq. dielectric constant tensor:
#      x y z
#    x 1.698060 0.000000 0.018590 
#    y 0.000000 1.687650 0.000000 
#    z 0.018590 0.000000 1.663460 
# 
# From -- ./inp_files/42792.got.cif
#   From: 2010.06.25/outbox.cif.g09.slc.cpg/sg11_22_cif.got.tgz:42792.got - 2010.06.27 23:14:04.
