data_PCOD8068945
_publ_section_title
;
Structure prediction by ZEFSAII (Michael W. Deem and Ramdas Pophale) SiO2 
 PCOD8068945
Probable space group: P 21/M
;
_chemical_formula_sum "Si O2"
_cell_formula_units_Z 32
_cell_length_a 18.522713
_cell_length_b 21.332763
_cell_length_c 13.381536
_cell_angle_alpha 90.000000
_cell_angle_beta 18.933642
_cell_angle_gamma 90.000000
_cell_volume 1715.679105
_symmetry_space_group_name_H-M "P 21/M"
_symmetry_group_IT_number 11
_symmetry_cell_setting 'monoclinic'
loop_
_space_group_symop_operation_xyz
x,y,z
-x,1/2+y,-z
-x,-y,-z
x,1/2-y,z
loop_
_atom_site_type_symbol
_atom_site_label
_atom_site_fract_x
_atom_site_fract_y
_atom_site_fract_z
Si Si1 0.598604 0.822373 0.099012
Si Si2 0.241968 0.677848 0.266995
Si Si3 0.079595 0.412767 0.838165
Si Si4 0.242368 0.015438 0.813795
Si Si5 0.896176 0.319348 0.225205
Si Si6 0.734879 0.676685 0.563786
Si Si7 0.106954 0.124523 0.128179
Si Si8 0.928739 0.822291 0.506562
O O1 0.665236 0.750000 0.027085
O O2 0.341122 0.831311 0.411926
O O3 0.666578 0.857912 0.111654
O O4 0.734836 0.852890 0.828981
O O5 0.189757 0.750000 0.366805
O O6 0.107578 0.631597 0.517409
O O7 0.163279 0.666323 0.254678
O O8 0.502756 0.664565 0.925340
O O9 0.229681 0.450450 0.721966
O O10 0.244924 0.369958 0.555883
O O11 0.919753 0.455479 0.979452
O O12 0.912035 0.366641 0.113485
O O13 0.500000 0.000000 0.500000
O O14 0.136066 0.055197 0.044149
O O15 0.915461 0.250000 0.155078
O O16 0.081225 0.328972 0.067676
O O17 0.755034 0.750000 0.503710
O O18 0.921931 0.654552 0.400371
O O19 0.865610 0.750000 0.580245
#
# Coordination Sequence:
#
# PCOD8068945 Si02
#       8
#     4   4   4   4   4   4   4   4
#     4   9  16  27  47  77 107 131 161 206 260 315
#     4   9  17  30  50  79 109 134 164 205 258 316
#     4  10  22  37  53  75 100 133 179 215 250 311
#     4  10  22  40  57  71  96 138 182 225 263 291
#     4  10  18  29  49  77 105 129 159 210 268 313
#     4  10  19  33  54  79 110 141 163 198 257 317
#     4  10  18  31  53  76 100 134 176 216 255 302
#     4   8  15  27  45  72 104 134 160 189 238 305
#
# _framework density 18.651506999999999
#
# number of rings (size 3 to 8) (size 9 to 14) (size 15 to 20)
#    0.000    2.500    0.000    3.750    0.000    3.000 
#    0.000    0.625    0.000    9.750    0.000    0.000 
#    0.000    0.000    0.000    0.000    0.000    0.000 
#
# Total GULP energy -396506.745554 kJ/mol
# GULP energy per Si atom -12390.835799 kJ/mol
# Density = 1.860906 g / cm^3
# Si number density = 18.651507 Si / 1000 Ang^3
#
#
#
# Elastic Constant Matrix: (Units=GPa)
#
#
# Indices 1 2 3 4 5 6 
#
# 1 94.6845 38.1967 24.5077 0.0000 -3.3169 0.0000
# 2 38.1967 80.3028 35.9445 0.0000 2.0326 0.0000
# 3 24.5077 35.9445 59.8813 0.0000 -0.2221 0.0000
# 4 0.0000 0.0000 0.0000 25.2695 0.0000 4.6224
# 5 -3.3169 2.0326 -0.2221 0.0000 27.4165 0.0000
# 6 0.0000 0.0000 0.0000 4.6224 0.0000 26.8316
#
#
#
# Elastic Compliance Matrix: (Units=1/GPa)
#
#
# Indices 1 2 3 4 5 6 
#
# 1 0.013396 -0.005431 -0.002215 0.000000 0.002005 0.000000
# 2 -0.005431 0.019280 -0.009358 0.000000 -0.002162 0.000000
# 3 -0.002215 -0.009358 0.023226 0.000000 0.000614 0.000000
# 4 0.000000 0.000000 0.000000 0.040861 0.000000 -0.007039
# 5 0.002005 -0.002162 0.000614 0.000000 0.036882 0.000000
# 6 0.000000 0.000000 0.000000 -0.007039 0.000000 0.038482
#
#
# Mechanical properties :
#
#
# Convention : Reuss Voigt Hill
#
# Bulk Modulus (GPa) = 45.67679 48.01849 46.84764
# Shear Modulus (GPa) = 23.42649 24.98482 24.20566
#
# Velocity S-wave (km/s) = 3.54787 3.66397 3.60639
# Velocity P-wave (km/s) = 6.42852 6.61064 6.52022
#
# Compressibility (1/GPa) = 0.02189296
#
# Stress axis : x y z
#
# Youngs Moduli (GPa) = 74.64932 51.86768 43.05548
#
# Poissons Ratio (x) = 0.28170 0.09537
# Poissons Ratio (y) = 0.40544 0.40292
# Poissons Ratio (z) = 0.16535 0.48539
#
# Static dielectric constant tensor:
#      x y z
#    x 3.668530 0.000000 0.015950 
#    y 0.000000 3.238310 0.000000 
#    z 0.015950 0.000000 3.210030 
# 
# 
# High freq. dielectric constant tensor:
#      x y z
#    x 1.741540 0.000000 -0.005340 
#    y 0.000000 1.691440 0.000000 
#    z -0.005340 0.000000 1.706530 
# 
# From -- ./inp_files/42029.got.cif
#   From: 2010.06.25/outbox.cif.g09.slc.cpg/sg11_22_cif.got.tgz:42029.got - 2010.06.27 23:14:04.
