data_PCOD8068828
_publ_section_title
;
Structure prediction by ZEFSAII (Michael W. Deem and Ramdas Pophale) SiO2 
 PCOD8068828
Probable space group: P 21/M
;
_chemical_formula_sum "Si O2"
_cell_formula_units_Z 32
_cell_length_a 23.744419
_cell_length_b 8.714643
_cell_length_c 17.501308
_cell_angle_alpha 90.000000
_cell_angle_beta 31.125595
_cell_angle_gamma 90.000000
_cell_volume 1871.981065
_symmetry_space_group_name_H-M "P 21/M"
_symmetry_group_IT_number 11
_symmetry_cell_setting 'monoclinic'
loop_
_space_group_symop_operation_xyz
x,y,z
-x,1/2+y,-z
-x,-y,-z
x,1/2-y,z
loop_
_atom_site_type_symbol
_atom_site_label
_atom_site_fract_x
_atom_site_fract_y
_atom_site_fract_z
Si Si1 0.883533 0.567743 0.112998
Si Si2 0.054051 0.570899 0.105371
Si Si3 0.860130 0.932245 0.551884
Si Si4 0.824487 0.069054 0.329808
Si Si5 0.095958 0.571319 0.230052
Si Si6 0.700436 0.570630 0.605457
Si Si7 0.522764 0.428717 0.055472
Si Si8 0.747492 0.569132 0.835654
O O1 0.883275 0.750000 0.112265
O O2 0.800734 0.504888 0.273589
O O3 0.860357 0.502899 0.054724
O O4 0.000000 0.500000 0.000000
O O5 0.038360 0.750000 0.106483
O O6 0.103607 0.541666 0.130995
O O7 0.935816 0.493436 0.237490
O O8 0.859444 0.750000 0.550613
O O9 0.779146 0.993560 0.580631
O O10 0.818263 0.994076 0.682034
O O11 0.981640 0.993999 0.395377
O O12 0.832401 0.250000 0.311672
O O13 0.724444 0.021850 0.500111
O O14 0.108200 0.750000 0.235431
O O15 0.194137 0.478809 0.154074
O O16 0.721976 0.750000 0.566125
O O17 0.576831 0.536962 0.772189
O O18 0.539427 0.250000 0.023234
O O19 0.500000 0.500000 0.000000
O O20 0.628067 0.498254 0.973270
O O21 0.735299 0.750000 0.844959
#
# Coordination Sequence:
#
# PCOD8068828 Si02
#       8
#     4   4   4   4   4   4   4   4
#     4  10  18  29  46  69 101 137 170 205 250 305
#     4  10  18  31  50  71 102 140 172 208 254 305
#     4   9  17  33  52  72 100 136 172 209 257 305
#     4  11  20  30  47  75 105 132 170 211 253 308
#     4  10  20  34  52  73 102 139 176 211 254 307
#     4  10  19  35  54  73 100 136 173 211 260 307
#     4  11  22  37  57  76 100 133 174 218 263 310
#     4  11  22  36  53  74 103 136 176 220 259 302
#
# _framework density 17.094189
#
# number of rings (size 3 to 8) (size 9 to 14) (size 15 to 20)
#    0.000    1.750    2.500    5.250    0.000    2.000 
#    0.000    0.625    0.000    0.000    0.000    0.875 
#    0.000    0.000    0.000    0.000    0.000    0.000 
#
# Total GULP energy -396819.234415 kJ/mol
# GULP energy per Si atom -12400.601075 kJ/mol
# Density = 1.705528 g / cm^3
# Si number density = 17.094189 Si / 1000 Ang^3
#
#
#
# Elastic Constant Matrix: (Units=GPa)
#
#
# Indices 1 2 3 4 5 6 
#
# 1 95.9388 46.2945 72.3820 0.0000 6.5124 0.0000
# 2 46.2945 105.4063 57.2955 0.0000 10.7924 0.0000
# 3 72.3820 57.2955 96.0725 0.0000 11.1994 0.0000
# 4 0.0000 0.0000 0.0000 26.5342 0.0000 4.1037
# 5 6.5124 10.7924 11.1994 0.0000 34.2351 0.0000
# 6 0.0000 0.0000 0.0000 4.1037 0.0000 27.3859
#
#
#
# Elastic Compliance Matrix: (Units=1/GPa)
#
#
# Indices 1 2 3 4 5 6 
#
# 1 0.024312 -0.001158 -0.017809 0.000000 0.001566 0.000000
# 2 -0.001158 0.014195 -0.007379 0.000000 -0.001841 0.000000
# 3 -0.017809 -0.007379 0.028653 0.000000 -0.003660 0.000000
# 4 0.000000 0.000000 0.000000 0.038581 0.000000 -0.005781
# 5 0.001566 -0.001841 -0.003660 0.000000 0.030689 0.000000
# 6 0.000000 0.000000 0.000000 -0.005781 0.000000 0.037381
#
#
# Mechanical properties :
#
#
# Convention : Reuss Voigt Hill
#
# Bulk Modulus (GPa) = 69.11145 72.15126 70.63136
# Shear Modulus (GPa) = 21.61460 25.72742 23.67101
#
# Velocity S-wave (km/s) = 3.55976 3.88369 3.72525
# Velocity P-wave (km/s) = 7.57716 7.90003 7.74028
#
# Compressibility (1/GPa) = 0.01446938
#
# Stress axis : x y z
#
# Youngs Moduli (GPa) = 41.13254 70.44799 34.90019
#
# Poissons Ratio (x) = 0.08156 0.62153
# Poissons Ratio (y) = 0.04762 0.25752
# Poissons Ratio (z) = 0.73252 0.51981
#
# Static dielectric constant tensor:
#      x y z
#    x 3.240480 0.000000 0.378130 
#    y 0.000000 3.169650 0.000000 
#    z 0.378130 0.000000 3.368750 
# 
# 
# High freq. dielectric constant tensor:
#      x y z
#    x 1.643140 0.000000 0.026880 
#    y 0.000000 1.661870 0.000000 
#    z 0.026880 0.000000 1.648100 
# 
# From -- ./inp_files/61739.got.cif
#   From: 2010.06.25/outbox.cif.g09.slc.cpg/sg11_31_cif.got.tgz:61739.got - 2010.06.27 23:14:04.
