data_PCOD8068121
_publ_section_title
;
Structure prediction by ZEFSAII (Michael W. Deem and Ramdas Pophale) SiO2 
 PCOD8068121
Probable space group: P 21/M
;
_chemical_formula_sum "Si O2"
_cell_formula_units_Z 32
_cell_length_a 11.262458
_cell_length_b 19.404050
_cell_length_c 10.439188
_cell_angle_alpha 90.000000
_cell_angle_beta 125.635480
_cell_angle_gamma 90.000000
_cell_volume 1854.146272
_symmetry_space_group_name_H-M "P 21/M"
_symmetry_group_IT_number 11
_symmetry_cell_setting 'monoclinic'
loop_
_space_group_symop_operation_xyz
x,y,z
-x,1/2+y,-z
-x,-y,-z
x,1/2-y,z
loop_
_atom_site_type_symbol
_atom_site_label
_atom_site_fract_x
_atom_site_fract_y
_atom_site_fract_z
Si Si1 0.520047 0.396020 0.584852
Si Si2 0.720949 0.935227 0.892336
Si Si3 0.413200 0.967456 0.634662
Si Si4 0.981850 0.406694 0.240300
Si Si5 0.191109 0.586389 0.116352
Si Si6 0.749232 0.670966 0.685887
Si Si7 0.012861 0.066923 0.785161
Si Si8 0.897516 0.064863 0.455462
O O1 0.589837 0.422617 0.496085
O O2 0.427249 0.453603 0.601333
O O3 0.658630 0.372490 0.757774
O O4 0.406418 0.334745 0.485544
O O5 0.548702 0.944234 0.810899
O O6 0.747684 0.871206 0.816361
O O7 0.779771 0.004355 0.860801
O O8 0.812422 0.924131 0.081336
O O9 0.269070 0.957247 0.627178
O O10 0.029898 0.486317 0.254667
O O11 0.906064 0.390822 0.330312
O O12 0.122851 0.358208 0.323299
O O13 0.866249 0.387233 0.056485
O O14 0.068848 0.601606 0.146316
O O15 0.779324 0.750000 0.737823
O O16 0.961837 0.104596 0.621530
O O17 0.000000 0.000000 0.500000
#
# Coordination Sequence:
#
# PCOD8068121 Si02
#       8
#     4   4   4   4   4   4   4   4
#     4   9  17  28  49  72  95 125 168 200 253 291
#     4   9  17  29  51  76  99 123 168 203 253 296
#     4   9  16  28  47  74  99 127 154 209 255 294
#     4  10  19  31  46  75 106 132 161 196 248 307
#     4  10  15  29  54  74 101 126 157 207 257 292
#     4  11  20  32  49  71 100 131 167 208 243 295
#     4  10  15  29  51  78 102 128 156 208 252 293
#     4  10  19  27  45  75 109 131 157 194 249 309
#
# _framework density 17.258617000000001
#
# number of rings (size 3 to 8) (size 9 to 14) (size 15 to 20)
#    0.000    2.250    3.750    3.000    0.000    0.000 
#    0.000   11.875    0.000    3.750    0.000    0.000 
#    0.000    0.000    0.000    0.000    0.000    0.000 
#
# Total GULP energy -396585.128159 kJ/mol
# GULP energy per Si atom -12393.285255 kJ/mol
# Density = 1.721934 g / cm^3
# Si number density = 17.258617 Si / 1000 Ang^3
#
#
#
# Elastic Constant Matrix: (Units=GPa)
#
#
# Indices 1 2 3 4 5 6 
#
# 1 114.1947 21.1323 58.7777 0.0000 7.5625 0.0000
# 2 21.1323 46.1681 15.5048 0.0000 2.8481 0.0000
# 3 58.7777 15.5048 148.9111 0.0000 2.8995 0.0000
# 4 0.0000 0.0000 0.0000 11.1822 0.0000 2.2465
# 5 7.5625 2.8481 2.8995 0.0000 29.5286 0.0000
# 6 0.0000 0.0000 0.0000 2.2465 0.0000 8.3547
#
#
#
# Elastic Compliance Matrix: (Units=1/GPa)
#
#
# Indices 1 2 3 4 5 6 
#
# 1 0.011781 -0.003842 -0.004207 0.000000 -0.002234 0.000000
# 2 -0.003842 0.023809 -0.000939 0.000000 -0.001220 0.000000
# 3 -0.004207 -0.000939 0.008467 0.000000 0.000337 0.000000
# 4 0.000000 0.000000 0.000000 0.094535 0.000000 -0.025420
# 5 -0.002234 -0.001220 0.000337 0.000000 0.034522 0.000000
# 6 0.000000 0.000000 0.000000 -0.025420 0.000000 0.126528
#
#
# Mechanical properties :
#
#
# Convention : Reuss Voigt Hill
#
# Bulk Modulus (GPa) = 38.34001 55.56705 46.95353
# Shear Modulus (GPa) = 15.32279 24.07036 19.69658
#
# Velocity S-wave (km/s) = 2.98289 3.73860 3.38192
# Velocity P-wave (km/s) = 5.84181 7.13462 6.52033
#
# Compressibility (1/GPa) = 0.02608241
#
# Stress axis : x y z
#
# Youngs Moduli (GPa) = 84.88163 42.00070 118.10473
#
# Poissons Ratio (x) = 0.16137 0.49683
# Poissons Ratio (y) = 0.32611 0.11087
# Poissons Ratio (z) = 0.35707 0.03943
#
# Static dielectric constant tensor:
#      x y z
#    x 3.277450 0.000000 0.013830 
#    y 0.000000 2.610390 0.000000 
#    z 0.013830 0.000000 3.777080 
# 
# 
# High freq. dielectric constant tensor:
#      x y z
#    x 1.656600 0.000000 0.016730 
#    y 0.000000 1.592070 0.000000 
#    z 0.016730 0.000000 1.687940 
# 
# From -- ./inp_files/36283.got.cif
#   From: 2010.06.25/outbox.cif.g09.slc.cpg/sg11_19_cif.got.tgz:36283.got - 2010.06.27 23:14:04.
