data_PCOD8068506
_publ_section_title
;
Structure prediction by ZEFSAII (Michael W. Deem and Ramdas Pophale) SiO2 
 PCOD8068506
Probable space group: P 21/M
;
_chemical_formula_sum "Si O2"
_cell_formula_units_Z 32
_cell_length_a 17.211622
_cell_length_b 9.116950
_cell_length_c 13.590714
_cell_angle_alpha 90.000000
_cell_angle_beta 100.767687
_cell_angle_gamma 90.000000
_cell_volume 2095.071284
_symmetry_space_group_name_H-M "P 21/M"
_symmetry_group_IT_number 11
_symmetry_cell_setting 'monoclinic'
loop_
_space_group_symop_operation_xyz
x,y,z
-x,1/2+y,-z
-x,-y,-z
x,1/2-y,z
loop_
_atom_site_type_symbol
_atom_site_label
_atom_site_fract_x
_atom_site_fract_y
_atom_site_fract_z
Si Si1 0.689934 0.415456 0.118479
Si Si2 0.589968 0.082135 0.904037
Si Si3 0.160762 0.078888 0.147632
Si Si4 0.472858 0.420867 0.396390
Si Si5 0.010303 0.576320 0.898191
Si Si6 0.836812 0.923864 0.074790
Si Si7 0.550533 0.419960 0.212497
Si Si8 0.324682 0.422966 0.245660
O O1 0.724207 0.250000 0.125097
O O2 0.761885 0.527382 0.121769
O O3 0.643393 0.448448 0.210042
O O4 0.621770 0.434497 0.021410
O O5 0.586580 0.250000 0.869053
O O6 0.502748 0.014122 0.874752
O O7 0.650151 0.995308 0.849718
O O8 0.168252 0.250000 0.132024
O O9 0.232227 0.028637 0.237748
O O10 0.074748 0.043501 0.175363
O O11 0.171437 0.014456 0.039128
O O12 0.500000 0.500000 0.500000
O O13 0.475939 0.250000 0.419273
O O14 0.531567 0.463965 0.320808
O O15 0.382745 0.472123 0.348089
O O16 0.025095 0.750000 0.912535
O O17 0.083881 0.499412 0.860158
O O18 0.000000 0.500000 0.000000
O O19 0.845952 0.750000 0.084096
O O20 0.528802 0.250000 0.190287
O O21 0.333853 0.250000 0.234278
#
# Coordination Sequence:
#
# PCOD8068506 Si02
#       8
#     4   4   4   4   4   4   4   4
#     4  10  19  29  41  59  84 111 144 178 206 243
#     4  10  18  26  39  62  85 107 137 177 212 237
#     4   8  14  25  41  58  78 108 145 175 200 240
#     4   9  18  31  48  63  81 108 137 173 215 256
#     4   9  16  26  39  57  81 111 146 181 211 243
#     4  10  18  27  40  58  82 117 149 174 208 245
#     4   9  19  33  45  58  79 112 143 169 210 259
#     4   9  16  29  45  61  82 113 144 170 207 255
#
# _framework density 15.273942999999999
#
# number of rings (size 3 to 8) (size 9 to 14) (size 15 to 20)
#    0.000    2.750    1.250    3.000    0.000    3.000 
#    0.000    0.625    0.000    0.000    0.000    0.000 
#    0.000    1.000    0.000    2.000    0.000    2.750 
#
# Total GULP energy -396423.337010 kJ/mol
# GULP energy per Si atom -12388.229282 kJ/mol
# Density = 1.523918 g / cm^3
# Si number density = 15.273943 Si / 1000 Ang^3
#
#
#
# Elastic Constant Matrix: (Units=GPa)
#
#
# Indices 1 2 3 4 5 6 
#
# 1 139.2413 42.0592 45.5940 0.0000 6.1961 0.0000
# 2 42.0592 50.2339 22.6315 0.0000 3.4241 0.0000
# 3 45.5940 22.6315 53.8778 0.0000 5.3070 0.0000
# 4 0.0000 0.0000 0.0000 16.3232 0.0000 0.2213
# 5 6.1961 3.4241 5.3070 0.0000 13.2625 0.0000
# 6 0.0000 0.0000 0.0000 0.2213 0.0000 25.0951
#
#
#
# Elastic Compliance Matrix: (Units=1/GPa)
#
#
# Indices 1 2 3 4 5 6 
#
# 1 0.011404 -0.006387 -0.006876 0.000000 -0.000927 0.000000
# 2 -0.006387 0.028198 -0.006263 0.000000 -0.001790 0.000000
# 3 -0.006876 -0.006263 0.027624 0.000000 -0.006224 0.000000
# 4 0.000000 0.000000 0.000000 0.061270 0.000000 -0.000540
# 5 -0.000927 -0.001790 -0.006224 0.000000 0.078787 0.000000
# 6 0.000000 0.000000 0.000000 -0.000540 0.000000 0.039853
#
#
# Mechanical properties :
#
#
# Convention : Reuss Voigt Hill
#
# Bulk Modulus (GPa) = 35.49588 51.54693 43.52140
# Shear Modulus (GPa) = 16.91591 19.80738 18.36164
#
# Velocity S-wave (km/s) = 3.33152 3.60503 3.47097
# Velocity P-wave (km/s) = 6.17160 7.15191 6.67977
#
# Compressibility (1/GPa) = 0.02817229
#
# Stress axis : x y z
#
# Youngs Moduli (GPa) = 87.68911 35.46316 36.20081
#
# Poissons Ratio (x) = 0.22650 0.24893
# Poissons Ratio (y) = 0.56007 0.22674
# Poissons Ratio (z) = 0.60298 0.22212
#
# Static dielectric constant tensor:
#      x y z
#    x 3.544670 0.000000 0.138950 
#    y 0.000000 2.940310 0.000000 
#    z 0.138950 0.000000 2.546300 
# 
# 
# High freq. dielectric constant tensor:
#      x y z
#    x 1.598140 0.000000 0.002530 
#    y 0.000000 1.585460 0.000000 
#    z 0.002530 0.000000 1.520450 
# 
# From -- ./inp_files/51325.got.cif
#   From: 2010.06.25/outbox.cif.g09.slc.cpg/sg11_26_cif.got.tgz:51325.got - 2010.06.27 23:14:04.
