data_PCOD8068928
_publ_section_title
;
Structure prediction by ZEFSAII (Michael W. Deem and Ramdas Pophale) SiO2 
 PCOD8068928
Probable space group: P 21/M
;
_chemical_formula_sum "Si O2"
_cell_formula_units_Z 32
_cell_length_a 11.729385
_cell_length_b 8.884824
_cell_length_c 21.360282
_cell_angle_alpha 90.000000
_cell_angle_beta 52.504196
_cell_angle_gamma 90.000000
_cell_volume 1766.127734
_symmetry_space_group_name_H-M "P 21/M"
_symmetry_group_IT_number 11
_symmetry_cell_setting 'monoclinic'
loop_
_space_group_symop_operation_xyz
x,y,z
-x,1/2+y,-z
-x,-y,-z
x,1/2-y,z
loop_
_atom_site_type_symbol
_atom_site_label
_atom_site_fract_x
_atom_site_fract_y
_atom_site_fract_z
Si Si1 0.347281 0.427832 0.036692
Si Si2 0.346232 0.929475 0.909301
Si Si3 0.229199 0.916398 0.821305
Si Si4 0.452229 0.428945 0.580439
Si Si5 0.850609 0.924438 0.269395
Si Si6 0.373472 0.575749 0.238541
Si Si7 0.553215 0.580597 0.665411
Si Si8 0.838283 0.422580 0.798195
O O1 0.364983 0.250000 0.024255
O O2 0.237052 0.465821 0.128340
O O3 0.500000 0.500000 0.000000
O O4 0.285899 0.497414 0.992818
O O5 0.360830 0.750000 0.910392
O O6 0.233030 0.973657 0.892023
O O7 0.503554 0.995279 0.842917
O O8 0.163320 0.750000 0.840038
O O9 0.392865 0.917142 0.744530
O O10 0.133391 0.016827 0.807331
O O11 0.500000 0.500000 0.500000
O O12 0.461438 0.250000 0.573502
O O13 0.290195 0.489331 0.648578
O O14 0.559679 0.487823 0.598604
O O15 0.826740 0.750000 0.270476
O O16 0.992957 0.965209 0.260991
O O17 0.415479 0.750000 0.233301
O O18 0.349366 0.500741 0.314568
O O19 0.225054 0.556410 0.250069
O O20 0.610457 0.750000 0.635003
O O21 0.817274 0.250000 0.828014
#
# Coordination Sequence:
#
# PCOD8068928 Si02
#       8
#     4   4   4   4   4   4   4   4
#     4  12  23  34  50  73 101 134 175 220 265 310
#     4  10  19  32  50  72 100 131 172 222 267 306
#     4   8  16  30  49  72  98 130 166 212 259 302
#     4  10  19  33  56  84 110 136 168 207 255 307
#     4   9  19  35  54  76 104 137 171 208 252 310
#     4  10  18  29  49  74 101 134 172 213 259 306
#     4   9  17  30  49  75 106 134 167 212 255 298
#     4  10  21  36  52  73 103 138 174 214 260 307
#
# _framework density 18.118735999999998
#
# number of rings (size 3 to 8) (size 9 to 14) (size 15 to 20)
#    0.000    2.250    1.250    3.375    0.000    5.000 
#    0.000    0.625    0.000    0.750    0.000    0.000 
#    0.000    0.000    0.000    0.000    0.000    0.000 
#
# Total GULP energy -396730.269210 kJ/mol
# GULP energy per Si atom -12397.820913 kJ/mol
# Density = 1.807750 g / cm^3
# Si number density = 18.118736 Si / 1000 Ang^3
#
#
#
# Elastic Constant Matrix: (Units=GPa)
#
#
# Indices 1 2 3 4 5 6 
#
# 1 121.0107 50.0645 51.0756 0.0000 20.7995 0.0000
# 2 50.0645 101.0654 41.5215 0.0000 12.4789 0.0000
# 3 51.0756 41.5215 78.1933 0.0000 24.9986 0.0000
# 4 0.0000 0.0000 0.0000 26.9775 0.0000 9.7489
# 5 20.7995 12.4789 24.9986 0.0000 29.6346 0.0000
# 6 0.0000 0.0000 0.0000 9.7489 0.0000 27.2976
#
#
#
# Elastic Compliance Matrix: (Units=1/GPa)
#
#
# Indices 1 2 3 4 5 6 
#
# 1 0.012505 -0.003658 -0.005357 0.000000 -0.002718 0.000000
# 2 -0.003658 0.013730 -0.005304 0.000000 0.001260 0.000000
# 3 -0.005357 -0.005304 0.023536 0.000000 -0.013860 0.000000
# 4 0.000000 0.000000 0.000000 0.042561 0.000000 -0.015200
# 5 -0.002718 0.001260 -0.013860 0.000000 0.046813 0.000000
# 6 0.000000 0.000000 0.000000 -0.015200 0.000000 0.042062
#
#
# Mechanical properties :
#
#
# Convention : Reuss Voigt Hill
#
# Bulk Modulus (GPa) = 47.32096 65.06583 56.19339
# Shear Modulus (GPa) = 23.05309 27.28914 25.17111
#
# Velocity S-wave (km/s) = 3.57085 3.88510 3.73128
# Velocity P-wave (km/s) = 6.57078 7.49093 7.04589
#
# Compressibility (1/GPa) = 0.02113229
#
# Stress axis : x y z
#
# Youngs Moduli (GPa) = 79.96509 72.83110 42.48828
#
# Poissons Ratio (x) = 0.26644 0.22761
# Poissons Ratio (y) = 0.29254 0.22537
# Poissons Ratio (z) = 0.42838 0.38632
#
# Static dielectric constant tensor:
#      x y z
#    x 3.567120 0.000000 0.275310 
#    y 0.000000 3.480620 0.000000 
#    z 0.275310 0.000000 3.206940 
# 
# 
# High freq. dielectric constant tensor:
#      x y z
#    x 1.701380 0.000000 0.029420 
#    y 0.000000 1.711160 0.000000 
#    z 0.029420 0.000000 1.664400 
# 
# From -- ./inp_files/42520.got.cif
#   From: 2010.06.25/outbox.cif.g09.slc.cpg/sg11_22_cif.got.tgz:42520.got - 2010.06.27 23:14:04.
