data_PCOD8068595
_publ_section_title
;
Structure prediction by ZEFSAII (Michael W. Deem and Ramdas Pophale) SiO2 
 PCOD8068595
Probable space group: P 21/M
;
_chemical_formula_sum "Si O2"
_cell_formula_units_Z 32
_cell_length_a 20.401935
_cell_length_b 8.989558
_cell_length_c 25.451316
_cell_angle_alpha 90.000000
_cell_angle_beta 157.055275
_cell_angle_gamma 90.000000
_cell_volume 1819.740995
_symmetry_space_group_name_H-M "P 21/M"
_symmetry_group_IT_number 11
_symmetry_cell_setting 'monoclinic'
loop_
_space_group_symop_operation_xyz
x,y,z
-x,1/2+y,-z
-x,-y,-z
x,1/2-y,z
loop_
_atom_site_type_symbol
_atom_site_label
_atom_site_fract_x
_atom_site_fract_y
_atom_site_fract_z
Si Si1 0.150424 0.573586 0.142742
Si Si2 0.640820 0.578543 0.136503
Si Si3 0.967691 0.425865 0.831413
Si Si4 0.347533 0.074899 0.116444
Si Si5 0.820852 0.073849 0.614999
Si Si6 0.440808 0.575009 0.083440
Si Si7 0.543284 0.573942 0.686996
Si Si8 0.850234 0.924501 0.198518
O O1 0.140660 0.750000 0.127788
O O2 0.132329 0.527265 0.190294
O O3 0.327490 0.511314 0.254667
O O4 0.000000 0.500000 0.000000
O O5 0.600578 0.750000 0.101041
O O6 0.613698 0.535800 0.178003
O O7 0.817628 0.541968 0.237212
O O8 0.500000 0.500000 0.000000
O O9 0.980257 0.250000 0.836501
O O10 0.870512 0.491054 0.708969
O O11 0.157647 0.488576 0.973521
O O12 0.352678 0.250000 0.111317
O O13 0.425709 0.030526 0.229893
O O14 0.460110 0.998958 0.154584
O O15 0.809968 0.250000 0.609668
O O16 0.640424 0.012391 0.464105
O O17 0.960908 0.023925 0.675773
O O18 0.417174 0.750000 0.073005
O O19 0.278451 0.511734 0.933554
O O20 0.564692 0.750000 0.694024
O O21 0.827230 0.750000 0.168800
#
# Coordination Sequence:
#
# PCOD8068595 Si02
#       8
#     4   4   4   4   4   4   4   4
#     4  11  21  35  55  77 103 132 162 201 246 294
#     4   8  15  25  40  67 100 127 160 201 243 288
#     4   9  17  31  52  75  96 124 162 202 240 281
#     4  10  18  32  51  70  95 128 165 204 243 289
#     4   9  17  31  53  75  96 126 167 205 239 286
#     4  10  18  27  43  73 104 127 159 209 250 286
#     4  10  21  36  53  75  99 126 164 208 246 289
#     4   9  15  28  50  71  95 135 169 196 243 296
#
# _framework density 17.584921000000001
#
# number of rings (size 3 to 8) (size 9 to 14) (size 15 to 20)
#    0.000    2.500    2.500    0.750    0.000    1.500 
#    0.000    0.625    0.000    0.750    0.000    0.000 
#    0.000    0.000    0.000    0.000    0.000    0.625 
#
# Total GULP energy -396519.771137 kJ/mol
# GULP energy per Si atom -12391.242848 kJ/mol
# Density = 1.754490 g / cm^3
# Si number density = 17.584921 Si / 1000 Ang^3
#
#
#
# Elastic Constant Matrix: (Units=GPa)
#
#
# Indices 1 2 3 4 5 6 
#
# 1 195.5321 42.8079 83.4498 0.0000 15.4242 0.0000
# 2 42.8079 32.5292 21.8699 0.0000 3.2130 0.0000
# 3 83.4498 21.8699 121.1721 0.0000 2.6356 0.0000
# 4 0.0000 0.0000 0.0000 12.3847 0.0000 3.7901
# 5 15.4242 3.2130 2.6356 0.0000 26.0313 0.0000
# 6 0.0000 0.0000 0.0000 3.7901 0.0000 26.8658
#
#
#
# Elastic Compliance Matrix: (Units=1/GPa)
#
#
# Indices 1 2 3 4 5 6 
#
# 1 0.009393 -0.008735 -0.004805 0.000000 -0.004001 0.000000
# 2 -0.008735 0.043467 -0.001829 0.000000 -0.000004 0.000000
# 3 -0.004805 -0.001829 0.011851 0.000000 0.001873 0.000000
# 4 0.000000 0.000000 0.000000 0.084388 0.000000 -0.011905
# 5 -0.004001 -0.000004 0.001873 0.000000 0.040597 0.000000
# 6 0.000000 0.000000 0.000000 -0.011905 0.000000 0.038902
#
#
# Mechanical properties :
#
#
# Convention : Reuss Voigt Hill
#
# Bulk Modulus (GPa) = 29.43581 71.72096 50.57839
# Shear Modulus (GPa) = 18.47322 26.46341 22.46831
#
# Velocity S-wave (km/s) = 3.24468 3.88350 3.57838
# Velocity P-wave (km/s) = 5.55093 7.80915 6.77479
#
# Compressibility (1/GPa) = 0.03397223
#
# Stress axis : x y z
#
# Youngs Moduli (GPa) = 106.46120 23.00575 84.37767
#
# Poissons Ratio (x) = 0.20096 0.40546
# Poissons Ratio (y) = 0.92997 0.15435
# Poissons Ratio (z) = 0.51158 0.04208
#
# Static dielectric constant tensor:
#      x y z
#    x 3.896770 0.000000 0.197950 
#    y 0.000000 2.971890 0.000000 
#    z 0.197950 0.000000 3.211830 
# 
# 
# High freq. dielectric constant tensor:
#      x y z
#    x 1.704820 0.000000 0.013410 
#    y 0.000000 1.655940 0.000000 
#    z 0.013410 0.000000 1.645460 
# 
# From -- ./inp_files/72131.got.cif
#   From: 2010.06.25/outbox.cif.g09.slc.cpg/sg11_37_cif.got.tgz:72131.got - 2010.06.27 23:14:04.
