data_PCOD8068390
_publ_section_title
;
Structure prediction by ZEFSAII (Michael W. Deem and Ramdas Pophale) SiO2 
 PCOD8068390
Probable space group: P 21/M
;
_chemical_formula_sum "Si O2"
_cell_formula_units_Z 26
_cell_length_a 9.128942
_cell_length_b 19.407298
_cell_length_c 7.886134
_cell_angle_alpha 90.000000
_cell_angle_beta 80.535306
_cell_angle_gamma 90.000000
_cell_volume 1378.151831
_symmetry_space_group_name_H-M "P 21/M"
_symmetry_group_IT_number 11
_symmetry_cell_setting 'monoclinic'
loop_
_space_group_symop_operation_xyz
x,y,z
-x,1/2+y,-z
-x,-y,-z
x,1/2-y,z
loop_
_atom_site_type_symbol
_atom_site_label
_atom_site_fract_x
_atom_site_fract_y
_atom_site_fract_z
Si Si1 0.083510 0.108602 0.731159
Si Si2 0.927997 0.750000 0.732681
Si Si3 0.818950 0.250000 0.565425
Si Si4 0.230004 0.895662 0.363251
Si Si5 0.086630 0.101499 0.111099
Si Si6 0.327925 0.985678 0.036008
Si Si7 0.131276 0.250000 0.620931
Si Si8 0.199259 0.965774 0.704792
O O1 0.182882 0.178768 0.698914
O O2 0.949198 0.106178 0.622359
O O3 0.194875 0.046986 0.667508
O O4 0.021412 0.099005 0.933073
O O5 0.887774 0.681304 0.845208
O O6 0.822761 0.750000 0.585970
O O7 0.102169 0.750000 0.638413
O O8 0.716427 0.316812 0.618010
O O9 0.951448 0.250000 0.679038
O O10 0.279608 0.934102 0.525834
O O11 0.304342 0.929356 0.186524
O O12 0.966834 0.065476 0.254544
O O13 0.237460 0.056271 0.091918
O O14 0.285446 0.951733 0.863415
O O15 0.500000 0.000000 0.000000
#
# Coordination Sequence:
#
# PCOD8068390 Si02
#       8
#     4   2   2   4   4   4   2   4
#     4  10  17  30  51  86 114 144 174 239 293 333
#     4  10  19  29  55  90 116 140 187 244 297 343
#     4   8  18  30  51  91 113 138 185 234 298 346
#     4  11  19  35  60  81 120 146 185 241 292 333
#     4  11  19  35  57  88 117 141 196 243 288 344
#     4  11  25  40  55  84 119 159 198 230 283 350
#     4   8  17  27  44  81 123 136 174 220 307 343
#     4  11  20  34  62  89 106 144 198 245 290 332
#
# _framework density 18.865843999999999
#
# number of rings (size 3 to 8) (size 9 to 14) (size 15 to 20)
#    0.462    1.231    4.615    1.846    2.154    0.615 
#    0.000    1.538    0.000    0.000    0.000    0.000 
#    0.000    0.000    0.000    0.000    0.000    0.000 
#
# Total GULP energy -322204.369211 kJ/mol
# GULP energy per Si atom -12392.475739 kJ/mol
# Density = 1.882290 g / cm^3
# Si number density = 18.865844 Si / 1000 Ang^3
#
#
#
# Elastic Constant Matrix: (Units=GPa)
#
#
# Indices 1 2 3 4 5 6 
#
# 1 62.8839 24.8832 27.9097 0.0000 -3.6394 0.0000
# 2 24.8832 170.3515 65.6094 0.0000 -1.0107 0.0000
# 3 27.9097 65.6094 114.3467 0.0000 11.6360 0.0000
# 4 0.0000 0.0000 0.0000 35.0154 0.0000 3.7377
# 5 -3.6394 -1.0107 11.6360 0.0000 9.7575 0.0000
# 6 0.0000 0.0000 0.0000 3.7377 0.0000 9.1945
#
#
#
# Elastic Compliance Matrix: (Units=1/GPa)
#
#
# Indices 1 2 3 4 5 6 
#
# 1 0.019569 -0.000476 -0.005965 0.000000 0.014363 0.000000
# 2 -0.000476 0.007960 -0.005141 0.000000 0.006777 0.000000
# 3 -0.005965 -0.005141 0.015287 0.000000 -0.020987 0.000000
# 4 0.000000 0.000000 0.000000 0.029854 0.000000 -0.012136
# 5 0.014363 0.006777 -0.020987 0.000000 0.133572 0.000000
# 6 0.000000 0.000000 0.000000 -0.012136 0.000000 0.113694
#
#
# Mechanical properties :
#
#
# Convention : Reuss Voigt Hill
#
# Bulk Modulus (GPa) = 50.88417 64.93187 57.90802
# Shear Modulus (GPa) = 14.30001 26.07215 20.18608
#
# Velocity S-wave (km/s) = 2.75614 3.72153 3.27460
# Velocity P-wave (km/s) = 6.09578 7.27728 6.71257
#
# Compressibility (1/GPa) = 0.01965248
#
# Stress axis : x y z
#
# Youngs Moduli (GPa) = 51.10024 125.63093 65.41712
#
# Poissons Ratio (x) = 0.05979 0.39022
# Poissons Ratio (y) = 0.02432 0.33629
# Poissons Ratio (z) = 0.30482 0.64583
#
# Static dielectric constant tensor:
#      x y z
#    x 2.835440 0.000000 0.184180 
#    y 0.000000 3.846030 0.000000 
#    z 0.184180 0.000000 3.501200 
# 
# 
# High freq. dielectric constant tensor:
#      x y z
#    x 1.656680 0.000000 0.015940 
#    y 0.000000 1.753750 0.000000 
#    z 0.015940 0.000000 1.741230 
# 
# From -- ./inp_files/13500.got.cif
#   From: 2010.06.25/outbox.cif.g09.slc.cpg/sg11_7_cif.got.tgz:13500.got - 2010.06.27 23:14:04.
