data_PCOD8068644
_publ_section_title
;
Structure prediction by ZEFSAII (Michael W. Deem and Ramdas Pophale) SiO2 
 PCOD8068644
Probable space group: P 21/M
;
_chemical_formula_sum "Si O2"
_cell_formula_units_Z 28
_cell_length_a 13.624461
_cell_length_b 9.065990
_cell_length_c 22.095121
_cell_angle_alpha 90.000000
_cell_angle_beta 140.567213
_cell_angle_gamma 90.000000
_cell_volume 1733.495445
_symmetry_space_group_name_H-M "P 21/M"
_symmetry_group_IT_number 11
_symmetry_cell_setting 'monoclinic'
loop_
_space_group_symop_operation_xyz
x,y,z
-x,1/2+y,-z
-x,-y,-z
x,1/2-y,z
loop_
_atom_site_type_symbol
_atom_site_label
_atom_site_fract_x
_atom_site_fract_y
_atom_site_fract_z
Si Si1 0.838667 0.078468 0.716931
Si Si2 0.779589 0.081889 0.898170
Si Si3 0.461408 0.080001 0.387106
Si Si4 0.528910 0.582506 0.300821
Si Si5 0.190867 0.581787 0.430547
Si Si6 0.026217 0.077503 0.108538
Si Si7 0.127332 0.079014 0.521281
O O1 0.832688 0.250000 0.730292
O O2 0.895216 0.053298 0.674474
O O3 0.666505 0.015112 0.640016
O O4 0.959296 0.000359 0.819513
O O5 0.825799 0.250000 0.903857
O O6 0.592148 0.065746 0.812945
O O7 0.842445 0.979439 0.874470
O O8 0.857430 0.040133 0.999590
O O9 0.412171 0.250000 0.367122
O O10 0.628305 0.050212 0.496041
O O11 0.469164 0.032267 0.321324
O O12 0.522455 0.750000 0.323610
O O13 0.706165 0.546672 0.367754
O O14 0.168297 0.750000 0.441754
O O15 0.123138 0.477104 0.450138
O O16 0.051016 0.250000 0.130415
O O17 0.087480 0.250000 0.501062
O O18 0.000000 0.000000 0.500000
#
# Coordination Sequence:
#
# PCOD8068644 Si02
#       7
#     4   4   4   4   4   4   4
#     4  11  20  30  43  62  93 131 160 188 228 273
#     4   9  17  30  45  63  91 124 159 196 232 269
#     4  10  18  28  43  65  91 121 158 196 226 264
#     4   9  17  30  48  68  91 123 156 187 229 280
#     4   9  20  34  47  65  91 122 157 193 231 275
#     4  10  19  28  42  65  92 125 162 197 229 263
#     4  10  20  34  53  74  95 118 148 188 236 284
#
# _framework density 16.152335000000001
#
# number of rings (size 3 to 8) (size 9 to 14) (size 15 to 20)
#    0.000    2.286    1.429    2.143    0.000    2.857 
#    0.000    0.000    0.000    0.000    0.000    1.000 
#    0.000    0.000    0.000    0.000    0.000    0.000 
#
# Total GULP energy -347034.751091 kJ/mol
# GULP energy per Si atom -12394.098253 kJ/mol
# Density = 1.611557 g / cm^3
# Si number density = 16.152335 Si / 1000 Ang^3
#
#
#
# Elastic Constant Matrix: (Units=GPa)
#
#
# Indices 1 2 3 4 5 6 
#
# 1 73.0311 44.4287 53.4385 0.0000 1.0715 0.0000
# 2 44.4287 93.0554 53.3339 0.0000 -5.2752 0.0000
# 3 53.4385 53.3339 124.9650 0.0000 -7.6874 0.0000
# 4 0.0000 0.0000 0.0000 23.5210 0.0000 -1.6078
# 5 1.0715 -5.2752 -7.6874 0.0000 15.1761 0.0000
# 6 0.0000 0.0000 0.0000 -1.6078 0.0000 23.6802
#
#
#
# Elastic Compliance Matrix: (Units=1/GPa)
#
#
# Indices 1 2 3 4 5 6 
#
# 1 0.023900 -0.007582 -0.007484 0.000000 -0.008114 0.000000
# 2 -0.007582 0.016686 -0.003602 0.000000 0.004511 0.000000
# 3 -0.007484 -0.003602 0.013104 0.000000 0.005914 0.000000
# 4 0.000000 0.000000 0.000000 0.042713 0.000000 0.002900
# 5 -0.008114 0.004511 0.005914 0.000000 0.071029 0.000000
# 6 0.000000 0.000000 0.000000 0.002900 0.000000 0.042426
#
#
# Mechanical properties :
#
#
# Convention : Reuss Voigt Hill
#
# Bulk Modulus (GPa) = 61.14207 65.93927 63.54067
# Shear Modulus (GPa) = 19.79057 21.79882 20.79469
#
# Velocity S-wave (km/s) = 3.50415 3.67764 3.59194
# Velocity P-wave (km/s) = 7.36937 7.67759 7.52506
#
# Compressibility (1/GPa) = 0.01635535
#
# Stress axis : x y z
#
# Youngs Moduli (GPa) = 41.84063 59.92963 76.31543
#
# Poissons Ratio (x) = 0.45437 0.57112
# Poissons Ratio (y) = 0.31722 0.27488
# Poissons Ratio (z) = 0.31312 0.21586
#
# Static dielectric constant tensor:
#      x y z
#    x 2.650140 0.000000 0.020550 
#    y 0.000000 3.183550 0.000000 
#    z 0.020550 0.000000 3.367150 
# 
# 
# High freq. dielectric constant tensor:
#      x y z
#    x 1.565350 0.000000 -0.003000 
#    y 0.000000 1.636190 0.000000 
#    z -0.003000 0.000000 1.628330 
# 
# From -- ./inp_files/42370.got.cif
#   From: 2010.06.25/outbox.cif.g09.slc.cpg/sg11_22_cif.got.tgz:42370.got - 2010.06.27 23:14:04.
