data_PCOD8068815
_publ_section_title
;
Structure prediction by ZEFSAII (Michael W. Deem and Ramdas Pophale) SiO2 
 PCOD8068815
Probable space group: P 21/M
;
_chemical_formula_sum "Si O2"
_cell_formula_units_Z 28
_cell_length_a 19.923937
_cell_length_b 8.999969
_cell_length_c 16.992015
_cell_angle_alpha 90.000000
_cell_angle_beta 31.424836
_cell_angle_gamma 90.000000
_cell_volume 1588.601861
_symmetry_space_group_name_H-M "P 21/M"
_symmetry_group_IT_number 11
_symmetry_cell_setting 'monoclinic'
loop_
_space_group_symop_operation_xyz
x,y,z
-x,1/2+y,-z
-x,-y,-z
x,1/2-y,z
loop_
_atom_site_type_symbol
_atom_site_label
_atom_site_fract_x
_atom_site_fract_y
_atom_site_fract_z
Si Si1 0.847222 0.574136 0.494544
Si Si2 0.859802 0.076421 0.805692
Si Si3 0.754122 0.574085 0.421802
Si Si4 0.998406 0.073981 0.918124
Si Si5 0.502135 0.927678 0.583458
Si Si6 0.252349 0.574032 0.924109
Si Si7 0.137125 0.923997 0.368874
O O1 0.844321 0.750000 0.510144
O O2 0.760598 0.524082 0.506798
O O3 0.787244 0.497545 0.633281
O O4 0.993669 0.515050 0.335377
O O5 0.872692 0.250000 0.809371
O O6 0.795916 0.045974 0.783510
O O7 0.768302 0.009959 0.966185
O O8 0.755659 0.750000 0.416983
O O9 0.879540 0.512188 0.252047
O O10 0.626785 0.513854 0.506267
O O11 0.003670 0.250000 0.921735
O O12 0.869552 0.021247 0.004003
O O13 0.000000 0.000000 0.000000
O O14 0.501091 0.750000 0.575282
O O15 0.381040 0.988904 0.754813
O O16 0.500000 0.000000 0.500000
O O17 0.264017 0.750000 0.914233
O O18 0.120759 0.750000 0.400328
O O19 0.000000 0.000000 0.500000
#
# Coordination Sequence:
#
# PCOD8068815 Si02
#       7
#     4   4   4   4   4   4   4
#     4   9  15  27  46  65  89 120 153 186 223 267
#     4   8  13  24  43  65  87 114 149 182 214 257
#     4   9  17  30  48  67  89 121 154 187 228 276
#     4  10  18  29  46  65  88 115 147 186 231 273
#     4  10  20  33  49  68  90 118 156 193 229 274
#     4   9  16  28  47  67  86 116 155 188 216 266
#     4   9  16  25  42  68  96 122 148 183 226 270
#
# _framework density 17.62556
#
# number of rings (size 3 to 8) (size 9 to 14) (size 15 to 20)
#    0.000    2.857    1.429    2.143    0.000    0.000 
#    0.000    1.429    0.000    5.143    0.000    0.000 
#    0.000    0.000    0.000    0.000    0.000    0.571 
#
# Total GULP energy -346936.823258 kJ/mol
# GULP energy per Si atom -12390.600831 kJ/mol
# Density = 1.758544 g / cm^3
# Si number density = 17.625560 Si / 1000 Ang^3
#
#
#
# Elastic Constant Matrix: (Units=GPa)
#
#
# Indices 1 2 3 4 5 6 
#
# 1 175.3445 34.1315 85.2478 0.0000 23.8418 0.0000
# 2 34.1315 29.0551 21.5261 0.0000 8.3557 0.0000
# 3 85.2478 21.5261 121.7050 0.0000 10.8980 0.0000
# 4 0.0000 0.0000 0.0000 11.5506 0.0000 9.3938
# 5 23.8418 8.3557 10.8980 0.0000 37.2971 0.0000
# 6 0.0000 0.0000 0.0000 9.3938 0.0000 25.9171
#
#
#
# Elastic Compliance Matrix: (Units=1/GPa)
#
#
# Indices 1 2 3 4 5 6 
#
# 1 0.010253 -0.006883 -0.005664 0.000000 -0.003357 0.000000
# 2 -0.006883 0.046097 -0.002877 0.000000 -0.005087 0.000000
# 3 -0.005664 -0.002877 0.012641 0.000000 0.000571 0.000000
# 4 0.000000 0.000000 0.000000 0.122763 0.000000 -0.044496
# 5 -0.003357 -0.005087 0.000571 0.000000 0.029931 0.000000
# 6 0.000000 0.000000 0.000000 -0.044496 0.000000 0.054712
#
#
# Mechanical properties :
#
#
# Convention : Reuss Voigt Hill
#
# Bulk Modulus (GPa) = 26.21589 67.54617 46.88103
# Shear Modulus (GPa) = 15.62706 27.29957 21.46332
#
# Velocity S-wave (km/s) = 2.98084 3.93983 3.49340
# Velocity P-wave (km/s) = 5.17236 7.68781 6.55193
#
# Compressibility (1/GPa) = 0.03814481
#
# Stress axis : x y z
#
# Youngs Moduli (GPa) = 97.53492 21.69355 79.10608
#
# Poissons Ratio (x) = 0.14931 0.44802
# Poissons Ratio (y) = 0.67130 0.22757
# Poissons Ratio (z) = 0.55239 0.06241
#
# Static dielectric constant tensor:
#      x y z
#    x 3.688210 0.000000 0.333540 
#    y 0.000000 4.144960 0.000000 
#    z 0.333540 0.000000 3.507440 
# 
# 
# High freq. dielectric constant tensor:
#      x y z
#    x 1.692770 0.000000 0.026890 
#    y 0.000000 1.635920 0.000000 
#    z 0.026890 0.000000 1.663430 
# 
# From -- ./inp_files/58990.got.cif
#   From: 2010.06.25/outbox.cif.g09.slc.cpg/sg11_30_cif.got.tgz:58990.got - 2010.06.27 23:14:04.
