data_PCOD8068029
_publ_section_title
;
Structure prediction by ZEFSAII (Michael W. Deem and Ramdas Pophale) SiO2 
 PCOD8068029
Probable space group: P 2/M
;
_chemical_formula_sum "Si O2"
_cell_formula_units_Z 32
_cell_length_a 27.747367
_cell_length_b 9.148225
_cell_length_c 22.778264
_cell_angle_alpha 90.000000
_cell_angle_beta 17.573822
_cell_angle_gamma 90.000000
_cell_volume 1745.789059
_symmetry_space_group_name_H-M "P 2/M"
_symmetry_group_IT_number 10
_symmetry_cell_setting 'monoclinic'
loop_
_space_group_symop_operation_xyz
x,y,z
-x,y,-z
-x,-y,-z
x,-y,z
loop_
_atom_site_type_symbol
_atom_site_label
_atom_site_fract_x
_atom_site_fract_y
_atom_site_fract_z
Si Si1 0.949955 0.664969 0.426054
Si Si2 0.334676 0.825532 0.665326
Si Si3 0.079805 0.829800 0.170193
Si Si4 0.040974 0.174027 0.083017
Si Si5 0.579808 0.170200 0.170197
Si Si6 0.701977 0.664969 0.922016
Si Si7 0.825535 0.165316 0.674467
Si Si8 0.288958 0.174027 0.587053
O O1 0.887406 0.500000 0.490709
O O2 0.958779 0.742726 0.352700
O O3 0.122376 0.666439 0.255246
O O4 0.827138 0.752269 0.610144
O O5 0.500000 0.765857 0.500000
O O6 0.314992 0.764426 0.622289
O O7 0.334029 0.000000 0.665973
O O8 0.189554 0.764426 0.873169
O O9 0.054172 0.770262 0.134352
O O10 0.037453 0.000000 0.225162
O O11 0.262611 0.800012 0.974773
O O12 0.878109 0.234490 0.243780
O O13 0.044036 0.000000 0.078333
O O14 0.431229 0.229740 0.380251
O O15 0.562688 0.000000 0.174700
O O16 0.581742 0.257273 0.106782
O O17 0.643638 0.500000 0.978251
O O18 0.701702 0.752269 0.861019
O O19 0.000000 0.165980 0.500000
O O20 0.765847 0.000000 0.734155
O O21 0.288776 0.000000 0.588857
#
# Coordination Sequence:
#
# PCOD8068029 Si02
#       8
#     4   4   4   4   4   4   4   4
#     4   9  16  25  38  58  85 116 149 185 224 266
#     4   9  15  23  37  59  88 119 148 181 224 270
#     4   9  16  26  40  59  84 114 148 185 224 266
#     4   9  16  25  38  58  85 116 149 185 224 266
#     4   9  16  26  40  59  84 114 148 185 224 266
#     4   9  16  25  38  58  85 116 149 185 224 266
#     4   9  15  23  37  59  88 119 148 181 224 270
#     4   9  16  25  38  58  85 116 149 185 224 266
#
# _framework density 18.329820999999999
#
# number of rings (size 3 to 8) (size 9 to 14) (size 15 to 20)
#    0.000    3.000    0.000    2.250    0.000    9.000 
#    0.000    0.000    0.000    0.750    0.000    1.750 
#    0.000   14.000    0.000    0.000    0.000    0.000 
#
# Total GULP energy -396761.302982 kJ/mol
# GULP energy per Si atom -12398.790718 kJ/mol
# Density = 1.828810 g / cm^3
# Si number density = 18.329821 Si / 1000 Ang^3
#
#
#
# Elastic Constant Matrix: (Units=GPa)
#
#
# Indices 1 2 3 4 5 6 
#
# 1 108.8911 45.2051 101.6473 0.0000 32.1316 0.0000
# 2 45.2051 78.4138 48.1384 0.0000 21.0117 0.0000
# 3 101.6473 48.1384 118.5353 0.0000 36.8685 0.0000
# 4 0.0000 0.0000 0.0000 5.4095 0.0000 0.4850
# 5 32.1316 21.0117 36.8685 0.0000 39.7445 0.0000
# 6 0.0000 0.0000 0.0000 0.4850 0.0000 5.3407
#
#
#
# Elastic Compliance Matrix: (Units=1/GPa)
#
#
# Indices 1 2 3 4 5 6 
#
# 1 0.046591 -0.003087 -0.038640 0.000000 -0.000191 0.000000
# 2 -0.003087 0.017573 -0.003340 0.000000 -0.003697 0.000000
# 3 -0.038640 -0.003340 0.045907 0.000000 -0.009581 0.000000
# 4 0.000000 0.000000 0.000000 0.186376 0.000000 -0.016924
# 5 -0.000191 -0.003697 -0.009581 0.000000 0.036157 0.000000
# 6 0.000000 0.000000 0.000000 -0.016924 0.000000 0.188777
#
#
# Mechanical properties :
#
#
# Convention : Reuss Voigt Hill
#
# Bulk Modulus (GPa) = 50.15460 77.31352 63.73406
# Shear Modulus (GPa) = 8.08850 17.48891 12.78871
#
# Velocity S-wave (km/s) = 2.10294 3.09224 2.64427
# Velocity P-wave (km/s) = 5.77219 7.41754 6.64598
#
# Compressibility (1/GPa) = 0.01993835
#
# Stress axis : x y z
#
# Youngs Moduli (GPa) = 21.46353 56.90442 21.78297
#
# Poissons Ratio (x) = 0.17567 0.84169
# Poissons Ratio (y) = 0.06626 0.07275
# Poissons Ratio (z) = 0.82935 0.19004
#
# Static dielectric constant tensor:
#      x y z
#    x 3.323870 0.000000 0.301370 
#    y 0.000000 3.042770 0.000000 
#    z 0.301370 0.000000 3.366030 
# 
# 
# High freq. dielectric constant tensor:
#      x y z
#    x 1.697750 0.000000 0.032030 
#    y 0.000000 1.667890 0.000000 
#    z 0.032030 0.000000 1.702230 
# 
# From -- ./inp_files/86844.got.cif
#   From: 2010.06.25/outbox.cif.g09.slc.cpg/sg10_44_cif.got.tgz:86844.got - 2010.06.27 22:07:45.
