data_PCOD8068954
_publ_section_title
;
Structure prediction by ZEFSAII (Michael W. Deem and Ramdas Pophale) SiO2 
 PCOD8068954
Probable space group: P 21/M
;
_chemical_formula_sum "Si O2"
_cell_formula_units_Z 32
_cell_length_a 26.879100
_cell_length_b 9.676490
_cell_length_c 15.287693
_cell_angle_alpha 90.000000
_cell_angle_beta 27.598073
_cell_angle_gamma 90.000000
_cell_volume 1842.065933
_symmetry_space_group_name_H-M "P 21/M"
_symmetry_group_IT_number 11
_symmetry_cell_setting 'monoclinic'
loop_
_space_group_symop_operation_xyz
x,y,z
-x,1/2+y,-z
-x,-y,-z
x,1/2-y,z
loop_
_atom_site_type_symbol
_atom_site_label
_atom_site_fract_x
_atom_site_fract_y
_atom_site_fract_z
Si Si1 0.370606 0.408292 0.046260
Si Si2 0.859788 0.901967 0.179156
Si Si3 0.601990 0.097079 0.153408
Si Si4 0.600793 0.095017 0.344191
Si Si5 0.239321 0.085845 0.420274
Si Si6 0.079068 0.911017 0.758664
Si Si7 0.359383 0.492432 0.537787
Si Si8 0.611475 0.095793 0.692667
O O1 0.365148 0.250000 0.026065
O O2 0.282226 0.443901 0.256592
O O3 0.346445 0.493653 0.996487
O O4 0.487373 0.443159 0.904055
O O5 0.881991 0.750000 0.187397
O O6 0.742493 0.893563 0.318848
O O7 0.867124 0.025010 0.237693
O O8 0.950443 0.927448 0.963221
O O9 0.628121 0.250000 0.078496
O O10 0.659626 0.070769 0.158416
O O11 0.472587 0.087124 0.365827
O O12 0.557647 0.250000 0.415024
O O13 0.500000 0.000000 0.500000
O O14 0.669334 0.066444 0.324965
O O15 0.227517 0.250000 0.456523
O O16 0.126059 0.003459 0.605465
O O17 0.319419 0.021651 0.367583
O O18 0.113937 0.750000 0.696003
O O19 0.367272 0.598934 0.444705
O O20 0.637256 0.250000 0.688701
#
# Coordination Sequence:
#
# PCOD8068954 Si02
#       8
#     4   4   4   4   4   4   4   4
#     4   9  20  34  47  66  93 126 162 200 244 287
#     4  10  20  34  50  70  97 128 163 201 242 288
#     4   9  18  31  48  72  99 127 160 197 235 283
#     4   9  18  31  47  71 101 131 163 196 238 287
#     4  11  21  33  48  66  93 128 163 202 243 284
#     4  10  21  34  49  69  95 127 164 205 244 284
#     4  10  18  29  50  73  99 131 160 193 237 290
#     4  10  19  30  45  68  95 125 162 198 234 282
#
# _framework density 17.3718
#
# number of rings (size 3 to 8) (size 9 to 14) (size 15 to 20)
#    0.000    2.250    1.250    1.875    0.000    7.500 
#    0.000    0.000    0.000    0.000    0.000    0.875 
#    0.000    0.000    0.000    0.000    0.000    0.000 
#
# Total GULP energy -396444.136599 kJ/mol
# GULP energy per Si atom -12388.879269 kJ/mol
# Density = 1.733226 g / cm^3
# Si number density = 17.371800 Si / 1000 Ang^3
#
#
#
# Elastic Constant Matrix: (Units=GPa)
#
#
# Indices 1 2 3 4 5 6 
#
# 1 59.5548 30.6884 31.6048 0.0000 23.5347 0.0000
# 2 30.6884 109.9406 42.1734 0.0000 20.6169 0.0000
# 3 31.6048 42.1734 103.2170 0.0000 18.0451 0.0000
# 4 0.0000 0.0000 0.0000 25.1655 0.0000 4.2021
# 5 23.5347 20.6169 18.0451 0.0000 22.2833 0.0000
# 6 0.0000 0.0000 0.0000 4.2021 0.0000 21.4544
#
#
#
# Elastic Compliance Matrix: (Units=1/GPa)
#
#
# Indices 1 2 3 4 5 6 
#
# 1 0.030689 -0.001949 -0.003785 0.000000 -0.027544 0.000000
# 2 -0.001949 0.012094 -0.003202 0.000000 -0.006538 0.000000
# 3 -0.003785 -0.003202 0.012743 0.000000 -0.003359 0.000000
# 4 0.000000 0.000000 0.000000 0.041080 0.000000 -0.008046
# 5 -0.027544 -0.006538 -0.003359 0.000000 0.082737 0.000000
# 6 0.000000 0.000000 0.000000 -0.008046 0.000000 0.048186
#
#
# Mechanical properties :
#
#
# Convention : Reuss Voigt Hill
#
# Bulk Modulus (GPa) = 26.55759 53.51621 40.03690
# Shear Modulus (GPa) = 19.38338 24.99703 22.19021
#
# Velocity S-wave (km/s) = 3.34398 3.79746 3.57791
# Velocity P-wave (km/s) = 5.49823 7.07819 6.33764
#
# Compressibility (1/GPa) = 0.03765403
#
# Stress axis : x y z
#
# Youngs Moduli (GPa) = 32.58497 82.68428 78.47595
#
# Poissons Ratio (x) = 0.16117 0.29704
# Poissons Ratio (y) = 0.06352 0.25125
# Poissons Ratio (z) = 0.12334 0.26472
#
# Static dielectric constant tensor:
#      x y z
#    x 3.280490 0.000000 0.209370 
#    y 0.000000 3.297120 0.000000 
#    z 0.209370 0.000000 3.404570 
# 
# 
# High freq. dielectric constant tensor:
#      x y z
#    x 1.634430 0.000000 0.020390 
#    y 0.000000 1.684010 0.000000 
#    z 0.020390 0.000000 1.657660 
# 
# From -- ./inp_files/56139.got.cif
#   From: 2010.06.25/outbox.cif.g09.slc.cpg/sg11_29_cif.got.tgz:56139.got - 2010.06.27 23:14:04.
