data_PCOD8068563
_publ_section_title
;
Structure prediction by ZEFSAII (Michael W. Deem and Ramdas Pophale) SiO2 
 PCOD8068563
Probable space group: P 21/M
;
_chemical_formula_sum "Si O2"
_cell_formula_units_Z 32
_cell_length_a 16.168107
_cell_length_b 8.632060
_cell_length_c 15.978181
_cell_angle_alpha 90.000000
_cell_angle_beta 109.672750
_cell_angle_gamma 90.000000
_cell_volume 2099.817735
_symmetry_space_group_name_H-M "P 21/M"
_symmetry_group_IT_number 11
_symmetry_cell_setting 'monoclinic'
loop_
_space_group_symop_operation_xyz
x,y,z
-x,1/2+y,-z
-x,-y,-z
x,1/2-y,z
loop_
_atom_site_type_symbol
_atom_site_label
_atom_site_fract_x
_atom_site_fract_y
_atom_site_fract_z
Si Si1 0.868535 0.429549 0.966831
Si Si2 0.011565 0.931272 0.312237
Si Si3 0.837685 0.432618 0.330940
Si Si4 0.680799 0.432025 0.160239
Si Si5 0.301732 0.431847 0.016496
Si Si6 0.974181 0.570843 0.859633
Si Si7 0.087931 0.433322 0.489804
Si Si8 0.509069 0.929376 0.913622
O O1 0.875856 0.250000 0.945309
O O2 0.770129 0.470851 0.958478
O O3 0.895286 0.530237 0.895613
O O4 0.932678 0.469110 0.065949
O O5 0.999861 0.750000 0.322992
O O6 0.036201 0.965900 0.225475
O O7 0.091778 0.994992 0.397705
O O8 0.920702 0.014833 0.304511
O O9 0.842416 0.250000 0.344415
O O10 0.749750 0.485651 0.253520
O O11 0.834014 0.511194 0.422019
O O12 0.691175 0.250000 0.143198
O O13 0.582601 0.468319 0.165482
O O14 0.698936 0.526141 0.081811
O O15 0.281448 0.250000 0.019089
O O16 0.396140 0.481211 0.091684
O O17 0.968340 0.750000 0.832091
O O18 0.086117 0.250000 0.483429
O O19 0.000000 0.500000 0.500000
O O20 0.517880 0.750000 0.931544
O O21 0.500000 0.000000 0.000000
#
# Coordination Sequence:
#
# PCOD8068563 Si02
#       8
#     4   4   4   4   4   4   4   4
#     4  10  20  32  45  61  83 110 140 174 210 246
#     4  11  20  30  44  61  83 111 141 171 206 248
#     4  10  18  28  42  61  84 111 142 174 208 245
#     4   9  17  28  42  59  83 113 143 174 207 246
#     4  10  18  27  42  61  83 111 143 176 208 245
#     4  10  20  33  46  61  82 108 140 176 210 243
#     4  10  18  29  43  59  81 108 138 172 207 244
#     4   8  15  27  40  57  80 108 140 172 206 242
#
# _framework density 15.239419
#
# number of rings (size 3 to 8) (size 9 to 14) (size 15 to 20)
#    0.000    2.250    0.000    6.000    0.000    6.000 
#    0.000    0.000    0.000    0.000    0.000    0.000 
#    0.000    1.000    0.000    2.750    0.000    4.000 
#
# Total GULP energy -396547.166783 kJ/mol
# GULP energy per Si atom -12392.098962 kJ/mol
# Density = 1.520473 g / cm^3
# Si number density = 15.239419 Si / 1000 Ang^3
#
#
#
# Elastic Constant Matrix: (Units=GPa)
#
#
# Indices 1 2 3 4 5 6 
#
# 1 90.9612 13.9744 36.4557 0.0000 10.4568 0.0000
# 2 13.9744 50.5240 22.5202 0.0000 2.3117 0.0000
# 3 36.4557 22.5202 85.0900 0.0000 9.2323 0.0000
# 4 0.0000 0.0000 0.0000 24.4613 0.0000 -2.1458
# 5 10.4568 2.3117 9.2323 0.0000 19.4117 0.0000
# 6 0.0000 0.0000 0.0000 -2.1458 0.0000 17.9733
#
#
#
# Elastic Compliance Matrix: (Units=1/GPa)
#
#
# Indices 1 2 3 4 5 6 
#
# 1 0.013771 -0.001351 -0.005014 0.000000 -0.004873 0.000000
# 2 -0.001351 0.022573 -0.005465 0.000000 0.000639 0.000000
# 3 -0.005014 -0.005465 0.015798 0.000000 -0.004162 0.000000
# 4 0.000000 0.000000 0.000000 0.041313 0.000000 0.004932
# 5 -0.004873 0.000639 -0.004162 0.000000 0.056044 0.000000
# 6 0.000000 0.000000 0.000000 0.004932 0.000000 0.056227
#
#
# Mechanical properties :
#
#
# Convention : Reuss Voigt Hill
#
# Bulk Modulus (GPa) = 35.10869 41.38620 38.24744
# Shear Modulus (GPa) = 20.93109 22.61093 21.77101
#
# Velocity S-wave (km/s) = 3.71007 3.85608 3.78378
# Velocity P-wave (km/s) = 6.43747 6.85872 6.65143
#
# Compressibility (1/GPa) = 0.02848298
#
# Stress axis : x y z
#
# Youngs Moduli (GPa) = 72.61731 44.30111 63.29847
#
# Poissons Ratio (x) = 0.05986 0.31736
# Poissons Ratio (y) = 0.09812 0.34590
# Poissons Ratio (z) = 0.36408 0.24209
#
# Static dielectric constant tensor:
#      x y z
#    x 3.115630 0.000000 0.356950 
#    y 0.000000 2.980480 0.000000 
#    z 0.356950 0.000000 3.165210 
# 
# 
# High freq. dielectric constant tensor:
#      x y z
#    x 1.561270 0.000000 0.015900 
#    y 0.000000 1.600780 0.000000 
#    z 0.015900 0.000000 1.563590 
# 
# From -- ./inp_files/51386.got.cif
#   From: 2010.06.25/outbox.cif.g09.slc.cpg/sg11_26_cif.got.tgz:51386.got - 2010.06.27 23:14:04.
