data_PCOD8068640
_publ_section_title
;
Structure prediction by ZEFSAII (Michael W. Deem and Ramdas Pophale) SiO2 
 PCOD8068640
Probable space group: P 21/M
;
_chemical_formula_sum "Si O2"
_cell_formula_units_Z 32
_cell_length_a 14.337131
_cell_length_b 9.210760
_cell_length_c 19.562255
_cell_angle_alpha 90.000000
_cell_angle_beta 45.611684
_cell_angle_gamma 90.000000
_cell_volume 1846.073431
_symmetry_space_group_name_H-M "P 21/M"
_symmetry_group_IT_number 11
_symmetry_cell_setting 'monoclinic'
loop_
_space_group_symop_operation_xyz
x,y,z
-x,1/2+y,-z
-x,-y,-z
x,1/2-y,z
loop_
_atom_site_type_symbol
_atom_site_label
_atom_site_fract_x
_atom_site_fract_y
_atom_site_fract_z
Si Si1 0.073696 0.086952 0.541621
Si Si2 0.673945 0.084255 0.598439
Si Si3 0.620170 0.078219 0.473201
Si Si4 0.881276 0.588549 0.822745
Si Si5 0.403523 0.419337 0.998234
Si Si6 0.834652 0.590065 0.688464
Si Si7 0.415700 0.914225 0.213003
Si Si8 0.121566 0.413886 0.677878
O O1 0.058427 0.250000 0.521469
O O2 0.088626 0.087745 0.615237
O O3 0.203043 0.014676 0.443237
O O4 0.943551 0.996173 0.588105
O O5 0.723763 0.250000 0.568193
O O6 0.611086 0.039823 0.558550
O O7 0.567290 0.062804 0.713781
O O8 0.615783 0.250000 0.461786
O O9 0.500000 0.000000 0.500000
O O10 0.751821 0.012873 0.373413
O O11 0.903454 0.750000 0.842566
O O12 0.882106 0.600826 0.741189
O O13 0.000622 0.482925 0.782513
O O14 0.744353 0.521393 0.919941
O O15 0.404878 0.250000 0.017736
O O16 0.450025 0.446738 0.896108
O O17 0.500000 0.500000 0.000000
O O18 0.821267 0.750000 0.663136
O O19 0.695390 0.514798 0.760683
O O20 0.370715 0.750000 0.221072
O O21 0.146449 0.250000 0.691683
#
# Coordination Sequence:
#
# PCOD8068640 Si02
#       8
#     4   4   4   4   4   4   4   4
#     4   9  17  29  45  64  88 121 160 197 232 275
#     4   9  19  34  48  66  93 124 154 189 233 281
#     4  10  19  33  54  77 101 124 149 184 230 287
#     4   9  17  29  44  65  94 126 160 200 243 278
#     4  10  19  31  47  67  92 125 167 210 245 278
#     4  10  18  28  43  63  89 123 162 201 239 276
#     4  10  20  32  46  64  90 124 163 201 237 277
#     4   9  17  29  47  72  97 122 155 192 233 280
#
# _framework density 17.334087
#
# number of rings (size 3 to 8) (size 9 to 14) (size 15 to 20)
#    0.000    2.500    1.250    1.500    0.000    5.500 
#    0.000    0.000    0.000    0.000    0.000    0.875 
#    0.000    0.000    0.000    0.000    0.000    0.000 
#
# Total GULP energy -396716.417570 kJ/mol
# GULP energy per Si atom -12397.388049 kJ/mol
# Density = 1.729463 g / cm^3
# Si number density = 17.334087 Si / 1000 Ang^3
#
#
#
# Elastic Constant Matrix: (Units=GPa)
#
#
# Indices 1 2 3 4 5 6 
#
# 1 60.4064 39.5763 38.8458 0.0000 -16.4358 0.0000
# 2 39.5763 104.6057 51.4275 0.0000 -15.0252 0.0000
# 3 38.8458 51.4275 135.2435 0.0000 -18.3726 0.0000
# 4 0.0000 0.0000 0.0000 22.5857 0.0000 -9.6963
# 5 -16.4358 -15.0252 -18.3726 0.0000 22.2414 0.0000
# 6 0.0000 0.0000 0.0000 -9.6963 0.0000 22.1076
#
#
#
# Elastic Compliance Matrix: (Units=1/GPa)
#
#
# Indices 1 2 3 4 5 6 
#
# 1 0.026370 -0.006534 -0.003427 0.000000 0.012242 0.000000
# 2 -0.006534 0.013847 -0.003125 0.000000 0.001945 0.000000
# 3 -0.003427 -0.003125 0.010065 0.000000 0.003671 0.000000
# 4 0.000000 0.000000 0.000000 0.054547 0.000000 0.023924
# 5 0.012242 0.001945 0.003671 0.000000 0.058355 0.000000
# 6 0.000000 0.000000 0.000000 0.023924 0.000000 0.055726
#
#
# Mechanical properties :
#
#
# Convention : Reuss Voigt Hill
#
# Bulk Modulus (GPa) = 41.47241 62.21721 51.84481
# Shear Modulus (GPa) = 19.75373 24.74733 22.25053
#
# Velocity S-wave (km/s) = 3.37944 3.78255 3.58666
# Velocity P-wave (km/s) = 6.26137 7.41942 6.86486
#
# Compressibility (1/GPa) = 0.02411242
#
# Stress axis : x y z
#
# Youngs Moduli (GPa) = 37.92239 72.21684 99.35220
#
# Poissons Ratio (x) = 0.47184 0.34044
# Poissons Ratio (y) = 0.24777 0.31044
# Poissons Ratio (z) = 0.12994 0.22565
#
# Static dielectric constant tensor:
#      x y z
#    x 2.845280 0.000000 -0.036970 
#    y 0.000000 3.496710 0.000000 
#    z -0.036970 0.000000 3.436540 
# 
# 
# High freq. dielectric constant tensor:
#      x y z
#    x 1.619380 0.000000 -0.006660 
#    y 0.000000 1.680900 0.000000 
#    z -0.006660 0.000000 1.670990 
# 
# From -- ./inp_files/51209.got.cif
#   From: 2010.06.25/outbox.cif.g09.slc.cpg/sg11_26_cif.got.tgz:51209.got - 2010.06.27 23:14:04.
