data_PCOD8068044
_publ_section_title
;
Structure prediction by ZEFSAII (Michael W. Deem and Ramdas Pophale) SiO2 
 PCOD8068044
Probable space group: P 2/M
;
_chemical_formula_sum "Si O2"
_cell_formula_units_Z 20
_cell_length_a 9.146686
_cell_length_b 7.548529
_cell_length_c 27.268766
_cell_angle_alpha 90.000000
_cell_angle_beta 146.989254
_cell_angle_gamma 90.000000
_cell_volume 1025.712739
_symmetry_space_group_name_H-M "P 2/M"
_symmetry_group_IT_number 10
_symmetry_cell_setting 'monoclinic'
loop_
_space_group_symop_operation_xyz
x,y,z
-x,y,-z
-x,-y,-z
x,-y,z
loop_
_atom_site_type_symbol
_atom_site_label
_atom_site_fract_x
_atom_site_fract_y
_atom_site_fract_z
Si Si1 0.417153 0.797190 0.235444
Si Si2 0.422711 0.500000 0.099875
Si Si3 0.699359 0.789534 0.413996
Si Si4 0.629379 0.789534 0.586004
Si Si5 0.076663 0.500000 0.099875
Si Si6 0.239935 0.202810 0.764556
O O1 0.554743 0.727878 0.323694
O O2 0.156473 0.676655 0.152190
O O3 0.636595 0.775645 0.254638
O O4 0.318527 0.000000 0.212038
O O5 0.229185 0.500000 0.091674
O O6 0.604476 0.323346 0.152190
O O7 0.243554 0.500000 0.000000
O O8 0.534600 0.713464 0.413840
O O9 0.000000 0.711026 0.500000
O O10 0.711038 0.000000 0.419339
O O11 0.500000 0.711025 0.500000
O O12 0.936270 0.727881 0.676305
O O13 0.614329 0.000000 0.580658
O O14 0.258341 0.000000 0.787963
#
# Coordination Sequence:
#
# PCOD8068044 Si02
#       6
#     4   2   4   4   2   4
#     4   9  17  30  49  72  98 128 161 197 238 284
#     4   9  18  32  50  73  98 123 158 205 248 285
#     4   9  16  27  46  72 101 131 162 196 235 282
#     4   9  16  27  46  72 101 131 162 196 235 282
#     4   9  18  32  50  73  98 123 158 205 248 285
#     4   9  17  30  49  72  98 128 161 197 238 284
#
# _framework density 19.498636999999999
#
# number of rings (size 3 to 8) (size 9 to 14) (size 15 to 20)
#    0.000    3.000    0.000    1.200    0.000    5.600 
#    0.000    6.000    0.000    2.400    0.000    5.600 
#    0.000    0.000    0.000    0.000    0.000    0.000 
#
# Total GULP energy -247964.887611 kJ/mol
# GULP energy per Si atom -12398.244381 kJ/mol
# Density = 1.945426 g / cm^3
# Si number density = 19.498637 Si / 1000 Ang^3
#
#
#
# Elastic Constant Matrix: (Units=GPa)
#
#
# Indices 1 2 3 4 5 6 
#
# 1 83.8076 26.5327 67.2600 0.0000 -1.0437 0.0000
# 2 26.5327 83.5042 71.5383 0.0000 -1.4141 0.0000
# 3 67.2600 71.5383 213.0275 0.0000 -3.0173 0.0000
# 4 0.0000 0.0000 0.0000 -22.2329 0.0000 0.8780
# 5 -1.0437 -1.4141 -3.0173 0.0000 24.9418 0.0000
# 6 0.0000 0.0000 0.0000 0.8780 0.0000 5.6886
#
#
#
# Elastic Compliance Matrix: (Units=1/GPa)
#
#
# Indices 1 2 3 4 5 6 
#
# 1 0.016049 -0.001064 -0.004709 0.000000 0.000042 0.000000
# 2 -0.001064 0.016885 -0.005330 0.000000 0.000268 0.000000
# 3 -0.004709 -0.005330 0.007978 0.000000 0.000466 0.000000
# 4 0.000000 0.000000 0.000000 -0.044706 0.000000 0.006900
# 5 0.000042 0.000268 0.000466 0.000000 0.040167 0.000000
# 6 0.000000 0.000000 0.000000 0.006900 0.000000 0.174725
#
#
# Mechanical properties :
#
#
# Convention : Reuss Voigt Hill
#
# Bulk Modulus (GPa) = 53.46556 79.00014 66.23285
# Shear Modulus (GPa) = 20.87346 16.01341 18.44343
#
# Velocity S-wave (km/s) = 3.27541 2.86887 3.07886
# Velocity P-wave (km/s) = 6.46406 7.18175 6.83234
#
# Compressibility (1/GPa) = 0.01870363
#
# Stress axis : x y z
#
# Youngs Moduli (GPa) = 62.30948 59.22533 125.34955
#
# Poissons Ratio (x) = 0.06303 0.59029
# Poissons Ratio (y) = 0.06632 0.66815
# Poissons Ratio (z) = 0.29343 0.31569
#
# Static dielectric constant tensor:
#      x y z
#    x 3.440010 0.000000 -0.010950 
#    y 0.000000 3.376680 0.000000 
#    z -0.010950 0.000000 3.788100 
# 
# 
# High freq. dielectric constant tensor:
#      x y z
#    x 1.734320 0.000000 -0.000770 
#    y 0.000000 1.747690 0.000000 
#    z -0.000770 0.000000 1.758770 
# 
# From -- ./inp_files/31459.got.cif
#   From: 2010.06.25/outbox.cif.g09.slc.cpg/sg10_16_cif.got.tgz:31459.got - 2010.06.27 22:07:45.
