data_PCOD8068907
_publ_section_title
;
Structure prediction by ZEFSAII (Michael W. Deem and Ramdas Pophale) SiO2 
 PCOD8068907
Probable space group: P 21/M
;
_chemical_formula_sum "Si O2"
_cell_formula_units_Z 32
_cell_length_a 17.232070
_cell_length_b 10.952677
_cell_length_c 22.888177
_cell_angle_alpha 90.000000
_cell_angle_beta 24.065688
_cell_angle_gamma 90.000000
_cell_volume 1761.565627
_symmetry_space_group_name_H-M "P 21/M"
_symmetry_group_IT_number 11
_symmetry_cell_setting 'monoclinic'
loop_
_space_group_symop_operation_xyz
x,y,z
-x,1/2+y,-z
-x,-y,-z
x,1/2-y,z
loop_
_atom_site_type_symbol
_atom_site_label
_atom_site_fract_x
_atom_site_fract_y
_atom_site_fract_z
Si Si1 0.311179 0.971508 0.797415
Si Si2 0.605883 0.890992 0.069446
Si Si3 0.852989 0.477177 0.522929
Si Si4 0.974410 0.390992 0.225053
Si Si5 0.691149 0.109363 0.514894
Si Si6 0.205412 0.614780 0.310889
Si Si7 0.510127 0.384231 0.215317
Si Si8 0.019270 0.889789 0.909104
O O1 0.394341 0.875080 0.786546
O O2 0.218208 0.902539 0.806485
O O3 0.484073 0.051256 0.654099
O O4 0.152458 0.053774 0.936830
O O5 0.588642 0.750000 0.106582
O O6 0.809964 0.906434 0.897992
O O7 0.430224 0.914744 0.145544
O O8 0.599630 0.996162 0.123175
O O9 0.794580 0.403038 0.506054
O O10 0.831802 0.390975 0.593857
O O11 0.716863 0.595602 0.623681
O O12 0.072272 0.521141 0.367155
O O13 0.919760 0.250000 0.258125
O O14 0.826769 0.452572 0.371965
O O15 0.960130 0.450023 0.169819
O O16 0.662713 0.250000 0.520951
O O17 0.157910 0.750000 0.321286
O O18 0.543617 0.250000 0.162259
O O19 0.964225 0.750000 0.938394
#
# Coordination Sequence:
#
# PCOD8068907 Si02
#       8
#     4   4   4   4   4   4   4   4
#     4  10  20  31  50  78 101 134 168 218 261 310
#     4   9  17  31  52  75 100 137 182 216 252 308
#     4   9  18  29  45  74 103 134 166 213 264 309
#     4   9  18  33  53  74 100 137 177 218 260 305
#     4  10  20  34  52  75 104 137 176 217 257 309
#     4   9  16  28  48  73 100 129 169 215 259 308
#     4  10  18  29  48  74 106 137 169 214 270 314
#     4  10  19  33  52  75 102 131 172 219 263 310
#
# _framework density 18.165658000000001
#
# number of rings (size 3 to 8) (size 9 to 14) (size 15 to 20)
#    0.000    2.500    1.250    1.500    0.000    3.500 
#    0.000    1.250    0.000    4.500    0.000    0.000 
#    0.000    0.000    0.000    0.000    0.000    0.000 
#
# Total GULP energy -396447.421863 kJ/mol
# GULP energy per Si atom -12388.981933 kJ/mol
# Density = 1.812431 g / cm^3
# Si number density = 18.165658 Si / 1000 Ang^3
#
#
#
# Elastic Constant Matrix: (Units=GPa)
#
#
# Indices 1 2 3 4 5 6 
#
# 1 41.3878 -0.2300 36.2616 0.0000 -13.3959 0.0000
# 2 -0.2300 68.3704 23.0830 0.0000 -0.8575 0.0000
# 3 36.2616 23.0830 113.9897 0.0000 -6.4833 0.0000
# 4 0.0000 0.0000 0.0000 16.2060 0.0000 -3.7769
# 5 -13.3959 -0.8575 -6.4833 0.0000 30.7444 0.0000
# 6 0.0000 0.0000 0.0000 -3.7769 0.0000 11.3815
#
#
#
# Elastic Compliance Matrix: (Units=1/GPa)
#
#
# Indices 1 2 3 4 5 6 
#
# 1 0.040382 0.004694 -0.012944 0.000000 0.014997 0.000000
# 2 0.004694 0.016247 -0.004697 0.000000 0.001508 0.000000
# 3 -0.012944 -0.004697 0.013677 0.000000 -0.002887 0.000000
# 4 0.000000 0.000000 0.000000 0.066878 0.000000 0.022193
# 5 0.014997 0.001508 -0.002887 0.000000 0.038494 0.000000
# 6 0.000000 0.000000 0.000000 0.022193 0.000000 0.095226
#
#
# Mechanical properties :
#
#
# Convention : Reuss Voigt Hill
#
# Bulk Modulus (GPa) = 22.51641 37.99744 30.25693
# Shear Modulus (GPa) = 16.04609 22.64196 19.34403
#
# Velocity S-wave (km/s) = 2.97529 3.53429 3.26677
# Velocity P-wave (km/s) = 4.92190 6.13331 5.56070
#
# Compressibility (1/GPa) = 0.04441205
#
# Stress axis : x y z
#
# Youngs Moduli (GPa) = 24.76337 61.55042 73.11363
#
# Poissons Ratio (x) = -0.28892 0.94636
# Poissons Ratio (y) = -0.11624 0.34345
# Poissons Ratio (z) = 0.32053 0.28913
#
# Static dielectric constant tensor:
#      x y z
#    x 3.354840 0.000000 -0.213130 
#    y 0.000000 3.101540 0.000000 
#    z -0.213130 0.000000 3.519860 
# 
# 
# High freq. dielectric constant tensor:
#      x y z
#    x 1.688530 0.000000 -0.029110 
#    y 0.000000 1.683900 0.000000 
#    z -0.029110 0.000000 1.702340 
# 
# From -- ./inp_files/69639.got.cif
#   From: 2010.06.25/outbox.cif.g09.slc.cpg/sg11_35_cif.got.tgz:69639.got - 2010.06.27 23:14:04.
