data_PCOD8068609
_publ_section_title
;
Structure prediction by ZEFSAII (Michael W. Deem and Ramdas Pophale) SiO2 
 PCOD8068609
Probable space group: P 21/M
;
_chemical_formula_sum "Si O2"
_cell_formula_units_Z 32
_cell_length_a 27.733969
_cell_length_b 8.989535
_cell_length_c 20.358503
_cell_angle_alpha 90.000000
_cell_angle_beta 23.162856
_cell_angle_gamma 90.000000
_cell_volume 1996.502201
_symmetry_space_group_name_H-M "P 21/M"
_symmetry_group_IT_number 11
_symmetry_cell_setting 'monoclinic'
loop_
_space_group_symop_operation_xyz
x,y,z
-x,1/2+y,-z
-x,-y,-z
x,1/2-y,z
loop_
_atom_site_type_symbol
_atom_site_label
_atom_site_fract_x
_atom_site_fract_y
_atom_site_fract_z
Si Si1 0.842623 0.080349 0.152598
Si Si2 0.947293 0.573842 0.288754
Si Si3 0.819966 0.415494 0.850722
Si Si4 0.111787 0.414920 0.497751
Si Si5 0.372438 0.576317 0.674395
Si Si6 0.207139 0.426182 0.987233
Si Si7 0.076296 0.921469 0.808840
Si Si8 0.127621 0.923155 0.353814
O O1 0.887781 0.250000 0.083869
O O2 0.710610 0.052884 0.286275
O O3 0.834024 0.049144 0.241635
O O4 0.938536 0.969019 0.999661
O O5 0.969837 0.750000 0.258627
O O6 0.866352 0.530044 0.454412
O O7 0.876073 0.517301 0.313086
O O8 0.079133 0.495060 0.124291
O O9 0.772402 0.250000 0.928351
O O10 0.783407 0.455538 0.820572
O O11 0.966478 0.417247 0.670004
O O12 0.764909 0.532414 0.971508
O O13 0.164954 0.250000 0.421761
O O14 0.180673 0.516206 0.356928
O O15 0.500000 0.500000 0.500000
O O16 0.389880 0.750000 0.668489
O O17 0.314690 0.495268 0.809308
O O18 0.204074 0.250000 0.983094
O O19 0.074424 0.750000 0.790558
O O20 0.103512 0.750000 0.391669
O O21 0.000000 0.000000 0.500000
#
# Coordination Sequence:
#
# PCOD8068609 Si02
#       8
#     4   4   4   4   4   4   4   4
#     4   9  19  33  47  64  87 113 138 175 224 261
#     4  10  18  28  40  58  85 116 142 175 220 255
#     4   8  15  26  37  51  74 105 135 171 215 252
#     4   8  15  24  34  49  74 106 139 169 205 249
#     4  11  22  36  51  65  87 115 143 180 224 265
#     4  11  20  29  43  63  81 105 145 183 214 258
#     4  10  18  28  46  68  86 109 145 180 212 260
#     4   9  15  22  33  49  71 100 136 171 206 245
#
# _framework density 16.028030000000001
#
# number of rings (size 3 to 8) (size 9 to 14) (size 15 to 20)
#    0.000    2.500    1.250    4.125    0.000    6.500 
#    0.000    0.000    0.000    0.000    0.000    0.000 
#    0.000    0.000    0.000    1.125    0.000   14.375 
#
# Total GULP energy -396545.695531 kJ/mol
# GULP energy per Si atom -12392.052985 kJ/mol
# Density = 1.599155 g / cm^3
# Si number density = 16.028030 Si / 1000 Ang^3
#
#
#
# Elastic Constant Matrix: (Units=GPa)
#
#
# Indices 1 2 3 4 5 6 
#
# 1 133.6280 61.5228 38.5142 0.0000 32.1039 0.0000
# 2 61.5228 105.0676 30.8143 0.0000 16.9492 0.0000
# 3 38.5142 30.8143 37.5338 0.0000 8.0140 0.0000
# 4 0.0000 0.0000 0.0000 17.9530 0.0000 7.9921
# 5 32.1039 16.9492 8.0140 0.0000 22.2968 0.0000
# 6 0.0000 0.0000 0.0000 7.9921 0.0000 29.1798
#
#
#
# Elastic Compliance Matrix: (Units=1/GPa)
#
#
# Indices 1 2 3 4 5 6 
#
# 1 0.016098 -0.003860 -0.009778 0.000000 -0.016730 0.000000
# 2 -0.003860 0.014340 -0.007226 0.000000 -0.002746 0.000000
# 3 -0.009778 -0.007226 0.041623 0.000000 0.004610 0.000000
# 4 0.000000 0.000000 0.000000 0.063436 0.000000 -0.017374
# 5 -0.016730 -0.002746 0.004610 0.000000 0.069369 0.000000
# 6 0.000000 0.000000 0.000000 -0.017374 0.000000 0.039029
#
#
# Mechanical properties :
#
#
# Convention : Reuss Voigt Hill
#
# Bulk Modulus (GPa) = 32.96515 59.77020 46.36768
# Shear Modulus (GPa) = 16.90716 23.57780 20.24248
#
# Velocity S-wave (km/s) = 3.25137 3.83957 3.55765
# Velocity P-wave (km/s) = 5.89127 7.55171 6.77257
#
# Compressibility (1/GPa) = 0.03033506
#
# Stress axis : x y z
#
# Youngs Moduli (GPa) = 62.11939 69.73503 24.02497
#
# Poissons Ratio (x) = 0.26917 0.23491
# Poissons Ratio (y) = 0.23977 0.17360
# Poissons Ratio (z) = 0.60737 0.50389
#
# Static dielectric constant tensor:
#      x y z
#    x 4.130970 0.000000 0.647360 
#    y 0.000000 3.180010 0.000000 
#    z 0.647360 0.000000 2.612610 
# 
# 
# High freq. dielectric constant tensor:
#      x y z
#    x 1.630160 0.000000 0.040250 
#    y 0.000000 1.628950 0.000000 
#    z 0.040250 0.000000 1.536580 
# 
# From -- ./inp_files/66960.got.cif
#   From: 2010.06.25/outbox.cif.g09.slc.cpg/sg11_34_cif.got.tgz:66960.got - 2010.06.27 23:14:04.
