data_PCOD8068992
_publ_section_title
;
Structure prediction by ZEFSAII (Michael W. Deem and Ramdas Pophale) SiO2 
 PCOD8068992
Probable space group: P 21/M
;
_chemical_formula_sum "Si O2"
_cell_formula_units_Z 32
_cell_length_a 17.811928
_cell_length_b 8.828553
_cell_length_c 23.914011
_cell_angle_alpha 90.000000
_cell_angle_beta 30.353001
_cell_angle_gamma 90.000000
_cell_volume 1900.310645
_symmetry_space_group_name_H-M "P 21/M"
_symmetry_group_IT_number 11
_symmetry_cell_setting 'monoclinic'
loop_
_space_group_symop_operation_xyz
x,y,z
-x,1/2+y,-z
-x,-y,-z
x,1/2-y,z
loop_
_atom_site_type_symbol
_atom_site_label
_atom_site_fract_x
_atom_site_fract_y
_atom_site_fract_z
Si Si1 0.054942 0.929784 0.522194
Si Si2 0.466967 0.425306 0.131330
Si Si3 0.114773 0.424443 0.886196
Si Si4 0.104598 0.928255 0.061270
Si Si5 0.222957 0.428751 0.089956
Si Si6 0.343569 0.071190 0.824238
Si Si7 0.194788 0.429524 0.233255
Si Si8 0.634472 0.925129 0.677847
O O1 0.050665 0.750000 0.519054
O O2 0.946351 0.988319 0.641200
O O3 0.218322 0.984559 0.433483
O O4 0.000000 0.000000 0.500000
O O5 0.510248 0.250000 0.093846
O O6 0.347927 0.486087 0.162873
O O7 0.395927 0.449142 0.237465
O O8 0.610626 0.528768 0.033979
O O9 0.091164 0.250000 0.911930
O O10 0.280244 0.467112 0.801840
O O11 0.062076 0.463785 0.856585
O O12 0.000000 0.500000 0.000000
O O13 0.139204 0.750000 0.039936
O O14 0.106618 0.993410 0.122521
O O15 0.233304 0.007358 0.942355
O O16 0.203423 0.250000 0.098876
O O17 0.186193 0.490990 0.175515
O O18 0.362054 0.250000 0.822171
O O19 0.501521 0.990598 0.726016
O O20 0.197037 0.250000 0.232532
O O21 0.656607 0.750000 0.648927
#
# Coordination Sequence:
#
# PCOD8068992 Si02
#       8
#     4   4   4   4   4   4   4   4
#     4  11  21  37  56  73  96 128 168 211 254 294
#     4  10  19  34  51  68  98 133 162 199 248 292
#     4   8  16  28  44  66  95 129 162 194 235 290
#     4  10  18  30  46  68 101 135 160 195 246 290
#     4  11  21  32  49  73  99 130 170 204 237 290
#     4  10  18  30  48  72  98 128 167 202 237 291
#     4   9  20  37  52  68  95 130 166 209 249 284
#     4  11  21  33  51  75 102 131 164 204 252 294
#
# _framework density 16.839352000000002
#
# number of rings (size 3 to 8) (size 9 to 14) (size 15 to 20)
#    0.000    2.000    2.500    2.250    0.000    1.500 
#    0.000    3.125    0.000    0.000    0.000    0.875 
#    0.000    0.000    0.000    0.000    0.000    0.000 
#
# Total GULP energy -396619.263193 kJ/mol
# GULP energy per Si atom -12394.351975 kJ/mol
# Density = 1.680103 g / cm^3
# Si number density = 16.839352 Si / 1000 Ang^3
#
#
#
# Elastic Constant Matrix: (Units=GPa)
#
#
# Indices 1 2 3 4 5 6 
#
# 1 155.2198 36.5002 41.2452 0.0000 -13.3568 0.0000
# 2 36.5002 53.3586 21.7963 0.0000 -1.8051 0.0000
# 3 41.2452 21.7963 44.1795 0.0000 -1.9626 0.0000
# 4 0.0000 0.0000 0.0000 17.8678 0.0000 -1.7702
# 5 -13.3568 -1.8051 -1.9626 0.0000 21.6452 0.0000
# 6 0.0000 0.0000 0.0000 -1.7702 0.0000 25.4909
#
#
#
# Elastic Compliance Matrix: (Units=1/GPa)
#
#
# Indices 1 2 3 4 5 6 
#
# 1 0.009546 -0.003521 -0.006954 0.000000 0.004966 0.000000
# 2 -0.003521 0.024788 -0.008983 0.000000 -0.000920 0.000000
# 3 -0.006954 -0.008983 0.033470 0.000000 -0.002005 0.000000
# 4 0.000000 0.000000 0.000000 0.056354 0.000000 0.003914
# 5 0.004966 -0.000920 -0.002005 0.000000 0.049006 0.000000
# 6 0.000000 0.000000 0.000000 0.003914 0.000000 0.039502
#
#
# Mechanical properties :
#
#
# Convention : Reuss Voigt Hill
#
# Bulk Modulus (GPa) = 34.61717 50.20462 42.41090
# Shear Modulus (GPa) = 19.14169 23.21517 21.17843
#
# Velocity S-wave (km/s) = 3.37519 3.71701 3.55022
# Velocity P-wave (km/s) = 5.98257 6.94983 6.48426
#
# Compressibility (1/GPa) = 0.02888740
#
# Stress axis : x y z
#
# Youngs Moduli (GPa) = 104.76013 40.34190 29.87785
#
# Poissons Ratio (x) = 0.14205 0.20776
# Poissons Ratio (y) = 0.36888 0.26839
# Poissons Ratio (z) = 0.72848 0.36239
#
# Static dielectric constant tensor:
#      x y z
#    x 3.857050 0.000000 -0.145800 
#    y 0.000000 3.194870 0.000000 
#    z -0.145800 0.000000 3.008250 
# 
# 
# High freq. dielectric constant tensor:
#      x y z
#    x 1.664160 0.000000 -0.015680 
#    y 0.000000 1.652980 0.000000 
#    z -0.015680 0.000000 1.608310 
# 
# From -- ./inp_files/64233.got.cif
#   From: 2010.06.25/outbox.cif.g09.slc.cpg/sg11_33_cif.got.tgz:64233.got - 2010.06.27 23:14:04.
