data_PCOD8068482
_publ_section_title
;
Structure prediction by ZEFSAII (Michael W. Deem and Ramdas Pophale) SiO2 
 PCOD8068482
Probable space group: P 21/M
;
_chemical_formula_sum "Si O2"
_cell_formula_units_Z 32
_cell_length_a 9.012625
_cell_length_b 15.325825
_cell_length_c 12.519246
_cell_angle_alpha 90.000000
_cell_angle_beta 102.785124
_cell_angle_gamma 90.000000
_cell_volume 1686.359163
_symmetry_space_group_name_H-M "P 21/M"
_symmetry_group_IT_number 11
_symmetry_cell_setting 'monoclinic'
loop_
_space_group_symop_operation_xyz
x,y,z
-x,1/2+y,-z
-x,-y,-z
x,1/2-y,z
loop_
_atom_site_type_symbol
_atom_site_label
_atom_site_fract_x
_atom_site_fract_y
_atom_site_fract_z
Si Si1 0.662028 0.653806 0.019788
Si Si2 0.823390 0.011957 0.990989
Si Si3 0.650228 0.347112 0.361604
Si Si4 0.389739 0.445885 0.407748
Si Si5 0.315416 0.152644 0.729238
Si Si6 0.594929 0.447874 0.793071
Si Si7 0.174208 0.480816 0.547652
Si Si8 0.379499 0.585264 0.870268
O O1 0.696163 0.750000 0.979463
O O2 0.716089 0.648379 0.150080
O O3 0.756382 0.585227 0.964840
O O4 0.481921 0.633565 0.976427
O O5 0.743714 0.073156 0.888079
O O6 0.777607 0.052677 0.098847
O O7 0.000000 0.000000 0.000000
O O8 0.705681 0.250000 0.404190
O O9 0.477304 0.359797 0.378443
O O10 0.752720 0.423450 0.427233
O O11 0.657208 0.351137 0.233874
O O12 0.500000 0.500000 0.500000
O O13 0.340082 0.501938 0.298223
O O14 0.239930 0.428058 0.455059
O O15 0.278658 0.250000 0.679900
O O16 0.496736 0.135465 0.737620
O O17 0.208012 0.080468 0.655254
O O18 0.469348 0.501281 0.841282
O O19 0.000000 0.500000 0.500000
#
# Coordination Sequence:
#
# PCOD8068482 Si02
#       8
#     4   4   4   4   4   4   4   4
#     4  10  19  34  57  85 114 148 197 243 281 345
#     4  11  21  33  56  86 122 160 184 230 303 361
#     4  10  20  36  61  86 113 151 204 245 287 350
#     4   9  18  35  57  80 109 146 193 245 292 331
#     4  11  20  35  62  87 109 151 202 244 285 346
#     4  10  17  36  57  80 109 148 202 235 274 340
#     4  11  23  40  58  84 123 155 190 248 311 357
#     4  10  17  35  59  81 112 154 194 231 289 344
#
# _framework density 18.975791999999998
#
# number of rings (size 3 to 8) (size 9 to 14) (size 15 to 20)
#    0.000    1.750    6.250    1.125    0.000    3.000 
#    0.000    1.875    0.000    0.000    0.000    0.000 
#    0.000    0.000    0.000    0.000    0.000    0.000 
#
# Total GULP energy -396481.875015 kJ/mol
# GULP energy per Si atom -12390.058594 kJ/mol
# Density = 1.893260 g / cm^3
# Si number density = 18.975792 Si / 1000 Ang^3
#
#
#
# Elastic Constant Matrix: (Units=GPa)
#
#
# Indices 1 2 3 4 5 6 
#
# 1 128.6564 31.8784 44.1611 0.0000 1.7693 0.0000
# 2 31.8784 111.8565 21.3524 0.0000 3.9712 0.0000
# 3 44.1611 21.3524 91.9146 0.0000 -3.7002 0.0000
# 4 0.0000 0.0000 0.0000 16.6557 0.0000 0.6080
# 5 1.7693 3.9712 -3.7002 0.0000 25.6273 0.0000
# 6 0.0000 0.0000 0.0000 0.6080 0.0000 12.2138
#
#
#
# Elastic Compliance Matrix: (Units=1/GPa)
#
#
# Indices 1 2 3 4 5 6 
#
# 1 0.009727 -0.001923 -0.004267 0.000000 -0.000990 0.000000
# 2 -0.001923 0.009816 -0.001421 0.000000 -0.001593 0.000000
# 3 -0.004267 -0.001421 0.013358 0.000000 0.002443 0.000000
# 4 0.000000 0.000000 0.000000 0.060149 0.000000 -0.002994
# 5 -0.000990 -0.001593 0.002443 0.000000 0.039689 0.000000
# 6 0.000000 0.000000 0.000000 -0.002994 0.000000 0.082024
#
#
# Mechanical properties :
#
#
# Convention : Reuss Voigt Hill
#
# Bulk Modulus (GPa) = 56.55796 58.57903 57.56850
# Shear Modulus (GPa) = 21.19760 26.56842 23.88301
#
# Velocity S-wave (km/s) = 3.34591 3.74588 3.55153
# Velocity P-wave (km/s) = 6.69304 7.04601 6.87179
#
# Compressibility (1/GPa) = 0.01768098
#
# Stress axis : x y z
#
# Youngs Moduli (GPa) = 102.80496 101.87751 74.86131
#
# Poissons Ratio (x) = 0.19587 0.31941
# Poissons Ratio (y) = 0.19765 0.10636
# Poissons Ratio (z) = 0.43864 0.14474
#
# Static dielectric constant tensor:
#      x y z
#    x 2.996120 0.000000 0.228690 
#    y 0.000000 3.501680 0.000000 
#    z 0.228690 0.000000 3.412750 
# 
# 
# High freq. dielectric constant tensor:
#      x y z
#    x 1.699420 0.000000 -0.001000 
#    y 0.000000 1.723330 0.000000 
#    z -0.001000 0.000000 1.747790 
# 
# From -- ./inp_files/31907.got.cif
#   From: 2010.06.25/outbox.cif.g09.slc.cpg/sg11_16_cif.got.tgz:31907.got - 2010.06.27 23:14:04.
