data_PCOD8068365
_publ_section_title
;
Structure prediction by ZEFSAII (Michael W. Deem and Ramdas Pophale) SiO2 
 PCOD8068365
Probable space group: P 21/M
;
_chemical_formula_sum "Si O2"
_cell_formula_units_Z 32
_cell_length_a 14.973571
_cell_length_b 21.620121
_cell_length_c 14.994123
_cell_angle_alpha 90.000000
_cell_angle_beta 160.243161
_cell_angle_gamma 90.000000
_cell_volume 1640.811192
_symmetry_space_group_name_H-M "P 21/M"
_symmetry_group_IT_number 11
_symmetry_cell_setting 'monoclinic'
loop_
_space_group_symop_operation_xyz
x,y,z
-x,1/2+y,-z
-x,-y,-z
x,1/2-y,z
loop_
_atom_site_type_symbol
_atom_site_label
_atom_site_fract_x
_atom_site_fract_y
_atom_site_fract_z
Si Si1 0.530663 0.676877 0.526909
Si Si2 0.184386 0.928242 0.761103
Si Si3 0.415558 0.132511 0.615032
Si Si4 0.824249 0.676450 0.135377
Si Si5 0.291064 0.891280 0.664033
Si Si6 0.864750 0.319359 0.158722
Si Si7 0.634432 0.522431 0.304232
Si Si8 0.964118 0.677946 0.071314
O O1 0.554256 0.750000 0.524801
O O2 0.532918 0.633932 0.441857
O O3 0.264117 0.662669 0.329924
O O4 0.768800 0.651842 0.812107
O O5 0.278143 0.923099 0.748372
O O6 0.192326 0.859505 0.808125
O O7 0.890661 0.955489 0.490193
O O8 0.380416 0.971371 0.001799
O O9 0.401205 0.062166 0.638468
O O10 0.146572 0.167984 0.380768
O O11 0.650995 0.169681 0.881587
O O12 0.853749 0.750000 0.171343
O O13 0.898167 0.650909 0.106678
O O14 0.020138 0.644070 0.389174
O O15 0.526100 0.657880 0.878012
O O16 0.338086 0.950187 0.642595
O O17 0.849155 0.250000 0.178849
O O18 0.907542 0.750000 0.023068
#
# Coordination Sequence:
#
# PCOD8068365 Si02
#       8
#     4   4   4   4   4   4   4   4
#     4  10  17  29  53  78 102 138 179 214 265 329
#     4  10  21  36  55  82 110 146 187 229 261 309
#     4  10  20  32  51  79 110 142 179 222 261 319
#     4  11  24  40  58  84 112 137 177 233 287 329
#     4  12  22  38  63  81 105 148 189 227 271 328
#     4  10  19  31  47  73 113 146 170 213 275 323
#     4  10  21  38  57  81 113 145 187 228 267 311
#     4   9  19  34  52  76 106 138 173 222 273 321
#
# _framework density 19.502548000000001
#
# number of rings (size 3 to 8) (size 9 to 14) (size 15 to 20)
#    0.000    1.750    0.000    5.250    0.000    4.000 
#    0.000    0.000    0.000    4.500    0.000    0.000 
#    0.000    0.000    0.000    0.000    0.000    0.000 
#
# Total GULP energy -396880.667595 kJ/mol
# GULP energy per Si atom -12402.520862 kJ/mol
# Density = 1.945816 g / cm^3
# Si number density = 19.502548 Si / 1000 Ang^3
#
#
#
# Elastic Constant Matrix: (Units=GPa)
#
#
# Indices 1 2 3 4 5 6 
#
# 1 66.4259 8.0401 4.6902 0.0000 -2.3929 0.0000
# 2 8.0401 82.0428 18.1140 0.0000 -11.2046 0.0000
# 3 4.6902 18.1140 102.0813 0.0000 1.3742 0.0000
# 4 0.0000 0.0000 0.0000 17.8643 0.0000 -1.1226
# 5 -2.3929 -11.2046 1.3742 0.0000 19.5733 0.0000
# 6 0.0000 0.0000 0.0000 -1.1226 0.0000 15.6700
#
#
#
# Elastic Compliance Matrix: (Units=1/GPa)
#
#
# Indices 1 2 3 4 5 6 
#
# 1 0.015281 -0.001222 -0.000501 0.000000 0.001204 0.000000
# 2 -0.001222 0.013962 -0.002529 0.000000 0.008021 0.000000
# 3 -0.000501 -0.002529 0.010298 0.000000 -0.002232 0.000000
# 4 0.000000 0.000000 0.000000 0.056231 0.000000 0.004028
# 5 0.001204 0.008021 -0.002232 0.000000 0.055985 0.000000
# 6 0.000000 0.000000 0.000000 0.004028 0.000000 0.064105
#
#
# Mechanical properties :
#
#
# Convention : Reuss Voigt Hill
#
# Bulk Modulus (GPa) = 32.22159 34.69317 33.45738
# Shear Modulus (GPa) = 21.30256 25.26858 23.28557
#
# Velocity S-wave (km/s) = 3.30858 3.60343 3.45914
# Velocity P-wave (km/s) = 5.58150 5.92795 5.75733
#
# Compressibility (1/GPa) = 0.03103509
#
# Stress axis : x y z
#
# Youngs Moduli (GPa) = 65.44031 71.62085 97.10593
#
# Poissons Ratio (x) = 0.08755 0.04869
# Poissons Ratio (y) = 0.08000 0.24562
# Poissons Ratio (z) = 0.03281 0.18116
#
# Static dielectric constant tensor:
#      x y z
#    x 3.457370 0.000000 0.000050 
#    y 0.000000 3.465450 0.000000 
#    z 0.000050 0.000000 3.776000 
# 
# 
# High freq. dielectric constant tensor:
#      x y z
#    x 1.751200 0.000000 0.004660 
#    y 0.000000 1.741740 0.000000 
#    z 0.004660 0.000000 1.782450 
# 
# From -- ./inp_files/52684.got.cif
#   From: 2010.06.25/outbox.cif.g09.slc.cpg/sg11_27_cif.got.tgz:52684.got - 2010.06.27 23:14:04.
