data_PCOD8068685
_publ_section_title
;
Structure prediction by ZEFSAII (Michael W. Deem and Ramdas Pophale) SiO2 
 PCOD8068685
Probable space group: P 21/M
;
_chemical_formula_sum "Si O2"
_cell_formula_units_Z 28
_cell_length_a 16.349345
_cell_length_b 9.404105
_cell_length_c 17.477336
_cell_angle_alpha 90.000000
_cell_angle_beta 41.173189
_cell_angle_gamma 90.000000
_cell_volume 1769.055782
_symmetry_space_group_name_H-M "P 21/M"
_symmetry_group_IT_number 11
_symmetry_cell_setting 'monoclinic'
loop_
_space_group_symop_operation_xyz
x,y,z
-x,1/2+y,-z
-x,-y,-z
x,1/2-y,z
loop_
_atom_site_type_symbol
_atom_site_label
_atom_site_fract_x
_atom_site_fract_y
_atom_site_fract_z
Si Si1 0.374401 0.082689 0.573057
Si Si2 0.096673 0.915386 0.034192
Si Si3 0.166429 0.593272 0.432059
Si Si4 0.171799 0.412086 0.842562
Si Si5 0.066047 0.083603 0.202537
Si Si6 0.876761 0.907114 0.671545
Si Si7 0.218143 0.916529 0.563474
O O1 0.397987 0.250000 0.543205
O O2 0.287559 0.055620 0.707088
O O3 0.500000 0.000000 0.500000
O O4 0.313456 0.016588 0.540457
O O5 0.129417 0.750000 0.017461
O O6 0.952728 0.943503 0.117170
O O7 0.128074 0.991260 0.092047
O O8 0.181704 0.984269 0.908313
O O9 0.216438 0.750000 0.378505
O O10 0.202426 0.499011 0.333115
O O11 0.229158 0.538635 0.466394
O O12 0.019541 0.597258 0.546911
O O13 0.171761 0.250000 0.872115
O O14 0.089512 0.250000 0.171037
O O15 0.131385 0.034352 0.235867
O O16 0.919589 0.052600 0.309044
O O17 0.819541 0.750000 0.708728
O O18 0.251087 0.750000 0.551340
#
# Coordination Sequence:
#
# PCOD8068685 Si02
#       7
#     4   4   4   4   4   4   4
#     4  11  22  35  49  66  88 115 151 190 227 266
#     4  10  18  28  45  67  88 113 149 185 219 265
#     4   8  14  24  37  55  80 111 145 179 214 254
#     4   9  19  33  45  62  87 114 146 183 225 267
#     4   9  16  26  41  61  89 120 148 179 218 263
#     4   8  14  23  35  55  82 114 146 174 210 256
#     4   9  17  29  44  61  84 116 151 184 222 264
#
# _framework density 15.827653
#
# number of rings (size 3 to 8) (size 9 to 14) (size 15 to 20)
#    0.000    2.857    1.429    2.571    0.000    2.857 
#    0.000    2.857    0.000    0.000    0.000    0.000 
#    0.000    1.143    0.000    3.714    0.000    4.571 
#
# Total GULP energy -347078.707611 kJ/mol
# GULP energy per Si atom -12395.668129 kJ/mol
# Density = 1.579163 g / cm^3
# Si number density = 15.827653 Si / 1000 Ang^3
#
#
#
# Elastic Constant Matrix: (Units=GPa)
#
#
# Indices 1 2 3 4 5 6 
#
# 1 109.4375 74.2756 47.3383 0.0000 32.0739 0.0000
# 2 74.2756 97.6319 43.5188 0.0000 21.9806 0.0000
# 3 47.3383 43.5188 54.5261 0.0000 15.1576 0.0000
# 4 0.0000 0.0000 0.0000 21.4184 0.0000 7.8084
# 5 32.0739 21.9806 15.1576 0.0000 26.9965 0.0000
# 6 0.0000 0.0000 0.0000 7.8084 0.0000 31.6594
#
#
#
# Elastic Compliance Matrix: (Units=1/GPa)
#
#
# Indices 1 2 3 4 5 6 
#
# 1 0.025652 -0.012381 -0.007962 0.000000 -0.015926 0.000000
# 2 -0.012381 0.023037 -0.007717 0.000000 0.000285 0.000000
# 3 -0.007962 -0.007717 0.032035 0.000000 -0.002244 0.000000
# 4 0.000000 0.000000 0.000000 0.051302 0.000000 -0.012653
# 5 -0.015926 0.000285 -0.002244 0.000000 0.056990 0.000000
# 6 0.000000 0.000000 0.000000 -0.012653 0.000000 0.034707
#
#
# Mechanical properties :
#
#
# Convention : Reuss Voigt Hill
#
# Bulk Modulus (GPa) = 40.64271 65.76233 53.20252
# Shear Modulus (GPa) = 17.35842 22.44573 19.90207
#
# Velocity S-wave (km/s) = 3.31526 3.76990 3.54986
# Velocity P-wave (km/s) = 6.35521 7.78388 7.10554
#
# Compressibility (1/GPa) = 0.02460466
#
# Stress axis : x y z
#
# Youngs Moduli (GPa) = 38.98320 43.40795 31.21568
#
# Poissons Ratio (x) = 0.53743 0.24853
# Poissons Ratio (y) = 0.48265 0.24090
# Poissons Ratio (z) = 0.31038 0.33499
#
# Static dielectric constant tensor:
#      x y z
#    x 3.007220 0.000000 0.304940 
#    y 0.000000 3.170400 0.000000 
#    z 0.304940 0.000000 2.681040 
# 
# 
# High freq. dielectric constant tensor:
#      x y z
#    x 1.597300 0.000000 0.037240 
#    y 0.000000 1.614370 0.000000 
#    z 0.037240 0.000000 1.562480 
# 
# From -- ./inp_files/60081.got.cif
#   From: 2010.06.25/outbox.cif.g09.slc.cpg/sg11_31_cif.got.tgz:60081.got - 2010.06.27 23:14:04.
