data_PCOD8068163
_publ_section_title
;
Structure prediction by ZEFSAII (Michael W. Deem and Ramdas Pophale) SiO2 
 PCOD8068163
Probable space group: P 21/M
;
_chemical_formula_sum "Si O2"
_cell_formula_units_Z 32
_cell_length_a 20.641858
_cell_length_b 17.397657
_cell_length_c 11.423023
_cell_angle_alpha 90.000000
_cell_angle_beta 24.395354
_cell_angle_gamma 90.000000
_cell_volume 1694.348771
_symmetry_space_group_name_H-M "P 21/M"
_symmetry_group_IT_number 11
_symmetry_cell_setting 'monoclinic'
loop_
_space_group_symop_operation_xyz
x,y,z
-x,1/2+y,-z
-x,-y,-z
x,1/2-y,z
loop_
_atom_site_type_symbol
_atom_site_label
_atom_site_fract_x
_atom_site_fract_y
_atom_site_fract_z
Si Si1 0.009433 0.838611 0.306224
Si Si2 0.271685 0.425732 0.664660
Si Si3 0.131174 0.416033 0.659031
Si Si4 0.930101 0.082907 0.322152
Si Si5 0.935435 0.839080 0.690802
Si Si6 0.691568 0.096390 0.306550
Si Si7 0.848847 0.337072 0.245527
Si Si8 0.597196 0.661033 0.352518
O O1 0.060196 0.750000 0.217049
O O2 0.864615 0.852867 0.452633
O O3 0.953837 0.862925 0.525901
O O4 0.157765 0.890992 0.025696
O O5 0.274654 0.414989 0.517024
O O6 0.316471 0.510570 0.631153
O O7 0.390635 0.366523 0.531992
O O8 0.100541 0.402399 0.988629
O O9 0.127563 0.496363 0.595910
O O10 0.970223 0.400712 0.994718
O O11 0.938459 0.110313 0.443217
O O12 0.814160 0.138416 0.436710
O O13 0.975323 0.750000 0.646289
O O14 0.757623 0.856787 0.020040
O O15 0.698082 0.153793 0.408801
O O16 0.535755 0.111896 0.491153
O O17 0.913277 0.250000 0.133862
O O18 0.551242 0.750000 0.426714
#
# Coordination Sequence:
#
# PCOD8068163 Si02
#       8
#     4   4   4   4   4   4   4   4
#     4  10  20  33  53  77 102 131 169 210 251 292
#     4  10  18  31  50  73 106 130 163 210 255 294
#     4  10  17  30  48  74 103 126 163 208 255 290
#     4  10  16  30  48  71 102 132 163 204 250 297
#     4   9  20  35  49  73 104 135 168 204 244 300
#     4  11  18  33  52  78 101 129 162 214 251 296
#     4  10  17  26  47  75 100 128 164 208 255 291
#     4  10  21  34  51  73 102 136 170 201 246 304
#
# _framework density 18.886313000000001
#
# number of rings (size 3 to 8) (size 9 to 14) (size 15 to 20)
#    0.000    2.000    3.750    3.750    0.000    4.000 
#    0.000    0.000    0.000    2.250    0.000    3.500 
#    0.000    0.000    0.000    0.000    0.000    0.000 
#
# Total GULP energy -396493.280890 kJ/mol
# GULP energy per Si atom -12390.415028 kJ/mol
# Density = 1.884333 g / cm^3
# Si number density = 18.886313 Si / 1000 Ang^3
#
#
#
# Elastic Constant Matrix: (Units=GPa)
#
#
# Indices 1 2 3 4 5 6 
#
# 1 185.2430 36.3767 37.3752 0.0000 8.8850 0.0000
# 2 36.3767 56.1664 15.7922 0.0000 5.5480 0.0000
# 3 37.3752 15.7922 27.7991 0.0000 4.4849 0.0000
# 4 0.0000 0.0000 0.0000 9.6172 0.0000 1.8416
# 5 8.8850 5.5480 4.4849 0.0000 23.4251 0.0000
# 6 0.0000 0.0000 0.0000 1.8416 0.0000 40.3512
#
#
#
# Elastic Compliance Matrix: (Units=1/GPa)
#
#
# Indices 1 2 3 4 5 6 
#
# 1 0.007694 -0.002428 -0.008861 0.000000 -0.000647 0.000000
# 2 -0.002428 0.022134 -0.008887 0.000000 -0.002620 0.000000
# 3 -0.008861 -0.008887 0.053711 0.000000 -0.004818 0.000000
# 4 0.000000 0.000000 0.000000 0.104897 0.000000 -0.004787
# 5 -0.000647 -0.002620 -0.004818 0.000000 0.044478 0.000000
# 6 0.000000 0.000000 0.000000 -0.004787 0.000000 0.025001
#
#
# Mechanical properties :
#
#
# Convention : Reuss Voigt Hill
#
# Bulk Modulus (GPa) = 23.15467 49.81073 36.48270
# Shear Modulus (GPa) = 15.99170 26.65633 21.32401
#
# Velocity S-wave (km/s) = 2.91303 3.76095 3.36381
# Velocity P-wave (km/s) = 4.85808 6.72985 5.86906
#
# Compressibility (1/GPa) = 0.04318783
#
# Stress axis : x y z
#
# Youngs Moduli (GPa) = 129.97431 45.17885 18.61805
#
# Poissons Ratio (x) = 0.10968 0.16497
# Poissons Ratio (y) = 0.31555 0.16547
# Poissons Ratio (z) = 1.15165 0.40152
#
# Static dielectric constant tensor:
#      x y z
#    x 4.277440 0.000000 0.018550 
#    y 0.000000 3.451020 0.000000 
#    z 0.018550 0.000000 2.802010 
# 
# 
# High freq. dielectric constant tensor:
#      x y z
#    x 1.768350 0.000000 0.001430 
#    y 0.000000 1.743520 0.000000 
#    z 0.001430 0.000000 1.647270 
# 
# From -- ./inp_files/43496.got.cif
#   From: 2010.06.25/outbox.cif.g09.slc.cpg/sg11_22_cif.got.tgz:43496.got - 2010.06.27 23:14:04.
