data_PCOD8068484
_publ_section_title
;
Structure prediction by ZEFSAII (Michael W. Deem and Ramdas Pophale) SiO2 
 PCOD8068484
Probable space group: P 21/M
;
_chemical_formula_sum "Si O2"
_cell_formula_units_Z 28
_cell_length_a 9.044492
_cell_length_b 15.275523
_cell_length_c 11.155870
_cell_angle_alpha 90.000000
_cell_angle_beta 60.385420
_cell_angle_gamma 90.000000
_cell_volume 1339.948066
_symmetry_space_group_name_H-M "P 21/M"
_symmetry_group_IT_number 11
_symmetry_cell_setting 'monoclinic'
loop_
_space_group_symop_operation_xyz
x,y,z
-x,1/2+y,-z
-x,-y,-z
x,1/2-y,z
loop_
_atom_site_type_symbol
_atom_site_label
_atom_site_fract_x
_atom_site_fract_y
_atom_site_fract_z
Si Si1 0.791625 0.653227 0.031805
Si Si2 0.030414 0.417950 0.248220
Si Si3 0.716263 0.526038 0.646451
Si Si4 0.402560 0.982569 0.917337
Si Si5 0.950735 0.089782 0.881028
Si Si6 0.201223 0.654273 0.478564
Si Si7 0.901781 0.843998 0.418519
O O1 0.713153 0.750000 0.087184
O O2 0.657019 0.576570 0.111075
O O3 0.953341 0.639480 0.052455
O O4 0.851690 0.651683 0.868358
O O5 0.134773 0.466085 0.313681
O O6 0.982241 0.490491 0.166317
O O7 0.857174 0.373358 0.363751
O O8 0.535510 0.559569 0.769612
O O9 0.688593 0.423547 0.623592
O O10 0.764443 0.580401 0.506512
O O11 0.249496 0.914765 0.004209
O O12 0.500000 0.000000 0.000000
O O13 0.984619 0.140073 0.743889
O O14 0.295368 0.750000 0.442188
O O15 0.024685 0.664220 0.481305
O O16 0.807015 0.750000 0.440998
#
# Coordination Sequence:
#
# PCOD8068484 Si02
#       7
#     4   4   4   4   4   4   4
#     4  11  24  39  60  89 124 164 212 252 298 370
#     4  10  17  35  60  85 119 159 206 250 305 361
#     4  11  19  36  59  91 127 149 197 262 315 359
#     4  11  21  39  63  91 123 158 201 253 321 362
#     4  11  20  39  63  85 120 164 205 246 298 371
#     4  10  18  30  56  89 121 156 203 254 301 359
#     4  10  19  34  58  86 118 162 206 247 301 365
#
# _framework density 20.896332999999998
#
# number of rings (size 3 to 8) (size 9 to 14) (size 15 to 20)
#    0.000    1.429    5.714    3.429    0.000    1.143 
#    0.000    3.571    0.000    0.000    0.000    0.000 
#    0.000    0.000    0.000    0.000    0.000    0.000 
#
# Total GULP energy -346928.030549 kJ/mol
# GULP energy per Si atom -12390.286805 kJ/mol
# Density = 2.084877 g / cm^3
# Si number density = 20.896333 Si / 1000 Ang^3
#
#
#
# Elastic Constant Matrix: (Units=GPa)
#
#
# Indices 1 2 3 4 5 6 
#
# 1 39.1013 14.1881 12.9972 0.0000 -10.4688 0.0000
# 2 14.1881 131.0262 37.6466 0.0000 -8.7090 0.0000
# 3 12.9972 37.6466 119.9106 0.0000 -19.1815 0.0000
# 4 0.0000 0.0000 0.0000 14.9728 0.0000 -6.1467
# 5 -10.4688 -8.7090 -19.1815 0.0000 19.7435 0.0000
# 6 0.0000 0.0000 0.0000 -6.1467 0.0000 9.2728
#
#
#
# Elastic Compliance Matrix: (Units=1/GPa)
#
#
# Indices 1 2 3 4 5 6 
#
# 1 0.030464 -0.002246 -0.000203 0.000000 0.014965 0.000000
# 2 -0.002246 0.008585 -0.002411 0.000000 0.000253 0.000000
# 3 -0.000203 -0.002411 0.010575 0.000000 0.009102 0.000000
# 4 0.000000 0.000000 0.000000 0.091758 0.000000 0.060824
# 5 0.014965 0.000253 0.009102 0.000000 0.067540 0.000000
# 6 0.000000 0.000000 0.000000 0.060824 0.000000 0.148162
#
#
# Mechanical properties :
#
#
# Convention : Reuss Voigt Hill
#
# Bulk Modulus (GPa) = 25.06069 46.63352 35.84711
# Shear Modulus (GPa) = 13.15432 23.81156 18.48294
#
# Velocity S-wave (km/s) = 2.51171 3.37932 2.97729
# Velocity P-wave (km/s) = 4.52001 6.13119 5.38619
#
# Compressibility (1/GPa) = 0.03990313
#
# Stress axis : x y z
#
# Youngs Moduli (GPa) = 32.82601 116.48348 94.56561
#
# Poissons Ratio (x) = 0.26159 0.01920
# Poissons Ratio (y) = 0.07372 0.22803
# Poissons Ratio (z) = 0.00666 0.28088
#
# Static dielectric constant tensor:
#      x y z
#    x 3.379430 0.000000 0.011180 
#    y 0.000000 4.196840 0.000000 
#    z 0.011180 0.000000 4.138210 
# 
# 
# High freq. dielectric constant tensor:
#      x y z
#    x 1.760410 0.000000 0.011040 
#    y 0.000000 1.819150 0.000000 
#    z 0.011040 0.000000 1.831330 
# 
# From -- ./inp_files/31794.got.cif
#   From: 2010.06.25/outbox.cif.g09.slc.cpg/sg11_16_cif.got.tgz:31794.got - 2010.06.27 23:14:04.
