data_PCOD8068580
_publ_section_title
;
Structure prediction by ZEFSAII (Michael W. Deem and Ramdas Pophale) SiO2 
 PCOD8068580
Probable space group: P 21/M
;
_chemical_formula_sum "Si O2"
_cell_formula_units_Z 28
_cell_length_a 25.931103
_cell_length_b 8.950931
_cell_length_c 17.321986
_cell_angle_alpha 90.000000
_cell_angle_beta 28.958609
_cell_angle_gamma 90.000000
_cell_volume 1946.666837
_symmetry_space_group_name_H-M "P 21/M"
_symmetry_group_IT_number 11
_symmetry_cell_setting 'monoclinic'
loop_
_space_group_symop_operation_xyz
x,y,z
-x,1/2+y,-z
-x,-y,-z
x,1/2-y,z
loop_
_atom_site_type_symbol
_atom_site_label
_atom_site_fract_x
_atom_site_fract_y
_atom_site_fract_z
Si Si1 0.960322 0.421928 0.662474
Si Si2 0.948256 0.919039 0.300798
Si Si3 0.401025 0.422842 0.226758
Si Si4 0.359876 0.923395 0.122023
Si Si5 0.230464 0.925575 0.539508
Si Si6 0.831190 0.577524 0.708359
Si Si7 0.066045 0.080914 0.848263
O O1 0.926725 0.250000 0.695050
O O2 0.076161 0.452582 0.474714
O O3 0.967951 0.467832 0.743092
O O4 0.871253 0.525002 0.740135
O O5 0.908987 0.750000 0.371071
O O6 0.000327 0.923685 0.146242
O O7 0.844857 0.027781 0.435013
O O8 0.370569 0.250000 0.271787
O O9 0.354414 0.485154 0.208033
O O10 0.347612 0.509238 0.368932
O O11 0.527024 0.449459 0.067729
O O12 0.341963 0.750000 0.165001
O O13 0.270860 0.980845 0.180089
O O14 0.236184 0.750000 0.542750
O O15 0.179910 0.998738 0.683742
O O16 0.798684 0.750000 0.755316
O O17 0.088230 0.250000 0.845734
O O18 0.000000 0.000000 0.000000
#
# Coordination Sequence:
#
# PCOD8068580 Si02
#       7
#     4   4   4   4   4   4   4
#     4   9  17  30  43  57  80 112 147 178 215 256
#     4   8  16  28  43  60  83 115 144 175 209 252
#     4  10  19  31  44  60  83 111 146 183 219 256
#     4  10  20  31  44  60  81 112 147 184 220 257
#     4  10  18  27  43  64  86 114 144 174 209 257
#     4  10  19  28  42  61  83 110 142 184 221 251
#     4   9  17  29  44  64  90 117 144 175 216 258
#
# _framework density 14.383561
#
# number of rings (size 3 to 8) (size 9 to 14) (size 15 to 20)
#    0.857    1.714    0.000    3.429    0.000    4.000 
#    0.000    0.000    0.000    0.000    0.000    0.000 
#    0.000    1.143    0.000    3.429    0.000    4.571 
#
# Total GULP energy -346995.064291 kJ/mol
# GULP energy per Si atom -12392.680868 kJ/mol
# Density = 1.435082 g / cm^3
# Si number density = 14.383561 Si / 1000 Ang^3
#
#
#
# Elastic Constant Matrix: (Units=GPa)
#
#
# Indices 1 2 3 4 5 6 
#
# 1 58.1050 25.2906 29.3983 0.0000 -1.1034 0.0000
# 2 25.2906 102.2001 48.5659 0.0000 4.2796 0.0000
# 3 29.3983 48.5659 81.1776 0.0000 8.0672 0.0000
# 4 0.0000 0.0000 0.0000 25.6470 0.0000 0.9913
# 5 -1.1034 4.2796 8.0672 0.0000 21.3483 0.0000
# 6 0.0000 0.0000 0.0000 0.9913 0.0000 22.4651
#
#
#
# Elastic Compliance Matrix: (Units=1/GPa)
#
#
# Indices 1 2 3 4 5 6 
#
# 1 0.021795 -0.002264 -0.006957 0.000000 0.004209 0.000000
# 2 -0.002264 0.013909 -0.007494 0.000000 -0.000073 0.000000
# 3 -0.006957 -0.007494 0.019958 0.000000 -0.006399 0.000000
# 4 0.000000 0.000000 0.000000 0.039058 0.000000 -0.001723
# 5 0.004209 -0.000073 -0.006399 0.000000 0.049492 0.000000
# 6 0.000000 0.000000 0.000000 -0.001723 0.000000 0.044590
#
#
# Mechanical properties :
#
#
# Convention : Reuss Voigt Hill
#
# Bulk Modulus (GPa) = 44.98032 49.77692 47.37862
# Shear Modulus (GPa) = 21.77289 23.10728 22.44009
#
# Velocity S-wave (km/s) = 3.89489 4.01247 3.95412
# Velocity P-wave (km/s) = 7.18101 7.49323 7.33878
#
# Compressibility (1/GPa) = 0.02223195
#
# Stress axis : x y z
#
# Youngs Moduli (GPa) = 45.88109 71.89400 50.10580
#
# Poissons Ratio (x) = 0.16275 0.34860
# Poissons Ratio (y) = 0.10386 0.37551
# Poissons Ratio (z) = 0.31920 0.53880
#
# Static dielectric constant tensor:
#      x y z
#    x 2.642590 0.000000 0.012230 
#    y 0.000000 2.890010 0.000000 
#    z 0.012230 0.000000 2.632750 
# 
# 
# High freq. dielectric constant tensor:
#      x y z
#    x 1.520470 0.000000 0.001850 
#    y 0.000000 1.566030 0.000000 
#    z 0.001850 0.000000 1.524520 
# 
# From -- ./inp_files/61686.got.cif
#   From: 2010.06.25/outbox.cif.g09.slc.cpg/sg11_31_cif.got.tgz:61686.got - 2010.06.27 23:14:04.
