data_PCOD8068292
_publ_section_title
;
Structure prediction by ZEFSAII (Michael W. Deem and Ramdas Pophale) SiO2 
 PCOD8068292
Probable space group: P 21/M
;
_chemical_formula_sum "Si O2"
_cell_formula_units_Z 28
_cell_length_a 14.871251
_cell_length_b 8.787065
_cell_length_c 21.321680
_cell_angle_alpha 90.000000
_cell_angle_beta 41.585561
_cell_angle_gamma 90.000000
_cell_volume 1849.308119
_symmetry_space_group_name_H-M "P 21/M"
_symmetry_group_IT_number 11
_symmetry_cell_setting 'monoclinic'
loop_
_space_group_symop_operation_xyz
x,y,z
-x,1/2+y,-z
-x,-y,-z
x,1/2-y,z
loop_
_atom_site_type_symbol
_atom_site_label
_atom_site_fract_x
_atom_site_fract_y
_atom_site_fract_z
Si Si1 0.932747 0.928404 0.474604
Si Si2 0.709598 0.577232 0.013275
Si Si3 0.406209 0.930166 0.813248
Si Si4 0.137483 0.077634 0.948318
Si Si5 0.679848 0.069645 0.648898
Si Si6 0.351429 0.569056 0.079529
Si Si7 0.795123 0.072170 0.720994
O O1 0.909419 0.750000 0.496556
O O2 0.041903 0.959842 0.361942
O O3 0.787440 0.010119 0.540300
O O4 0.000000 0.000000 0.500000
O O5 0.663266 0.750000 0.023074
O O6 0.732850 0.486533 0.937002
O O7 0.591237 0.496553 0.116574
O O8 0.847723 0.574251 0.983044
O O9 0.410506 0.750000 0.811890
O O10 0.267520 0.987992 0.851548
O O11 0.534438 0.996743 0.709003
O O12 0.139207 0.250000 0.922240
O O13 0.000000 0.000000 0.000000
O O14 0.670430 0.250000 0.649987
O O15 0.727772 0.007694 0.692265
O O16 0.358444 0.750000 0.076071
O O17 0.274480 0.502429 0.180798
O O18 0.500000 0.500000 0.000000
O O19 0.767598 0.250000 0.734776
#
# Coordination Sequence:
#
# PCOD8068292 Si02
#       7
#     4   4   4   4   4   4   4
#     4   9  16  28  42  57  78 108 146 187 228 267
#     4   9  19  32  43  61  89 117 146 185 223 257
#     4  10  18  28  44  65  87 114 146 175 216 267
#     4   9  18  31  48  66  91 118 145 182 225 268
#     4  10  17  28  43  61  86 113 144 186 229 265
#     4  11  20  30  44  61  85 120 158 191 222 261
#     4   8  17  29  41  56  80 113 149 188 224 256
#
# _framework density 15.140798
#
# number of rings (size 3 to 8) (size 9 to 14) (size 15 to 20)
#    0.857    1.714    0.000    4.714    0.000    1.143 
#    0.000    7.857    0.000    0.000    0.000    0.000 
#    0.000    1.143    0.000    3.429    0.000    5.286 
#
# Total GULP energy -346883.374391 kJ/mol
# GULP energy per Si atom -12388.691943 kJ/mol
# Density = 1.510634 g / cm^3
# Si number density = 15.140798 Si / 1000 Ang^3
#
#
#
# Elastic Constant Matrix: (Units=GPa)
#
#
# Indices 1 2 3 4 5 6 
#
# 1 51.4367 27.2266 36.6266 0.0000 -17.1298 0.0000
# 2 27.2266 105.5071 46.5380 0.0000 -13.7160 0.0000
# 3 36.6266 46.5380 116.3951 0.0000 -22.7892 0.0000
# 4 0.0000 0.0000 0.0000 24.9182 0.0000 -5.8645
# 5 -17.1298 -13.7160 -22.7892 0.0000 24.0713 0.0000
# 6 0.0000 0.0000 0.0000 -5.8645 0.0000 22.3535
#
#
#
# Elastic Compliance Matrix: (Units=1/GPa)
#
#
# Indices 1 2 3 4 5 6 
#
# 1 0.029735 -0.003549 -0.005144 0.000000 0.014267 0.000000
# 2 -0.003549 0.012076 -0.003509 0.000000 0.001033 0.000000
# 3 -0.005144 -0.003509 0.012895 0.000000 0.006548 0.000000
# 4 0.000000 0.000000 0.000000 0.042772 0.000000 0.011221
# 5 0.014267 0.001033 0.006548 0.000000 0.058484 0.000000
# 6 0.000000 0.000000 0.000000 0.011221 0.000000 0.047680
#
#
# Mechanical properties :
#
#
# Convention : Reuss Voigt Hill
#
# Bulk Modulus (GPa) = 33.00274 54.90239 43.95256
# Shear Modulus (GPa) = 20.99536 25.13179 23.06357
#
# Velocity S-wave (km/s) = 3.72785 4.07857 3.90715
# Velocity P-wave (km/s) = 6.35403 7.64981 7.03183
#
# Compressibility (1/GPa) = 0.03030051
#
# Stress axis : x y z
#
# Youngs Moduli (GPa) = 33.63092 82.80799 77.54737
#
# Poissons Ratio (x) = 0.29391 0.39892
# Poissons Ratio (y) = 0.11937 0.27213
# Poissons Ratio (z) = 0.17300 0.29059
#
# Static dielectric constant tensor:
#      x y z
#    x 2.624580 0.000000 -0.097580 
#    y 0.000000 2.990300 0.000000 
#    z -0.097580 0.000000 3.208910 
# 
# 
# High freq. dielectric constant tensor:
#      x y z
#    x 1.530560 0.000000 -0.022450 
#    y 0.000000 1.591400 0.000000 
#    z -0.022450 0.000000 1.572980 
# 
# From -- ./inp_files/69370.got.cif
#   From: 2010.06.25/outbox.cif.g09.slc.cpg/sg11_35_cif.got.tgz:69370.got - 2010.06.27 23:14:04.
