data_PCOD8068461
_publ_section_title
;
Structure prediction by ZEFSAII (Michael W. Deem and Ramdas Pophale) SiO2 
 PCOD8068461
Probable space group: P 21/M
;
_chemical_formula_sum "Si O2"
_cell_formula_units_Z 32
_cell_length_a 7.983358
_cell_length_b 14.629988
_cell_length_c 14.923289
_cell_angle_alpha 90.000000
_cell_angle_beta 57.884628
_cell_angle_gamma 90.000000
_cell_volume 1476.273865
_symmetry_space_group_name_H-M "P 21/M"
_symmetry_group_IT_number 11
_symmetry_cell_setting 'monoclinic'
loop_
_space_group_symop_operation_xyz
x,y,z
-x,1/2+y,-z
-x,-y,-z
x,1/2-y,z
loop_
_atom_site_type_symbol
_atom_site_label
_atom_site_fract_x
_atom_site_fract_y
_atom_site_fract_z
Si Si1 0.311973 0.530356 0.808730
Si Si2 0.233967 0.001210 0.353897
Si Si3 0.092742 0.643064 0.523352
Si Si4 0.689164 0.887499 0.907796
Si Si5 0.258565 0.847976 0.991370
Si Si6 0.105686 0.649384 0.722936
Si Si7 0.337659 0.350717 0.887985
Si Si8 0.258618 0.922459 0.170913
O O1 0.548695 0.539658 0.731695
O O2 0.226360 0.582009 0.920062
O O3 0.205539 0.568826 0.751280
O O4 0.256918 0.423623 0.838158
O O5 0.114808 0.087770 0.426854
O O6 0.246005 0.915013 0.418838
O O7 0.128839 0.961328 0.291570
O O8 0.069874 0.750000 0.498853
O O9 0.174488 0.639258 0.600877
O O10 0.490958 0.831508 0.945242
O O11 0.867279 0.857184 0.792012
O O12 0.631664 0.992741 0.908246
O O13 0.765915 0.869390 0.986899
O O14 0.169996 0.750000 0.986788
O O15 0.148603 0.874871 0.117552
O O16 0.171517 0.750000 0.739350
O O17 0.284849 0.250000 0.867254
O O18 0.574344 0.358419 0.832719
#
# Coordination Sequence:
#
# PCOD8068461 Si02
#       8
#     4   4   4   4   4   4   4   4
#     4  11  22  37  55  84 119 153 194 229 279 339
#     4  10  21  38  63  83 112 144 187 244 297 337
#     4  10  22  40  62  88 109 140 192 243 295 348
#     4  11  17  34  55  80 115 150 189 231 280 333
#     4  11  19  32  56  86 119 152 189 232 278 338
#     4  11  23  37  56  84 115 153 193 237 283 338
#     4  10  19  33  55  83 116 155 197 232 277 339
#     4  10  17  33  56  85 114 143 187 232 287 334
#
# _framework density 21.676195
#
# number of rings (size 3 to 8) (size 9 to 14) (size 15 to 20)
#    0.000    1.500    5.000    3.375    0.000    5.500 
#    0.000    0.000    0.000    3.750    0.000    0.000 
#    0.000    0.000    0.000    0.000    0.000    0.000 
#
# Total GULP energy -396425.254379 kJ/mol
# GULP energy per Si atom -12388.289199 kJ/mol
# Density = 2.162686 g / cm^3
# Si number density = 21.676195 Si / 1000 Ang^3
#
#
#
# Elastic Constant Matrix: (Units=GPa)
#
#
# Indices 1 2 3 4 5 6 
#
# 1 43.6156 18.8899 4.1563 0.0000 11.6485 0.0000
# 2 18.8899 150.2118 16.3411 0.0000 23.6072 0.0000
# 3 4.1563 16.3411 66.3733 0.0000 15.1280 0.0000
# 4 0.0000 0.0000 0.0000 25.5579 0.0000 7.1263
# 5 11.6485 23.6072 15.1280 0.0000 20.8505 0.0000
# 6 0.0000 0.0000 0.0000 7.1263 0.0000 17.9800
#
#
#
# Elastic Compliance Matrix: (Units=1/GPa)
#
#
# Indices 1 2 3 4 5 6 
#
# 1 0.027384 -0.001251 0.002105 0.000000 -0.015410 0.000000
# 2 -0.001251 0.008156 0.000019 0.000000 -0.008549 0.000000
# 3 0.002105 0.000019 0.018215 0.000000 -0.014413 0.000000
# 4 0.000000 0.000000 0.000000 0.043988 0.000000 -0.017434
# 5 -0.015410 -0.008549 -0.014413 0.000000 0.076707 0.000000
# 6 0.000000 0.000000 0.000000 -0.017434 0.000000 0.062527
#
#
# Mechanical properties :
#
#
# Convention : Reuss Voigt Hill
#
# Bulk Modulus (GPa) = 18.01730 37.66392 27.84061
# Shear Modulus (GPa) = 19.70588 27.59857 23.65222
#
# Velocity S-wave (km/s) = 3.01840 3.57209 3.30686
# Velocity P-wave (km/s) = 4.52523 5.86741 5.23948
#
# Compressibility (1/GPa) = 0.05550221
#
# Stress axis : x y z
#
# Youngs Moduli (GPa) = 36.51723 122.60721 54.89998
#
# Poissons Ratio (x) = 0.15337 -0.11559
# Poissons Ratio (y) = 0.04568 -0.00104
# Poissons Ratio (z) = -0.07689 -0.00231
#
# Static dielectric constant tensor:
#      x y z
#    x 3.344960 0.000000 0.163070 
#    y 0.000000 4.171120 0.000000 
#    z 0.163070 0.000000 4.064350 
# 
# 
# High freq. dielectric constant tensor:
#      x y z
#    x 1.801780 0.000000 0.014020 
#    y 0.000000 1.868620 0.000000 
#    z 0.014020 0.000000 1.845800 
# 
# From -- ./inp_files/47599.got.cif
#   From: 2010.06.25/outbox.cif.g09.slc.cpg/sg11_24_cif.got.tgz:47599.got - 2010.06.27 23:14:04.
