data_PCOD8068294
_publ_section_title
;
Structure prediction by ZEFSAII (Michael W. Deem and Ramdas Pophale) SiO2 
 PCOD8068294
Probable space group: P 21/M
;
_chemical_formula_sum "Si O2"
_cell_formula_units_Z 32
_cell_length_a 23.835904
_cell_length_b 8.766203
_cell_length_c 17.158515
_cell_angle_alpha 90.000000
_cell_angle_beta 146.136194
_cell_angle_gamma 90.000000
_cell_volume 1997.791091
_symmetry_space_group_name_H-M "P 21/M"
_symmetry_group_IT_number 11
_symmetry_cell_setting 'monoclinic'
loop_
_space_group_symop_operation_xyz
x,y,z
-x,1/2+y,-z
-x,-y,-z
x,1/2-y,z
loop_
_atom_site_type_symbol
_atom_site_label
_atom_site_fract_x
_atom_site_fract_y
_atom_site_fract_z
Si Si1 0.257001 0.425709 0.078618
Si Si2 0.923991 0.574118 0.013609
Si Si3 0.066831 0.071548 0.400930
Si Si4 0.124136 0.070731 0.300700
Si Si5 0.392873 0.571071 0.360265
Si Si6 0.157453 0.930655 0.822668
Si Si7 0.215685 0.571402 0.268913
Si Si8 0.891289 0.571076 0.383988
O O1 0.284800 0.250000 0.099381
O O2 0.349040 0.504929 0.229468
O O3 0.154840 0.449487 0.008131
O O4 0.242445 0.503101 0.977777
O O5 0.957733 0.750000 0.044861
O O6 0.017714 0.466663 0.138771
O O7 0.874878 0.519210 0.876626
O O8 0.051633 0.250000 0.371144
O O9 0.121397 0.006287 0.386567
O O10 0.137397 0.038570 0.558169
O O11 0.953366 0.005331 0.280657
O O12 0.145396 0.250000 0.322227
O O13 0.213331 0.984185 0.356316
O O14 0.500000 0.500000 0.500000
O O15 0.403775 0.750000 0.362760
O O16 0.321496 0.528220 0.351093
O O17 0.162860 0.750000 0.829858
O O18 0.182350 0.990167 0.763405
O O19 0.194784 0.750000 0.238140
O O20 0.894443 0.750000 0.370393
O O21 0.000000 0.500000 0.500000
#
# Coordination Sequence:
#
# PCOD8068294 Si02
#       8
#     4   4   4   4   4   4   4   4
#     4  10  19  30  47  70  92 118 154 190 227 272
#     4  10  19  30  43  62  87 118 153 189 223 261
#     4   8  16  27  40  58  85 121 156 189 226 261
#     4  11  19  29  44  62  88 122 155 189 222 261
#     4  10  21  37  55  70  90 116 145 186 234 279
#     4  10  17  28  43  62  89 120 155 193 229 266
#     4  10  21  34  46  64  87 115 147 184 226 268
#     4   9  16  27  40  58  83 117 157 193 229 267
#
# _framework density 16.017690999999999
#
# number of rings (size 3 to 8) (size 9 to 14) (size 15 to 20)
#    0.000    2.250    1.250    3.750    0.000    2.500 
#    0.000    1.875    0.000    0.000    0.000    0.000 
#    0.000    1.000    0.000    3.000    0.000    4.625 
#
# Total GULP energy -396659.518034 kJ/mol
# GULP energy per Si atom -12395.609939 kJ/mol
# Density = 1.598123 g / cm^3
# Si number density = 16.017691 Si / 1000 Ang^3
#
#
#
# Elastic Constant Matrix: (Units=GPa)
#
#
# Indices 1 2 3 4 5 6 
#
# 1 94.9268 35.1058 57.3564 0.0000 -25.3605 0.0000
# 2 35.1058 72.7145 39.2563 0.0000 -10.3114 0.0000
# 3 57.3564 39.2563 90.7699 0.0000 -17.6010 0.0000
# 4 0.0000 0.0000 0.0000 24.9632 0.0000 -4.3251
# 5 -25.3605 -10.3114 -17.6010 0.0000 22.2594 0.0000
# 6 0.0000 0.0000 0.0000 -4.3251 0.0000 23.2444
#
#
#
# Elastic Compliance Matrix: (Units=1/GPa)
#
#
# Indices 1 2 3 4 5 6 
#
# 1 0.021416 -0.003196 -0.009102 0.000000 0.015722 0.000000
# 2 -0.003196 0.018544 -0.005953 0.000000 0.000241 0.000000
# 3 -0.009102 -0.005953 0.019839 0.000000 0.002560 0.000000
# 4 0.000000 0.000000 0.000000 0.041393 0.000000 0.007702
# 5 0.015722 0.000241 0.002560 0.000000 0.064973 0.000000
# 6 0.000000 0.000000 0.000000 0.007702 0.000000 0.044454
#
#
# Mechanical properties :
#
#
# Convention : Reuss Voigt Hill
#
# Bulk Modulus (GPa) = 42.92484 57.98314 50.45399
# Shear Modulus (GPa) = 19.61645 22.53959 21.07802
#
# Velocity S-wave (km/s) = 3.50333 3.75529 3.63150
# Velocity P-wave (km/s) = 6.57427 7.42166 7.01078
#
# Compressibility (1/GPa) = 0.02329653
#
# Stress axis : x y z
#
# Youngs Moduli (GPa) = 46.69367 53.92638 50.40541
#
# Poissons Ratio (x) = 0.17237 0.45877
# Poissons Ratio (y) = 0.14925 0.30008
# Poissons Ratio (z) = 0.42499 0.32104
#
# Static dielectric constant tensor:
#      x y z
#    x 3.341520 0.000000 -0.425120 
#    y 0.000000 3.093170 0.000000 
#    z -0.425120 0.000000 2.863010 
# 
# 
# High freq. dielectric constant tensor:
#      x y z
#    x 1.604420 0.000000 -0.035340 
#    y 0.000000 1.625120 0.000000 
#    z -0.035340 0.000000 1.574220 
# 
# From -- ./inp_files/61802.got.cif
#   From: 2010.06.25/outbox.cif.g09.slc.cpg/sg11_31_cif.got.tgz:61802.got - 2010.06.27 23:14:04.
