data_PCOD8068565
_publ_section_title
;
Structure prediction by ZEFSAII (Michael W. Deem and Ramdas Pophale) SiO2 
 PCOD8068565
Probable space group: P 21/M
;
_chemical_formula_sum "Si O2"
_cell_formula_units_Z 32
_cell_length_a 12.067423
_cell_length_b 8.906435
_cell_length_c 23.399403
_cell_angle_alpha 90.000000
_cell_angle_beta 129.638325
_cell_angle_gamma 90.000000
_cell_volume 1936.702168
_symmetry_space_group_name_H-M "P 21/M"
_symmetry_group_IT_number 11
_symmetry_cell_setting 'monoclinic'
loop_
_space_group_symop_operation_xyz
x,y,z
-x,1/2+y,-z
-x,-y,-z
x,1/2-y,z
loop_
_atom_site_type_symbol
_atom_site_label
_atom_site_fract_x
_atom_site_fract_y
_atom_site_fract_z
Si Si1 0.415651 0.077173 0.747723
Si Si2 0.433597 0.572637 0.533842
Si Si3 0.659922 0.580149 0.888349
Si Si4 0.840502 0.076404 0.387286
Si Si5 0.589790 0.078901 0.688620
Si Si6 0.171539 0.417303 0.174900
Si Si7 0.833219 0.576742 0.505905
Si Si8 0.910490 0.073998 0.020547
O O1 0.385512 0.250000 0.751690
O O2 0.494614 0.055708 0.713405
O O3 0.510666 0.008202 0.830096
O O4 0.264929 0.987539 0.696078
O O5 0.500000 0.500000 0.500000
O O6 0.433702 0.750000 0.527518
O O7 0.526969 0.526671 0.619230
O O8 0.269784 0.515288 0.485889
O O9 0.625201 0.750000 0.895107
O O10 0.751393 0.573141 0.860783
O O11 0.752053 0.501468 0.969639
O O12 0.805985 0.250000 0.388964
O O13 0.003544 0.056446 0.418695
O O14 0.815212 0.981761 0.435920
O O15 0.589071 0.250000 0.667185
O O16 0.754715 0.031868 0.756565
O O17 0.189194 0.250000 0.205872
O O18 0.001396 0.454103 0.109178
O O19 0.785262 0.750000 0.490057
O O20 0.894028 0.250000 0.002660
O O21 0.000000 0.000000 0.000000
#
# Coordination Sequence:
#
# PCOD8068565 Si02
#       8
#     4   4   4   4   4   4   4   4
#     4  10  18  27  42  62  88 117 148 186 222 264
#     4  12  24  37  53  68  89 118 150 190 234 278
#     4   9  16  24  35  52  78 109 145 180 216 261
#     4  10  19  30  48  69  92 119 147 186 228 268
#     4  10  19  30  44  63  85 110 146 187 224 268
#     4   8  15  25  37  53  75 106 141 179 218 259
#     4  10  20  34  49  69  92 115 149 186 226 274
#     4   9  15  23  34  50  74 104 141 178 215 257
#
# _framework density 16.522932999999998
#
# number of rings (size 3 to 8) (size 9 to 14) (size 15 to 20)
#    0.000    2.250    1.250    4.125    0.000    6.000 
#    0.000    0.000    0.000    0.000    0.000    0.000 
#    0.000    0.000    0.000    1.125    0.000   15.125 
#
# Total GULP energy -396696.234865 kJ/mol
# GULP energy per Si atom -12396.757340 kJ/mol
# Density = 1.648533 g / cm^3
# Si number density = 16.522933 Si / 1000 Ang^3
#
#
#
# Elastic Constant Matrix: (Units=GPa)
#
#
# Indices 1 2 3 4 5 6 
#
# 1 49.7284 36.4415 30.4937 0.0000 11.9549 0.0000
# 2 36.4415 133.7438 55.4534 0.0000 18.2102 0.0000
# 3 30.4937 55.4534 100.0194 0.0000 39.2720 0.0000
# 4 0.0000 0.0000 0.0000 33.0966 0.0000 7.0758
# 5 11.9549 18.2102 39.2720 0.0000 22.3854 0.0000
# 6 0.0000 0.0000 0.0000 7.0758 0.0000 18.2546
#
#
#
# Elastic Compliance Matrix: (Units=1/GPa)
#
#
# Indices 1 2 3 4 5 6 
#
# 1 0.027275 -0.005264 -0.004368 0.000000 -0.002621 0.000000
# 2 -0.005264 0.010900 -0.006622 0.000000 0.005562 0.000000
# 3 -0.004368 -0.006622 0.038469 0.000000 -0.059769 0.000000
# 4 0.000000 0.000000 0.000000 0.032945 0.000000 -0.012770
# 5 -0.002621 0.005562 -0.059769 0.000000 0.146404 0.000000
# 6 0.000000 0.000000 0.000000 -0.012770 0.000000 0.059731
#
#
# Mechanical properties :
#
#
# Convention : Reuss Voigt Hill
#
# Bulk Modulus (GPa) = 22.65709 58.69653 40.67681
# Shear Modulus (GPa) = 13.77625 25.48751 19.63188
#
# Velocity S-wave (km/s) = 2.89063 3.93180 3.45071
# Velocity P-wave (km/s) = 4.98832 7.49756 6.36776
#
# Compressibility (1/GPa) = 0.04413630
#
# Stress axis : x y z
#
# Youngs Moduli (GPa) = 36.66330 91.74665 25.99479
#
# Poissons Ratio (x) = 0.48293 0.11355
# Poissons Ratio (y) = 0.19299 0.17214
# Poissons Ratio (z) = 0.16015 0.60755
#
# Static dielectric constant tensor:
#      x y z
#    x 2.698250 0.000000 0.437570 
#    y 0.000000 3.331730 0.000000 
#    z 0.437570 0.000000 3.423250 
# 
# 
# High freq. dielectric constant tensor:
#      x y z
#    x 1.562520 0.000000 0.043560 
#    y 0.000000 1.657110 0.000000 
#    z 0.043560 0.000000 1.640830 
# 
# From -- ./inp_files/42498.got.cif
#   From: 2010.06.25/outbox.cif.g09.slc.cpg/sg11_22_cif.got.tgz:42498.got - 2010.06.27 23:14:04.
