data_PCOD8068256
_publ_section_title
;
Structure prediction by ZEFSAII (Michael W. Deem and Ramdas Pophale) SiO2 
 PCOD8068256
Probable space group: P 21/M
;
_chemical_formula_sum "Si O2"
_cell_formula_units_Z 32
_cell_length_a 24.205044
_cell_length_b 8.912615
_cell_length_c 18.790976
_cell_angle_alpha 90.000000
_cell_angle_beta 150.553722
_cell_angle_gamma 90.000000
_cell_volume 1992.868593
_symmetry_space_group_name_H-M "P 21/M"
_symmetry_group_IT_number 11
_symmetry_cell_setting 'monoclinic'
loop_
_space_group_symop_operation_xyz
x,y,z
-x,1/2+y,-z
-x,-y,-z
x,1/2-y,z
loop_
_atom_site_type_symbol
_atom_site_label
_atom_site_fract_x
_atom_site_fract_y
_atom_site_fract_z
Si Si1 0.887904 0.926966 0.403205
Si Si2 0.095079 0.428749 0.058721
Si Si3 0.090396 0.074110 0.893225
Si Si4 0.987546 0.582408 0.655713
Si Si5 0.775781 0.078783 0.157862
Si Si6 0.679570 0.928272 0.920817
Si Si7 0.669489 0.425653 0.659142
Si Si8 0.528750 0.074172 0.640635
O O1 0.890256 0.750000 0.390290
O O2 0.885997 0.958349 0.486786
O O3 0.782305 0.002210 0.243759
O O4 0.000000 0.000000 0.500000
O O5 0.092571 0.250000 0.061398
O O6 0.214366 0.487540 0.219440
O O7 0.073067 0.486100 0.953509
O O8 0.000000 0.500000 0.000000
O O9 0.088298 0.250000 0.890518
O O10 0.989508 0.019957 0.728342
O O11 0.209941 0.016792 0.997924
O O12 0.972196 0.750000 0.666925
O O13 0.102911 0.565929 0.741946
O O14 0.736046 0.250000 0.121537
O O15 0.686251 0.988678 0.009189
O O16 0.666072 0.750000 0.905542
O O17 0.573116 0.004675 0.763911
O O18 0.687719 0.250000 0.666312
O O19 0.586911 0.490631 0.506706
O O20 0.619503 0.458577 0.680932
O O21 0.505704 0.250000 0.623546
#
# Coordination Sequence:
#
# PCOD8068256 Si02
#       8
#     4   4   4   4   4   4   4   4
#     4   9  15  23  33  49  72 103 138 174 210 251
#     4  11  22  36  50  67  89 116 150 189 231 275
#     4   9  18  29  42  59  81 107 142 182 220 263
#     4   8  15  24  36  52  73 101 137 176 213 252
#     4   9  16  24  34  52  77 107 141 176 211 255
#     4  10  17  27  42  61  85 114 145 182 221 261
#     4  10  20  33  49  68  88 115 147 183 227 271
#     4  10  19  30  47  68  91 116 145 185 225 267
#
# _framework density 16.057255999999999
#
# number of rings (size 3 to 8) (size 9 to 14) (size 15 to 20)
#    0.000    2.500    1.250    3.000    0.000    6.000 
#    0.000    0.000    0.000    0.000    0.000    0.000 
#    0.000    0.000    0.000    1.125    0.000   15.375 
#
# Total GULP energy -396655.375036 kJ/mol
# GULP energy per Si atom -12395.480470 kJ/mol
# Density = 1.602071 g / cm^3
# Si number density = 16.057256 Si / 1000 Ang^3
#
#
#
# Elastic Constant Matrix: (Units=GPa)
#
#
# Indices 1 2 3 4 5 6 
#
# 1 40.9195 23.3051 45.1298 0.0000 -9.0540 0.0000
# 2 23.3051 72.7898 45.5234 0.0000 -9.4414 0.0000
# 3 45.1298 45.5234 121.2791 0.0000 -31.1396 0.0000
# 4 0.0000 0.0000 0.0000 33.4980 0.0000 -7.3788
# 5 -9.0540 -9.4414 -31.1396 0.0000 26.3165 0.0000
# 6 0.0000 0.0000 0.0000 -7.3788 0.0000 18.4737
#
#
#
# Elastic Compliance Matrix: (Units=1/GPa)
#
#
# Indices 1 2 3 4 5 6 
#
# 1 0.043263 -0.004726 -0.015712 0.000000 -0.005403 0.000000
# 2 -0.004726 0.018558 -0.005624 0.000000 -0.001623 0.000000
# 3 -0.015712 -0.005624 0.020537 0.000000 0.016877 0.000000
# 4 0.000000 0.000000 0.000000 0.032732 0.000000 0.013074
# 5 -0.005403 -0.001623 0.016877 0.000000 0.055528 0.000000
# 6 0.000000 0.000000 0.000000 0.013074 0.000000 0.059353
#
#
# Mechanical properties :
#
#
# Convention : Reuss Voigt Hill
#
# Bulk Modulus (GPa) = 33.07573 51.43388 42.25481
# Shear Modulus (GPa) = 17.11305 23.72628 20.41967
#
# Velocity S-wave (km/s) = 3.26813 3.84813 3.56993
# Velocity P-wave (km/s) = 5.90629 7.20037 6.58519
#
# Compressibility (1/GPa) = 0.03023365
#
# Stress axis : x y z
#
# Youngs Moduli (GPa) = 23.11425 53.88478 48.69318
#
# Poissons Ratio (x) = 0.25464 0.76509
# Poissons Ratio (y) = 0.10923 0.27386
# Poissons Ratio (z) = 0.36318 0.30306
#
# Static dielectric constant tensor:
#      x y z
#    x 2.813210 0.000000 -0.459410 
#    y 0.000000 3.134540 0.000000 
#    z -0.459410 0.000000 3.226660 
# 
# 
# High freq. dielectric constant tensor:
#      x y z
#    x 1.551610 0.000000 -0.045180 
#    y 0.000000 1.632460 0.000000 
#    z -0.045180 0.000000 1.618370 
# 
# From -- ./inp_files/43774.got.cif
#   From: 2010.06.25/outbox.cif.g09.slc.cpg/sg11_22_cif.got.tgz:43774.got - 2010.06.27 23:14:04.
