data_PCOD8068432
_publ_section_title
;
Structure prediction by ZEFSAII (Michael W. Deem and Ramdas Pophale) SiO2 
 PCOD8068432
Probable space group: P 21/M
;
_chemical_formula_sum "Si O2"
_cell_formula_units_Z 32
_cell_length_a 11.692351
_cell_length_b 18.150919
_cell_length_c 10.749654
_cell_angle_alpha 90.000000
_cell_angle_beta 49.122052
_cell_angle_gamma 90.000000
_cell_volume 1724.953111
_symmetry_space_group_name_H-M "P 21/M"
_symmetry_group_IT_number 11
_symmetry_cell_setting 'monoclinic'
loop_
_space_group_symop_operation_xyz
x,y,z
-x,1/2+y,-z
-x,-y,-z
x,1/2-y,z
loop_
_atom_site_type_symbol
_atom_site_label
_atom_site_fract_x
_atom_site_fract_y
_atom_site_fract_z
Si Si1 0.938738 0.928823 0.298108
Si Si2 0.135442 0.959518 0.831938
Si Si3 0.478485 0.167162 0.036902
Si Si4 0.722550 0.455151 0.870677
Si Si5 0.417095 0.012323 0.780208
Si Si6 0.647479 0.830162 0.139836
Si Si7 0.305602 0.434833 0.333675
Si Si8 0.960886 0.833047 0.043511
O O1 0.843224 0.907647 0.487912
O O2 0.908728 0.870288 0.209843
O O3 0.115067 0.927536 0.201880
O O4 0.880800 0.010678 0.297443
O O5 0.300710 0.977256 0.766282
O O6 0.103406 0.872842 0.874245
O O7 0.000000 0.000000 0.000000
O O8 0.533652 0.250000 0.028660
O O9 0.382682 0.137364 0.221313
O O10 0.625071 0.116856 0.906618
O O11 0.369174 0.167133 0.996197
O O12 0.739560 0.506577 0.739218
O O13 0.640870 0.501924 0.036764
O O14 0.577964 0.972360 0.651158
O O15 0.438492 0.099913 0.737908
O O16 0.586928 0.750000 0.233138
O O17 0.824123 0.837722 0.043686
O O18 0.011194 0.750000 0.035904
#
# Coordination Sequence:
#
# PCOD8068432 Si02
#       8
#     4   4   4   4   4   4   4   4
#     4  11  22  35  55  84 114 144 175 225 282 329
#     4  10  18  34  57  78 108 138 189 233 263 319
#     4  10  21  36  57  81 107 143 186 226 266 321
#     4  11  19  36  56  79 109 147 186 223 263 322
#     4  11  17  36  58  80 102 143 193 231 261 313
#     4  10  17  31  57  81 102 136 186 232 265 309
#     4  11  23  34  54  84 114 144 178 224 277 330
#     4  10  20  35  58  82 105 142 186 230 272 321
#
# _framework density 18.55123
#
# number of rings (size 3 to 8) (size 9 to 14) (size 15 to 20)
#    0.000    1.500    7.500    1.125    0.000    1.500 
#    0.000    0.000    0.000    1.500    0.000    0.000 
#    0.000    0.000    0.000    0.000    0.000    0.000 
#
# Total GULP energy -396683.675147 kJ/mol
# GULP energy per Si atom -12396.364848 kJ/mol
# Density = 1.850901 g / cm^3
# Si number density = 18.551230 Si / 1000 Ang^3
#
#
#
# Elastic Constant Matrix: (Units=GPa)
#
#
# Indices 1 2 3 4 5 6 
#
# 1 106.9211 37.7320 21.2961 0.0000 -0.5856 0.0000
# 2 37.7320 143.6833 28.1725 0.0000 0.0430 0.0000
# 3 21.2961 28.1725 57.6307 0.0000 0.6782 0.0000
# 4 0.0000 0.0000 0.0000 14.5742 0.0000 -0.5576
# 5 -0.5856 0.0430 0.6782 0.0000 16.2255 0.0000
# 6 0.0000 0.0000 0.0000 -0.5576 0.0000 25.9841
#
#
#
# Elastic Compliance Matrix: (Units=1/GPa)
#
#
# Indices 1 2 3 4 5 6 
#
# 1 0.010722 -0.002254 -0.002866 0.000000 0.000513 0.000000
# 2 -0.002254 0.008172 -0.003162 0.000000 0.000029 0.000000
# 3 -0.002866 -0.003162 0.019968 0.000000 -0.000930 0.000000
# 4 0.000000 0.000000 0.000000 0.068671 0.000000 0.001474
# 5 0.000513 0.000029 -0.000930 0.000000 0.061689 0.000000
# 6 0.000000 0.000000 0.000000 0.001474 0.000000 0.038517
#
#
# Mechanical properties :
#
#
# Convention : Reuss Voigt Hill
#
# Bulk Modulus (GPa) = 44.84959 53.62625 49.23792
# Shear Modulus (GPa) = 21.57648 26.09240 23.83444
#
# Velocity S-wave (km/s) = 3.41409 3.75441 3.58829
# Velocity P-wave (km/s) = 6.30634 6.91115 6.61566
#
# Compressibility (1/GPa) = 0.02229675
#
# Stress axis : x y z
#
# Youngs Moduli (GPa) = 93.26861 122.37499 50.08071
#
# Poissons Ratio (x) = 0.27580 0.14354
# Poissons Ratio (y) = 0.21020 0.15836
# Poissons Ratio (z) = 0.26733 0.38697
#
# Static dielectric constant tensor:
#      x y z
#    x 3.578480 0.000000 0.021020 
#    y 0.000000 3.817930 0.000000 
#    z 0.021020 0.000000 3.085010 
# 
# 
# High freq. dielectric constant tensor:
#      x y z
#    x 1.738200 0.000000 0.001050 
#    y 0.000000 1.722170 0.000000 
#    z 0.001050 0.000000 1.675570 
# 
# From -- ./inp_files/36013.got.cif
#   From: 2010.06.25/outbox.cif.g09.slc.cpg/sg11_19_cif.got.tgz:36013.got - 2010.06.27 23:14:04.
