data_PCOD8068555
_publ_section_title
;
Structure prediction by ZEFSAII (Michael W. Deem and Ramdas Pophale) SiO2 
 PCOD8068555
Probable space group: P 21/M
;
_chemical_formula_sum "Si O2"
_cell_formula_units_Z 32
_cell_length_a 13.732443
_cell_length_b 9.120131
_cell_length_c 16.757333
_cell_angle_alpha 90.000000
_cell_angle_beta 78.267236
_cell_angle_gamma 90.000000
_cell_volume 2054.867385
_symmetry_space_group_name_H-M "P 21/M"
_symmetry_group_IT_number 11
_symmetry_cell_setting 'monoclinic'
loop_
_space_group_symop_operation_xyz
x,y,z
-x,1/2+y,-z
-x,-y,-z
x,1/2-y,z
loop_
_atom_site_type_symbol
_atom_site_label
_atom_site_fract_x
_atom_site_fract_y
_atom_site_fract_z
Si Si1 0.248743 0.586138 0.816982
Si Si2 0.396334 0.579965 0.509327
Si Si3 0.894469 0.076149 0.018589
Si Si4 0.384324 0.419131 0.183502
Si Si5 0.265664 0.079703 0.054115
Si Si6 0.655012 0.922824 0.334914
Si Si7 0.568625 0.082541 0.670470
Si Si8 0.411352 0.915843 0.920764
O O1 0.228730 0.750000 0.787616
O O2 0.157862 0.535711 0.888832
O O3 0.260541 0.475399 0.741080
O O4 0.349663 0.582872 0.849753
O O5 0.500000 0.500000 0.500000
O O6 0.407267 0.750000 0.530732
O O7 0.321355 0.500764 0.583696
O O8 0.365608 0.563219 0.421340
O O9 0.904051 0.250000 0.006215
O O10 0.829823 0.014487 0.955656
O O11 0.000000 0.000000 0.000000
O O12 0.401864 0.250000 0.199828
O O13 0.286198 0.443395 0.145289
O O14 0.373154 0.498234 0.269867
O O15 0.479732 0.477145 0.118290
O O16 0.246831 0.250000 0.037287
O O17 0.364143 0.026948 0.991754
O O18 0.662293 0.750000 0.345533
O O19 0.545122 0.972444 0.323431
O O20 0.563651 0.250000 0.697847
O O21 0.413275 0.750000 0.955671
#
# Coordination Sequence:
#
# PCOD8068555 Si02
#       8
#     4   4   4   4   4   4   4   4
#     4   9  17  29  46  66  89 117 148 184 225 266
#     4   9  17  28  40  57  82 115 154 191 226 263
#     4  10  21  37  54  70  89 115 146 184 233 277
#     4  10  19  29  42  61  88 121 155 187 221 261
#     4  10  20  31  45  66  88 115 150 186 224 267
#     4  10  18  27  41  63  87 116 154 189 223 263
#     4   9  18  28  39  59  85 118 157 190 223 259
#     4   9  17  29  42  60  87 120 154 186 223 260
#
# _framework density 15.572781000000001
#
# number of rings (size 3 to 8) (size 9 to 14) (size 15 to 20)
#    0.000    2.500    1.250    3.375    0.000    6.500 
#    0.000    0.000    0.000    0.000    0.000    0.000 
#    0.000    1.000    0.000    3.250    0.000    4.000 
#
# Total GULP energy -396648.844915 kJ/mol
# GULP energy per Si atom -12395.276404 kJ/mol
# Density = 1.553734 g / cm^3
# Si number density = 15.572781 Si / 1000 Ang^3
#
#
#
# Elastic Constant Matrix: (Units=GPa)
#
#
# Indices 1 2 3 4 5 6 
#
# 1 61.9350 35.4168 45.4624 0.0000 -1.3741 0.0000
# 2 35.4168 88.7816 58.1722 0.0000 4.1818 0.0000
# 3 45.4624 58.1722 99.7814 0.0000 6.5808 0.0000
# 4 0.0000 0.0000 0.0000 30.9826 0.0000 1.5639
# 5 -1.3741 4.1818 6.5808 0.0000 14.9975 0.0000
# 6 0.0000 0.0000 0.0000 1.5639 0.0000 19.7735
#
#
#
# Elastic Compliance Matrix: (Units=1/GPa)
#
#
# Indices 1 2 3 4 5 6 
#
# 1 0.026023 -0.004277 -0.009885 0.000000 0.007915 0.000000
# 2 -0.004277 0.018931 -0.008974 0.000000 -0.001733 0.000000
# 3 -0.009885 -0.008974 0.020238 0.000000 -0.007284 0.000000
# 4 0.000000 0.000000 0.000000 0.032406 0.000000 -0.002563
# 5 0.007915 -0.001733 -0.007284 0.000000 0.071083 0.000000
# 6 0.000000 0.000000 0.000000 -0.002563 0.000000 0.050775
#
#
# Mechanical properties :
#
#
# Convention : Reuss Voigt Hill
#
# Bulk Modulus (GPa) = 52.85312 58.73341 55.79326
# Shear Modulus (GPa) = 18.37995 20.58050 19.48022
#
# Velocity S-wave (km/s) = 3.43922 3.63928 3.54066
# Velocity P-wave (km/s) = 7.05578 7.44691 7.25398
#
# Compressibility (1/GPa) = 0.01892036
#
# Stress axis : x y z
#
# Youngs Moduli (GPa) = 38.42690 52.82239 49.41186
#
# Poissons Ratio (x) = 0.22592 0.48845
# Poissons Ratio (y) = 0.16435 0.44342
# Poissons Ratio (z) = 0.37986 0.47403
#
# Static dielectric constant tensor:
#      x y z
#    x 2.605630 0.000000 0.144390 
#    y 0.000000 3.052620 0.000000 
#    z 0.144390 0.000000 4.615220 
# 
# 
# High freq. dielectric constant tensor:
#      x y z
#    x 1.540550 0.000000 0.010060 
#    y 0.000000 1.609960 0.000000 
#    z 0.010060 0.000000 1.595670 
# 
# From -- ./inp_files/59869.got.cif
#   From: 2010.06.25/outbox.cif.g09.slc.cpg/sg11_30_cif.got.tgz:59869.got - 2010.06.27 23:14:04.
