data_PCOD8068891
_publ_section_title
;
Structure prediction by ZEFSAII (Michael W. Deem and Ramdas Pophale) SiO2 
 PCOD8068891
Probable space group: P 21/M
;
_chemical_formula_sum "Si O2"
_cell_formula_units_Z 32
_cell_length_a 12.743083
_cell_length_b 8.886371
_cell_length_c 33.558198
_cell_angle_alpha 90.000000
_cell_angle_beta 153.602494
_cell_angle_gamma 90.000000
_cell_volume 1689.519938
_symmetry_space_group_name_H-M "P 21/M"
_symmetry_group_IT_number 11
_symmetry_cell_setting 'monoclinic'
loop_
_space_group_symop_operation_xyz
x,y,z
-x,1/2+y,-z
-x,-y,-z
x,1/2-y,z
loop_
_atom_site_type_symbol
_atom_site_label
_atom_site_fract_x
_atom_site_fract_y
_atom_site_fract_z
Si Si1 0.558494 0.571610 0.397897
Si Si2 0.692543 0.073748 0.828529
Si Si3 0.367403 0.570725 0.778790
Si Si4 0.368515 0.571281 0.869846
Si Si5 0.023886 0.418489 0.411557
Si Si6 0.019176 0.572668 0.207812
Si Si7 0.360022 0.920679 0.654995
Si Si8 0.867414 0.928222 0.069727
O O1 0.589038 0.750000 0.400979
O O2 0.711373 0.518965 0.489106
O O3 0.285344 0.528578 0.310334
O O4 0.671034 0.480765 0.399860
O O5 0.672274 0.250000 0.829690
O O6 0.959935 0.025326 0.907964
O O7 0.605533 0.987850 0.838452
O O8 0.539436 0.031365 0.738106
O O9 0.373569 0.750000 0.777186
O O10 0.362887 0.514530 0.822413
O O11 0.135441 0.501275 0.676954
O O12 0.358927 0.750000 0.868358
O O13 0.144355 0.505045 0.815496
O O14 0.606780 0.508958 0.971583
O O15 0.053995 0.250000 0.406172
O O16 0.891245 0.425404 0.408736
O O17 0.978530 0.750000 0.195723
O O18 0.957368 0.507803 0.142850
O O19 0.459226 0.750000 0.688884
O O20 0.863479 0.750000 0.071545
#
# Coordination Sequence:
#
# PCOD8068891 Si02
#       8
#     4   4   4   4   4   4   4   4
#     4  10  18  31  51  73 100 137 170 206 255 303
#     4  10  18  32  54  78 106 138 170 205 253 309
#     4   9  19  36  53  75 106 136 171 213 253 299
#     4  10  21  37  56  73  99 139 175 213 261 302
#     4   8  16  30  49  72 100 135 171 202 247 304
#     4  10  20  35  53  75 104 131 171 219 255 301
#     4  10  18  29  47  76 110 136 165 206 251 305
#     4   9  18  34  54  78 104 132 168 211 258 309
#
# _framework density 18.940293
#
# number of rings (size 3 to 8) (size 9 to 14) (size 15 to 20)
#    0.000    2.500    1.250    2.250    0.000    1.500 
#    0.000    4.375    0.000    0.000    0.000    0.000 
#    0.000    0.000    0.000    0.000    0.000    0.000 
#
# Total GULP energy -396582.526670 kJ/mol
# GULP energy per Si atom -12393.203958 kJ/mol
# Density = 1.889718 g / cm^3
# Si number density = 18.940293 Si / 1000 Ang^3
#
#
#
# Elastic Constant Matrix: (Units=GPa)
#
#
# Indices 1 2 3 4 5 6 
#
# 1 112.0817 24.5563 56.6191 0.0000 -4.4565 0.0000
# 2 24.5563 24.8561 18.8720 0.0000 1.0041 0.0000
# 3 56.6191 18.8720 107.8598 0.0000 12.9939 0.0000
# 4 0.0000 0.0000 0.0000 15.8083 0.0000 3.5518
# 5 -4.4565 1.0041 12.9939 0.0000 20.4000 0.0000
# 6 0.0000 0.0000 0.0000 3.5518 0.0000 29.7784
#
#
#
# Elastic Compliance Matrix: (Units=1/GPa)
#
#
# Indices 1 2 3 4 5 6 
#
# 1 0.015010 -0.009711 -0.007184 0.000000 0.008333 0.000000
# 2 -0.009711 0.052863 -0.003880 0.000000 -0.002252 0.000000
# 3 -0.007184 -0.003880 0.015042 0.000000 -0.010959 0.000000
# 4 0.000000 0.000000 0.000000 0.065000 0.000000 -0.007753
# 5 0.008333 -0.002252 -0.010959 0.000000 0.057931 0.000000
# 6 0.000000 0.000000 0.000000 -0.007753 0.000000 0.034506
#
#
# Mechanical properties :
#
#
# Convention : Reuss Voigt Hill
#
# Bulk Modulus (GPa) = 24.17597 49.43250 36.80423
# Shear Modulus (GPa) = 16.90958 22.84736 19.87847
#
# Velocity S-wave (km/s) = 2.99119 3.47693 3.24316
# Velocity P-wave (km/s) = 4.97209 6.50188 5.78775
#
# Compressibility (1/GPa) = 0.04136340
#
# Stress axis : x y z
#
# Youngs Moduli (GPa) = 66.62174 18.91696 66.48229
#
# Poissons Ratio (x) = 0.18371 0.47761
# Poissons Ratio (y) = 0.64698 0.25797
# Poissons Ratio (z) = 0.47861 0.07340
#
# Static dielectric constant tensor:
#      x y z
#    x 3.373690 0.000000 0.005800 
#    y 0.000000 3.175870 0.000000 
#    z 0.005800 0.000000 3.796300 
# 
# 
# High freq. dielectric constant tensor:
#      x y z
#    x 1.721080 0.000000 0.003880 
#    y 0.000000 1.705290 0.000000 
#    z 0.003880 0.000000 1.746620 
# 
# From -- ./inp_files/73117.got.cif
#   From: 2010.06.25/outbox.cif.g09.slc.cpg/sg11_37_cif.got.tgz:73117.got - 2010.06.27 23:14:04.
