data_PCOD8068039
_publ_section_title
;
Structure prediction by ZEFSAII (Michael W. Deem and Ramdas Pophale) SiO2 
 PCOD8068039
Probable space group: P 2/M
;
_chemical_formula_sum "Si O2"
_cell_formula_units_Z 28
_cell_length_a 20.512127
_cell_length_b 12.545808
_cell_length_c 9.260485
_cell_angle_alpha 90.000000
_cell_angle_beta 47.375108
_cell_angle_gamma 90.000000
_cell_volume 1753.495240
_symmetry_space_group_name_H-M "P 2/M"
_symmetry_group_IT_number 10
_symmetry_cell_setting 'monoclinic'
loop_
_space_group_symop_operation_xyz
x,y,z
-x,y,-z
-x,-y,-z
x,-y,z
loop_
_atom_site_type_symbol
_atom_site_label
_atom_site_fract_x
_atom_site_fract_y
_atom_site_fract_z
Si Si1 0.101315 0.294843 0.015592
Si Si2 0.894645 0.500000 0.495023
Si Si3 0.756031 0.878044 0.533296
Si Si4 0.584095 0.126887 0.960799
Si Si5 0.898685 0.294843 0.319537
Si Si6 0.415905 0.126886 0.713085
Si Si7 0.894645 0.500000 0.821042
Si Si8 0.243969 0.878044 0.801388
O O1 0.140264 0.394476 0.046289
O O2 0.000000 0.269375 0.210362
O O3 0.108986 0.324870 0.836521
O O4 0.157772 0.190586 0.970052
O O5 0.859736 0.394476 0.467080
O O6 0.858399 0.500000 0.712402
O O7 1.000000 0.500000 0.331443
O O8 0.673686 0.834221 0.749140
O O9 0.842228 0.809414 0.443370
O O10 0.729818 0.867218 0.405273
O O11 0.778722 0.000000 0.538797
O O12 0.580300 0.000000 0.965823
O O13 0.500000 0.173389 0.000000
O O14 0.581984 0.171371 0.127024
O O15 0.500000 0.173389 0.500000
O O16 0.326314 0.165779 0.770198
O O17 0.419700 0.000000 0.706723
O O18 0.221278 0.000000 0.874963
#
# Coordination Sequence:
#
# PCOD8068039 Si02
#       8
#     4   2   4   4   4   4   2   4
#     4   9  17  29  45  64  87 116 148 181 216 254
#     4   9  17  29  45  63  82 107 144 189 227 255
#     4   9  17  28  42  63  91 119 146 176 212 257
#     4   9  16  26  41  60  83 112 145 180 216 253
#     4   9  17  29  45  64  87 116 148 181 216 254
#     4   9  16  26  41  60  83 112 145 180 216 253
#     4   9  17  29  45  63  82 107 144 189 227 255
#     4   9  17  28  42  63  91 119 146 176 212 257
#
# _framework density 15.968108000000001
#
# number of rings (size 3 to 8) (size 9 to 14) (size 15 to 20)
#    0.000    3.000    0.000    1.286    0.000    6.857 
#    0.000    2.857    0.000    0.000    0.000    9.000 
#    0.000    0.000    0.000    0.000    0.000    0.000 
#
# Total GULP energy -347180.025356 kJ/mol
# GULP energy per Si atom -12399.286620 kJ/mol
# Density = 1.593176 g / cm^3
# Si number density = 15.968108 Si / 1000 Ang^3
#
#
#
# Elastic Constant Matrix: (Units=GPa)
#
#
# Indices 1 2 3 4 5 6 
#
# 1 104.8311 49.3916 53.1255 0.0000 -0.1980 0.0000
# 2 49.3916 76.2626 48.4084 0.0000 -2.7897 0.0000
# 3 53.1255 48.4084 104.0098 0.0000 -2.1325 0.0000
# 4 0.0000 0.0000 0.0000 10.5892 0.0000 6.3507
# 5 -0.1980 -2.7897 -2.1325 0.0000 20.3297 0.0000
# 6 0.0000 0.0000 0.0000 6.3507 0.0000 8.3508
#
#
#
# Elastic Compliance Matrix: (Units=1/GPa)
#
#
# Indices 1 2 3 4 5 6 
#
# 1 0.015099 -0.006974 -0.004493 0.000000 -0.001281 0.000000
# 2 -0.006974 0.021887 -0.006579 0.000000 0.002245 0.000000
# 3 -0.004493 -0.006579 0.014984 0.000000 0.000625 0.000000
# 4 0.000000 0.000000 0.000000 0.173626 0.000000 -0.132041
# 5 -0.001281 0.002245 0.000625 0.000000 0.049550 0.000000
# 6 0.000000 0.000000 0.000000 -0.132041 0.000000 0.220165
#
#
# Mechanical properties :
#
#
# Convention : Reuss Voigt Hill
#
# Bulk Modulus (GPa) = 62.97361 65.21716 64.09539
# Shear Modulus (GPa) = 9.31625 16.79913 13.05769
#
# Velocity S-wave (km/s) = 2.41805 3.24704 2.86271
# Velocity P-wave (km/s) = 6.87886 7.41542 7.15217
#
# Compressibility (1/GPa) = 0.01587967
#
# Stress axis : x y z
#
# Youngs Moduli (GPa) = 66.22746 45.68831 66.73850
#
# Poissons Ratio (x) = 0.31864 0.29984
# Poissons Ratio (y) = 0.46189 0.43904
# Poissons Ratio (z) = 0.29754 0.30056
#
# Static dielectric constant tensor:
#      x y z
#    x 3.056430 0.000000 0.100520 
#    y 0.000000 2.785800 0.000000 
#    z 0.100520 0.000000 3.091860 
# 
# 
# High freq. dielectric constant tensor:
#      x y z
#    x 1.609180 0.000000 0.010110 
#    y 0.000000 1.576050 0.000000 
#    z 0.010110 0.000000 1.612740 
# 
# From -- ./inp_files/34579.got.cif
#   From: 2010.06.25/outbox.cif.g09.slc.cpg/sg10_18_cif.got.tgz:34579.got - 2010.06.27 22:07:45.
