data_PCOD8068396
_publ_section_title
;
Structure prediction by ZEFSAII (Michael W. Deem and Ramdas Pophale) SiO2 
 PCOD8068396
Probable space group: P 21/M
;
_chemical_formula_sum "Si O2"
_cell_formula_units_Z 32
_cell_length_a 9.341629
_cell_length_b 18.046665
_cell_length_c 10.319943
_cell_angle_alpha 90.000000
_cell_angle_beta 97.003408
_cell_angle_gamma 90.000000
_cell_volume 1726.809415
_symmetry_space_group_name_H-M "P 21/M"
_symmetry_group_IT_number 11
_symmetry_cell_setting 'monoclinic'
loop_
_space_group_symop_operation_xyz
x,y,z
-x,1/2+y,-z
-x,-y,-z
x,1/2-y,z
loop_
_atom_site_type_symbol
_atom_site_label
_atom_site_fract_x
_atom_site_fract_y
_atom_site_fract_z
Si Si1 0.895624 0.836563 0.770885
Si Si2 0.636748 0.458537 0.731289
Si Si3 0.417053 0.061346 0.912439
Si Si4 0.802515 0.163173 0.294760
Si Si5 0.844156 0.534586 0.956595
Si Si6 0.650712 0.336476 0.535456
Si Si7 0.476957 0.664092 0.876026
Si Si8 0.618969 0.611867 0.637169
O O1 0.906822 0.750000 0.811288
O O2 0.861566 0.884519 0.894401
O O3 0.775277 0.849080 0.646064
O O4 0.042964 0.869103 0.726260
O O5 0.474282 0.444090 0.771311
O O6 0.754932 0.479056 0.853291
O O7 0.689393 0.383358 0.667115
O O8 0.627549 0.522833 0.620592
O O9 0.245228 0.048170 0.917889
O O10 0.470426 0.140391 0.976067
O O11 0.500000 0.000000 0.000000
O O12 0.814466 0.250000 0.313779
O O13 0.747489 0.132738 0.427165
O O14 0.691041 0.143812 0.166612
O O15 0.000000 0.500000 0.000000
O O16 0.675922 0.250000 0.568157
O O17 0.483407 0.349510 0.478586
O O18 0.506529 0.750000 0.857589
O O19 0.569115 0.620425 0.780492
#
# Coordination Sequence:
#
# PCOD8068396 Si02
#       8
#     4   4   4   4   4   4   4   4
#     4  10  18  32  53  79 103 131 175 224 269 308
#     4  10  21  36  54  76 108 144 178 212 275 320
#     4  10  19  34  51  74 107 140 173 216 267 309
#     4   8  18  31  51  78 105 135 171 219 268 307
#     4  10  22  35  52  77 109 141 176 215 265 318
#     4  10  20  36  55  78 107 139 178 221 261 320
#     4  10  17  30  53  79 101 133 180 223 261 307
#     4  10  18  33  55  79 103 134 176 225 268 307
#
# _framework density 18.531286999999999
#
# number of rings (size 3 to 8) (size 9 to 14) (size 15 to 20)
#    0.000    2.250    3.750    2.250    3.500    0.500 
#    0.000    4.375    0.000    0.000    0.000    0.000 
#    0.000    0.000    0.000    0.000    0.000    0.000 
#
# Total GULP energy -396558.001341 kJ/mol
# GULP energy per Si atom -12392.437542 kJ/mol
# Density = 1.848911 g / cm^3
# Si number density = 18.531287 Si / 1000 Ang^3
#
#
#
# Elastic Constant Matrix: (Units=GPa)
#
#
# Indices 1 2 3 4 5 6 
#
# 1 132.4932 25.5331 23.9815 0.0000 -4.5493 0.0000
# 2 25.5331 86.6693 25.3670 0.0000 -2.3474 0.0000
# 3 23.9815 25.3670 40.3798 0.0000 -2.6193 0.0000
# 4 0.0000 0.0000 0.0000 25.0801 0.0000 0.5119
# 5 -4.5493 -2.3474 -2.6193 0.0000 20.2082 0.0000
# 6 0.0000 0.0000 0.0000 0.5119 0.0000 24.0904
#
#
#
# Elastic Compliance Matrix: (Units=1/GPa)
#
#
# Indices 1 2 3 4 5 6 
#
# 1 0.008600 -0.001260 -0.004235 0.000000 0.001241 0.000000
# 2 -0.001260 0.014327 -0.008232 0.000000 0.000314 0.000000
# 3 -0.004235 -0.008232 0.032602 0.000000 0.002316 0.000000
# 4 0.000000 0.000000 0.000000 0.039890 0.000000 -0.000848
# 5 0.001241 0.000314 0.002316 0.000000 0.050101 0.000000
# 6 0.000000 0.000000 0.000000 -0.000848 0.000000 0.041528
#
#
# Mechanical properties :
#
#
# Convention : Reuss Voigt Hill
#
# Bulk Modulus (GPa) = 35.61988 45.47840 40.54914
# Shear Modulus (GPa) = 22.33547 26.18644 24.26095
#
# Velocity S-wave (km/s) = 3.47549 3.76319 3.62220
# Velocity P-wave (km/s) = 5.94715 6.59370 6.27875
#
# Compressibility (1/GPa) = 0.02807421
#
# Stress axis : x y z
#
# Youngs Moduli (GPa) = 116.28463 69.79723 30.67343
#
# Poissons Ratio (x) = 0.08797 0.12990
# Poissons Ratio (y) = 0.14656 0.25249
# Poissons Ratio (z) = 0.49247 0.57455
#
# Static dielectric constant tensor:
#      x y z
#    x 4.065560 0.000000 -0.198110 
#    y 0.000000 2.848700 0.000000 
#    z -0.198110 0.000000 4.054500 
# 
# 
# High freq. dielectric constant tensor:
#      x y z
#    x 1.723380 0.000000 -0.010640 
#    y 0.000000 1.720470 0.000000 
#    z -0.010640 0.000000 1.676960 
# 
# From -- ./inp_files/18658.got.cif
#   From: 2010.06.25/outbox.cif.g09.slc.cpg/sg11_10_cif.got.tgz:18658.got - 2010.06.27 23:14:04.
