data_PCOD8068697
_publ_section_title
;
Structure prediction by ZEFSAII (Michael W. Deem and Ramdas Pophale) SiO2 
 PCOD8068697
Probable space group: P 21/M
;
_chemical_formula_sum "Si O2"
_cell_formula_units_Z 28
_cell_length_a 29.276624
_cell_length_b 9.070590
_cell_length_c 18.192221
_cell_angle_alpha 90.000000
_cell_angle_beta 21.107871
_cell_angle_gamma 90.000000
_cell_volume 1739.784627
_symmetry_space_group_name_H-M "P 21/M"
_symmetry_group_IT_number 11
_symmetry_cell_setting 'monoclinic'
loop_
_space_group_symop_operation_xyz
x,y,z
-x,1/2+y,-z
-x,-y,-z
x,1/2-y,z
loop_
_atom_site_type_symbol
_atom_site_label
_atom_site_fract_x
_atom_site_fract_y
_atom_site_fract_z
Si Si1 0.013391 0.077591 0.655250
Si Si2 0.000163 0.418641 0.176501
Si Si3 0.878145 0.580149 0.152395
Si Si4 0.749206 0.078795 0.464236
Si Si5 0.506080 0.924486 0.069275
Si Si6 0.745180 0.423944 0.779585
Si Si7 0.114917 0.582384 0.293191
O O1 0.050004 0.250000 0.602476
O O2 0.889316 0.050218 0.788281
O O3 0.134570 0.984779 0.446192
O O4 0.970936 0.024503 0.798930
O O5 0.991918 0.250000 0.216066
O O6 0.866642 0.465267 0.340237
O O7 0.117192 0.437973 0.943201
O O8 0.884292 0.750000 0.165526
O O9 0.756359 0.507270 0.375136
O O10 0.000000 0.500000 0.000000
O O11 0.753612 0.250000 0.438532
O O12 0.621028 0.032700 0.696870
O O13 0.520775 0.750000 0.037405
O O14 0.500000 0.000000 0.000000
O O15 0.621745 0.988245 0.941677
O O16 0.730159 0.250000 0.784892
O O17 0.760110 0.455684 0.845813
O O18 0.082494 0.750000 0.356604
O O19 0.000000 0.500000 0.500000
#
# Coordination Sequence:
#
# PCOD8068697 Si02
#       7
#     4   4   4   4   4   4   4
#     4  10  18  28  45  69  92 117 151 188 225 269
#     4   9  17  29  44  66  93 118 143 178 226 272
#     4   9  17  29  46  65  87 115 148 182 219 265
#     4   9  19  33  46  62  89 120 150 184 220 259
#     4  11  22  34  48  68  93 122 155 188 219 259
#     4  10  19  32  47  63  90 125 154 186 225 264
#     4   8  16  29  44  63  87 115 149 186 225 266
#
# _framework density 16.093947
#
# number of rings (size 3 to 8) (size 9 to 14) (size 15 to 20)
#    0.000    2.571    0.000    3.429    0.000    6.286 
#    0.000    0.000    0.000    0.000    0.000    1.000 
#    0.000    0.000    0.000    0.000    0.000    0.000 
#
# Total GULP energy -346894.615313 kJ/mol
# GULP energy per Si atom -12389.093404 kJ/mol
# Density = 1.605732 g / cm^3
# Si number density = 16.093947 Si / 1000 Ang^3
#
#
#
# Elastic Constant Matrix: (Units=GPa)
#
#
# Indices 1 2 3 4 5 6 
#
# 1 119.4677 53.0267 60.6865 0.0000 6.2827 0.0000
# 2 53.0267 75.3241 48.9769 0.0000 8.1050 0.0000
# 3 60.6865 48.9769 89.7131 0.0000 13.2460 0.0000
# 4 0.0000 0.0000 0.0000 26.4607 0.0000 4.5204
# 5 6.2827 8.1050 13.2460 0.0000 21.4875 0.0000
# 6 0.0000 0.0000 0.0000 4.5204 0.0000 26.5648
#
#
#
# Elastic Compliance Matrix: (Units=1/GPa)
#
#
# Indices 1 2 3 4 5 6 
#
# 1 0.014327 -0.005907 -0.006796 0.000000 0.002228 0.000000
# 2 -0.005907 0.023034 -0.008307 0.000000 -0.001840 0.000000
# 3 -0.006796 -0.008307 0.021478 0.000000 -0.008119 0.000000
# 4 0.000000 0.000000 0.000000 0.038923 0.000000 -0.006623
# 5 0.002228 -0.001840 -0.008119 0.000000 0.051587 0.000000
# 6 0.000000 0.000000 0.000000 -0.006623 0.000000 0.038771
#
#
# Mechanical properties :
#
#
# Convention : Reuss Voigt Hill
#
# Bulk Modulus (GPa) = 59.45866 67.76500 63.61183
# Shear Modulus (GPa) = 21.20920 23.02359 22.11639
#
# Velocity S-wave (km/s) = 3.63414 3.78640 3.71105
# Velocity P-wave (km/s) = 7.39150 7.83026 7.61404
#
# Compressibility (1/GPa) = 0.01681841
#
# Stress axis : x y z
#
# Youngs Moduli (GPa) = 69.79657 43.41396 46.55987
#
# Poissons Ratio (x) = 0.25645 0.31641
# Poissons Ratio (y) = 0.41230 0.38679
# Poissons Ratio (z) = 0.47433 0.36065
#
# Static dielectric constant tensor:
#      x y z
#    x 3.596620 0.000000 0.113990 
#    y 0.000000 3.237550 0.000000 
#    z 0.113990 0.000000 2.967400 
# 
# 
# High freq. dielectric constant tensor:
#      x y z
#    x 1.617950 0.000000 0.016390 
#    y 0.000000 1.634660 0.000000 
#    z 0.016390 0.000000 1.582600 
# 
# From -- ./inp_files/56416.got.cif
#   From: 2010.06.25/outbox.cif.g09.slc.cpg/sg11_29_cif.got.tgz:56416.got - 2010.06.27 23:14:04.
