data_PCOD8068610
_publ_section_title
;
Structure prediction by ZEFSAII (Michael W. Deem and Ramdas Pophale) SiO2 
 PCOD8068610
Probable space group: P 21/M
;
_chemical_formula_sum "Si O2"
_cell_formula_units_Z 32
_cell_length_a 13.631757
_cell_length_b 9.086532
_cell_length_c 26.579099
_cell_angle_alpha 90.000000
_cell_angle_beta 40.619725
_cell_angle_gamma 90.000000
_cell_volume 2143.359244
_symmetry_space_group_name_H-M "P 21/M"
_symmetry_group_IT_number 11
_symmetry_cell_setting 'monoclinic'
loop_
_space_group_symop_operation_xyz
x,y,z
-x,1/2+y,-z
-x,-y,-z
x,1/2-y,z
loop_
_atom_site_type_symbol
_atom_site_label
_atom_site_fract_x
_atom_site_fract_y
_atom_site_fract_z
Si Si1 0.018875 0.418503 0.412430
Si Si2 0.370357 0.078796 0.116746
Si Si3 0.771857 0.424110 0.736990
Si Si4 0.202781 0.581229 0.422783
Si Si5 0.072506 0.079226 0.042967
Si Si6 0.205625 0.077274 0.884125
Si Si7 0.328162 0.079736 0.018255
Si Si8 0.536511 0.419594 0.744696
O O1 0.049729 0.250000 0.385535
O O2 0.065174 0.519457 0.346966
O O3 0.116503 0.461909 0.422974
O O4 0.844313 0.440253 0.499895
O O5 0.373216 0.250000 0.128989
O O6 0.256997 0.995279 0.197777
O O7 0.538323 0.016153 0.057386
O O8 0.308732 0.048755 0.084799
O O9 0.777559 0.250000 0.740170
O O10 0.643232 0.480290 0.748069
O O11 0.161346 0.750000 0.422157
O O12 0.381102 0.557076 0.341694
O O13 0.033240 0.250000 0.058545
O O14 0.164712 0.035625 0.957158
O O15 0.172916 0.034036 0.051840
O O16 0.914705 0.993481 0.107194
O O17 0.202110 0.250000 0.875679
O O18 0.371014 0.006905 0.808663
O O19 0.367570 0.250000 0.992126
O O20 0.509436 0.250000 0.767576
#
# Coordination Sequence:
#
# PCOD8068610 Si02
#       8
#     4   4   4   4   4   4   4   4
#     4   9  15  23  36  55  78 103 135 169 195 228
#     4  10  19  29  43  63  81  99 132 171 198 228
#     4  10  18  28  41  56  80 112 138 161 197 240
#     4   8  14  24  37  53  76 107 136 162 198 240
#     4   9  17  29  42  56  78 107 134 159 194 236
#     4   9  16  26  41  59  77 100 134 169 193 222
#     4   9  18  32  46  58  78 108 133 158 199 244
#     4   8  14  25  40  56  76 106 138 162 192 236
#
# _framework density 14.929834
#
# number of rings (size 3 to 8) (size 9 to 14) (size 15 to 20)
#    0.000    3.000    0.000    2.625    0.000    3.500 
#    0.000    5.625    0.000    0.000    0.000    0.000 
#    0.000    1.000    0.000    2.000    0.000    3.000 
#
# Total GULP energy -396528.459841 kJ/mol
# GULP energy per Si atom -12391.514370 kJ/mol
# Density = 1.489585 g / cm^3
# Si number density = 14.929834 Si / 1000 Ang^3
#
#
#
# Elastic Constant Matrix: (Units=GPa)
#
#
# Indices 1 2 3 4 5 6 
#
# 1 62.9836 20.7777 34.9862 0.0000 -4.7496 0.0000
# 2 20.7777 52.0318 39.1027 0.0000 3.7240 0.0000
# 3 34.9862 39.1027 119.2720 0.0000 -1.5031 0.0000
# 4 0.0000 0.0000 0.0000 23.7746 0.0000 0.5595
# 5 -4.7496 3.7240 -1.5031 0.0000 17.7634 0.0000
# 6 0.0000 0.0000 0.0000 0.5595 0.0000 17.6702
#
#
#
# Elastic Compliance Matrix: (Units=1/GPa)
#
#
# Indices 1 2 3 4 5 6 
#
# 1 0.020458 -0.005532 -0.004108 0.000000 0.006282 0.000000
# 2 -0.005532 0.027667 -0.007548 0.000000 -0.007918 0.000000
# 3 -0.004108 -0.007548 0.012083 0.000000 0.001506 0.000000
# 4 0.000000 0.000000 0.000000 0.042093 0.000000 -0.001333
# 5 0.006282 -0.007918 0.001506 0.000000 0.059763 0.000000
# 6 0.000000 0.000000 0.000000 -0.001333 0.000000 0.056635
#
#
# Mechanical properties :
#
#
# Convention : Reuss Voigt Hill
#
# Bulk Modulus (GPa) = 38.71107 47.11342 42.91224
# Shear Modulus (GPa) = 19.10708 21.13635 20.12172
#
# Velocity S-wave (km/s) = 3.58130 3.76668 3.67516
# Velocity P-wave (km/s) = 6.56398 7.10930 6.84208
#
# Compressibility (1/GPa) = 0.02583240
#
# Stress axis : x y z
#
# Youngs Moduli (GPa) = 48.88127 36.14444 82.76288
#
# Poissons Ratio (x) = 0.19993 0.34001
# Poissons Ratio (y) = 0.27039 0.62466
# Poissons Ratio (z) = 0.20082 0.27280
#
# Static dielectric constant tensor:
#      x y z
#    x 2.624930 0.000000 -0.078520 
#    y 0.000000 2.857650 0.000000 
#    z -0.078520 0.000000 3.221780 
# 
# 
# High freq. dielectric constant tensor:
#      x y z
#    x 1.518290 0.000000 -0.002240 
#    y 0.000000 1.570780 0.000000 
#    z -0.002240 0.000000 1.579890 
# 
# From -- ./inp_files/56005.got.cif
#   From: 2010.06.25/outbox.cif.g09.slc.cpg/sg11_29_cif.got.tgz:56005.got - 2010.06.27 23:14:04.
