data_PCOD8068181
_publ_section_title
;
Structure prediction by ZEFSAII (Michael W. Deem and Ramdas Pophale) SiO2 
 PCOD8068181
Probable space group: P 21/M
;
_chemical_formula_sum "Si O2"
_cell_formula_units_Z 26
_cell_length_a 14.915696
_cell_length_b 18.870482
_cell_length_c 6.805943
_cell_angle_alpha 90.000000
_cell_angle_beta 50.368956
_cell_angle_gamma 90.000000
_cell_volume 1475.367319
_symmetry_space_group_name_H-M "P 21/M"
_symmetry_group_IT_number 11
_symmetry_cell_setting 'monoclinic'
loop_
_space_group_symop_operation_xyz
x,y,z
-x,1/2+y,-z
-x,-y,-z
x,1/2-y,z
loop_
_atom_site_type_symbol
_atom_site_label
_atom_site_fract_x
_atom_site_fract_y
_atom_site_fract_z
Si Si1 0.077950 0.398752 0.908631
Si Si2 0.068749 0.518127 0.600128
Si Si3 0.872234 0.750000 0.232289
Si Si4 0.379703 0.250000 0.315505
Si Si5 0.320003 0.099267 0.794881
Si Si6 0.326867 0.507765 0.133736
Si Si7 0.542514 0.900856 0.775503
Si Si8 0.301882 0.250000 0.839561
O O1 0.060588 0.451189 0.753100
O O2 0.051731 0.321234 0.850569
O O3 0.208963 0.401929 0.806626
O O4 0.988484 0.414716 0.210368
O O5 0.201056 0.537873 0.365252
O O6 0.000000 0.500000 0.500000
O O7 0.760087 0.750000 0.538800
O O8 0.828612 0.750000 0.065890
O O9 0.440907 0.322140 0.153427
O O10 0.393704 0.250000 0.531089
O O11 0.430645 0.096115 0.494925
O O12 0.322095 0.174092 0.920287
O O13 0.320529 0.033036 0.936204
O O14 0.371121 0.455400 0.239426
O O15 0.409753 0.575784 0.995691
#
# Coordination Sequence:
#
# PCOD8068181 Si02
#       8
#     4   4   2   2   4   4   4   2
#     4  10  19  34  55  75 105 132 172 221 255 299
#     4  11  21  34  52  78 106 140 172 208 257 311
#     4   8  14  32  55  74  97 131 172 216 261 292
#     4   8  14  31  54  68  98 136 164 208 266 292
#     4  10  16  33  50  76 103 134 164 213 258 295
#     4  11  21  31  51  79 106 134 173 205 260 311
#     4  10  20  34  50  77 105 131 169 217 253 309
#     4   6  14  25  49  72  99 125 164 208 253 292
#
# _framework density 17.622729
#
# number of rings (size 3 to 8) (size 9 to 14) (size 15 to 20)
#    0.462    1.846    4.615    0.462    0.000    0.615 
#    0.000    2.308    0.000    0.000    0.000    0.000 
#    0.000    0.000    0.000    0.000    0.000    0.000 
#
# Total GULP energy -322094.214082 kJ/mol
# GULP energy per Si atom -12388.239003 kJ/mol
# Density = 1.758262 g / cm^3
# Si number density = 17.622729 Si / 1000 Ang^3
#
#
#
# Elastic Constant Matrix: (Units=GPa)
#
#
# Indices 1 2 3 4 5 6 
#
# 1 58.0921 25.4446 33.4844 0.0000 -12.2373 0.0000
# 2 25.4446 124.9982 45.8286 0.0000 -16.6860 0.0000
# 3 33.4844 45.8286 91.5381 0.0000 -19.8728 0.0000
# 4 0.0000 0.0000 0.0000 13.9896 0.0000 -20.7037
# 5 -12.2373 -16.6860 -19.8728 0.0000 31.0378 0.0000
# 6 0.0000 0.0000 0.0000 -20.7037 0.0000 1.5178
#
#
#
# Elastic Compliance Matrix: (Units=1/GPa)
#
#
# Indices 1 2 3 4 5 6 
#
# 1 0.022538 -0.001668 -0.006591 0.000000 0.003769 0.000000
# 2 -0.001668 0.010088 -0.003956 0.000000 0.002233 0.000000
# 3 -0.006591 -0.003956 0.016597 0.000000 0.005902 0.000000
# 4 0.000000 0.000000 0.000000 -0.003726 0.000000 -0.050818
# 5 0.003769 0.002233 0.005902 0.000000 0.038684 0.000000
# 6 0.000000 0.000000 0.000000 -0.050818 0.000000 -0.034338
#
#
# Mechanical properties :
#
#
# Convention : Reuss Voigt Hill
#
# Bulk Modulus (GPa) = 40.33319 53.79374 47.06347
# Shear Modulus (GPa) = 60.57920 20.63375 40.60648
#
# Velocity S-wave (km/s) = 5.86943 3.42550 4.80543
# Velocity P-wave (km/s) = 8.29882 6.79977 7.58641
#
# Compressibility (1/GPa) = 0.02479348
#
# Stress axis : x y z
#
# Youngs Moduli (GPa) = 44.37018 99.12737 60.25230
#
# Poissons Ratio (x) = 0.16537 0.39711
# Poissons Ratio (y) = 0.07402 0.23833
# Poissons Ratio (z) = 0.29243 0.39211
#
# Static dielectric constant tensor:
#      x y z
#    x 3.020790 0.000000 -0.063740 
#    y 0.000000 3.519480 0.000000 
#    z -0.063740 0.000000 3.234050 
# 
# 
# High freq. dielectric constant tensor:
#      x y z
#    x 1.650240 0.000000 0.005350 
#    y 0.000000 1.685240 0.000000 
#    z 0.005350 0.000000 1.674380 
# 
# From -- ./inp_files/7028.got.cif
#   From: 2010.06.25/outbox.cif.g09.slc.cpg/sg11_4_cif.got.tgz:7028.got - 2010.06.27 23:14:04.
