data_PCOD8068207
_publ_section_title
;
Structure prediction by ZEFSAII (Michael W. Deem and Ramdas Pophale) SiO2 
 PCOD8068207
Probable space group: P 21/M
;
_chemical_formula_sum "Si O2"
_cell_formula_units_Z 28
_cell_length_a 17.764084
_cell_length_b 8.845164
_cell_length_c 14.221262
_cell_angle_alpha 90.000000
_cell_angle_beta 127.962514
_cell_angle_gamma 90.000000
_cell_volume 1761.736019
_symmetry_space_group_name_H-M "P 21/M"
_symmetry_group_IT_number 11
_symmetry_cell_setting 'monoclinic'
loop_
_space_group_symop_operation_xyz
x,y,z
-x,1/2+y,-z
-x,-y,-z
x,1/2-y,z
loop_
_atom_site_type_symbol
_atom_site_label
_atom_site_fract_x
_atom_site_fract_y
_atom_site_fract_z
Si Si1 0.577676 0.073301 0.625863
Si Si2 0.478572 0.926342 0.707655
Si Si3 0.233955 0.571893 0.705464
Si Si4 0.294092 0.577802 0.439037
Si Si5 0.039152 0.923885 0.621254
Si Si6 0.434506 0.429124 0.870647
Si Si7 0.154244 0.425894 0.456645
O O1 0.555714 0.250000 0.621153
O O2 0.678999 0.048638 0.650131
O O3 0.500000 0.000000 0.500000
O O4 0.571063 0.990836 0.721940
O O5 0.493589 0.750000 0.738656
O O6 0.383787 0.959500 0.574830
O O7 0.471728 0.014383 0.799270
O O8 0.258042 0.750000 0.721688
O O9 0.150862 0.529779 0.719447
O O10 0.326595 0.480700 0.807550
O O11 0.200343 0.523531 0.575707
O O12 0.262467 0.750000 0.429186
O O13 0.204931 0.472127 0.398219
O O14 0.039978 0.750000 0.597266
O O15 0.961009 0.958319 0.643259
O O16 0.000000 0.000000 0.500000
O O17 0.440808 0.250000 0.879522
O O18 0.500000 0.500000 0.000000
O O19 0.172736 0.250000 0.492138
#
# Coordination Sequence:
#
# PCOD8068207 Si02
#       7
#     4   4   4   4   4   4   4
#     4   9  17  28  42  61  86 117 153 185 221 267
#     4  10  19  32  47  63  87 116 149 187 230 269
#     4  10  18  31  46  60  86 118 149 187 229 264
#     4   9  17  27  41  62  91 122 150 181 221 265
#     4   8  16  27  40  60  85 115 148 182 218 262
#     4  12  24  36  50  67  87 115 154 193 229 269
#     4  10  17  25  41  65  90 119 154 183 216 264
#
# _framework density 15.893414
#
# number of rings (size 3 to 8) (size 9 to 14) (size 15 to 20)
#    0.000    2.286    1.429    3.857    0.000    4.000 
#    0.000    0.000    0.000    0.000    0.000    0.000 
#    0.000    1.143    0.000    3.429    0.000    5.286 
#
# Total GULP energy -346871.688421 kJ/mol
# GULP energy per Si atom -12388.274586 kJ/mol
# Density = 1.585724 g / cm^3
# Si number density = 15.893414 Si / 1000 Ang^3
#
#
#
# Elastic Constant Matrix: (Units=GPa)
#
#
# Indices 1 2 3 4 5 6 
#
# 1 146.8917 62.1918 47.5452 0.0000 13.7923 0.0000
# 2 62.1918 95.8830 33.6871 0.0000 3.7247 0.0000
# 3 47.5452 33.6871 51.3232 0.0000 6.1674 0.0000
# 4 0.0000 0.0000 0.0000 17.2626 0.0000 -1.0360
# 5 13.7923 3.7247 6.1674 0.0000 12.6952 0.0000
# 6 0.0000 0.0000 0.0000 -1.0360 0.0000 29.4792
#
#
#
# Elastic Compliance Matrix: (Units=1/GPa)
#
#
# Indices 1 2 3 4 5 6 
#
# 1 0.011878 -0.005025 -0.006725 0.000000 -0.008164 0.000000
# 2 -0.005025 0.015682 -0.006098 0.000000 0.003820 0.000000
# 3 -0.006725 -0.006098 0.030398 0.000000 -0.005673 0.000000
# 4 0.000000 0.000000 0.000000 0.058051 0.000000 0.002040
# 5 -0.008164 0.003820 -0.005673 0.000000 0.089274 0.000000
# 6 0.000000 0.000000 0.000000 0.002040 0.000000 0.033994
#
#
# Mechanical properties :
#
#
# Convention : Reuss Voigt Hill
#
# Bulk Modulus (GPa) = 44.91467 64.54956 54.73211
# Shear Modulus (GPa) = 17.70573 21.93232 19.81902
#
# Velocity S-wave (km/s) = 3.34133 3.71881 3.53511
# Velocity P-wave (km/s) = 6.57322 7.69036 7.15363
#
# Compressibility (1/GPa) = 0.02226444
#
# Stress axis : x y z
#
# Youngs Moduli (GPa) = 84.18708 63.76539 32.89662
#
# Poissons Ratio (x) = 0.32040 0.22122
# Poissons Ratio (y) = 0.42302 0.20060
# Poissons Ratio (z) = 0.56614 0.38883
#
# Static dielectric constant tensor:
#      x y z
#    x 3.898510 0.000000 0.191170 
#    y 0.000000 3.194450 0.000000 
#    z 0.191170 0.000000 2.620390 
# 
# 
# High freq. dielectric constant tensor:
#      x y z
#    x 1.632800 0.000000 0.013810 
#    y 0.000000 1.628460 0.000000 
#    z 0.013810 0.000000 1.533210 
# 
# From -- ./inp_files/53277.got.cif
#   From: 2010.06.25/outbox.cif.g09.slc.cpg/sg11_27_cif.got.tgz:53277.got - 2010.06.27 23:14:04.
