data_PCOD8068751
_publ_section_title
;
Structure prediction by ZEFSAII (Michael W. Deem and Ramdas Pophale) SiO2 
 PCOD8068751
Probable space group: P 21/M
;
_chemical_formula_sum "Si O2"
_cell_formula_units_Z 32
_cell_length_a 21.422792
_cell_length_b 14.061226
_cell_length_c 9.471979
_cell_angle_alpha 90.000000
_cell_angle_beta 136.102443
_cell_angle_gamma 90.000000
_cell_volume 1978.361834
_symmetry_space_group_name_H-M "P 21/M"
_symmetry_group_IT_number 11
_symmetry_cell_setting 'monoclinic'
loop_
_space_group_symop_operation_xyz
x,y,z
-x,1/2+y,-z
-x,-y,-z
x,1/2-y,z
loop_
_atom_site_type_symbol
_atom_site_label
_atom_site_fract_x
_atom_site_fract_y
_atom_site_fract_z
Si Si1 0.702830 0.861967 0.693986
Si Si2 0.665425 0.642049 0.948826
Si Si3 0.027122 0.516998 0.385459
Si Si4 0.061502 0.142736 0.253289
Si Si5 0.785629 0.955673 0.365595
Si Si6 0.093966 0.138546 0.993471
Si Si7 0.626904 0.974031 0.310106
Si Si8 0.508181 0.860491 0.901905
O O1 0.696946 0.750000 0.645371
O O2 0.658100 0.884080 0.772464
O O3 0.805326 0.899698 0.866462
O O4 0.649715 0.924317 0.494307
O O5 0.699435 0.750000 0.022457
O O6 0.567371 0.628674 0.857153
O O7 0.738336 0.575684 0.144028
O O8 0.000000 0.500000 0.500000
O O9 0.997609 0.424472 0.244473
O O10 0.135652 0.532166 0.545880
O O11 0.972961 0.606385 0.238893
O O12 0.027372 0.250000 0.213092
O O13 0.165346 0.134054 0.477455
O O14 0.056389 0.106192 0.084090
O O15 0.714459 0.999096 0.359328
O O16 0.098013 0.250000 0.991797
O O17 0.580263 0.075453 0.263211
O O18 0.563506 0.899141 0.125906
O O19 0.481819 0.750000 0.884901
#
# Coordination Sequence:
#
# PCOD8068751 Si02
#       8
#     4   4   4   4   4   4   4   4
#     4  10  18  28  48  75  99 124 157 202 244 282
#     4   9  17  29  46  72 101 125 155 196 244 292
#     4  10  20  31  47  71 101 131 160 199 244 294
#     4   9  18  30  49  69  93 125 159 199 244 284
#     4   9  18  30  49  69  97 126 164 193 246 283
#     4  10  19  32  48  71  98 130 166 206 245 286
#     4  10  18  32  52  74  96 125 164 202 240 288
#     4   9  19  33  50  71  98 128 159 197 241 293
#
# _framework density 16.174997999999999
#
# number of rings (size 3 to 8) (size 9 to 14) (size 15 to 20)
#    0.750    1.750    1.250    1.875    0.000    2.000 
#    0.000    0.625    0.000    0.750    0.000    0.875 
#    0.000    0.000    0.000    0.000    0.000    0.000 
#
# Total GULP energy -396604.255461 kJ/mol
# GULP energy per Si atom -12393.882983 kJ/mol
# Density = 1.613818 g / cm^3
# Si number density = 16.174998 Si / 1000 Ang^3
#
#
#
# Elastic Constant Matrix: (Units=GPa)
#
#
# Indices 1 2 3 4 5 6 
#
# 1 99.7641 43.3631 56.4339 0.0000 -15.6714 0.0000
# 2 43.3631 56.4941 35.6865 0.0000 -2.6310 0.0000
# 3 56.4339 35.6865 91.8467 0.0000 -10.4537 0.0000
# 4 0.0000 0.0000 0.0000 28.5212 0.0000 5.1844
# 5 -15.6714 -2.6310 -10.4537 0.0000 27.0151 0.0000
# 6 0.0000 0.0000 0.0000 5.1844 0.0000 20.0310
#
#
#
# Elastic Compliance Matrix: (Units=1/GPa)
#
#
# Indices 1 2 3 4 5 6 
#
# 1 0.019819 -0.010224 -0.007333 0.000000 0.007664 0.000000
# 2 -0.010224 0.028776 -0.005497 0.000000 -0.005255 0.000000
# 3 -0.007333 -0.005497 0.017767 0.000000 0.002086 0.000000
# 4 0.000000 0.000000 0.000000 0.036793 0.000000 -0.009523
# 5 0.007664 -0.005255 0.002086 0.000000 0.041757 0.000000
# 6 0.000000 0.000000 0.000000 -0.009523 0.000000 0.052387
#
#
# Mechanical properties :
#
#
# Convention : Reuss Voigt Hill
#
# Bulk Modulus (GPa) = 49.37212 57.67464 53.52338
# Shear Modulus (GPa) = 19.98731 22.62155 21.30443
#
# Velocity S-wave (km/s) = 3.51905 3.74378 3.63315
# Velocity P-wave (km/s) = 6.86306 7.37712 7.12473
#
# Compressibility (1/GPa) = 0.02025435
#
# Stress axis : x y z
#
# Youngs Moduli (GPa) = 50.45542 34.75121 56.28489
#
# Poissons Ratio (x) = 0.35528 0.41275
# Poissons Ratio (y) = 0.51584 0.30941
# Poissons Ratio (z) = 0.37000 0.19103
#
# Static dielectric constant tensor:
#      x y z
#    x 3.186180 0.000000 -0.109710 
#    y 0.000000 2.814240 0.000000 
#    z -0.109710 0.000000 3.003550 
# 
# 
# High freq. dielectric constant tensor:
#      x y z
#    x 1.627300 0.000000 -0.012810 
#    y 0.000000 1.596220 0.000000 
#    z -0.012810 0.000000 1.615860 
# 
# From -- ./inp_files/26837.got.cif
#   From: 2010.06.25/outbox.cif.g09.slc.cpg/sg11_14_cif.got.tgz:26837.got - 2010.06.27 23:14:04.
