data_PCOD8068574
_publ_section_title
;
Structure prediction by ZEFSAII (Michael W. Deem and Ramdas Pophale) SiO2 
 PCOD8068574
Probable space group: P 21/M
;
_chemical_formula_sum "Si O2"
_cell_formula_units_Z 32
_cell_length_a 19.584730
_cell_length_b 8.904002
_cell_length_c 15.157721
_cell_angle_alpha 90.000000
_cell_angle_beta 40.892897
_cell_angle_gamma 90.000000
_cell_volume 1730.390006
_symmetry_space_group_name_H-M "P 21/M"
_symmetry_group_IT_number 11
_symmetry_cell_setting 'monoclinic'
loop_
_space_group_symop_operation_xyz
x,y,z
-x,1/2+y,-z
-x,-y,-z
x,1/2-y,z
loop_
_atom_site_type_symbol
_atom_site_label
_atom_site_fract_x
_atom_site_fract_y
_atom_site_fract_z
Si Si1 0.228479 0.076479 0.689382
Si Si2 0.392985 0.576947 0.211051
Si Si3 0.393426 0.576430 0.005920
Si Si4 0.016359 0.582534 0.890842
Si Si5 0.991506 0.085580 0.300487
Si Si6 0.192981 0.573590 0.889588
Si Si7 0.195714 0.927234 0.086972
Si Si8 0.228324 0.426555 0.495773
O O1 0.242331 0.250000 0.698065
O O2 0.277214 0.034098 0.545718
O O3 0.271187 0.987963 0.735621
O O4 0.110118 0.032186 0.788200
O O5 0.381196 0.750000 0.250146
O O6 0.367883 0.551169 0.133150
O O7 0.312630 0.476825 0.343029
O O8 0.509539 0.523573 0.119522
O O9 0.419757 0.750000 0.960845
O O10 0.294436 0.520412 0.047153
O O11 0.040053 0.750000 0.908535
O O12 0.977308 0.609885 0.830799
O O13 0.920969 0.491373 0.032532
O O14 0.985219 0.250000 0.353013
O O15 0.881076 0.004572 0.421935
O O16 0.092168 0.992382 0.236361
O O17 0.195230 0.750000 0.883948
O O18 0.217613 0.517414 0.964228
O O19 0.181246 0.750000 0.101091
O O20 0.208133 0.250000 0.509565
#
# Coordination Sequence:
#
# PCOD8068574 Si02
#       8
#     4   4   4   4   4   4   4   4
#     4  10  19  29  42  63  93 130 169 206 244 288
#     4  10  20  35  58  84 104 124 159 209 257 300
#     4   9  19  37  59  81 104 129 160 202 253 306
#     4   9  16  26  40  60  90 128 168 209 247 284
#     4   9  17  29  47  73 104 136 171 210 249 293
#     4  10  18  27  42  65  94 129 167 205 242 284
#     4   9  18  33  52  74 103 138 171 203 246 301
#     4  10  20  34  52  73 102 139 173 207 251 302
#
# _framework density 18.492940000000001
#
# number of rings (size 3 to 8) (size 9 to 14) (size 15 to 20)
#    0.000    2.500    0.000    2.625    0.000    6.000 
#    0.000    0.625    0.000    0.750    0.000    0.000 
#    0.000    0.000    0.000    0.000    0.000    0.000 
#
# Total GULP energy -396425.539177 kJ/mol
# GULP energy per Si atom -12388.298099 kJ/mol
# Density = 1.845085 g / cm^3
# Si number density = 18.492940 Si / 1000 Ang^3
#
#
#
# Elastic Constant Matrix: (Units=GPa)
#
#
# Indices 1 2 3 4 5 6 
#
# 1 -18.2505 20.9516 69.5900 0.0000 14.1002 0.0000
# 2 20.9516 54.0375 41.1752 0.0000 0.7318 0.0000
# 3 69.5900 41.1752 79.7494 0.0000 -5.2286 0.0000
# 4 0.0000 0.0000 0.0000 31.8227 0.0000 0.0430
# 5 14.1002 0.7318 -5.2286 0.0000 10.7924 0.0000
# 6 0.0000 0.0000 0.0000 0.0430 0.0000 22.0041
#
#
#
# Elastic Compliance Matrix: (Units=1/GPa)
#
#
# Indices 1 2 3 4 5 6 
#
# 1 -0.007913 -0.005276 0.010669 0.000000 0.015864 0.000000
# 2 -0.005276 0.028075 -0.009878 0.000000 0.000204 0.000000
# 3 0.010669 -0.009878 0.007704 0.000000 -0.009537 0.000000
# 4 0.000000 0.000000 0.000000 0.031424 0.000000 -0.000061
# 5 0.015864 0.000204 -0.009537 0.000000 0.067297 0.000000
# 6 0.000000 0.000000 0.000000 -0.000061 0.000000 0.045446
#
#
# Mechanical properties :
#
#
# Convention : Reuss Voigt Hill
#
# Bulk Modulus (GPa) = 52.92029 42.10777 47.51403
# Shear Modulus (GPa) = 26.69455 11.84516 19.26986
#
# Velocity S-wave (km/s) = 3.80346 2.53360 3.23152
# Velocity P-wave (km/s) = 6.92583 5.60160 6.29861
#
# Compressibility (1/GPa) = 0.01889634
#
# Stress axis : x y z
#
# Youngs Moduli (GPa) = -126.38149 35.61836 129.79870
#
# Poissons Ratio (x) = 0.18794 -1.38482
# Poissons Ratio (y) = -0.66685 1.28214
# Poissons Ratio (z) = 1.34836 0.35183
#
# Static dielectric constant tensor:
#      x y z
#    x 3.425970 0.000000 0.315050 
#    y 0.000000 3.585530 0.000000 
#    z 0.315050 0.000000 3.364950 
# 
# 
# High freq. dielectric constant tensor:
#      x y z
#    x 1.696080 0.000000 0.023140 
#    y 0.000000 1.728950 0.000000 
#    z 0.023140 0.000000 1.700900 
# 
# From -- ./inp_files/54233.got.cif
#   From: 2010.06.25/outbox.cif.g09.slc.cpg/sg11_28_cif.got.tgz:54233.got - 2010.06.27 23:14:04.
