data_PCOD8068543
_publ_section_title
;
Structure prediction by ZEFSAII (Michael W. Deem and Ramdas Pophale) SiO2 
 PCOD8068543
Probable space group: P 21/M
;
_chemical_formula_sum "Si O2"
_cell_formula_units_Z 32
_cell_length_a 18.210705
_cell_length_b 9.181541
_cell_length_c 26.182619
_cell_angle_alpha 90.000000
_cell_angle_beta 151.071416
_cell_angle_gamma 90.000000
_cell_volume 2117.622977
_symmetry_space_group_name_H-M "P 21/M"
_symmetry_group_IT_number 11
_symmetry_cell_setting 'monoclinic'
loop_
_space_group_symop_operation_xyz
x,y,z
-x,1/2+y,-z
-x,-y,-z
x,1/2-y,z
loop_
_atom_site_type_symbol
_atom_site_label
_atom_site_fract_x
_atom_site_fract_y
_atom_site_fract_z
Si Si1 0.780105 0.588905 0.346711
Si Si2 0.703621 0.580141 0.665728
Si Si3 0.002896 0.412355 0.423990
Si Si4 0.641141 0.416829 0.528377
Si Si5 0.193929 0.918256 0.079968
Si Si6 0.088877 0.919810 0.128385
Si Si7 0.248514 0.919720 0.516792
Si Si8 0.461249 0.420687 0.722866
O O1 0.767149 0.750000 0.314820
O O2 0.896123 0.591386 0.464199
O O3 0.618008 0.537926 0.271230
O O4 0.838919 0.481531 0.338173
O O5 0.741899 0.750000 0.689135
O O6 0.717088 0.521037 0.616346
O O7 0.536802 0.546790 0.586454
O O8 0.825644 0.498619 0.774108
O O9 0.975586 0.250000 0.386047
O O10 0.087442 0.507797 0.432706
O O11 0.660515 0.250000 0.557973
O O12 0.725450 0.447173 0.526894
O O13 0.156456 0.750000 0.045953
O O14 0.178254 0.951853 0.130452
O O15 0.362761 0.960626 0.165430
O O16 0.081066 0.017453 0.978530
O O17 0.079183 0.750000 0.134792
O O18 0.241593 0.750000 0.526452
O O19 0.388029 0.989671 0.632225
O O20 0.435803 0.250000 0.695313
#
# Coordination Sequence:
#
# PCOD8068543 Si02
#       8
#     4   4   4   4   4   4   4   4
#     4   8  14  24  37  54  77 106 138 169 204 243
#     4  10  19  31  47  63  82 110 141 174 211 250
#     4   9  16  25  37  54  78 108 140 170 201 242
#     4   9  19  32  44  62  85 109 140 175 210 248
#     4   9  18  31  45  62  84 111 143 175 208 247
#     4  10  19  30  45  63  85 112 140 174 212 248
#     4  10  18  27  41  60  84 112 140 173 209 246
#     4   9  17  28  42  60  83 111 142 176 209 244
#
# _framework density 15.111283
#
# number of rings (size 3 to 8) (size 9 to 14) (size 15 to 20)
#    0.000    2.750    0.000    3.000    0.000    5.500 
#    0.000    0.000    0.000    0.000    0.000    0.000 
#    0.000    1.000    0.000    3.000    0.000    4.250 
#
# Total GULP energy -396780.229852 kJ/mol
# GULP energy per Si atom -12399.382183 kJ/mol
# Density = 1.507689 g / cm^3
# Si number density = 15.111283 Si / 1000 Ang^3
#
#
#
# Elastic Constant Matrix: (Units=GPa)
#
#
# Indices 1 2 3 4 5 6 
#
# 1 102.0906 58.2211 50.5815 0.0000 17.7657 0.0000
# 2 58.2211 103.0263 56.5798 0.0000 2.3631 0.0000
# 3 50.5815 56.5798 82.2141 0.0000 6.1322 0.0000
# 4 0.0000 0.0000 0.0000 23.5142 0.0000 0.2643
# 5 17.7657 2.3631 6.1322 0.0000 21.4177 0.0000
# 6 0.0000 0.0000 0.0000 0.2643 0.0000 25.4815
#
#
#
# Elastic Compliance Matrix: (Units=1/GPa)
#
#
# Indices 1 2 3 4 5 6 
#
# 1 0.019185 -0.007398 -0.005708 0.000000 -0.013463 0.000000
# 2 -0.007398 0.018497 -0.008668 0.000000 0.006578 0.000000
# 3 -0.005708 -0.008668 0.021679 0.000000 -0.000516 0.000000
# 4 0.000000 0.000000 0.000000 0.042532 0.000000 -0.000441
# 5 -0.013463 0.006578 -0.000516 0.000000 0.057280 0.000000
# 6 0.000000 0.000000 0.000000 -0.000441 0.000000 0.039249
#
#
# Mechanical properties :
#
#
# Convention : Reuss Voigt Hill
#
# Bulk Modulus (GPa) = 63.24267 68.67731 65.95999
# Shear Modulus (GPa) = 20.22311 22.21259 21.21785
#
# Velocity S-wave (km/s) = 3.66222 3.83813 3.75121
# Velocity P-wave (km/s) = 7.73464 8.07391 7.90609
#
# Compressibility (1/GPa) = 0.01581211
#
# Stress axis : x y z
#
# Youngs Moduli (GPa) = 52.12331 54.06365 46.12747
#
# Poissons Ratio (x) = 0.39998 0.26329
# Poissons Ratio (y) = 0.38563 0.39985
# Poissons Ratio (z) = 0.29751 0.46864
#
# Static dielectric constant tensor:
#      x y z
#    x 3.000110 0.000000 0.210100 
#    y 0.000000 3.083620 0.000000 
#    z 0.210100 0.000000 2.606400 
# 
# 
# High freq. dielectric constant tensor:
#      x y z
#    x 1.574250 0.000000 0.016870 
#    y 0.000000 1.592820 0.000000 
#    z 0.016870 0.000000 1.535760 
# 
# From -- ./inp_files/61800.got.cif
#   From: 2010.06.25/outbox.cif.g09.slc.cpg/sg11_31_cif.got.tgz:61800.got - 2010.06.27 23:14:04.
