data_PCOD8068175
_publ_section_title
;
Structure prediction by ZEFSAII (Michael W. Deem and Ramdas Pophale) SiO2 
 PCOD8068175
Probable space group: P 21/M
;
_chemical_formula_sum "Si O2"
_cell_formula_units_Z 22
_cell_length_a 18.670212
_cell_length_b 11.701112
_cell_length_c 11.162681
_cell_angle_alpha 90.000000
_cell_angle_beta 33.419633
_cell_angle_gamma 90.000000
_cell_volume 1343.113254
_symmetry_space_group_name_H-M "P 21/M"
_symmetry_group_IT_number 11
_symmetry_cell_setting 'monoclinic'
loop_
_space_group_symop_operation_xyz
x,y,z
-x,1/2+y,-z
-x,-y,-z
x,1/2-y,z
loop_
_atom_site_type_symbol
_atom_site_label
_atom_site_fract_x
_atom_site_fract_y
_atom_site_fract_z
Si Si1 0.247601 0.624490 0.413676
Si Si2 0.940310 0.117247 0.934466
Si Si3 0.927513 0.963170 0.482598
Si Si4 0.804397 0.965291 0.296537
Si Si5 0.480913 0.750000 0.006551
Si Si6 0.239833 0.250000 0.317175
Si Si7 0.677727 0.750000 0.537625
O O1 0.193887 0.750000 0.526146
O O2 0.150481 0.573912 0.451410
O O3 0.255127 0.544600 0.517645
O O4 0.392658 0.637379 0.154357
O O5 0.900323 0.250000 0.993516
O O6 0.966901 0.077994 0.761951
O O7 0.061092 0.093691 0.852965
O O8 0.821543 0.039638 0.151908
O O9 0.825555 0.861285 0.649601
O O10 0.000000 0.000000 0.500000
O O11 0.701139 0.862060 0.423149
O O12 0.604787 0.750000 0.924419
O O13 0.532072 0.750000 0.797243
O O14 0.219282 0.250000 0.491872
#
# Coordination Sequence:
#
# PCOD8068175 Si02
#       7
#     4   4   4   4   2   2   2
#     4   9  18  31  46  81 100 124 173 211 244 296
#     4  10  17  31  47  68  99 140 162 198 255 305
#     4  11  21  33  51  72 106 139 166 204 245 315
#     4  10  17  27  48  72 103 128 164 208 257 306
#     4   8  18  31  53  74 106 131 163 224 254 292
#     4  10  18  35  49  71 103 138 166 204 264 299
#     4  10  16  32  46  73 103 133 157 208 268 299
#
# _framework density 16.379854999999999
#
# number of rings (size 3 to 8) (size 9 to 14) (size 15 to 20)
#    1.091    1.091    5.455    0.545    1.273    2.909 
#    1.636    0.000    0.000    0.000    0.000    7.636 
#    0.000    0.000    0.000    0.000    0.000    0.000 
#
# Total GULP energy -272616.559559 kJ/mol
# GULP energy per Si atom -12391.661798 kJ/mol
# Density = 1.634257 g / cm^3
# Si number density = 16.379855 Si / 1000 Ang^3
#
#
#
# Elastic Constant Matrix: (Units=GPa)
#
#
# Indices 1 2 3 4 5 6 
#
# 1 52.1887 29.8456 31.7455 0.0000 8.0629 0.0000
# 2 29.8456 142.4457 63.9289 0.0000 3.9668 0.0000
# 3 31.7455 63.9289 112.1956 0.0000 6.1228 0.0000
# 4 0.0000 0.0000 0.0000 30.3383 0.0000 3.9829
# 5 8.0629 3.9668 6.1228 0.0000 14.6671 0.0000
# 6 0.0000 0.0000 0.0000 3.9829 0.0000 13.5614
#
#
#
# Elastic Compliance Matrix: (Units=1/GPa)
#
#
# Indices 1 2 3 4 5 6 
#
# 1 0.025541 -0.002782 -0.005031 0.000000 -0.011188 0.000000
# 2 -0.002782 0.009737 -0.004810 0.000000 0.000904 0.000000
# 3 -0.005031 -0.004810 0.013155 0.000000 -0.001425 0.000000
# 4 0.000000 0.000000 0.000000 0.034283 0.000000 -0.010069
# 5 -0.011188 0.000904 -0.001425 0.000000 0.074681 0.000000
# 6 0.000000 0.000000 0.000000 -0.010069 0.000000 0.076696
#
#
# Mechanical properties :
#
#
# Convention : Reuss Voigt Hill
#
# Bulk Modulus (GPa) = 43.12856 61.98554 52.55705
# Shear Modulus (GPa) = 18.72182 23.80069 21.26126
#
# Velocity S-wave (km/s) = 3.38446 3.81602 3.60670
# Velocity P-wave (km/s) = 6.45447 7.57237 7.03566
#
# Compressibility (1/GPa) = 0.02318649
#
# Stress axis : x y z
#
# Youngs Moduli (GPa) = 39.15279 102.70433 76.01603
#
# Poissons Ratio (x) = 0.28572 0.38244
# Poissons Ratio (y) = 0.10892 0.36565
# Poissons Ratio (z) = 0.19698 0.49402
#
# Static dielectric constant tensor:
#      x y z
#    x 2.538160 0.000000 0.095940 
#    y 0.000000 3.311360 0.000000 
#    z 0.095940 0.000000 3.126310 
# 
# 
# High freq. dielectric constant tensor:
#      x y z
#    x 1.561720 0.000000 0.008300 
#    y 0.000000 1.651940 0.000000 
#    z 0.008300 0.000000 1.628610 
# 
# From -- ./inp_files/43022.got.cif
#   From: 2010.06.25/outbox.cif.g09.slc.cpg/sg11_22_cif.got.tgz:43022.got - 2010.06.27 23:14:04.
