data_PCOD8068148
_publ_section_title
;
Structure prediction by ZEFSAII (Michael W. Deem and Ramdas Pophale) SiO2 
 PCOD8068148
Probable space group: P 21/M
;
_chemical_formula_sum "Si O2"
_cell_formula_units_Z 32
_cell_length_a 17.088792
_cell_length_b 9.440372
_cell_length_c 16.641340
_cell_angle_alpha 90.000000
_cell_angle_beta 50.587662
_cell_angle_gamma 90.000000
_cell_volume 2074.157408
_symmetry_space_group_name_H-M "P 21/M"
_symmetry_group_IT_number 11
_symmetry_cell_setting 'monoclinic'
loop_
_space_group_symop_operation_xyz
x,y,z
-x,1/2+y,-z
-x,-y,-z
x,1/2-y,z
loop_
_atom_site_type_symbol
_atom_site_label
_atom_site_fract_x
_atom_site_fract_y
_atom_site_fract_z
Si Si1 0.721416 0.588199 0.247737
Si Si2 0.966154 0.583737 0.809750
Si Si3 0.501928 0.083974 0.582292
Si Si4 0.939382 0.915799 0.650567
Si Si5 0.907400 0.916392 0.020177
Si Si6 0.812977 0.407329 0.318439
Si Si7 0.310408 0.907094 0.444752
Si Si8 0.850056 0.417236 0.570522
O O1 0.744543 0.750000 0.253569
O O2 0.603860 0.567800 0.300043
O O3 0.799761 0.536293 0.128083
O O4 0.734703 0.500300 0.319890
O O5 0.982646 0.750000 0.786680
O O6 0.922684 0.527601 0.753163
O O7 0.076816 0.519105 0.756640
O O8 0.896360 0.547448 0.932182
O O9 0.525346 0.250000 0.547829
O O10 0.588951 0.017625 0.584470
O O11 0.500000 0.000000 0.500000
O O12 0.915202 0.750000 0.657545
O O13 0.053646 0.951037 0.548771
O O14 0.859635 0.001487 0.648437
O O15 0.929120 0.750000 0.017900
O O16 0.000000 0.000000 0.000000
O O17 0.815637 0.250000 0.278560
O O18 0.777896 0.400626 0.432310
O O19 0.344893 0.750000 0.397375
O O20 0.253751 0.975799 0.404414
O O21 0.842645 0.250000 0.591320
#
# Coordination Sequence:
#
# PCOD8068148 Si02
#       8
#     4   4   4   4   4   4   4   4
#     4  10  20  30  40  63  94 113 138 188 226 237
#     4   9  16  27  44  62  82 114 150 173 199 253
#     4  10  19  30  44  63  87 116 147 179 213 251
#     4   9  16  27  42  61  83 106 135 172 211 252
#     4  10  19  30  44  63  87 116 147 179 213 251
#     4  10  16  26  45  63  81 115 155 176 197 251
#     4   9  16  27  44  62  82 114 150 173 199 253
#     4   9  16  27  42  61  83 106 135 172 211 252
#
# _framework density 15.427951999999999
#
# number of rings (size 3 to 8) (size 9 to 14) (size 15 to 20)
#    0.000    2.500    3.750    0.000    0.000    0.000 
#    0.000    2.500    0.000    0.000    0.000    0.875 
#    0.000    0.000    0.000    0.000    0.000    0.000 
#
# Total GULP energy -396476.727005 kJ/mol
# GULP energy per Si atom -12389.897719 kJ/mol
# Density = 1.539284 g / cm^3
# Si number density = 15.427952 Si / 1000 Ang^3
#
#
#
# Elastic Constant Matrix: (Units=GPa)
#
#
# Indices 1 2 3 4 5 6 
#
# 1 141.4586 34.0411 47.7074 0.0000 6.4222 0.0000
# 2 34.0411 29.9876 19.5012 0.0000 3.7722 0.0000
# 3 47.7074 19.5012 73.7534 0.0000 1.5820 0.0000
# 4 0.0000 0.0000 0.0000 13.0653 0.0000 2.4826
# 5 6.4222 3.7722 1.5820 0.0000 26.4707 0.0000
# 6 0.0000 0.0000 0.0000 2.4826 0.0000 22.0529
#
#
#
# Elastic Compliance Matrix: (Units=1/GPa)
#
#
# Indices 1 2 3 4 5 6 
#
# 1 0.010885 -0.009251 -0.004572 0.000000 -0.001049 0.000000
# 2 -0.009251 0.048836 -0.006836 0.000000 -0.004306 0.000000
# 3 -0.004572 -0.006836 0.018303 0.000000 0.000990 0.000000
# 4 0.000000 0.000000 0.000000 0.078211 0.000000 -0.008805
# 5 -0.001049 -0.004306 0.000990 0.000000 0.038587 0.000000
# 6 0.000000 0.000000 0.000000 -0.008805 0.000000 0.046337
#
#
# Mechanical properties :
#
#
# Convention : Reuss Voigt Hill
#
# Bulk Modulus (GPa) = 27.24482 49.74435 38.49458
# Shear Modulus (GPa) = 16.96563 21.91443 19.44003
#
# Velocity S-wave (km/s) = 3.31972 3.77296 3.55357
# Velocity P-wave (km/s) = 5.69138 7.16193 6.46858
#
# Compressibility (1/GPa) = 0.03670423
#
# Stress axis : x y z
#
# Youngs Moduli (GPa) = 91.86856 20.47665 54.63647
#
# Poissons Ratio (x) = 0.18943 0.24982
# Poissons Ratio (y) = 0.84987 0.37352
# Poissons Ratio (z) = 0.42007 0.13999
#
# Static dielectric constant tensor:
#      x y z
#    x 3.074860 0.000000 -0.001480 
#    y 0.000000 2.759890 0.000000 
#    z -0.001480 0.000000 2.917120 
# 
# 
# High freq. dielectric constant tensor:
#      x y z
#    x 1.587860 0.000000 0.001960 
#    y 0.000000 1.566580 0.000000 
#    z 0.001960 0.000000 1.569150 
# 
# From -- ./inp_files/52024.got.cif
#   From: 2010.06.25/outbox.cif.g09.slc.cpg/sg11_27_cif.got.tgz:52024.got - 2010.06.27 23:14:04.
