data_PCOD8068268
_publ_section_title
;
Structure prediction by ZEFSAII (Michael W. Deem and Ramdas Pophale) SiO2 
 PCOD8068268
Probable space group: P 21/M
;
_chemical_formula_sum "Si O2"
_cell_formula_units_Z 32
_cell_length_a 20.352841
_cell_length_b 8.673266
_cell_length_c 16.269789
_cell_angle_alpha 90.000000
_cell_angle_beta 135.761560
_cell_angle_gamma 90.000000
_cell_volume 2003.663044
_symmetry_space_group_name_H-M "P 21/M"
_symmetry_group_IT_number 11
_symmetry_cell_setting 'monoclinic'
loop_
_space_group_symop_operation_xyz
x,y,z
-x,1/2+y,-z
-x,-y,-z
x,1/2-y,z
loop_
_atom_site_type_symbol
_atom_site_label
_atom_site_fract_x
_atom_site_fract_y
_atom_site_fract_z
Si Si1 0.947524 0.432764 0.373887
Si Si2 0.270390 0.929299 0.467640
Si Si3 0.442371 0.429317 0.713043
Si Si4 0.424230 0.567713 0.870738
Si Si5 0.642283 0.421083 0.614222
Si Si6 0.885943 0.429042 0.551046
Si Si7 0.220451 0.433051 0.698532
Si Si8 0.543795 0.578984 0.662223
O O1 0.942650 0.250000 0.371177
O O2 0.842324 0.503307 0.280995
O O3 0.000000 0.500000 0.500000
O O4 0.011012 0.489683 0.353525
O O5 0.301910 0.750000 0.505220
O O6 0.275330 0.976641 0.375139
O O7 0.164461 0.953836 0.405938
O O8 0.341141 0.032863 0.583685
O O9 0.446509 0.250000 0.738796
O O10 0.456390 0.527635 0.807607
O O11 0.526801 0.470048 0.725598
O O12 0.415404 0.750000 0.872885
O O13 0.325770 0.489654 0.805889
O O14 0.500000 0.500000 0.000000
O O15 0.663283 0.250000 0.665311
O O16 0.633222 0.525459 0.687411
O O17 0.547340 0.425284 0.476414
O O18 0.899041 0.250000 0.541804
O O19 0.818700 0.501810 0.422031
O O20 0.216350 0.250000 0.692900
O O21 0.565115 0.750000 0.713577
#
# Coordination Sequence:
#
# PCOD8068268 Si02
#       8
#     4   4   4   4   4   4   4   4
#     4  10  18  28  42  61  84 111 142 179 216 257
#     4   9  17  27  41  59  85 116 145 178 216 254
#     4  11  20  30  45  62  80 108 143 179 218 259
#     4  12  24  38  51  66  86 110 143 184 226 265
#     4   8  14  24  36  55  79 107 141 175 209 249
#     4  10  17  27  43  63  87 116 146 181 217 257
#     4  11  20  32  47  64  83 109 143 180 220 263
#     4   9  16  26  39  55  77 106 139 176 213 251
#
# _framework density 15.970750000000001
#
# number of rings (size 3 to 8) (size 9 to 14) (size 15 to 20)
#    0.000    2.000    1.250    7.500    0.000    3.500 
#    0.000    0.000    0.000    0.000    0.000    0.000 
#    0.000    0.000    0.000    1.125    0.000   14.250 
#
# Total GULP energy -396619.784767 kJ/mol
# GULP energy per Si atom -12394.368274 kJ/mol
# Density = 1.593440 g / cm^3
# Si number density = 15.970750 Si / 1000 Ang^3
#
#
#
# Elastic Constant Matrix: (Units=GPa)
#
#
# Indices 1 2 3 4 5 6 
#
# 1 149.5207 40.5523 28.8676 0.0000 2.8680 0.0000
# 2 40.5523 107.6258 13.6076 0.0000 4.7652 0.0000
# 3 28.8676 13.6076 30.2098 0.0000 5.3857 0.0000
# 4 0.0000 0.0000 0.0000 15.8707 0.0000 -0.0754
# 5 2.8680 4.7652 5.3857 0.0000 12.6979 0.0000
# 6 0.0000 0.0000 0.0000 -0.0754 0.0000 29.2606
#
#
#
# Elastic Compliance Matrix: (Units=1/GPa)
#
#
# Indices 1 2 3 4 5 6 
#
# 1 0.008793 -0.002437 -0.007695 0.000000 0.002192 0.000000
# 2 -0.002437 0.010574 -0.001974 0.000000 -0.002580 0.000000
# 3 -0.007695 -0.001974 0.044248 0.000000 -0.016288 0.000000
# 4 0.000000 0.000000 0.000000 0.063010 0.000000 0.000162
# 5 0.002192 -0.002580 -0.016288 0.000000 0.086135 0.000000
# 6 0.000000 0.000000 0.000000 0.000162 0.000000 0.034176
#
#
# Mechanical properties :
#
#
# Convention : Reuss Voigt Hill
#
# Bulk Modulus (GPa) = 25.37944 50.37902 37.87923
# Shear Modulus (GPa) = 17.58825 25.18776 21.38801
#
# Velocity S-wave (km/s) = 3.32215 3.97560 3.66348
# Velocity P-wave (km/s) = 5.53546 7.25858 6.45477
#
# Compressibility (1/GPa) = 0.03940198
#
# Stress axis : x y z
#
# Youngs Moduli (GPa) = 113.73156 94.57562 22.59997
#
# Poissons Ratio (x) = 0.23049 0.17391
# Poissons Ratio (y) = 0.27718 0.04461
# Poissons Ratio (z) = 0.87517 0.18668
#
# Static dielectric constant tensor:
#      x y z
#    x 3.811760 0.000000 0.025030 
#    y 0.000000 3.211360 0.000000 
#    z 0.025030 0.000000 2.442670 
# 
# 
# High freq. dielectric constant tensor:
#      x y z
#    x 1.638870 0.000000 -0.003460 
#    y 0.000000 1.631920 0.000000 
#    z -0.003460 0.000000 1.522020 
# 
# From -- ./inp_files/54326.got.cif
#   From: 2010.06.25/outbox.cif.g09.slc.cpg/sg11_28_cif.got.tgz:54326.got - 2010.06.27 23:14:04.
