data_PCOD8068547
_publ_section_title
;
Structure prediction by ZEFSAII (Michael W. Deem and Ramdas Pophale) SiO2 
 PCOD8068547
Probable space group: P 21/M
;
_chemical_formula_sum "Si O2"
_cell_formula_units_Z 32
_cell_length_a 16.043072
_cell_length_b 8.968152
_cell_length_c 30.299454
_cell_angle_alpha 90.000000
_cell_angle_beta 150.263493
_cell_angle_gamma 90.000000
_cell_volume 2162.307759
_symmetry_space_group_name_H-M "P 21/M"
_symmetry_group_IT_number 11
_symmetry_cell_setting 'monoclinic'
loop_
_space_group_symop_operation_xyz
x,y,z
-x,1/2+y,-z
-x,-y,-z
x,1/2-y,z
loop_
_atom_site_type_symbol
_atom_site_label
_atom_site_fract_x
_atom_site_fract_y
_atom_site_fract_z
Si Si1 0.767446 0.075241 0.477726
Si Si2 0.707936 0.424020 0.185380
Si Si3 0.910525 0.925674 0.199854
Si Si4 0.737062 0.923928 0.635535
Si Si5 0.177668 0.077658 0.581586
Si Si6 0.597648 0.920351 0.007194
Si Si7 0.157309 0.419944 0.669651
Si Si8 0.576177 0.923795 0.468745
O O1 0.736896 0.250000 0.460598
O O2 0.961192 0.036041 0.576847
O O3 0.710528 0.002450 0.404653
O O4 0.651977 0.008241 0.462249
O O5 0.751286 0.250000 0.198986
O O6 0.819685 0.517864 0.202507
O O7 0.749208 0.471474 0.253850
O O8 0.505371 0.454038 0.085415
O O9 0.948176 0.750000 0.222394
O O10 0.795478 0.961756 0.103075
O O11 0.079967 0.014730 0.269646
O O12 0.726288 0.750000 0.641962
O O13 0.696511 0.954137 0.565702
O O14 0.608024 0.011656 0.607128
O O15 0.156075 0.250000 0.559150
O O16 0.249278 0.060487 0.664317
O O17 0.000000 0.000000 0.500000
O O18 0.581228 0.750000 0.012005
O O19 0.500000 0.000000 0.000000
O O20 0.174284 0.250000 0.693851
O O21 0.560835 0.750000 0.451011
#
# Coordination Sequence:
#
# PCOD8068547 Si02
#       8
#     4   4   4   4   4   4   4   4
#     4  10  19  30  44  61  83 111 142 174 207 245
#     4  10  18  27  41  61  84 110 142 175 205 242
#     4  10  18  29  44  59  81 112 142 172 209 249
#     4  10  20  32  45  62  83 107 140 178 209 241
#     4   9  17  29  43  59  81 108 139 173 207 246
#     4   8  16  28  40  57  80 107 138 171 205 242
#     4   9  18  29  41  60  85 112 140 170 206 246
#     4  10  20  32  45  61  83 111 140 172 210 246
#
# _framework density 14.799004
#
# number of rings (size 3 to 8) (size 9 to 14) (size 15 to 20)
#    0.000    2.500    0.000    3.750    0.000    7.500 
#    0.000    0.000    0.000    0.000    0.000    0.000 
#    0.000    1.000    0.000    3.000    0.000    4.625 
#
# Total GULP energy -396520.151733 kJ/mol
# GULP energy per Si atom -12391.254742 kJ/mol
# Density = 1.476532 g / cm^3
# Si number density = 14.799004 Si / 1000 Ang^3
#
#
#
# Elastic Constant Matrix: (Units=GPa)
#
#
# Indices 1 2 3 4 5 6 
#
# 1 84.1080 36.4186 34.2934 0.0000 -4.5882 0.0000
# 2 36.4186 69.4493 35.5991 0.0000 -2.4410 0.0000
# 3 34.2934 35.5991 87.3221 0.0000 1.2395 0.0000
# 4 0.0000 0.0000 0.0000 21.2625 0.0000 0.2320
# 5 -4.5882 -2.4410 1.2395 0.0000 15.0291 0.0000
# 6 0.0000 0.0000 0.0000 0.2320 0.0000 27.6276
#
#
#
# Elastic Compliance Matrix: (Units=1/GPa)
#
#
# Indices 1 2 3 4 5 6 
#
# 1 0.016538 -0.006524 -0.003897 0.000000 0.004311 0.000000
# 2 -0.006524 0.020970 -0.006014 0.000000 0.001910 0.000000
# 3 -0.003897 -0.006014 0.015483 0.000000 -0.003443 0.000000
# 4 0.000000 0.000000 0.000000 0.047035 0.000000 -0.000395
# 5 0.004311 0.001910 -0.003443 0.000000 0.068448 0.000000
# 6 0.000000 0.000000 0.000000 -0.000395 0.000000 0.036199
#
#
# Mechanical properties :
#
#
# Convention : Reuss Voigt Hill
#
# Bulk Modulus (GPa) = 49.69612 50.38906 50.04259
# Shear Modulus (GPa) = 20.47094 21.75505 21.11300
#
# Velocity S-wave (km/s) = 3.72326 3.83826 3.78120
# Velocity P-wave (km/s) = 7.22061 7.33252 7.27678
#
# Compressibility (1/GPa) = 0.02012230
#
# Stress axis : x y z
#
# Youngs Moduli (GPa) = 60.46662 47.68764 64.58782
#
# Poissons Ratio (x) = 0.31109 0.25167
# Poissons Ratio (y) = 0.39446 0.38843
# Poissons Ratio (z) = 0.23561 0.28680
#
# Static dielectric constant tensor:
#      x y z
#    x 2.845470 0.000000 -0.213350 
#    y 0.000000 3.101500 0.000000 
#    z -0.213350 0.000000 3.177630 
# 
# 
# High freq. dielectric constant tensor:
#      x y z
#    x 1.540030 0.000000 -0.010190 
#    y 0.000000 1.587160 0.000000 
#    z -0.010190 0.000000 1.548440 
# 
# From -- ./inp_files/51389.got.cif
#   From: 2010.06.25/outbox.cif.g09.slc.cpg/sg11_26_cif.got.tgz:51389.got - 2010.06.27 23:14:04.
