data_PCOD8068879
_publ_section_title
;
Structure prediction by ZEFSAII (Michael W. Deem and Ramdas Pophale) SiO2 
 PCOD8068879
Probable space group: P 21/M
;
_chemical_formula_sum "Si O2"
_cell_formula_units_Z 32
_cell_length_a 12.433280
_cell_length_b 9.365651
_cell_length_c 15.489552
_cell_angle_alpha 90.000000
_cell_angle_beta 73.598693
_cell_angle_gamma 90.000000
_cell_volume 1730.295971
_symmetry_space_group_name_H-M "P 21/M"
_symmetry_group_IT_number 11
_symmetry_cell_setting 'monoclinic'
loop_
_space_group_symop_operation_xyz
x,y,z
-x,1/2+y,-z
-x,-y,-z
x,1/2-y,z
loop_
_atom_site_type_symbol
_atom_site_label
_atom_site_fract_x
_atom_site_fract_y
_atom_site_fract_z
Si Si1 0.464569 0.411340 0.133392
Si Si2 0.740650 0.079241 0.251134
Si Si3 0.711927 0.082700 0.068732
Si Si4 0.739111 0.580205 0.564924
Si Si5 0.875010 0.083158 0.679739
Si Si6 0.507016 0.589713 0.674137
Si Si7 0.132422 0.083919 0.635685
Si Si8 0.744955 0.083540 0.876127
O O1 0.450611 0.250000 0.102150
O O2 0.586242 0.478046 0.083373
O O3 0.447052 0.416258 0.239604
O O4 0.372698 0.508140 0.109935
O O5 0.747904 0.250000 0.258548
O O6 0.765951 0.027468 0.146390
O O7 0.616426 0.018670 0.306420
O O8 0.833733 0.006980 0.288907
O O9 0.694613 0.250000 0.087034
O O10 0.785478 0.047723 0.965985
O O11 0.744712 0.750000 0.579487
O O12 0.808693 0.506297 0.624580
O O13 0.609412 0.523173 0.594410
O O14 0.790799 0.536916 0.461695
O O15 0.851377 0.250000 0.669257
O O16 0.836999 0.035811 0.785032
O O17 0.005272 0.046559 0.640637
O O18 0.489388 0.750000 0.646406
O O19 0.146405 0.250000 0.654856
O O20 0.721015 0.250000 0.872943
#
# Coordination Sequence:
#
# PCOD8068879 Si02
#       8
#     4   4   4   4   4   4   4   4
#     4   9  15  27  47  71 101 130 158 196 242 293
#     4   9  18  35  55  72  96 131 170 204 240 295
#     4   8  16  30  49  72  98 131 164 196 242 295
#     4  10  19  34  56  76  98 129 165 204 251 305
#     4  10  21  35  50  73 106 134 161 205 252 292
#     4   8  15  29  50  75 100 126 155 199 251 292
#     4  10  22  37  51  71 100 134 168 208 255 289
#     4  10  18  29  47  72 101 131 162 197 244 296
#
# _framework density 18.493945
#
# number of rings (size 3 to 8) (size 9 to 14) (size 15 to 20)
#    0.000    2.750    1.250    2.250    0.000    1.500 
#    0.000    4.375    0.000    0.000    0.000    0.000 
#    0.000    0.000    0.000    0.000    0.000    0.000 
#
# Total GULP energy -396497.891140 kJ/mol
# GULP energy per Si atom -12390.559098 kJ/mol
# Density = 1.845185 g / cm^3
# Si number density = 18.493945 Si / 1000 Ang^3
#
#
#
# Elastic Constant Matrix: (Units=GPa)
#
#
# Indices 1 2 3 4 5 6 
#
# 1 30.1964 13.6677 9.6759 0.0000 8.8927 0.0000
# 2 13.6677 26.9882 21.2801 0.0000 5.9422 0.0000
# 3 9.6759 21.2801 80.2839 0.0000 -3.1206 0.0000
# 4 0.0000 0.0000 0.0000 20.7172 0.0000 7.0136
# 5 8.8927 5.9422 -3.1206 0.0000 20.3577 0.0000
# 6 0.0000 0.0000 0.0000 7.0136 0.0000 22.8120
#
#
#
# Elastic Compliance Matrix: (Units=1/GPa)
#
#
# Indices 1 2 3 4 5 6 
#
# 1 0.046666 -0.019569 -0.001014 0.000000 -0.014828 0.000000
# 2 -0.019569 0.060608 -0.014146 0.000000 -0.011311 0.000000
# 3 -0.001014 -0.014146 0.016604 0.000000 0.007117 0.000000
# 4 0.000000 0.000000 0.000000 0.053877 0.000000 -0.016565
# 5 -0.014828 -0.011311 0.007117 0.000000 0.059991 0.000000
# 6 0.000000 0.000000 0.000000 -0.016565 0.000000 0.048930
#
#
# Mechanical properties :
#
#
# Convention : Reuss Voigt Hill
#
# Bulk Modulus (GPa) = 18.37536 25.19065 21.78301
# Shear Modulus (GPa) = 13.35923 18.96702 16.16313
#
# Velocity S-wave (km/s) = 2.69059 3.20594 2.95950
# Velocity P-wave (km/s) = 4.42829 5.23017 4.84585
#
# Compressibility (1/GPa) = 0.05442071
#
# Stress axis : x y z
#
# Youngs Moduli (GPa) = 21.42902 16.49946 60.22591
#
# Poissons Ratio (x) = 0.32288 0.06104
# Poissons Ratio (y) = 0.41934 0.85196
# Poissons Ratio (z) = 0.02172 0.23340
#
# Static dielectric constant tensor:
#      x y z
#    x 3.318060 0.000000 -0.238630 
#    y 0.000000 2.833520 0.000000 
#    z -0.238630 0.000000 3.665820 
# 
# 
# High freq. dielectric constant tensor:
#      x y z
#    x 1.702810 0.000000 -0.010830 
#    y 0.000000 1.682680 0.000000 
#    z -0.010830 0.000000 1.729480 
# 
# From -- ./inp_files/45131.got.cif
#   From: 2010.06.25/outbox.cif.g09.slc.cpg/sg11_23_cif.got.tgz:45131.got - 2010.06.27 23:14:04.
