data_PCOD8068189
_publ_section_title
;
Structure prediction by ZEFSAII (Michael W. Deem and Ramdas Pophale) SiO2 
 PCOD8068189
Probable space group: P 21/M
;
_chemical_formula_sum "Si O2"
_cell_formula_units_Z 32
_cell_length_a 20.531551
_cell_length_b 8.941296
_cell_length_c 21.369776
_cell_angle_alpha 90.000000
_cell_angle_beta 28.662596
_cell_angle_gamma 90.000000
_cell_volume 1881.686851
_symmetry_space_group_name_H-M "P 21/M"
_symmetry_group_IT_number 11
_symmetry_cell_setting 'monoclinic'
loop_
_space_group_symop_operation_xyz
x,y,z
-x,1/2+y,-z
-x,-y,-z
x,1/2-y,z
loop_
_atom_site_type_symbol
_atom_site_label
_atom_site_fract_x
_atom_site_fract_y
_atom_site_fract_z
Si Si1 0.790833 0.572879 0.403333
Si Si2 0.088418 0.423260 0.372904
Si Si3 0.701664 0.082047 0.362473
Si Si4 0.520987 0.073056 0.683713
Si Si5 0.606033 0.916944 0.330946
Si Si6 0.384451 0.425528 0.283417
Si Si7 0.389454 0.076302 0.135764
Si Si8 0.883943 0.424703 0.439422
O O1 0.804173 0.750000 0.391900
O O2 0.801628 0.514014 0.322710
O O3 0.649301 0.519594 0.551315
O O4 0.904226 0.499957 0.353555
O O5 0.093632 0.250000 0.386672
O O6 0.240637 0.489783 0.244693
O O7 0.000000 0.500000 0.500000
O O8 0.023232 0.449672 0.359661
O O9 0.756613 0.250000 0.315906
O O10 0.549284 0.071029 0.516193
O O11 0.703744 0.023207 0.289061
O O12 0.552920 0.250000 0.657260
O O13 0.394439 0.041212 0.743017
O O14 0.499020 0.007795 0.772134
O O15 0.660774 0.750000 0.295194
O O16 0.378349 0.250000 0.304188
O O17 0.425365 0.455496 0.177645
O O18 0.237377 0.496908 0.420138
O O19 0.392511 0.250000 0.117665
O O20 0.500000 0.000000 0.000000
O O21 0.849240 0.250000 0.461021
#
# Coordination Sequence:
#
# PCOD8068189 Si02
#       8
#     4   4   4   4   4   4   4   4
#     4  10  17  24  35  52  78 109 141 181 224 267
#     4  10  20  34  52  73  96 121 155 197 239 284
#     4   9  15  22  32  46  69 102 141 180 217 265
#     4   9  16  25  37  54  77 105 143 183 222 270
#     4   8  14  22  31  46  69 100 138 179 217 260
#     4  10  18  29  45  64  89 115 147 191 231 275
#     4  10  22  37  51  71  97 125 158 195 238 288
#     4  10  18  28  45  66  87 114 148 188 232 276
#
# _framework density 17.006018999999998
#
# number of rings (size 3 to 8) (size 9 to 14) (size 15 to 20)
#    0.000    2.500    1.250    4.875    0.000    5.500 
#    0.000    0.000    0.000    0.000    0.000    0.000 
#    0.000    0.000    0.000    1.125    0.000   14.750 
#
# Total GULP energy -396538.257034 kJ/mol
# GULP energy per Si atom -12391.820532 kJ/mol
# Density = 1.696731 g / cm^3
# Si number density = 17.006019 Si / 1000 Ang^3
#
#
#
# Elastic Constant Matrix: (Units=GPa)
#
#
# Indices 1 2 3 4 5 6 
#
# 1 159.9951 73.5724 43.4865 0.0000 15.4518 0.0000
# 2 73.5724 108.0939 26.4449 0.0000 7.5080 0.0000
# 3 43.4865 26.4449 52.9603 0.0000 1.2089 0.0000
# 4 0.0000 0.0000 0.0000 14.9230 0.0000 5.6548
# 5 15.4518 7.5080 1.2089 0.0000 10.8414 0.0000
# 6 0.0000 0.0000 0.0000 5.6548 0.0000 33.0511
#
#
#
# Elastic Compliance Matrix: (Units=1/GPa)
#
#
# Indices 1 2 3 4 5 6 
#
# 1 0.011782 -0.005551 -0.006624 0.000000 -0.012210 0.000000
# 2 -0.005551 0.013667 -0.002237 0.000000 -0.001304 0.000000
# 3 -0.006624 -0.002237 0.025252 0.000000 0.008175 0.000000
# 4 0.000000 0.000000 0.000000 0.071656 0.000000 -0.012260
# 5 -0.012210 -0.001304 0.008175 0.000000 0.109633 0.000000
# 6 0.000000 0.000000 0.000000 -0.012260 0.000000 0.032354
#
#
# Mechanical properties :
#
#
# Convention : Reuss Voigt Hill
#
# Bulk Modulus (GPa) = 45.70936 67.56187 56.63561
# Shear Modulus (GPa) = 16.64111 23.59947 20.12029
#
# Velocity S-wave (km/s) = 3.13156 3.72924 3.44339
# Velocity P-wave (km/s) = 6.32552 7.63921 7.01319
#
# Compressibility (1/GPa) = 0.02187736
#
# Stress axis : x y z
#
# Youngs Moduli (GPa) = 84.87275 73.16855 39.60133
#
# Poissons Ratio (x) = 0.40614 0.26233
# Poissons Ratio (y) = 0.47111 0.08858
# Poissons Ratio (z) = 0.56222 0.16367
#
# Static dielectric constant tensor:
#      x y z
#    x 4.161910 0.000000 0.157150 
#    y 0.000000 3.269400 0.000000 
#    z 0.157150 0.000000 2.505660 
# 
# 
# High freq. dielectric constant tensor:
#      x y z
#    x 1.687130 0.000000 0.017890 
#    y 0.000000 1.667620 0.000000 
#    z 0.017890 0.000000 1.561300 
# 
# From -- ./inp_files/66416.got.cif
#   From: 2010.06.25/outbox.cif.g09.slc.cpg/sg11_34_cif.got.tgz:66416.got - 2010.06.27 23:14:04.
