data_PCOD8068696
_publ_section_title
;
Structure prediction by ZEFSAII (Michael W. Deem and Ramdas Pophale) SiO2 
 PCOD8068696
Probable space group: P 21/M
;
_chemical_formula_sum "Si O2"
_cell_formula_units_Z 32
_cell_length_a 21.227498
_cell_length_b 8.776588
_cell_length_c 30.593157
_cell_angle_alpha 90.000000
_cell_angle_beta 160.758852
_cell_angle_gamma 90.000000
_cell_volume 1878.292638
_symmetry_space_group_name_H-M "P 21/M"
_symmetry_group_IT_number 11
_symmetry_cell_setting 'monoclinic'
loop_
_space_group_symop_operation_xyz
x,y,z
-x,1/2+y,-z
-x,-y,-z
x,1/2-y,z
loop_
_atom_site_type_symbol
_atom_site_label
_atom_site_fract_x
_atom_site_fract_y
_atom_site_fract_z
Si Si1 0.782857 0.073117 0.197351
Si Si2 0.181162 0.571322 0.595963
Si Si3 0.555082 0.426136 0.878582
Si Si4 0.584133 0.572965 0.988301
Si Si5 0.117639 0.930802 0.117235
Si Si6 0.849047 0.074411 0.523440
Si Si7 0.199914 0.572534 0.043456
Si Si8 0.427225 0.073231 0.270542
O O1 0.773384 0.250000 0.178574
O O2 0.628802 0.034543 0.134037
O O3 0.991609 0.031814 0.351143
O O4 0.739661 0.974825 0.126125
O O5 0.164891 0.750000 0.589590
O O6 0.370503 0.521007 0.744665
O O7 0.188411 0.519492 0.550449
O O8 0.000000 0.500000 0.500000
O O9 0.497271 0.250000 0.841267
O O10 0.626728 0.477396 0.972869
O O11 0.727391 0.457319 0.957843
O O12 0.608520 0.750000 0.993745
O O13 0.119972 0.750000 0.118650
O O14 0.333026 0.994824 0.251969
O O15 0.000000 0.000000 0.000000
O O16 0.009429 0.992616 0.089575
O O17 0.916442 0.250000 0.568773
O O18 0.654376 0.051172 0.423099
O O19 0.179220 0.750000 0.040713
O O20 0.352218 0.502328 0.176853
O O21 0.370323 0.250000 0.231603
#
# Coordination Sequence:
#
# PCOD8068696 Si02
#       8
#     4   4   4   4   4   4   4   4
#     4  10  21  36  55  76  98 128 169 217 259 299
#     4  11  22  35  49  70 101 137 173 206 249 303
#     4  11  22  34  51  75 103 134 170 211 253 299
#     4  10  21  37  56  75  98 131 170 214 260 303
#     4  10  18  28  45  68  96 131 167 204 246 295
#     4  10  21  34  50  72 101 135 169 207 251 301
#     4  10  19  31  47  70 100 134 168 205 247 296
#     4  10  18  31  48  69  99 134 169 206 247 296
#
# _framework density 17.036750000000001
#
# number of rings (size 3 to 8) (size 9 to 14) (size 15 to 20)
#    0.000    1.750    1.250    5.625    0.000    7.000 
#    0.000    0.000    0.000    0.000    0.000    0.875 
#    0.000    0.000    0.000    0.000    0.000    0.000 
#
# Total GULP energy -396851.198568 kJ/mol
# GULP energy per Si atom -12401.599955 kJ/mol
# Density = 1.699797 g / cm^3
# Si number density = 17.036750 Si / 1000 Ang^3
#
#
#
# Elastic Constant Matrix: (Units=GPa)
#
#
# Indices 1 2 3 4 5 6 
#
# 1 101.7729 49.7880 47.6555 0.0000 14.5845 0.0000
# 2 49.7880 94.6827 35.6504 0.0000 13.4330 0.0000
# 3 47.6555 35.6504 49.2380 0.0000 4.7616 0.0000
# 4 0.0000 0.0000 0.0000 29.3900 0.0000 1.7171
# 5 14.5845 13.4330 4.7616 0.0000 23.2163 0.0000
# 6 0.0000 0.0000 0.0000 1.7171 0.0000 28.6919
#
#
#
# Elastic Compliance Matrix: (Units=1/GPa)
#
#
# Indices 1 2 3 4 5 6 
#
# 1 0.020230 -0.003421 -0.016390 0.000000 -0.007367 0.000000
# 2 -0.003421 0.016085 -0.007798 0.000000 -0.005558 0.000000
# 3 -0.016390 -0.007798 0.041204 0.000000 0.006357 0.000000
# 4 0.000000 0.000000 0.000000 0.034145 0.000000 -0.002043
# 5 -0.007367 -0.005558 0.006357 0.000000 0.049614 0.000000
# 6 0.000000 0.000000 0.000000 -0.002043 0.000000 0.034975
#
#
# Mechanical properties :
#
#
# Convention : Reuss Voigt Hill
#
# Bulk Modulus (GPa) = 44.84080 56.87571 50.85825
# Shear Modulus (GPa) = 19.31214 23.76629 21.53921
#
# Velocity S-wave (km/s) = 3.37049 3.73902 3.55953
# Velocity P-wave (km/s) = 6.44392 7.21783 6.84182
#
# Compressibility (1/GPa) = 0.02230112
#
# Stress axis : x y z
#
# Youngs Moduli (GPa) = 49.43137 62.16913 24.26951
#
# Poissons Ratio (x) = 0.21269 0.39778
# Poissons Ratio (y) = 0.16911 0.18924
# Poissons Ratio (z) = 0.81019 0.48477
#
# Static dielectric constant tensor:
#      x y z
#    x 3.480330 0.000000 0.323860 
#    y 0.000000 3.271840 0.000000 
#    z 0.323860 0.000000 3.043650 
# 
# 
# High freq. dielectric constant tensor:
#      x y z
#    x 1.652180 0.000000 0.023900 
#    y 0.000000 1.676470 0.000000 
#    z 0.023900 0.000000 1.630310 
# 
# From -- ./inp_files/73630.got.cif
#   From: 2010.06.25/outbox.cif.g09.slc.cpg/sg11_37_cif.got.tgz:73630.got - 2010.06.27 23:14:04.
