data_PCOD8068384
_publ_section_title
;
Structure prediction by ZEFSAII (Michael W. Deem and Ramdas Pophale) SiO2 
 PCOD8068384
Probable space group: P 21/M
;
_chemical_formula_sum "Si O2"
_cell_formula_units_Z 32
_cell_length_a 20.113515
_cell_length_b 9.275392
_cell_length_c 19.798634
_cell_angle_alpha 90.000000
_cell_angle_beta 30.355978
_cell_angle_gamma 90.000000
_cell_volume 1866.662156
_symmetry_space_group_name_H-M "P 21/M"
_symmetry_group_IT_number 11
_symmetry_cell_setting 'monoclinic'
loop_
_space_group_symop_operation_xyz
x,y,z
-x,1/2+y,-z
-x,-y,-z
x,1/2-y,z
loop_
_atom_site_type_symbol
_atom_site_label
_atom_site_fract_x
_atom_site_fract_y
_atom_site_fract_z
Si Si1 0.920473 0.415359 0.659091
Si Si2 0.371616 0.578198 0.848801
Si Si3 0.655082 0.578719 0.648467
Si Si4 0.316774 0.082902 0.620352
Si Si5 0.133129 0.918973 0.145373
Si Si6 0.178299 0.582764 0.397680
Si Si7 0.611492 0.417057 0.317178
Si Si8 0.846573 0.921547 0.361620
O O1 0.972800 0.250000 0.614389
O O2 0.843811 0.451315 0.795540
O O3 0.820941 0.439442 0.684088
O O4 0.044496 0.519662 0.545692
O O5 0.373433 0.750000 0.847695
O O6 0.509282 0.523343 0.758539
O O7 0.353121 0.523951 0.788201
O O8 0.252940 0.512596 0.997721
O O9 0.660438 0.750000 0.653343
O O10 0.697456 0.502454 0.681090
O O11 0.753100 0.523954 0.503858
O O12 0.296270 0.250000 0.653980
O O13 0.458050 0.052970 0.463473
O O14 0.208455 0.024594 0.662304
O O15 0.300009 0.999588 0.705511
O O16 0.131147 0.750000 0.132896
O O17 0.993302 0.984141 0.243500
O O18 0.187233 0.750000 0.409368
O O19 0.645467 0.250000 0.294476
O O20 0.844828 0.750000 0.364811
#
# Coordination Sequence:
#
# PCOD8068384 Si02
#       8
#     4   4   4   4   4   4   4   4
#     4   9  17  31  50  70  96 127 159 193 233 279
#     4   9  17  29  48  72  95 121 159 199 231 272
#     4  10  17  30  50  71  94 122 158 198 233 271
#     4   9  16  27  45  68  91 118 152 191 232 277
#     4   9  16  28  49  73  92 119 160 199 231 270
#     4  10  19  29  46  74 100 122 154 198 239 277
#     4   9  16  28  45  67  93 118 149 193 236 273
#     4   9  15  26  47  70  91 117 157 197 226 266
#
# _framework density 17.142899
#
# number of rings (size 3 to 8) (size 9 to 14) (size 15 to 20)
#    0.000    2.750    2.500    0.375    0.000    0.500 
#    0.000    2.500    0.000    1.500    0.000    0.000 
#    0.000    0.000    0.000    0.000    0.000    0.000 
#
# Total GULP energy -396706.879336 kJ/mol
# GULP energy per Si atom -12397.089979 kJ/mol
# Density = 1.710388 g / cm^3
# Si number density = 17.142899 Si / 1000 Ang^3
#
#
#
# Elastic Constant Matrix: (Units=GPa)
#
#
# Indices 1 2 3 4 5 6 
#
# 1 168.3528 40.3572 77.1909 0.0000 6.3746 0.0000
# 2 40.3572 35.0808 24.8943 0.0000 3.2893 0.0000
# 3 77.1909 24.8943 115.1242 0.0000 4.0692 0.0000
# 4 0.0000 0.0000 0.0000 9.1357 0.0000 1.4152
# 5 6.3746 3.2893 4.0692 0.0000 26.8128 0.0000
# 6 0.0000 0.0000 0.0000 1.4152 0.0000 29.1374
#
#
#
# Elastic Compliance Matrix: (Units=1/GPa)
#
#
# Indices 1 2 3 4 5 6 
#
# 1 0.010243 -0.008108 -0.005091 0.000000 -0.000668 0.000000
# 2 -0.008108 0.040340 -0.003197 0.000000 -0.002536 0.000000
# 3 -0.005091 -0.003197 0.012803 0.000000 -0.000340 0.000000
# 4 0.000000 0.000000 0.000000 0.110291 0.000000 -0.005357
# 5 -0.000668 -0.002536 -0.000340 0.000000 0.037817 0.000000
# 6 0.000000 0.000000 0.000000 -0.005357 0.000000 0.034580
#
#
# Mechanical properties :
#
#
# Convention : Reuss Voigt Hill
#
# Bulk Modulus (GPa) = 32.68642 67.04918 49.86780
# Shear Modulus (GPa) = 17.29715 24.75820 21.02767
#
# Velocity S-wave (km/s) = 3.17992 3.80442 3.50610
# Velocity P-wave (km/s) = 5.70885 7.64820 6.74855
#
# Compressibility (1/GPa) = 0.03059375
#
# Stress axis : x y z
#
# Youngs Moduli (GPa) = 97.62498 24.78936 78.10565
#
# Poissons Ratio (x) = 0.20100 0.39765
# Poissons Ratio (y) = 0.79159 0.24968
# Poissons Ratio (z) = 0.49702 0.07924
#
# Static dielectric constant tensor:
#      x y z
#    x 3.508530 0.000000 0.030150 
#    y 0.000000 2.852250 0.000000 
#    z 0.030150 0.000000 3.170700 
# 
# 
# High freq. dielectric constant tensor:
#      x y z
#    x 1.680080 0.000000 0.005400 
#    y 0.000000 1.619060 0.000000 
#    z 0.005400 0.000000 1.635110 
# 
# From -- ./inp_files/66404.got.cif
#   From: 2010.06.25/outbox.cif.g09.slc.cpg/sg11_34_cif.got.tgz:66404.got - 2010.06.27 23:14:04.
