data_PCOD8068019
_publ_section_title
;
Structure prediction by ZEFSAII (Michael W. Deem and Ramdas Pophale) SiO2 
 PCOD8068019
Probable space group: P 2/M
;
_chemical_formula_sum "Si O2"
_cell_formula_units_Z 20
_cell_length_a 14.469532
_cell_length_b 7.605403
_cell_length_c 15.755037
_cell_angle_alpha 90.000000
_cell_angle_beta 40.047943
_cell_angle_gamma 90.000000
_cell_volume 1115.568796
_symmetry_space_group_name_H-M "P 2/M"
_symmetry_group_IT_number 10
_symmetry_cell_setting 'monoclinic'
loop_
_space_group_symop_operation_xyz
x,y,z
-x,y,-z
-x,-y,-z
x,-y,z
loop_
_atom_site_type_symbol
_atom_site_label
_atom_site_fract_x
_atom_site_fract_y
_atom_site_fract_z
Si Si1 0.936571 0.500000 0.177403
Si Si2 0.427176 0.208437 0.135580
Si Si3 0.336070 0.799931 0.900312
Si Si4 0.046989 0.200400 0.206846
Si Si5 0.228279 0.500000 0.868460
Si Si6 0.107439 0.791408 0.354077
O O1 0.795985 0.500000 0.216035
O O2 0.935219 0.324749 0.235885
O O3 0.076767 0.500000 0.021327
O O4 0.519406 0.260231 0.153355
O O5 0.266762 0.285974 0.258307
O O6 0.421581 0.000000 0.129578
O O7 0.500000 0.289411 0.000000
O O8 0.315386 0.674821 0.833583
O O9 0.346496 0.000000 0.859704
O O10 0.206953 0.780054 0.057874
O O11 0.050942 0.263577 0.301246
O O12 0.992272 0.000000 0.236387
O O13 0.000000 0.711735 0.500000
O O14 0.113340 0.000000 0.356860
#
# Coordination Sequence:
#
# PCOD8068019 Si02
#       6
#     2   4   4   4   2   4
#     4   9  18  30  44  63  92 121 149 195 242 275
#     4   9  14  24  43  66  93 126 155 182 226 277
#     4   9  16  27  45  66  91 122 153 186 228 277
#     4   9  16  28  45  65  90 123 156 184 226 279
#     4   9  18  30  42  66  94 114 151 201 238 270
#     4   9  16  26  43  69  98 125 155 189 223 270
#
# _framework density 17.928073999999999
#
# number of rings (size 3 to 8) (size 9 to 14) (size 15 to 20)
#    0.000    3.000    2.000    0.000    0.000    0.800 
#    0.000    6.000    0.000    0.000    0.000    2.800 
#    0.000    8.000    0.000    0.000    0.000    0.000 
#
# Total GULP energy -247928.091901 kJ/mol
# GULP energy per Si atom -12396.404595 kJ/mol
# Density = 1.788727 g / cm^3
# Si number density = 17.928074 Si / 1000 Ang^3
#
#
#
# Elastic Constant Matrix: (Units=GPa)
#
#
# Indices 1 2 3 4 5 6 
#
# 1 177.2202 71.6803 60.9575 0.0000 12.4723 0.0000
# 2 71.6803 85.7278 19.0854 0.0000 8.8572 0.0000
# 3 60.9575 19.0854 71.9229 0.0000 -2.1594 0.0000
# 4 0.0000 0.0000 0.0000 3.6092 0.0000 1.5625
# 5 12.4723 8.8572 -2.1594 0.0000 18.2382 0.0000
# 6 0.0000 0.0000 0.0000 1.5625 0.0000 2.0080
#
#
#
# Elastic Compliance Matrix: (Units=1/GPa)
#
#
# Indices 1 2 3 4 5 6 
#
# 1 0.011935 -0.007574 -0.008270 0.000000 -0.005463 0.000000
# 2 -0.007574 0.018004 0.001540 0.000000 -0.003382 0.000000
# 3 -0.008270 0.001540 0.020725 0.000000 0.007361 0.000000
# 4 0.000000 0.000000 0.000000 0.417834 0.000000 -0.325133
# 5 -0.005463 -0.003382 0.007361 0.000000 0.061079 0.000000
# 6 0.000000 0.000000 0.000000 -0.325133 0.000000 0.750997
#
#
# Mechanical properties :
#
#
# Convention : Reuss Voigt Hill
#
# Bulk Modulus (GPa) = 45.33653 70.92414 58.13034
# Shear Modulus (GPa) = 3.79785 16.98094 10.38940
#
# Velocity S-wave (km/s) = 1.45705 3.08095 2.40990
# Velocity P-wave (km/s) = 5.30788 7.23205 6.34335
#
# Compressibility (1/GPa) = 0.02205727
#
# Stress axis : x y z
#
# Youngs Moduli (GPa) = 83.78714 55.54271 48.25106
#
# Poissons Ratio (x) = 0.42067 0.39902
# Poissons Ratio (y) = 0.63459 -0.07431
# Poissons Ratio (z) = 0.69289 -0.08554
#
# Static dielectric constant tensor:
#      x y z
#    x 3.475500 0.000000 -0.010120 
#    y 0.000000 3.206370 0.000000 
#    z -0.010120 0.000000 3.150210 
# 
# 
# High freq. dielectric constant tensor:
#      x y z
#    x 1.692000 0.000000 0.003500 
#    y 0.000000 1.685640 0.000000 
#    z 0.003500 0.000000 1.642500 
# 
# From -- ./inp_files/31455.got.cif
#   From: 2010.06.25/outbox.cif.g09.slc.cpg/sg10_16_cif.got.tgz:31455.got - 2010.06.27 22:07:45.
