data_PCOD8068383
_publ_section_title
;
Structure prediction by ZEFSAII (Michael W. Deem and Ramdas Pophale) SiO2 
 PCOD8068383
Probable space group: P 21/M
;
_chemical_formula_sum "Si O2"
_cell_formula_units_Z 32
_cell_length_a 15.928401
_cell_length_b 14.207721
_cell_length_c 22.252866
_cell_angle_alpha 90.000000
_cell_angle_beta 21.715091
_cell_angle_gamma 90.000000
_cell_volume 1863.263434
_symmetry_space_group_name_H-M "P 21/M"
_symmetry_group_IT_number 11
_symmetry_cell_setting 'monoclinic'
loop_
_space_group_symop_operation_xyz
x,y,z
-x,1/2+y,-z
-x,-y,-z
x,1/2-y,z
loop_
_atom_site_type_symbol
_atom_site_label
_atom_site_fract_x
_atom_site_fract_y
_atom_site_fract_z
Si Si1 0.270919 0.018553 0.528759
Si Si2 0.915161 0.354765 0.538330
Si Si3 0.547990 0.923770 0.172900
Si Si4 0.573027 0.359466 0.412559
Si Si5 0.576974 0.855746 0.281386
Si Si6 0.826218 0.645234 0.231284
Si Si7 0.161300 0.462611 0.472251
Si Si8 0.993144 0.026987 0.180483
O O1 0.463130 0.086520 0.428947
O O2 0.159357 0.066057 0.543829
O O3 0.372001 0.920661 0.438869
O O4 0.072467 0.996249 0.707773
O O5 0.989598 0.250000 0.467440
O O6 0.641192 0.354799 0.730470
O O7 0.972558 0.436933 0.450992
O O8 0.040867 0.377921 0.517212
O O9 0.656558 0.880131 0.161407
O O10 0.420597 0.022331 0.275330
O O11 0.751731 0.933629 0.989940
O O12 0.598981 0.250000 0.378703
O O13 0.415218 0.375565 0.575726
O O14 0.817694 0.401676 0.265724
O O15 0.480914 0.750000 0.348452
O O16 0.792289 0.866320 0.182476
O O17 0.912241 0.750000 0.190587
O O18 0.007746 0.569952 0.132868
#
# Coordination Sequence:
#
# PCOD8068383 Si02
#       8
#     4   4   4   4   4   4   4   4
#     4  10  18  33  52  76  96 137 178 203 238 287
#     4   9  17  35  59  74  96 127 160 205 256 304
#     4   9  20  31  49  76 104 121 159 207 259 298
#     4  10  19  30  46  72 107 141 174 204 239 288
#     4  10  17  30  50  70  97 133 174 207 237 290
#     4   9  17  31  49  68  97 142 181 201 235 290
#     4   8  19  35  54  78  92 125 173 199 246 307
#     4  11  19  32  50  74 106 137 160 211 252 288
#
# _framework density 17.174168000000002
#
# number of rings (size 3 to 8) (size 9 to 14) (size 15 to 20)
#    0.750    1.750    2.500    1.125    0.000    2.000 
#    0.000    1.250    0.000    0.000    0.000    0.000 
#    0.000    0.000    0.000    0.000    0.000    0.000 
#
# Total GULP energy -396513.085777 kJ/mol
# GULP energy per Si atom -12391.033931 kJ/mol
# Density = 1.713508 g / cm^3
# Si number density = 17.174168 Si / 1000 Ang^3
#
#
#
# Elastic Constant Matrix: (Units=GPa)
#
#
# Indices 1 2 3 4 5 6 
#
# 1 93.2141 11.1634 28.6841 0.0000 1.3605 0.0000
# 2 11.1634 67.4089 13.6962 0.0000 -3.5679 0.0000
# 3 28.6841 13.6962 51.9720 0.0000 4.6012 0.0000
# 4 0.0000 0.0000 0.0000 10.9450 0.0000 0.7812
# 5 1.3605 -3.5679 4.6012 0.0000 11.7120 0.0000
# 6 0.0000 0.0000 0.0000 0.7812 0.0000 15.7637
#
#
#
# Elastic Compliance Matrix: (Units=1/GPa)
#
#
# Indices 1 2 3 4 5 6 
#
# 1 0.012970 -0.000652 -0.007082 0.000000 0.001077 0.000000
# 2 -0.000652 0.016220 -0.004516 0.000000 0.006791 0.000000
# 3 -0.007082 -0.004516 0.025267 0.000000 -0.010480 0.000000
# 4 0.000000 0.000000 0.000000 0.091690 0.000000 -0.004544
# 5 0.001077 0.006791 -0.010480 0.000000 0.091444 0.000000
# 6 0.000000 0.000000 0.000000 -0.004544 0.000000 0.063662
#
#
# Mechanical properties :
#
#
# Convention : Reuss Voigt Hill
#
# Bulk Modulus (GPa) = 33.38008 35.52025 34.45017
# Shear Modulus (GPa) = 14.89260 18.28756 16.59008
#
# Velocity S-wave (km/s) = 2.94794 3.26671 3.11141
# Velocity P-wave (km/s) = 5.57365 5.91234 5.74549
#
# Compressibility (1/GPa) = 0.02995798
#
# Stress axis : x y z
#
# Youngs Moduli (GPa) = 77.10392 61.65319 39.57675
#
# Poissons Ratio (x) = 0.04020 0.28027
# Poissons Ratio (y) = 0.05027 0.17872
# Poissons Ratio (z) = 0.54602 0.27841
#
# Static dielectric constant tensor:
#      x y z
#    x 3.331980 0.000000 0.024440 
#    y 0.000000 3.211410 0.000000 
#    z 0.024440 0.000000 2.743980 
# 
# 
# High freq. dielectric constant tensor:
#      x y z
#    x 1.662500 0.000000 0.000590 
#    y 0.000000 1.663190 0.000000 
#    z 0.000590 0.000000 1.614440 
# 
# From -- ./inp_files/69678.got.cif
#   From: 2010.06.25/outbox.cif.g09.slc.cpg/sg11_35_cif.got.tgz:69678.got - 2010.06.27 23:14:04.
