data_PCOD8068437
_publ_section_title
;
Structure prediction by ZEFSAII (Michael W. Deem and Ramdas Pophale) SiO2 
 PCOD8068437
Probable space group: P 21/M
;
_chemical_formula_sum "Si O2"
_cell_formula_units_Z 32
_cell_length_a 9.927574
_cell_length_b 13.757899
_cell_length_c 14.385967
_cell_angle_alpha 90.000000
_cell_angle_beta 68.988312
_cell_angle_gamma 90.000000
_cell_volume 1834.222553
_symmetry_space_group_name_H-M "P 21/M"
_symmetry_group_IT_number 11
_symmetry_cell_setting 'monoclinic'
loop_
_space_group_symop_operation_xyz
x,y,z
-x,1/2+y,-z
-x,-y,-z
x,1/2-y,z
loop_
_atom_site_type_symbol
_atom_site_label
_atom_site_fract_x
_atom_site_fract_y
_atom_site_fract_z
Si Si1 0.727061 0.026254 0.989001
Si Si2 0.048471 0.480752 0.223810
Si Si3 0.718296 0.861899 0.736177
Si Si4 0.153958 0.139988 0.706769
Si Si5 0.458344 0.359395 0.555347
Si Si6 0.510555 0.951699 0.645747
Si Si7 0.454207 0.141274 0.033514
Si Si8 0.780915 0.023086 0.184412
O O1 0.802362 0.038436 0.069849
O O2 0.623656 0.117446 0.993372
O O3 0.629905 0.928709 0.016529
O O4 0.845716 0.023085 0.880378
O O5 0.127563 0.408803 0.275257
O O6 0.981484 0.574362 0.295680
O O7 0.915841 0.424378 0.204472
O O8 0.743711 0.750000 0.702245
O O9 0.653613 0.920434 0.665366
O O10 0.608086 0.872109 0.848082
O O11 0.103484 0.250000 0.737056
O O12 0.283901 0.133997 0.600402
O O13 0.210369 0.091997 0.790133
O O14 0.509030 0.250000 0.568897
O O15 0.510317 0.384698 0.439306
O O16 0.527403 0.435308 0.611642
O O17 0.370925 0.932569 0.744451
O O18 0.432360 0.250000 0.002021
#
# Coordination Sequence:
#
# PCOD8068437 Si02
#       8
#     4   4   4   4   4   4   4   4
#     4  10  17  32  52  72 109 141 174 214 259 302
#     4   9  20  33  52  73 110 144 168 213 259 308
#     4  10  19  35  53  76 107 142 178 213 264 315
#     4   8  17  33  52  73 103 136 171 212 258 315
#     4   9  18  34  57  83 105 132 173 220 267 313
#     4  10  18  33  60  80 102 137 173 220 264 309
#     4   9  19  31  48  75 107 140 177 221 256 303
#     4   9  18  32  54  76 103 136 175 214 257 302
#
# _framework density 17.446083000000002
#
# number of rings (size 3 to 8) (size 9 to 14) (size 15 to 20)
#    0.750    2.000    1.250    0.750    0.000    1.000 
#    0.000    3.125    0.000    0.000    0.000    0.000 
#    0.000    0.000    0.000    0.000    0.000    0.000 
#
# Total GULP energy -396554.290134 kJ/mol
# GULP energy per Si atom -12392.321567 kJ/mol
# Density = 1.740637 g / cm^3
# Si number density = 17.446083 Si / 1000 Ang^3
#
#
#
# Elastic Constant Matrix: (Units=GPa)
#
#
# Indices 1 2 3 4 5 6 
#
# 1 98.8177 54.5719 22.2239 0.0000 17.4106 0.0000
# 2 54.5719 107.1772 31.0592 0.0000 1.3453 0.0000
# 3 22.2239 31.0592 43.7142 0.0000 6.2903 0.0000
# 4 0.0000 0.0000 0.0000 16.6479 0.0000 -1.4181
# 5 17.4106 1.3453 6.2903 0.0000 23.2689 0.0000
# 6 0.0000 0.0000 0.0000 -1.4181 0.0000 26.1412
#
#
#
# Elastic Compliance Matrix: (Units=1/GPa)
#
#
# Indices 1 2 3 4 5 6 
#
# 1 0.016990 -0.008180 -0.001107 0.000000 -0.011940 0.000000
# 2 -0.008180 0.015748 -0.008095 0.000000 0.007398 0.000000
# 3 -0.001107 -0.008095 0.030178 0.000000 -0.006861 0.000000
# 4 0.000000 0.000000 0.000000 0.060347 0.000000 0.003274
# 5 -0.011940 0.007398 -0.006861 0.000000 0.053337 0.000000
# 6 0.000000 0.000000 0.000000 0.003274 0.000000 0.038431
#
#
# Mechanical properties :
#
#
# Convention : Reuss Voigt Hill
#
# Bulk Modulus (GPa) = 35.52302 51.71323 43.61812
# Shear Modulus (GPa) = 19.29160 22.66854 20.98007
#
# Velocity S-wave (km/s) = 3.32894 3.60856 3.47157
# Velocity P-wave (km/s) = 5.93141 6.86064 6.41288
#
# Compressibility (1/GPa) = 0.02815076
#
# Stress axis : x y z
#
# Youngs Moduli (GPa) = 58.85902 63.49816 33.13672
#
# Poissons Ratio (x) = 0.51941 0.03670
# Poissons Ratio (y) = 0.48146 0.26825
# Poissons Ratio (z) = 0.06518 0.51404
#
# Static dielectric constant tensor:
#      x y z
#    x 3.191770 0.000000 -0.113370 
#    y 0.000000 3.219840 0.000000 
#    z -0.113370 0.000000 3.039610 
# 
# 
# High freq. dielectric constant tensor:
#      x y z
#    x 1.664660 0.000000 -0.010150 
#    y 0.000000 1.664320 0.000000 
#    z -0.010150 0.000000 1.659490 
# 
# From -- ./inp_files/47426.got.cif
#   From: 2010.06.25/outbox.cif.g09.slc.cpg/sg11_24_cif.got.tgz:47426.got - 2010.06.27 23:14:04.
