data_PCOD8068661
_publ_section_title
;
Structure prediction by ZEFSAII (Michael W. Deem and Ramdas Pophale) SiO2 
 PCOD8068661
Probable space group: P 21/M
;
_chemical_formula_sum "Si O2"
_cell_formula_units_Z 32
_cell_length_a 23.702259
_cell_length_b 8.884831
_cell_length_c 17.615959
_cell_angle_alpha 90.000000
_cell_angle_beta 148.426896
_cell_angle_gamma 90.000000
_cell_volume 1942.375762
_symmetry_space_group_name_H-M "P 21/M"
_symmetry_group_IT_number 11
_symmetry_cell_setting 'monoclinic'
loop_
_space_group_symop_operation_xyz
x,y,z
-x,1/2+y,-z
-x,-y,-z
x,1/2-y,z
loop_
_atom_site_type_symbol
_atom_site_label
_atom_site_fract_x
_atom_site_fract_y
_atom_site_fract_z
Si Si1 0.251441 0.927841 0.826681
Si Si2 0.074848 0.573103 0.739483
Si Si3 0.812604 0.426914 0.653167
Si Si4 0.298944 0.427711 0.604870
Si Si5 0.145167 0.928681 0.550147
Si Si6 0.486991 0.572108 0.066709
Si Si7 0.109153 0.576372 0.103488
Si Si8 0.964696 0.074878 0.136512
O O1 0.249449 0.750000 0.820335
O O2 0.183395 0.982360 0.821590
O O3 0.199461 0.990320 0.689440
O O4 0.374735 0.984603 0.975118
O O5 0.054183 0.750000 0.703200
O O6 0.088290 0.533371 0.843717
O O7 0.977559 0.482179 0.590583
O O8 0.798479 0.250000 0.623123
O O9 0.717756 0.513737 0.500135
O O10 0.801313 0.471685 0.730719
O O11 0.929240 0.475810 0.754923
O O12 0.286453 0.250000 0.593488
O O13 0.205887 0.499669 0.548840
O O14 0.416413 0.480416 0.767810
O O15 0.150946 0.750000 0.550115
O O16 0.487514 0.750000 0.056083
O O17 0.500000 0.500000 0.000000
O O18 0.089227 0.750000 0.093986
O O19 0.127391 0.542062 0.034448
O O20 0.000000 0.500000 0.000000
O O21 0.999621 0.250000 0.174390
#
# Coordination Sequence:
#
# PCOD8068661 Si02
#       8
#     4   4   4   4   4   4   4   4
#     4   9  19  34  49  67  91 122 156 193 233 272
#     4  10  19  31  48  69  96 125 153 185 226 278
#     4  10  18  28  44  65  93 123 152 187 229 277
#     4  11  21  31  47  69  92 121 157 195 234 275
#     4  11  20  31  48  67  94 125 155 191 228 272
#     4  10  20  35  52  68  89 118 156 199 238 275
#     4   8  15  26  40  62  90 121 150 180 222 272
#     4   9  16  27  44  66  94 122 151 184 222 276
#
# _framework density 16.474668999999999
#
# number of rings (size 3 to 8) (size 9 to 14) (size 15 to 20)
#    0.000    2.250    2.500    1.500    0.000    1.000 
#    0.000    1.250    0.000    0.000    0.000    0.875 
#    0.000    0.000    0.000    0.000    0.000    0.000 
#
# Total GULP energy -396531.996870 kJ/mol
# GULP energy per Si atom -12391.624902 kJ/mol
# Density = 1.643717 g / cm^3
# Si number density = 16.474669 Si / 1000 Ang^3
#
#
#
# Elastic Constant Matrix: (Units=GPa)
#
#
# Indices 1 2 3 4 5 6 
#
# 1 71.9328 16.2370 67.6665 0.0000 -8.1870 0.0000
# 2 16.2370 38.1181 31.1896 0.0000 -4.4785 0.0000
# 3 67.6665 31.1896 135.7433 0.0000 -14.7235 0.0000
# 4 0.0000 0.0000 0.0000 20.2470 0.0000 -4.1693
# 5 -8.1870 -4.4785 -14.7235 0.0000 32.4284 0.0000
# 6 0.0000 0.0000 0.0000 -4.1693 0.0000 14.3186
#
#
#
# Elastic Compliance Matrix: (Units=1/GPa)
#
#
# Indices 1 2 3 4 5 6 
#
# 1 0.026202 -0.000559 -0.012857 0.000000 0.000700 0.000000
# 2 -0.000559 0.032361 -0.007034 0.000000 0.001134 0.000000
# 3 -0.012857 -0.007034 0.015708 0.000000 0.002915 0.000000
# 4 0.000000 0.000000 0.000000 0.052541 0.000000 0.015299
# 5 0.000700 0.001134 0.002915 0.000000 0.032494 0.000000
# 6 0.000000 0.000000 0.000000 0.015299 0.000000 0.074294
#
#
# Mechanical properties :
#
#
# Convention : Reuss Voigt Hill
#
# Bulk Modulus (GPa) = 29.96542 52.88671 41.42606
# Shear Modulus (GPa) = 17.50551 22.11219 19.80885
#
# Velocity S-wave (km/s) = 3.26325 3.66757 3.47130
# Velocity P-wave (km/s) = 5.69444 7.07858 6.42390
#
# Compressibility (1/GPa) = 0.03337181
#
# Stress axis : x y z
#
# Youngs Moduli (GPa) = 38.16447 30.90139 63.66043
#
# Poissons Ratio (x) = 0.01727 0.81850
# Poissons Ratio (y) = 0.02133 0.44778
# Poissons Ratio (z) = 0.49069 0.21736
#
# Static dielectric constant tensor:
#      x y z
#    x 3.562620 0.000000 -0.196460 
#    y 0.000000 3.002420 0.000000 
#    z -0.196460 0.000000 3.596180 
# 
# 
# High freq. dielectric constant tensor:
#      x y z
#    x 1.614160 0.000000 -0.029830 
#    y 0.000000 1.629510 0.000000 
#    z -0.029830 0.000000 1.628560 
# 
# From -- ./inp_files/43747.got.cif
#   From: 2010.06.25/outbox.cif.g09.slc.cpg/sg11_22_cif.got.tgz:43747.got - 2010.06.27 23:14:04.
