data_PCOD8068013
_publ_section_title
;
Structure prediction by ZEFSAII (Michael W. Deem and Ramdas Pophale) SiO2 
 PCOD8068013
Probable space group: P 2/M
;
_chemical_formula_sum "Si O2"
_cell_formula_units_Z 32
_cell_length_a 13.963853
_cell_length_b 9.282285
_cell_length_c 14.884353
_cell_angle_alpha 90.000000
_cell_angle_beta 88.580013
_cell_angle_gamma 90.000000
_cell_volume 1928.664730
_symmetry_space_group_name_H-M "P 2/M"
_symmetry_group_IT_number 10
_symmetry_cell_setting 'monoclinic'
loop_
_space_group_symop_operation_xyz
x,y,z
-x,y,-z
-x,-y,-z
x,-y,z
loop_
_atom_site_type_symbol
_atom_site_label
_atom_site_fract_x
_atom_site_fract_y
_atom_site_fract_z
Si Si1 0.028162 0.830452 0.098792
Si Si2 0.318119 0.837746 0.305265
Si Si3 0.494709 0.171745 0.602409
Si Si4 0.895397 0.832832 0.261967
Si Si5 0.822938 0.337652 0.796697
Si Si6 0.965038 0.338031 0.626162
Si Si7 0.824017 0.162376 0.525195
Si Si8 0.712051 0.831736 0.357650
O O1 0.124664 0.748196 0.124363
O O2 0.939218 0.785152 0.165460
O O3 0.049000 0.000000 0.103752
O O4 0.000000 0.781259 0.000000
O O5 0.417706 0.769070 0.339292
O O6 0.277475 0.739992 0.225037
O O7 0.242951 0.840391 0.387025
O O8 0.333505 0.000000 0.268092
O O9 0.500000 0.229848 0.500000
O O10 0.395516 0.230612 0.649743
O O11 0.502904 0.000000 0.601000
O O12 0.780332 0.801598 0.269119
O O13 0.941897 0.749902 0.344886
O O14 0.916985 0.000000 0.278157
O O15 0.801367 0.500000 0.829557
O O16 0.890262 0.337225 0.709001
O O17 0.994803 0.500000 0.599873
O O18 0.916608 0.262948 0.540597
O O19 0.764265 0.231409 0.444619
O O20 0.859060 0.000000 0.502163
O O21 0.698865 0.000000 0.375377
#
# Coordination Sequence:
#
# PCOD8068013 Si02
#       8
#     4   4   4   4   4   4   4   4
#     4   9  17  30  48  68  88 109 135 169 211 260
#     4   9  15  24  42  63  85 113 144 178 210 241
#     4   9  14  23  40  64  87 109 144 186 217 241
#     4   9  17  29  43  60  83 109 136 169 209 252
#     4   9  17  28  43  64  89 113 139 173 211 252
#     4   9  17  28  40  55  80 113 145 174 204 241
#     4   9  15  24  39  58  79 108 144 176 204 237
#     4   9  16  25  39  60  84 109 141 178 211 244
#
# _framework density 16.59179
#
# number of rings (size 3 to 8) (size 9 to 14) (size 15 to 20)
#    0.000    3.000    1.250    0.750    0.000    3.750 
#    0.000    3.125    0.000    1.875    0.000    0.875 
#    0.000    7.000    0.000    0.000    0.000    0.000 
#
# Total GULP energy -396601.267823 kJ/mol
# GULP energy per Si atom -12393.789619 kJ/mol
# Density = 1.655403 g / cm^3
# Si number density = 16.591790 Si / 1000 Ang^3
#
#
#
# Elastic Constant Matrix: (Units=GPa)
#
#
# Indices 1 2 3 4 5 6 
#
# 1 125.8622 37.3793 43.5526 0.0000 17.5309 0.0000
# 2 37.3793 55.9970 22.0688 0.0000 12.7964 0.0000
# 3 43.5526 22.0688 70.6340 0.0000 18.9963 0.0000
# 4 0.0000 0.0000 0.0000 7.9702 0.0000 -0.7200
# 5 17.5309 12.7964 18.9963 0.0000 22.7347 0.0000
# 6 0.0000 0.0000 0.0000 -0.7200 0.0000 5.9540
#
#
#
# Elastic Compliance Matrix: (Units=1/GPa)
#
#
# Indices 1 2 3 4 5 6 
#
# 1 0.011478 -0.005317 -0.004954 0.000000 -0.001719 0.000000
# 2 -0.005317 0.024000 -0.002180 0.000000 -0.007588 0.000000
# 3 -0.004954 -0.002180 0.021329 0.000000 -0.012775 0.000000
# 4 0.000000 0.000000 0.000000 0.126853 0.000000 0.015339
# 5 -0.001719 -0.007588 -0.012775 0.000000 0.060256 0.000000
# 6 0.000000 0.000000 0.000000 0.015339 0.000000 0.169810
#
#
# Mechanical properties :
#
#
# Convention : Reuss Voigt Hill
#
# Bulk Modulus (GPa) = 31.34183 50.94385 41.14284
# Shear Modulus (GPa) = 11.12938 17.29794 14.21366
#
# Velocity S-wave (km/s) = 2.59275 3.23237 2.93006
# Velocity P-wave (km/s) = 5.28148 6.68595 6.02478
#
# Compressibility (1/GPa) = 0.03190624
#
# Stress axis : x y z
#
# Youngs Moduli (GPa) = 87.12533 41.66667 46.88546
#
# Poissons Ratio (x) = 0.22152 0.23226
# Poissons Ratio (y) = 0.46321 0.10220
# Poissons Ratio (z) = 0.43159 0.09082
#
# Static dielectric constant tensor:
#      x y z
#    x 3.318790 0.000000 0.087250 
#    y 0.000000 3.016590 0.000000 
#    z 0.087250 0.000000 2.874510 
# 
# 
# High freq. dielectric constant tensor:
#      x y z
#    x 1.636910 0.000000 0.007780 
#    y 0.000000 1.611900 0.000000 
#    z 0.007780 0.000000 1.601610 
# 
# From -- ./inp_files/66056.got.cif
#   From: 2010.06.25/outbox.cif.g09.slc.cpg/sg10_34_cif.got.tgz:66056.got - 2010.06.27 22:07:45.
