data_PCOD8068982
_publ_section_title
;
Structure prediction by ZEFSAII (Michael W. Deem and Ramdas Pophale) SiO2 
 PCOD8068982
Probable space group: P 21/M
;
_chemical_formula_sum "Si O2"
_cell_formula_units_Z 28
_cell_length_a 13.713152
_cell_length_b 8.631773
_cell_length_c 14.575085
_cell_angle_alpha 90.000000
_cell_angle_beta 102.355260
_cell_angle_gamma 90.000000
_cell_volume 1685.278499
_symmetry_space_group_name_H-M "P 21/M"
_symmetry_group_IT_number 11
_symmetry_cell_setting 'monoclinic'
loop_
_space_group_symop_operation_xyz
x,y,z
-x,1/2+y,-z
-x,-y,-z
x,1/2-y,z
loop_
_atom_site_type_symbol
_atom_site_label
_atom_site_fract_x
_atom_site_fract_y
_atom_site_fract_z
Si Si1 0.421312 0.431825 0.603508
Si Si2 0.109949 0.435032 0.027892
Si Si3 0.367701 0.066759 0.396569
Si Si4 0.425507 0.074484 0.104733
Si Si5 0.248747 0.076557 0.210485
Si Si6 0.274566 0.931795 0.937028
Si Si7 0.371248 0.069336 0.793320
O O1 0.443197 0.250000 0.604674
O O2 0.527130 0.514898 0.623160
O O3 0.356362 0.483531 0.500925
O O4 0.362069 0.477472 0.683893
O O5 0.110493 0.250000 0.028054
O O6 0.161393 0.503302 0.132058
O O7 0.172821 0.491791 0.953168
O O8 0.000000 0.500000 0.000000
O O9 0.363943 0.250000 0.384992
O O10 0.276819 0.997285 0.314798
O O11 0.459939 0.250000 0.088755
O O12 0.350416 0.074516 0.174010
O O13 0.518837 0.969428 0.148708
O O14 0.372203 0.001791 0.005449
O O15 0.211537 0.250000 0.221326
O O16 0.268157 0.750000 0.951747
O O17 0.287239 0.973229 0.831929
O O18 0.350745 0.250000 0.803417
#
# Coordination Sequence:
#
# PCOD8068982 Si02
#       7
#     4   4   4   4   4   4   4
#     4   9  18  27  41  65  94 126 162 199 231 265
#     4  10  20  36  54  75  97 120 150 191 238 287
#     4   9  15  28  45  64  91 126 162 195 231 272
#     4  10  18  30  45  65  92 127 162 196 231 276
#     4   8  15  27  47  69  92 122 156 189 228 278
#     4  11  22  34  48  67  90 123 159 196 236 282
#     4  11  20  30  42  64  96 130 162 196 232 276
#
# _framework density 16.614464999999999
#
# number of rings (size 3 to 8) (size 9 to 14) (size 15 to 20)
#    0.000    2.286    1.429    3.857    0.000    0.571 
#    0.000    0.714    0.000    0.000    0.000    1.000 
#    0.000    0.000    0.000    0.000    0.000    0.000 
#
# Total GULP energy -346972.249939 kJ/mol
# GULP energy per Si atom -12391.866069 kJ/mol
# Density = 1.657665 g / cm^3
# Si number density = 16.614465 Si / 1000 Ang^3
#
#
#
# Elastic Constant Matrix: (Units=GPa)
#
#
# Indices 1 2 3 4 5 6 
#
# 1 75.7899 15.1128 60.7122 0.0000 8.7356 0.0000
# 2 15.1128 49.0130 28.6302 0.0000 -1.9220 0.0000
# 3 60.7122 28.6302 139.0497 0.0000 0.6212 0.0000
# 4 0.0000 0.0000 0.0000 17.5471 0.0000 -1.8449
# 5 8.7356 -1.9220 0.6212 0.0000 15.5266 0.0000
# 6 0.0000 0.0000 0.0000 -1.8449 0.0000 23.1130
#
#
#
# Elastic Compliance Matrix: (Units=1/GPa)
#
#
# Indices 1 2 3 4 5 6 
#
# 1 0.022552 -0.001963 -0.009386 0.000000 -0.012556 0.000000
# 2 -0.001963 0.023510 -0.004002 0.000000 0.004175 0.000000
# 3 -0.009386 -0.004002 0.012095 0.000000 0.004302 0.000000
# 4 0.000000 0.000000 0.000000 0.057472 0.000000 0.004588
# 5 -0.012556 0.004175 0.004302 0.000000 0.071814 0.000000
# 6 0.000000 0.000000 0.000000 0.004588 0.000000 0.043632
#
#
# Mechanical properties :
#
#
# Convention : Reuss Voigt Hill
#
# Bulk Modulus (GPa) = 36.42581 52.52923 44.47752
# Shear Modulus (GPa) = 18.45503 21.86384 20.15943
#
# Velocity S-wave (km/s) = 3.33645 3.63154 3.48712
# Velocity P-wave (km/s) = 6.06748 7.01921 6.56063
#
# Compressibility (1/GPa) = 0.02745306
#
# Stress axis : x y z
#
# Youngs Moduli (GPa) = 44.34170 42.53593 82.68009
#
# Poissons Ratio (x) = 0.08351 0.77607
# Poissons Ratio (y) = 0.08705 0.33089
# Poissons Ratio (z) = 0.41621 0.17023
#
# Static dielectric constant tensor:
#      x y z
#    x 2.750560 0.000000 -0.113060 
#    y 0.000000 3.095770 0.000000 
#    z -0.113060 0.000000 3.506060 
# 
# 
# High freq. dielectric constant tensor:
#      x y z
#    x 1.591530 0.000000 -0.005070 
#    y 0.000000 1.636100 0.000000 
#    z -0.005070 0.000000 1.651440 
# 
# From -- ./inp_files/51016.got.cif
#   From: 2010.06.25/outbox.cif.g09.slc.cpg/sg11_26_cif.got.tgz:51016.got - 2010.06.27 23:14:04.
