data_PCOD8068167
_publ_section_title
;
Structure prediction by ZEFSAII (Michael W. Deem and Ramdas Pophale) SiO2 
 PCOD8068167
Probable space group: P 21/M
;
_chemical_formula_sum "Si O2"
_cell_formula_units_Z 24
_cell_length_a 10.673059
_cell_length_b 18.718428
_cell_length_c 10.186637
_cell_angle_alpha 90.000000
_cell_angle_beta 138.738388
_cell_angle_gamma 90.000000
_cell_volume 1342.155119
_symmetry_space_group_name_H-M "P 21/M"
_symmetry_group_IT_number 11
_symmetry_cell_setting 'monoclinic'
loop_
_space_group_symop_operation_xyz
x,y,z
-x,1/2+y,-z
-x,-y,-z
x,1/2-y,z
loop_
_atom_site_type_symbol
_atom_site_label
_atom_site_fract_x
_atom_site_fract_y
_atom_site_fract_z
Si Si1 0.984987 0.480065 0.783435
Si Si2 0.435198 0.963576 0.583649
Si Si3 0.418694 0.170197 0.421239
Si Si4 0.016550 0.382637 0.038829
Si Si5 0.630581 0.473226 0.986474
Si Si6 0.368985 0.668828 0.154436
O O1 0.783548 0.477226 0.549363
O O2 0.975922 0.544353 0.877125
O O3 0.017566 0.404964 0.885704
O O4 0.155904 0.497818 0.816398
O O5 0.467479 0.879310 0.590708
O O6 0.500000 0.000000 0.500000
O O7 0.571799 0.991660 0.803430
O O8 0.489515 0.250000 0.448570
O O9 0.194528 0.165460 0.219171
O O10 0.463717 0.150739 0.609349
O O11 0.828760 0.338026 0.923495
O O12 0.620330 0.386953 0.959435
O O13 0.500000 0.500000 0.000000
O O14 0.389095 0.750000 0.115754
#
# Coordination Sequence:
#
# PCOD8068167 Si02
#       6
#     4   4   4   4   4   4
#     4  10  18  30  56  79 107 142 186 228 273 323
#     4  12  18  36  58  80 110 141 182 237 280 325
#     4  11  20  30  52  85 112 138 173 225 289 335
#     4  10  16  30  52  84 107 136 175 228 287 327
#     4  11  23  37  56  81 111 155 198 224 272 333
#     4  10  20  34  54  82 112 140 182 236 284 331
#
# _framework density 17.881689000000001
#
# number of rings (size 3 to 8) (size 9 to 14) (size 15 to 20)
#    0.000    1.333    6.667    1.500    0.000    0.667 
#    0.000    0.833    0.000    0.000    0.000    0.000 
#    0.000    0.000    0.000    0.000    0.000    0.000 
#
# Total GULP energy -297515.480171 kJ/mol
# GULP energy per Si atom -12396.478340 kJ/mol
# Density = 1.784099 g / cm^3
# Si number density = 17.881689 Si / 1000 Ang^3
#
#
#
# Elastic Constant Matrix: (Units=GPa)
#
#
# Indices 1 2 3 4 5 6 
#
# 1 71.6116 42.8631 16.3577 0.0000 8.2548 0.0000
# 2 42.8631 97.0442 18.8682 0.0000 0.5636 0.0000
# 3 16.3577 18.8682 60.6163 0.0000 23.1640 0.0000
# 4 0.0000 0.0000 0.0000 24.6167 0.0000 2.0511
# 5 8.2548 0.5636 23.1640 0.0000 29.1584 0.0000
# 6 0.0000 0.0000 0.0000 2.0511 0.0000 11.6607
#
#
#
# Elastic Compliance Matrix: (Units=1/GPa)
#
#
# Indices 1 2 3 4 5 6 
#
# 1 0.019838 -0.008566 -0.000868 0.000000 -0.004761 0.000000
# 2 -0.008566 0.014935 -0.004529 0.000000 0.005734 0.000000
# 3 -0.000868 -0.004529 0.025866 0.000000 -0.020215 0.000000
# 4 0.000000 0.000000 0.000000 0.041227 0.000000 -0.007252
# 5 -0.004761 0.005734 -0.020215 0.000000 0.051592 0.000000
# 6 0.000000 0.000000 0.000000 -0.007252 0.000000 0.087034
#
#
# Mechanical properties :
#
#
# Convention : Reuss Voigt Hill
#
# Bulk Modulus (GPa) = 30.56650 42.82778 36.69714
# Shear Modulus (GPa) = 17.90044 23.16601 20.53323
#
# Velocity S-wave (km/s) = 3.16737 3.60323 3.39231
# Velocity P-wave (km/s) = 5.52333 6.42757 5.99253
#
# Compressibility (1/GPa) = 0.03271555
#
# Stress axis : x y z
#
# Youngs Moduli (GPa) = 50.40708 66.95556 38.66057
#
# Poissons Ratio (x) = 0.57355 0.03354
# Poissons Ratio (y) = 0.43179 0.17508
# Poissons Ratio (z) = 0.04373 0.30321
#
# Static dielectric constant tensor:
#      x y z
#    x 6.656080 0.000000 -3.996900 
#    y 0.000000 1.649760 0.000000 
#    z -3.996900 0.000000 9.469930 
# 
# 
# High freq. dielectric constant tensor:
#      x y z
#    x 1.651040 0.000000 0.037960 
#    y 0.000000 1.696310 0.000000 
#    z 0.037960 0.000000 1.693360 
# 
# From -- ./inp_files/14394.got.cif
#   From: 2010.06.25/outbox.cif.g09.slc.cpg/sg11_8_cif.got.tgz:14394.got - 2010.06.27 23:14:04.
