data_PCOD8068527
_publ_section_title
;
Structure prediction by ZEFSAII (Michael W. Deem and Ramdas Pophale) SiO2 
 PCOD8068527
Probable space group: P 21/M
;
_chemical_formula_sum "Si O2"
_cell_formula_units_Z 32
_cell_length_a 19.851506
_cell_length_b 8.697624
_cell_length_c 29.320269
_cell_angle_alpha 90.000000
_cell_angle_beta 23.521555
_cell_angle_gamma 90.000000
_cell_volume 2020.399653
_symmetry_space_group_name_H-M "P 21/M"
_symmetry_group_IT_number 11
_symmetry_cell_setting 'monoclinic'
loop_
_space_group_symop_operation_xyz
x,y,z
-x,1/2+y,-z
-x,-y,-z
x,1/2-y,z
loop_
_atom_site_type_symbol
_atom_site_label
_atom_site_fract_x
_atom_site_fract_y
_atom_site_fract_z
Si Si1 0.917326 0.430908 0.253794
Si Si2 0.695949 0.928059 0.470206
Si Si3 0.072974 0.072541 0.595224
Si Si4 0.404554 0.568941 0.157366
Si Si5 0.060146 0.571609 0.416156
Si Si6 0.609064 0.071174 0.393084
Si Si7 0.262181 0.569696 0.061498
Si Si8 0.251080 0.070892 0.166660
O O1 0.957000 0.250000 0.230221
O O2 0.816558 0.473196 0.362490
O O3 0.804262 0.481173 0.279111
O O4 0.092203 0.522001 0.140697
O O5 0.725098 0.750000 0.438831
O O6 0.746602 0.955475 0.491877
O O7 0.494481 0.970162 0.589305
O O8 0.013079 0.250000 0.638179
O O9 0.076384 0.033062 0.539141
O O10 0.942916 0.962655 0.701421
O O11 0.430485 0.750000 0.146054
O O12 0.244842 0.510211 0.286390
O O13 0.372311 0.526393 0.124495
O O14 0.573017 0.480752 0.070229
O O15 0.072838 0.750000 0.417124
O O16 0.000000 0.500000 0.500000
O O17 0.610596 0.250000 0.400777
O O18 0.500000 0.000000 0.500000
O O19 0.260100 0.750000 0.071944
O O20 0.281085 0.477324 0.096454
O O21 0.290865 0.250000 0.148238
#
# Coordination Sequence:
#
# PCOD8068527 Si02
#       8
#     4   4   4   4   4   4   4   4
#     4  10  18  27  39  59  87 118 153 186 218 253
#     4   9  15  26  43  60  84 117 151 185 220 256
#     4   9  17  29  45  66  90 117 150 184 219 258
#     4  10  21  36  49  64  85 111 145 182 221 260
#     4   9  19  34  51  68  88 113 140 177 221 266
#     4   8  15  25  38  57  81 113 150 185 217 253
#     4  12  22  31  43  61  87 119 153 184 216 257
#     4  11  20  30  44  63  88 117 148 182 219 256
#
# _framework density 15.83845
#
# number of rings (size 3 to 8) (size 9 to 14) (size 15 to 20)
#    0.000    2.250    1.250    4.125    0.000    3.000 
#    0.000    0.000    0.000    0.000    0.000    0.000 
#    0.000    1.000    0.000    2.000    0.000    2.625 
#
# Total GULP energy -396418.514814 kJ/mol
# GULP energy per Si atom -12388.078588 kJ/mol
# Density = 1.580240 g / cm^3
# Si number density = 15.838450 Si / 1000 Ang^3
#
#
#
# Elastic Constant Matrix: (Units=GPa)
#
#
# Indices 1 2 3 4 5 6 
#
# 1 107.3542 21.1040 62.2827 0.0000 -24.8871 0.0000
# 2 21.1040 43.3455 20.9477 0.0000 -3.7896 0.0000
# 3 62.2827 20.9477 72.9575 0.0000 -20.3462 0.0000
# 4 0.0000 0.0000 0.0000 21.8221 0.0000 -1.8053
# 5 -24.8871 -3.7896 -20.3462 0.0000 27.5181 0.0000
# 6 0.0000 0.0000 0.0000 -1.8053 0.0000 18.8928
#
#
#
# Elastic Compliance Matrix: (Units=1/GPa)
#
#
# Indices 1 2 3 4 5 6 
#
# 1 0.019538 -0.002066 -0.014157 0.000000 0.006918 0.000000
# 2 -0.002066 0.027145 -0.006939 0.000000 -0.003261 0.000000
# 3 -0.014157 -0.006939 0.030168 0.000000 0.008546 0.000000
# 4 0.000000 0.000000 0.000000 0.046190 0.000000 0.004414
# 5 0.006918 -0.003261 0.008546 0.000000 0.048467 0.000000
# 6 0.000000 0.000000 0.000000 0.004414 0.000000 0.053352
#
#
# Mechanical properties :
#
#
# Convention : Reuss Voigt Hill
#
# Bulk Modulus (GPa) = 32.75893 48.03621 40.39757
# Shear Modulus (GPa) = 17.77081 21.60146 19.68613
#
# Velocity S-wave (km/s) = 3.35327 3.69706 3.52935
# Velocity P-wave (km/s) = 5.97667 6.97273 6.49383
#
# Compressibility (1/GPa) = 0.03052603
#
# Stress axis : x y z
#
# Youngs Moduli (GPa) = 51.18174 36.83920 33.14775
#
# Poissons Ratio (x) = 0.07612 0.46927
# Poissons Ratio (y) = 0.10576 0.23003
# Poissons Ratio (z) = 0.72457 0.25564
#
# Static dielectric constant tensor:
#      x y z
#    x 3.377690 0.000000 -0.463240 
#    y 0.000000 3.074080 0.000000 
#    z -0.463240 0.000000 3.129720 
# 
# 
# High freq. dielectric constant tensor:
#      x y z
#    x 1.593830 0.000000 -0.043490 
#    y 0.000000 1.616080 0.000000 
#    z -0.043490 0.000000 1.570390 
# 
# From -- ./inp_files/43794.got.cif
#   From: 2010.06.25/outbox.cif.g09.slc.cpg/sg11_22_cif.got.tgz:43794.got - 2010.06.27 23:14:04.
