data_PCOD8068717
_publ_section_title
;
Structure prediction by ZEFSAII (Michael W. Deem and Ramdas Pophale) SiO2 
 PCOD8068717
Probable space group: P 21/M
;
_chemical_formula_sum "Si O2"
_cell_formula_units_Z 32
_cell_length_a 17.745949
_cell_length_b 8.805375
_cell_length_c 23.835181
_cell_angle_alpha 90.000000
_cell_angle_beta 149.619502
_cell_angle_gamma 90.000000
_cell_volume 1883.618638
_symmetry_space_group_name_H-M "P 21/M"
_symmetry_group_IT_number 11
_symmetry_cell_setting 'monoclinic'
loop_
_space_group_symop_operation_xyz
x,y,z
-x,1/2+y,-z
-x,-y,-z
x,1/2-y,z
loop_
_atom_site_type_symbol
_atom_site_label
_atom_site_fract_x
_atom_site_fract_y
_atom_site_fract_z
Si Si1 0.761336 0.073114 0.582371
Si Si2 0.053828 0.927595 0.976902
Si Si3 0.327339 0.926971 0.663350
Si Si4 0.359985 0.072936 0.181158
Si Si5 0.547857 0.074888 0.645159
Si Si6 0.898576 0.571379 0.568001
Si Si7 0.110451 0.925484 0.613461
Si Si8 0.827554 0.423094 0.750991
O O1 0.722893 0.250000 0.550666
O O2 0.829559 0.037230 0.686763
O O3 0.612985 0.976713 0.478463
O O4 0.884948 0.022026 0.616661
O O5 0.058189 0.750000 0.989182
O O6 0.943276 0.966793 0.855513
O O7 0.218135 0.984366 0.066174
O O8 0.000000 0.000000 0.000000
O O9 0.299969 0.750000 0.630673
O O10 0.501189 0.967289 0.770154
O O11 0.276594 0.961212 0.695977
O O12 0.235872 0.027307 0.560263
O O13 0.322906 0.250000 0.157029
O O14 0.396134 0.025552 0.267530
O O15 0.541077 0.250000 0.659709
O O16 0.661001 0.050154 0.666584
O O17 0.888007 0.750000 0.574134
O O18 0.060733 0.524568 0.644543
O O19 0.076033 0.750000 0.588051
O O20 0.000000 0.000000 0.500000
O O21 0.877604 0.250000 0.794172
#
# Coordination Sequence:
#
# PCOD8068717 Si02
#       8
#     4   4   4   4   4   4   4   4
#     4  11  22  35  51  73 104 138 172 208 251 305
#     4  12  24  38  57  76  99 131 170 215 259 302
#     4   9  17  30  48  70 100 134 168 203 246 302
#     4  11  21  33  53  78 104 136 170 207 254 303
#     4  11  21  34  53  75 102 134 171 212 253 299
#     4  10  18  28  46  71 102 135 167 205 247 295
#     4   8  15  27  43  67  97 131 166 200 242 294
#     4  10  23  40  55  72  97 133 175 216 255 301
#
# _framework density 16.988576999999999
#
# number of rings (size 3 to 8) (size 9 to 14) (size 15 to 20)
#    0.000    1.750    2.500    3.000    0.000    2.500 
#    0.000    0.000    0.000    0.000    0.000    0.875 
#    0.000    0.000    0.000    0.000    0.000    0.000 
#
# Total GULP energy -396651.992954 kJ/mol
# GULP energy per Si atom -12395.374780 kJ/mol
# Density = 1.694991 g / cm^3
# Si number density = 16.988577 Si / 1000 Ang^3
#
#
#
# Elastic Constant Matrix: (Units=GPa)
#
#
# Indices 1 2 3 4 5 6 
#
# 1 148.4235 42.0493 48.9069 0.0000 11.5412 0.0000
# 2 42.0493 70.0261 31.5670 0.0000 4.3870 0.0000
# 3 48.9069 31.5670 62.1792 0.0000 0.9340 0.0000
# 4 0.0000 0.0000 0.0000 23.4495 0.0000 -0.5389
# 5 11.5412 4.3870 0.9340 0.0000 19.5171 0.0000
# 6 0.0000 0.0000 0.0000 -0.5389 0.0000 23.3111
#
#
#
# Elastic Compliance Matrix: (Units=1/GPa)
#
#
# Indices 1 2 3 4 5 6 
#
# 1 0.010029 -0.002837 -0.006373 0.000000 -0.004988 0.000000
# 2 -0.002837 0.019594 -0.007681 0.000000 -0.002359 0.000000
# 3 -0.006373 -0.007681 0.024930 0.000000 0.004302 0.000000
# 4 0.000000 0.000000 0.000000 0.042667 0.000000 0.000986
# 5 -0.004988 -0.002359 0.004302 0.000000 0.054511 0.000000
# 6 0.000000 0.000000 0.000000 0.000986 0.000000 0.042921
#
#
# Mechanical properties :
#
#
# Convention : Reuss Voigt Hill
#
# Bulk Modulus (GPa) = 48.14251 58.40836 53.27543
# Shear Modulus (GPa) = 21.24423 23.79591 22.52007
#
# Velocity S-wave (km/s) = 3.54008 3.74665 3.64483
# Velocity P-wave (km/s) = 6.71634 7.29192 7.01004
#
# Compressibility (1/GPa) = 0.02077166
#
# Stress axis : x y z
#
# Youngs Moduli (GPa) = 99.71041 51.03597 40.11210
#
# Poissons Ratio (x) = 0.14478 0.25564
# Poissons Ratio (y) = 0.28286 0.30809
# Poissons Ratio (z) = 0.63548 0.39200
#
# Static dielectric constant tensor:
#      x y z
#    x 3.808510 0.000000 0.289440 
#    y 0.000000 3.300680 0.000000 
#    z 0.289440 0.000000 2.985400 
# 
# 
# High freq. dielectric constant tensor:
#      x y z
#    x 1.668570 0.000000 0.017070 
#    y 0.000000 1.667860 0.000000 
#    z 0.017070 0.000000 1.611950 
# 
# From -- ./inp_files/43758.got.cif
#   From: 2010.06.25/outbox.cif.g09.slc.cpg/sg11_22_cif.got.tgz:43758.got - 2010.06.27 23:14:04.
