data_PCOD8068417
_publ_section_title
;
Structure prediction by ZEFSAII (Michael W. Deem and Ramdas Pophale) SiO2 
 PCOD8068417
Probable space group: P 21/M
;
_chemical_formula_sum "Si O2"
_cell_formula_units_Z 32
_cell_length_a 15.693646
_cell_length_b 20.871881
_cell_length_c 16.451001
_cell_angle_alpha 90.000000
_cell_angle_beta 18.150055
_cell_angle_gamma 90.000000
_cell_volume 1678.592080
_symmetry_space_group_name_H-M "P 21/M"
_symmetry_group_IT_number 11
_symmetry_cell_setting 'monoclinic'
loop_
_space_group_symop_operation_xyz
x,y,z
-x,1/2+y,-z
-x,-y,-z
x,1/2-y,z
loop_
_atom_site_type_symbol
_atom_site_label
_atom_site_fract_x
_atom_site_fract_y
_atom_site_fract_z
Si Si1 0.650565 0.982857 0.691682
Si Si2 0.478712 0.883154 0.251108
Si Si3 0.757824 0.619534 0.722063
Si Si4 0.794491 0.539434 0.294183
Si Si5 0.697503 0.543448 0.206004
Si Si6 0.071011 0.576467 0.193563
Si Si7 0.087558 0.324732 0.253606
Si Si8 0.827028 0.323247 0.775109
O O1 0.732194 0.952774 0.706690
O O2 0.899849 0.974286 0.402725
O O3 0.590500 0.058616 0.749148
O O4 0.380079 0.948239 0.902607
O O5 0.574600 0.907354 0.252592
O O6 0.217649 0.838078 0.500265
O O7 0.712384 0.838458 0.002382
O O8 0.841459 0.623227 0.740287
O O9 0.987365 0.660257 0.469281
O O10 0.474597 0.655053 0.971011
O O11 0.740398 0.574829 0.257014
O O12 0.512341 0.515133 0.589763
O O13 0.933501 0.588510 0.230885
O O14 0.007446 0.480399 0.092167
O O15 0.057498 0.644579 0.248669
O O16 0.117216 0.250000 0.254181
O O17 0.833049 0.250000 0.789415
#
# Coordination Sequence:
#
# PCOD8068417 Si02
#       8
#     4   4   4   4   4   4   4   4
#     4  10  20  34  56  85 110 139 169 220 301 323
#     4  12  22  38  59  81 114 140 183 237 276 336
#     4  10  22  38  56  78 107 138 183 238 273 327
#     4  10  17  32  53  83 115 137 172 211 269 337
#     4  10  20  31  55  84 108 142 171 218 273 325
#     4  10  17  31  52  80 116 140 167 219 265 336
#     4  12  26  40  57  76 104 153 199 231 262 313
#     4  10  19  32  54  77 105 143 180 220 269 323
#
# _framework density 19.063594999999999
#
# number of rings (size 3 to 8) (size 9 to 14) (size 15 to 20)
#    0.000    1.500    2.500    3.750    0.000    1.000 
#    0.000    0.000    0.000    1.500    0.000    0.000 
#    0.000    0.000    0.000    0.000    0.000    0.000 
#
# Total GULP energy -396680.729831 kJ/mol
# GULP energy per Si atom -12396.272807 kJ/mol
# Density = 1.902021 g / cm^3
# Si number density = 19.063595 Si / 1000 Ang^3
#
#
#
# Elastic Constant Matrix: (Units=GPa)
#
#
# Indices 1 2 3 4 5 6 
#
# 1 133.5263 21.5654 28.8864 0.0000 0.1586 0.0000
# 2 21.5654 59.2794 16.1940 0.0000 4.8257 0.0000
# 3 28.8864 16.1940 115.9455 0.0000 0.3969 0.0000
# 4 0.0000 0.0000 0.0000 21.0189 0.0000 -2.9241
# 5 0.1586 4.8257 0.3969 0.0000 18.6021 0.0000
# 6 0.0000 0.0000 0.0000 -2.9241 0.0000 21.5897
#
#
#
# Elastic Compliance Matrix: (Units=1/GPa)
#
#
# Indices 1 2 3 4 5 6 
#
# 1 0.008276 -0.002598 -0.001701 0.000000 0.000640 0.000000
# 2 -0.002598 0.018739 -0.001953 0.000000 -0.004797 0.000000
# 3 -0.001701 -0.001953 0.009320 0.000000 0.000322 0.000000
# 4 0.000000 0.000000 0.000000 0.048490 0.000000 0.006568
# 5 0.000640 -0.004797 0.000322 0.000000 0.054989 0.000000
# 6 0.000000 0.000000 0.000000 0.006568 0.000000 0.047208
#
#
# Mechanical properties :
#
#
# Convention : Reuss Voigt Hill
#
# Bulk Modulus (GPa) = 41.96499 49.11586 45.54043
# Shear Modulus (GPa) = 24.09977 28.38251 26.24114
#
# Velocity S-wave (km/s) = 3.55938 3.86273 3.71415
# Velocity P-wave (km/s) = 6.24125 6.76124 6.50644
#
# Compressibility (1/GPa) = 0.02382939
#
# Stress axis : x y z
#
# Youngs Moduli (GPa) = 120.83073 53.36575 107.29259
#
# Poissons Ratio (x) = 0.13865 0.18252
# Poissons Ratio (y) = 0.31393 0.20960
# Poissons Ratio (z) = 0.20556 0.10425
#
# Static dielectric constant tensor:
#      x y z
#    x 3.710360 0.000000 -0.072980 
#    y 0.000000 3.229350 0.000000 
#    z -0.072980 0.000000 3.846760 
# 
# 
# High freq. dielectric constant tensor:
#      x y z
#    x 1.742900 0.000000 -0.006450 
#    y 0.000000 1.696500 0.000000 
#    z -0.006450 0.000000 1.772740 
# 
# From -- ./inp_files/52663.got.cif
#   From: 2010.06.25/outbox.cif.g09.slc.cpg/sg11_27_cif.got.tgz:52663.got - 2010.06.27 23:14:04.
