data_PCOD8068455
_publ_section_title
;
Structure prediction by ZEFSAII (Michael W. Deem and Ramdas Pophale) SiO2 
 PCOD8068455
Probable space group: P 21/M
;
_chemical_formula_sum "Si O2"
_cell_formula_units_Z 32
_cell_length_a 11.736576
_cell_length_b 16.807116
_cell_length_c 15.897986
_cell_angle_alpha 90.000000
_cell_angle_beta 150.048931
_cell_angle_gamma 90.000000
_cell_volume 1565.682481
_symmetry_space_group_name_H-M "P 21/M"
_symmetry_group_IT_number 11
_symmetry_cell_setting 'monoclinic'
loop_
_space_group_symop_operation_xyz
x,y,z
-x,1/2+y,-z
-x,-y,-z
x,1/2-y,z
loop_
_atom_site_type_symbol
_atom_site_label
_atom_site_fract_x
_atom_site_fract_y
_atom_site_fract_z
Si Si1 0.040379 0.838230 0.322555
Si Si2 0.923462 0.972485 0.362607
Si Si3 0.357933 0.844455 0.371952
Si Si4 0.465677 0.162644 0.067185
Si Si5 0.160525 0.928177 0.078511
Si Si6 0.159146 0.600328 0.811557
Si Si7 0.846561 0.838897 0.745195
Si Si8 0.557229 0.005740 0.884959
O O1 0.121328 0.750000 0.402395
O O2 0.182687 0.867575 0.333346
O O3 0.066485 0.897614 0.418504
O O4 0.779234 0.837957 0.130793
O O5 0.982563 0.050708 0.346671
O O6 0.655815 0.952576 0.203838
O O7 0.000000 0.000000 0.500000
O O8 0.368790 0.750000 0.361951
O O9 0.266373 0.884443 0.227408
O O10 0.603363 0.878375 0.562099
O O11 0.509228 0.250000 0.137512
O O12 0.642687 0.151143 0.104648
O O13 0.480773 0.090318 0.144313
O O14 0.382235 0.958971 0.167967
O O15 0.987351 0.874755 0.913049
O O16 0.000000 0.000000 0.000000
O O17 0.001648 0.661316 0.761011
O O18 0.236297 0.528166 0.921923
O O19 0.790916 0.750000 0.737702
#
# Coordination Sequence:
#
# PCOD8068455 Si02
#       8
#     4   4   4   4   4   4   4   4
#     4  10  20  38  62  89 121 162 203 249 314 376
#     4  11  22  36  59  88 122 159 196 255 315 370
#     4  10  23  43  67  93 128 170 215 265 318 379
#     4  10  17  32  61  87 112 157 205 247 306 373
#     4  11  24  39  65  96 128 167 219 261 317 384
#     4  10  19  37  60  85 122 156 206 249 312 378
#     4  10  23  42  63  91 127 168 211 267 321 377
#     4  10  20  38  56  88 123 152 201 257 305 367
#
# _framework density 20.438371
#
# number of rings (size 3 to 8) (size 9 to 14) (size 15 to 20)
#    0.000    1.750    2.500    2.250    3.500    1.500 
#    0.000    4.375    0.000    3.000    0.000    0.000 
#    0.000    0.000    0.000    0.000    0.000    0.000 
#
# Total GULP energy -396445.489425 kJ/mol
# GULP energy per Si atom -12388.921545 kJ/mol
# Density = 2.039185 g / cm^3
# Si number density = 20.438371 Si / 1000 Ang^3
#
#
#
# Elastic Constant Matrix: (Units=GPa)
#
#
# Indices 1 2 3 4 5 6 
#
# 1 112.4182 62.2785 45.1582 0.0000 -17.0641 0.0000
# 2 62.2785 113.3867 43.3127 0.0000 -10.2042 0.0000
# 3 45.1582 43.3127 105.4371 0.0000 -13.4876 0.0000
# 4 0.0000 0.0000 0.0000 20.6187 0.0000 -1.9345
# 5 -17.0641 -10.2042 -13.4876 0.0000 28.9680 0.0000
# 6 0.0000 0.0000 0.0000 -1.9345 0.0000 35.6629
#
#
#
# Elastic Compliance Matrix: (Units=1/GPa)
#
#
# Indices 1 2 3 4 5 6 
#
# 1 0.014291 -0.006301 -0.002913 0.000000 0.004843 0.000000
# 2 -0.006301 0.013327 -0.002818 0.000000 -0.000329 0.000000
# 3 -0.002913 -0.002818 0.012274 0.000000 0.003006 0.000000
# 4 0.000000 0.000000 0.000000 0.048748 0.000000 0.002644
# 5 0.004843 -0.000329 0.003006 0.000000 0.038657 0.000000
# 6 0.000000 0.000000 0.000000 0.002644 0.000000 0.028184
#
#
# Mechanical properties :
#
#
# Convention : Reuss Voigt Hill
#
# Bulk Modulus (GPa) = 63.17799 70.30454 66.74127
# Shear Modulus (GPa) = 27.05311 29.08276 28.06794
#
# Velocity S-wave (km/s) = 3.64214 3.77629 3.70982
# Velocity P-wave (km/s) = 6.97606 7.31347 7.14676
#
# Compressibility (1/GPa) = 0.01582830
#
# Stress axis : x y z
#
# Youngs Moduli (GPa) = 69.97268 75.03497 81.47196
#
# Poissons Ratio (x) = 0.47280 0.23733
# Poissons Ratio (y) = 0.44090 0.22959
# Poissons Ratio (z) = 0.20383 0.21145
#
# Static dielectric constant tensor:
#      x y z
#    x 3.855600 0.000000 -0.037510 
#    y 0.000000 4.023120 0.000000 
#    z -0.037510 0.000000 3.468920 
# 
# 
# High freq. dielectric constant tensor:
#      x y z
#    x 1.808830 0.000000 0.009510 
#    y 0.000000 1.798870 0.000000 
#    z 0.009510 0.000000 1.786500 
# 
# From -- ./inp_files/50694.got.cif
#   From: 2010.06.25/outbox.cif.g09.slc.cpg/sg11_26_cif.got.tgz:50694.got - 2010.06.27 23:14:04.
