data_PCOD8068237
_publ_section_title
;
Structure prediction by ZEFSAII (Michael W. Deem and Ramdas Pophale) SiO2 
 PCOD8068237
Probable space group: P 21/M
;
_chemical_formula_sum "Si O2"
_cell_formula_units_Z 24
_cell_length_a 14.278561
_cell_length_b 8.790297
_cell_length_c 12.445592
_cell_angle_alpha 90.000000
_cell_angle_beta 69.190194
_cell_angle_gamma 90.000000
_cell_volume 1460.178469
_symmetry_space_group_name_H-M "P 21/M"
_symmetry_group_IT_number 11
_symmetry_cell_setting 'monoclinic'
loop_
_space_group_symop_operation_xyz
x,y,z
-x,1/2+y,-z
-x,-y,-z
x,1/2-y,z
loop_
_atom_site_type_symbol
_atom_site_label
_atom_site_fract_x
_atom_site_fract_y
_atom_site_fract_z
Si Si1 0.050171 0.428339 0.582250
Si Si2 0.147299 0.925976 0.926417
Si Si3 0.532716 0.069173 0.600276
Si Si4 0.341874 0.927485 0.733395
Si Si5 0.276253 0.070459 0.538118
Si Si6 0.007523 0.571270 0.165815
O O1 0.034838 0.250000 0.580664
O O2 0.167389 0.470559 0.537084
O O3 0.995685 0.495173 0.711829
O O4 0.000000 0.500000 0.500000
O O5 0.120970 0.750000 0.918823
O O6 0.266161 0.955195 0.864394
O O7 0.089127 0.017744 0.859646
O O8 0.109643 0.976420 0.061036
O O9 0.537143 0.250000 0.597002
O O10 0.500000 0.000000 0.500000
O O11 0.447123 0.011778 0.718431
O O12 0.642736 0.999869 0.579517
O O13 0.362960 0.750000 0.706071
O O14 0.289927 0.994025 0.648394
O O15 0.292921 0.250000 0.543357
O O16 0.996749 0.750000 0.180033
#
# Coordination Sequence:
#
# PCOD8068237 Si02
#       6
#     4   4   4   4   4   4
#     4  10  21  33  48  66  90 123 157 191 226 265
#     4   9  17  27  45  68  92 120 149 182 224 272
#     4  10  18  27  41  62  88 120 149 182 222 269
#     4  10  17  26  42  67  93 120 147 179 221 272
#     4  10  18  30  44  62  88 120 151 187 226 264
#     4   9  17  31  45  64  91 120 152 186 226 268
#
# _framework density 16.436346
#
# number of rings (size 3 to 8) (size 9 to 14) (size 15 to 20)
#    0.000    2.333    1.667    4.500    0.000    2.667 
#    0.000    0.000    0.000    0.000    0.000    1.167 
#    0.000    0.000    0.000    0.000    0.000    0.000 
#
# Total GULP energy -297402.701589 kJ/mol
# GULP energy per Si atom -12391.779233 kJ/mol
# Density = 1.639894 g / cm^3
# Si number density = 16.436346 Si / 1000 Ang^3
#
#
#
# Elastic Constant Matrix: (Units=GPa)
#
#
# Indices 1 2 3 4 5 6 
#
# 1 95.9834 41.3383 71.2764 0.0000 -23.3926 0.0000
# 2 41.3383 69.1792 35.2567 0.0000 -12.7904 0.0000
# 3 71.2764 35.2567 123.1489 0.0000 -21.7324 0.0000
# 4 0.0000 0.0000 0.0000 17.6313 0.0000 -2.6238
# 5 -23.3926 -12.7904 -21.7324 0.0000 31.8743 0.0000
# 6 0.0000 0.0000 0.0000 -2.6238 0.0000 25.2134
#
#
#
# Elastic Compliance Matrix: (Units=1/GPa)
#
#
# Indices 1 2 3 4 5 6 
#
# 1 0.022383 -0.007156 -0.009679 0.000000 0.006956 0.000000
# 2 -0.007156 0.019665 -0.001162 0.000000 0.001847 0.000000
# 3 -0.009679 -0.001162 0.014459 0.000000 0.002289 0.000000
# 4 0.000000 0.000000 0.000000 0.057609 0.000000 0.005995
# 5 0.006956 0.001847 0.002289 0.000000 0.038780 0.000000
# 6 0.000000 0.000000 0.000000 0.005995 0.000000 0.040285
#
#
# Mechanical properties :
#
#
# Convention : Reuss Voigt Hill
#
# Bulk Modulus (GPa) = 48.74981 64.89490 56.82235
# Shear Modulus (GPa) = 21.18522 24.30647 22.74584
#
# Velocity S-wave (km/s) = 3.59406 3.84972 3.72408
# Velocity P-wave (km/s) = 6.85180 7.70251 7.28958
#
# Compressibility (1/GPa) = 0.02051290
#
# Stress axis : x y z
#
# Youngs Moduli (GPa) = 44.67646 50.85108 69.16290
#
# Poissons Ratio (x) = 0.36391 0.66940
# Poissons Ratio (y) = 0.31972 0.08038
# Poissons Ratio (z) = 0.43240 0.05910
#
# Static dielectric constant tensor:
#      x y z
#    x 3.315230 0.000000 -0.508270 
#    y 0.000000 3.144950 0.000000 
#    z -0.508270 0.000000 3.904640 
# 
# 
# High freq. dielectric constant tensor:
#      x y z
#    x 1.608210 0.000000 -0.049190 
#    y 0.000000 1.641400 0.000000 
#    z -0.049190 0.000000 1.613610 
# 
# From -- ./inp_files/36979.got.cif
#   From: 2010.06.25/outbox.cif.g09.slc.cpg/sg11_19_cif.got.tgz:36979.got - 2010.06.27 23:14:04.
