data_PCOD8068227
_publ_section_title
;
Structure prediction by ZEFSAII (Michael W. Deem and Ramdas Pophale) SiO2 
 PCOD8068227
Probable space group: P 21/M
;
_chemical_formula_sum "Si O2"
_cell_formula_units_Z 32
_cell_length_a 23.331593
_cell_length_b 8.901041
_cell_length_c 28.010921
_cell_angle_alpha 90.000000
_cell_angle_beta 161.110767
_cell_angle_gamma 90.000000
_cell_volume 1883.252015
_symmetry_space_group_name_H-M "P 21/M"
_symmetry_group_IT_number 11
_symmetry_cell_setting 'monoclinic'
loop_
_space_group_symop_operation_xyz
x,y,z
-x,1/2+y,-z
-x,-y,-z
x,1/2-y,z
loop_
_atom_site_type_symbol
_atom_site_label
_atom_site_fract_x
_atom_site_fract_y
_atom_site_fract_z
Si Si1 0.908257 0.428071 0.472935
Si Si2 0.575008 0.075643 0.327943
Si Si3 0.496441 0.921500 0.834079
Si Si4 0.167729 0.572769 0.864390
Si Si5 0.132804 0.417118 0.305846
Si Si6 0.054560 0.428162 0.400361
Si Si7 0.428526 0.927322 0.491398
Si Si8 0.488385 0.083259 0.630833
O O1 0.933396 0.250000 0.493248
O O2 0.999031 0.496488 0.591653
O O3 0.000000 0.500000 0.500000
O O4 0.701504 0.473036 0.308930
O O5 0.614539 0.250000 0.369159
O O6 0.467857 0.054689 0.194229
O O7 0.457866 0.006140 0.278722
O O8 0.758273 0.988737 0.469563
O O9 0.525684 0.750000 0.871640
O O10 0.632518 0.018006 0.972203
O O11 0.160621 0.750000 0.862342
O O12 0.044156 0.510705 0.810517
O O13 0.094711 0.521760 0.755396
O O14 0.098661 0.250000 0.257280
O O15 0.220941 0.524570 0.334836
O O16 0.274259 0.402700 0.460827
O O17 0.064630 0.250000 0.414691
O O18 0.446091 0.750000 0.502498
O O19 0.500000 0.000000 0.500000
O O20 0.546170 0.991488 0.628570
O O21 0.575425 0.250000 0.699587
#
# Coordination Sequence:
#
# PCOD8068227 Si02
#       8
#     4   4   4   4   4   4   4   4
#     4  10  21  38  56  76  98 127 166 204 242 289
#     4  10  18  30  47  71  98 128 165 203 244 291
#     4   9  21  35  49  73 104 128 157 201 243 289
#     4  10  19  32  50  75 103 130 162 197 244 295
#     4   8  16  29  43  66  98 126 158 200 240 286
#     4  10  18  31  52  75  99 128 161 201 242 287
#     4  10  17  26  41  65  96 130 165 204 248 290
#     4   9  16  27  43  65  94 124 158 201 244 285
#
# _framework density 16.991883999999999
#
# number of rings (size 3 to 8) (size 9 to 14) (size 15 to 20)
#    0.750    1.750    1.250    3.000    0.000    4.500 
#    0.000    0.625    0.000    0.000    0.000    0.875 
#    0.000    0.000    0.000    0.000    0.000    0.000 
#
# Total GULP energy -396530.361919 kJ/mol
# GULP energy per Si atom -12391.573810 kJ/mol
# Density = 1.695321 g / cm^3
# Si number density = 16.991884 Si / 1000 Ang^3
#
#
#
# Elastic Constant Matrix: (Units=GPa)
#
#
# Indices 1 2 3 4 5 6 
#
# 1 142.5062 62.3989 40.7768 0.0000 -2.2836 0.0000
# 2 62.3989 96.8282 28.4562 0.0000 -1.6373 0.0000
# 3 40.7768 28.4562 68.6575 0.0000 -7.9364 0.0000
# 4 0.0000 0.0000 0.0000 22.9440 0.0000 -1.4083
# 5 -2.2836 -1.6373 -7.9364 0.0000 17.2109 0.0000
# 6 0.0000 0.0000 0.0000 -1.4083 0.0000 33.1284
#
#
#
# Elastic Compliance Matrix: (Units=1/GPa)
#
#
# Indices 1 2 3 4 5 6 
#
# 1 0.010661 -0.005685 -0.004093 0.000000 -0.001014 0.000000
# 2 -0.005685 0.014814 -0.002839 0.000000 -0.000654 0.000000
# 3 -0.004093 -0.002839 0.019097 0.000000 0.007993 0.000000
# 4 0.000000 0.000000 0.000000 0.043698 0.000000 0.001858
# 5 -0.001014 -0.000654 0.007993 0.000000 0.061592 0.000000
# 6 0.000000 0.000000 0.000000 0.001858 0.000000 0.030265
#
#
# Mechanical properties :
#
#
# Convention : Reuss Voigt Hill
#
# Bulk Modulus (GPa) = 51.71132 63.47285 57.59209
# Shear Modulus (GPa) = 23.60635 26.41400 25.01017
#
# Velocity S-wave (km/s) = 3.73134 3.94700 3.84068
# Velocity P-wave (km/s) = 7.00449 7.62939 7.32361
#
# Compressibility (1/GPa) = 0.01933813
#
# Stress axis : x y z
#
# Youngs Moduli (GPa) = 93.79690 67.50191 52.36512
#
# Poissons Ratio (x) = 0.38373 0.21433
# Poissons Ratio (y) = 0.53321 0.14869
# Poissons Ratio (z) = 0.38391 0.19167
#
# Static dielectric constant tensor:
#      x y z
#    x 2.962630 0.000000 -0.033850 
#    y 0.000000 3.197020 0.000000 
#    z -0.033850 0.000000 2.819500 
# 
# 
# High freq. dielectric constant tensor:
#      x y z
#    x 1.654880 0.000000 -0.007750 
#    y 0.000000 1.665050 0.000000 
#    z -0.007750 0.000000 1.607580 
# 
# From -- ./inp_files/73699.got.cif
#   From: 2010.06.25/outbox.cif.g09.slc.cpg/sg11_37_cif.got.tgz:73699.got - 2010.06.27 23:14:04.
