data_PCOD8068303
_publ_section_title
;
Structure prediction by ZEFSAII (Michael W. Deem and Ramdas Pophale) SiO2 
 PCOD8068303
Probable space group: P 21/M
;
_chemical_formula_sum "Si O2"
_cell_formula_units_Z 24
_cell_length_a 26.876401
_cell_length_b 8.717110
_cell_length_c 14.287653
_cell_angle_alpha 90.000000
_cell_angle_beta 25.155434
_cell_angle_gamma 90.000000
_cell_volume 1422.887196
_symmetry_space_group_name_H-M "P 21/M"
_symmetry_group_IT_number 11
_symmetry_cell_setting 'monoclinic'
loop_
_space_group_symop_operation_xyz
x,y,z
-x,1/2+y,-z
-x,-y,-z
x,1/2-y,z
loop_
_atom_site_type_symbol
_atom_site_label
_atom_site_fract_x
_atom_site_fract_y
_atom_site_fract_z
Si Si1 0.668384 0.929453 0.151739
Si Si2 0.256445 0.568405 0.654197
Si Si3 0.957342 0.429691 0.855395
Si Si4 0.108821 0.069752 0.760903
Si Si5 0.442319 0.429912 0.462601
Si Si6 0.916606 0.431432 0.719393
O O1 0.689719 0.750000 0.102570
O O2 0.635073 0.972416 0.314852
O O3 0.565865 0.983558 0.257064
O O4 0.784176 0.019402 0.925087
O O5 0.270603 0.750000 0.631624
O O6 0.226377 0.512655 0.599093
O O7 0.376738 0.490362 0.481995
O O8 0.153058 0.505526 0.897911
O O9 0.936341 0.250000 0.884100
O O10 0.958339 0.499014 0.749275
O O11 0.080990 0.464184 0.698160
O O12 0.117636 0.250000 0.765025
O O13 0.000000 0.000000 0.000000
O O14 0.465738 0.250000 0.415978
O O15 0.926319 0.250000 0.699616
O O16 0.000000 0.500000 0.500000
#
# Coordination Sequence:
#
# PCOD8068303 Si02
#       6
#     4   4   4   4   4   4
#     4  10  20  33  48  70  96 127 164 201 243 289
#     4  10  17  28  45  69  97 129 158 192 239 290
#     4   8  16  29  45  63  92 127 159 196 240 281
#     4   9  16  27  42  65  92 124 158 194 238 289
#     4  10  19  30  48  72  98 129 160 197 241 291
#     4  11  21  35  51  70  96 130 168 206 242 283
#
# _framework density 16.867114000000001
#
# number of rings (size 3 to 8) (size 9 to 14) (size 15 to 20)
#    0.000    2.333    1.667    3.500    0.000    1.333 
#    0.000    2.500    0.000    0.000    0.000    1.167 
#    0.000    0.000    0.000    0.000    0.000    0.000 
#
# Total GULP energy -297492.821163 kJ/mol
# GULP energy per Si atom -12395.534215 kJ/mol
# Density = 1.682872 g / cm^3
# Si number density = 16.867114 Si / 1000 Ang^3
#
#
#
# Elastic Constant Matrix: (Units=GPa)
#
#
# Indices 1 2 3 4 5 6 
#
# 1 135.9078 28.1714 39.8762 0.0000 -19.6979 0.0000
# 2 28.1714 57.8401 20.9074 0.0000 -3.2380 0.0000
# 3 39.8762 20.9074 64.4234 0.0000 -5.3452 0.0000
# 4 0.0000 0.0000 0.0000 22.1310 0.0000 -6.3624
# 5 -19.6979 -3.2380 -5.3452 0.0000 19.6716 0.0000
# 6 0.0000 0.0000 0.0000 -6.3624 0.0000 29.7148
#
#
#
# Elastic Compliance Matrix: (Units=1/GPa)
#
#
# Indices 1 2 3 4 5 6 
#
# 1 0.010703 -0.002931 -0.004936 0.000000 0.008893 0.000000
# 2 -0.002931 0.020435 -0.004892 0.000000 -0.000900 0.000000
# 3 -0.004936 -0.004892 0.020142 0.000000 -0.000274 0.000000
# 4 0.000000 0.000000 0.000000 0.048149 0.000000 0.010309
# 5 0.008893 -0.000900 -0.000274 0.000000 0.059517 0.000000
# 6 0.000000 0.000000 0.000000 0.010309 0.000000 0.035861
#
#
# Mechanical properties :
#
#
# Convention : Reuss Voigt Hill
#
# Bulk Modulus (GPa) = 38.81683 48.45347 43.63515
# Shear Modulus (GPa) = 21.84256 25.58456 23.71356
#
# Velocity S-wave (km/s) = 3.60249 3.89888 3.75361
# Velocity P-wave (km/s) = 6.35351 7.00409 6.68672
#
# Compressibility (1/GPa) = 0.02576202
#
# Stress axis : x y z
#
# Youngs Moduli (GPa) = 93.43602 48.93680 49.64704
#
# Poissons Ratio (x) = 0.14343 0.24503
# Poissons Ratio (y) = 0.27385 0.24289
# Poissons Ratio (z) = 0.46116 0.23941
#
# Static dielectric constant tensor:
#      x y z
#    x 3.724430 0.000000 -0.087060 
#    y 0.000000 3.150240 0.000000 
#    z -0.087060 0.000000 2.730830 
# 
# 
# High freq. dielectric constant tensor:
#      x y z
#    x 1.667500 0.000000 -0.022070 
#    y 0.000000 1.655340 0.000000 
#    z -0.022070 0.000000 1.586980 
# 
# From -- ./inp_files/36879.got.cif
#   From: 2010.06.25/outbox.cif.g09.slc.cpg/sg11_19_cif.got.tgz:36879.got - 2010.06.27 23:14:04.
