data_PCOD8068894
_publ_section_title
;
Structure prediction by ZEFSAII (Michael W. Deem and Ramdas Pophale) SiO2 
 PCOD8068894
Probable space group: P 21/M
;
_chemical_formula_sum "Si O2"
_cell_formula_units_Z 32
_cell_length_a 11.756661
_cell_length_b 9.568724
_cell_length_c 27.098574
_cell_angle_alpha 90.000000
_cell_angle_beta 146.996699
_cell_angle_gamma 90.000000
_cell_volume 1660.472750
_symmetry_space_group_name_H-M "P 21/M"
_symmetry_group_IT_number 11
_symmetry_cell_setting 'monoclinic'
loop_
_space_group_symop_operation_xyz
x,y,z
-x,1/2+y,-z
-x,-y,-z
x,1/2-y,z
loop_
_atom_site_type_symbol
_atom_site_label
_atom_site_fract_x
_atom_site_fract_y
_atom_site_fract_z
Si Si1 0.549881 0.597950 0.146542
Si Si2 0.027975 0.091254 0.441086
Si Si3 0.924185 0.091036 0.297518
Si Si4 0.282151 0.091736 0.227413
Si Si5 0.073571 0.586788 0.980075
Si Si6 0.677873 0.597950 0.082919
Si Si7 0.683077 0.587411 0.366985
Si Si8 0.038369 0.408560 0.231203
O O1 0.550837 0.750000 0.174016
O O2 0.708652 0.491534 0.230608
O O3 0.647935 0.620503 0.129272
O O4 0.312973 0.540434 0.056171
O O5 0.948654 0.250000 0.422407
O O6 0.241850 0.065350 0.549025
O O7 0.074205 0.069020 0.399547
O O8 0.852797 0.981526 0.393157
O O9 0.850891 0.250000 0.265914
O O10 0.055717 0.049935 0.295770
O O11 0.352526 0.250000 0.240428
O O12 0.072160 0.054102 0.120331
O O13 0.247828 0.079338 0.274549
O O14 0.461762 0.985166 0.277222
O O15 0.063297 0.750000 0.989305
O O16 0.000000 0.500000 0.000000
O O17 0.679595 0.750000 0.056896
O O18 0.890547 0.517379 0.149654
O O19 0.500000 0.500000 0.000000
O O20 0.660976 0.750000 0.345429
O O21 0.950343 0.250000 0.194570
#
# Coordination Sequence:
#
# PCOD8068894 Si02
#       8
#     4   4   4   4   4   4   4   4
#     4   9  19  34  49  71 103 136 172 216 266 310
#     4   9  19  37  58  82 112 139 173 223 275 321
#     4   9  18  33  57  83 107 138 178 221 266 319
#     4  10  21  38  57  76 109 148 179 218 271 325
#     4  10  22  37  51  71 103 142 180 219 264 314
#     4  10  18  29  48  71  98 133 175 222 266 308
#     4  10  21  36  57  83 109 142 181 222 266 319
#     4   9  18  34  54  77 104 139 179 217 266 323
#
# _framework density 19.271619999999999
#
# number of rings (size 3 to 8) (size 9 to 14) (size 15 to 20)
#    0.000    2.500    0.000    1.500    1.750    5.000 
#    0.000    1.875    0.000    0.000    0.000    0.000 
#    0.000    0.000    0.000    0.000    0.000    0.000 
#
# Total GULP energy -396467.617543 kJ/mol
# GULP energy per Si atom -12389.613048 kJ/mol
# Density = 1.922776 g / cm^3
# Si number density = 19.271620 Si / 1000 Ang^3
#
#
#
# Elastic Constant Matrix: (Units=GPa)
#
#
# Indices 1 2 3 4 5 6 
#
# 1 65.4324 22.7529 19.9650 0.0000 -7.1249 0.0000
# 2 22.7529 83.6374 19.1761 0.0000 -2.9655 0.0000
# 3 19.9650 19.1761 51.3382 0.0000 -8.7778 0.0000
# 4 0.0000 0.0000 0.0000 28.2084 0.0000 0.5964
# 5 -7.1249 -2.9655 -8.7778 0.0000 28.2911 0.0000
# 6 0.0000 0.0000 0.0000 0.5964 0.0000 23.4066
#
#
#
# Elastic Compliance Matrix: (Units=1/GPa)
#
#
# Indices 1 2 3 4 5 6 
#
# 1 0.018492 -0.003709 -0.005360 0.000000 0.002605 0.000000
# 2 -0.003709 0.013821 -0.003835 0.000000 -0.000675 0.000000
# 3 -0.005360 -0.003835 0.023968 0.000000 0.005684 0.000000
# 4 0.000000 0.000000 0.000000 0.035470 0.000000 -0.000904
# 5 0.002605 -0.000675 0.005684 0.000000 0.037696 0.000000
# 6 0.000000 0.000000 0.000000 -0.000904 0.000000 0.042746
#
#
# Mechanical properties :
#
#
# Convention : Reuss Voigt Hill
#
# Bulk Modulus (GPa) = 32.81865 36.02176 34.42020
# Shear Modulus (GPa) = 24.02007 25.21548 24.61778
#
# Velocity S-wave (km/s) = 3.53426 3.62114 3.57797
# Velocity P-wave (km/s) = 5.80699 6.01795 5.91341
#
# Compressibility (1/GPa) = 0.03047048
#
# Stress axis : x y z
#
# Youngs Moduli (GPa) = 54.07735 72.35436 41.72250
#
# Poissons Ratio (x) = 0.26838 0.22365
# Poissons Ratio (y) = 0.20058 0.16003
# Poissons Ratio (z) = 0.28988 0.27751
#
# Static dielectric constant tensor:
#      x y z
#    x 3.534160 0.000000 -0.257490 
#    y 0.000000 4.023070 0.000000 
#    z -0.257490 0.000000 3.536330 
# 
# 
# High freq. dielectric constant tensor:
#      x y z
#    x 1.741690 0.000000 -0.013520 
#    y 0.000000 1.757910 0.000000 
#    z -0.013520 0.000000 1.727290 
# 
# From -- ./inp_files/45217.got.cif
#   From: 2010.06.25/outbox.cif.g09.slc.cpg/sg11_23_cif.got.tgz:45217.got - 2010.06.27 23:14:04.
