data_PCOD8068656
_publ_section_title
;
Structure prediction by ZEFSAII (Michael W. Deem and Ramdas Pophale) SiO2 
 PCOD8068656
Probable space group: P 21/M
;
_chemical_formula_sum "Si O2"
_cell_formula_units_Z 28
_cell_length_a 13.783751
_cell_length_b 8.843776
_cell_length_c 30.409655
_cell_angle_alpha 90.000000
_cell_angle_beta 29.796598
_cell_angle_gamma 90.000000
_cell_volume 1842.066275
_symmetry_space_group_name_H-M "P 21/M"
_symmetry_group_IT_number 11
_symmetry_cell_setting 'monoclinic'
loop_
_space_group_symop_operation_xyz
x,y,z
-x,1/2+y,-z
-x,-y,-z
x,1/2-y,z
loop_
_atom_site_type_symbol
_atom_site_label
_atom_site_fract_x
_atom_site_fract_y
_atom_site_fract_z
Si Si1 0.264278 0.078602 0.710604
Si Si2 0.796228 0.575599 0.089824
Si Si3 0.729507 0.922097 0.020039
Si Si4 0.654503 0.070535 0.406524
Si Si5 0.035866 0.578131 0.240553
Si Si6 0.558156 0.927265 0.931352
Si Si7 0.813273 0.425746 0.169188
O O1 0.342443 0.250000 0.682929
O O2 0.039553 0.076741 0.780772
O O3 0.395704 0.985522 0.623555
O O4 0.279948 0.002328 0.751623
O O5 0.829925 0.750000 0.087977
O O6 0.668735 0.557609 0.095403
O O7 0.704683 0.494039 0.168694
O O8 0.000000 0.500000 0.000000
O O9 0.687251 0.750000 0.021507
O O10 0.604728 0.038042 0.040796
O O11 0.956691 0.960204 0.923527
O O12 0.649844 0.250000 0.411118
O O13 0.500000 0.000000 0.500000
O O14 0.870513 0.007591 0.334740
O O15 0.060970 0.750000 0.247583
O O16 0.237763 0.491633 0.165961
O O17 0.577143 0.750000 0.930766
O O18 0.500000 0.000000 0.000000
O O19 0.768019 0.250000 0.188976
#
# Coordination Sequence:
#
# PCOD8068656 Si02
#       7
#     4   4   4   4   4   4   4
#     4   9  18  29  44  65  89 118 149 181 223 268
#     4   9  17  29  44  60  81 111 147 189 232 272
#     4   9  19  32  44  59  84 117 155 191 228 270
#     4  10  18  31  49  69  94 121 150 185 229 277
#     4   9  19  33  47  64  88 119 154 189 225 267
#     4  12  23  32  45  63  88 122 158 195 229 268
#     4  10  18  28  44  64  87 116 150 190 232 272
#
# _framework density 15.200322999999999
#
# number of rings (size 3 to 8) (size 9 to 14) (size 15 to 20)
#    0.857    1.429    0.000    5.571    0.000    5.714 
#    0.000    0.000    0.000    0.000    0.000    0.000 
#    0.000    1.143    0.000    4.286    0.000    6.571 
#
# Total GULP energy -346978.277839 kJ/mol
# GULP energy per Si atom -12392.081351 kJ/mol
# Density = 1.516573 g / cm^3
# Si number density = 15.200323 Si / 1000 Ang^3
#
#
#
# Elastic Constant Matrix: (Units=GPa)
#
#
# Indices 1 2 3 4 5 6 
#
# 1 62.6554 40.7545 33.6249 0.0000 18.1033 0.0000
# 2 40.7545 145.7296 53.1054 0.0000 11.4611 0.0000
# 3 33.6249 53.1054 89.9108 0.0000 15.0567 0.0000
# 4 0.0000 0.0000 0.0000 26.9141 0.0000 4.5156
# 5 18.1033 11.4611 15.0567 0.0000 23.1484 0.0000
# 6 0.0000 0.0000 0.0000 4.5156 0.0000 26.2357
#
#
#
# Elastic Compliance Matrix: (Units=1/GPa)
#
#
# Indices 1 2 3 4 5 6 
#
# 1 0.025472 -0.004320 -0.004485 0.000000 -0.014864 0.000000
# 2 -0.004320 0.009501 -0.004236 0.000000 0.001429 0.000000
# 3 -0.004485 -0.004236 0.016118 0.000000 -0.004879 0.000000
# 4 0.000000 0.000000 0.000000 0.038260 0.000000 -0.006585
# 5 -0.014864 0.001429 -0.004879 0.000000 0.057290 0.000000
# 6 0.000000 0.000000 0.000000 -0.006585 0.000000 0.039249
#
#
# Mechanical properties :
#
#
# Convention : Reuss Voigt Hill
#
# Bulk Modulus (GPa) = 39.98402 61.47392 50.72897
# Shear Modulus (GPa) = 22.69526 26.64702 24.67114
#
# Velocity S-wave (km/s) = 3.86823 4.19149 4.03310
# Velocity P-wave (km/s) = 6.80535 7.99720 7.42522
#
# Compressibility (1/GPa) = 0.02500999
#
# Stress axis : x y z
#
# Youngs Moduli (GPa) = 39.25846 105.24934 62.04096
#
# Poissons Ratio (x) = 0.45468 0.27827
# Poissons Ratio (y) = 0.16960 0.26278
# Poissons Ratio (z) = 0.17609 0.44580
#
# Static dielectric constant tensor:
#      x y z
#    x 2.957690 0.000000 0.245820 
#    y 0.000000 3.380170 0.000000 
#    z 0.245820 0.000000 2.665050 
# 
# 
# High freq. dielectric constant tensor:
#      x y z
#    x 1.559110 0.000000 0.025480 
#    y 0.000000 1.604860 0.000000 
#    z 0.025480 0.000000 1.547960 
# 
# From -- ./inp_files/73264.got.cif
#   From: 2010.06.25/outbox.cif.g09.slc.cpg/sg11_37_cif.got.tgz:73264.got - 2010.06.27 23:14:04.
