data_PCOD8068462
_publ_section_title
;
Structure prediction by ZEFSAII (Michael W. Deem and Ramdas Pophale) SiO2 
 PCOD8068462
Probable space group: P 21/M
;
_chemical_formula_sum "Si O2"
_cell_formula_units_Z 32
_cell_length_a 19.733196
_cell_length_b 18.529474
_cell_length_c 11.574407
_cell_angle_alpha 90.000000
_cell_angle_beta 22.977764
_cell_angle_gamma 90.000000
_cell_volume 1652.113950
_symmetry_space_group_name_H-M "P 21/M"
_symmetry_group_IT_number 11
_symmetry_cell_setting 'monoclinic'
loop_
_space_group_symop_operation_xyz
x,y,z
-x,1/2+y,-z
-x,-y,-z
x,1/2-y,z
loop_
_atom_site_type_symbol
_atom_site_label
_atom_site_fract_x
_atom_site_fract_y
_atom_site_fract_z
Si Si1 0.193850 0.046434 0.466757
Si Si2 0.816215 0.073618 0.143132
Si Si3 0.568402 0.427882 0.339806
Si Si4 0.750193 0.329350 0.718505
Si Si5 0.766300 0.908587 0.249767
Si Si6 0.825921 0.464429 0.728251
Si Si7 0.845771 0.401118 0.353607
Si Si8 0.355497 0.332415 0.339474
O O1 0.321353 0.114838 0.284313
O O2 0.245238 0.018041 0.258913
O O3 0.223452 0.982351 0.513686
O O4 0.994985 0.072197 0.791194
O O5 0.680456 0.110901 0.265824
O O6 0.832529 0.117844 0.238027
O O7 0.750734 0.994842 0.285599
O O8 0.500000 0.500000 0.500000
O O9 0.398146 0.380920 0.569904
O O10 0.686337 0.450908 0.046377
O O11 0.826348 0.250000 0.623773
O O12 0.867420 0.387249 0.602732
O O13 0.740386 0.343676 0.595566
O O14 0.553123 0.335013 0.072039
O O15 0.763282 0.866996 0.375282
O O16 0.958396 0.892509 0.901136
O O17 0.000000 0.500000 0.500000
O O18 0.298978 0.250000 0.400278
#
# Coordination Sequence:
#
# PCOD8068462 Si02
#       8
#     4   4   4   4   4   4   4   4
#     4  10  19  34  58  86 115 144 206 243 285 348
#     4  10  17  33  56  87 121 144 182 255 293 335
#     4  10  21  32  55  90 123 146 187 246 300 342
#     4  10  24  40  58  86 121 154 196 248 299 358
#     4  10  18  34  54  85 115 151 193 243 289 349
#     4  11  21  37  63  88 113 160 200 240 298 359
#     4  10  19  34  63  81 117 154 195 245 296 340
#     4  11  21  35  55  83 118 153 196 248 299 352
#
# _framework density 19.369123999999999
#
# number of rings (size 3 to 8) (size 9 to 14) (size 15 to 20)
#    0.000    1.750    5.000    0.750    1.750    4.500 
#    0.000    0.625    0.000    2.250    0.000    0.000 
#    0.000    0.000    0.000    0.000    0.000    0.000 
#
# Total GULP energy -396427.011129 kJ/mol
# GULP energy per Si atom -12388.344098 kJ/mol
# Density = 1.932504 g / cm^3
# Si number density = 19.369124 Si / 1000 Ang^3
#
#
#
# Elastic Constant Matrix: (Units=GPa)
#
#
# Indices 1 2 3 4 5 6 
#
# 1 115.9191 37.4051 31.3815 0.0000 1.7488 0.0000
# 2 37.4051 105.1009 22.0800 0.0000 -4.7106 0.0000
# 3 31.3815 22.0800 56.9861 0.0000 7.8369 0.0000
# 4 0.0000 0.0000 0.0000 17.4307 0.0000 -1.6059
# 5 1.7488 -4.7106 7.8369 0.0000 34.6252 0.0000
# 6 0.0000 0.0000 0.0000 -1.6059 0.0000 19.1050
#
#
#
# Elastic Compliance Matrix: (Units=1/GPa)
#
#
# Indices 1 2 3 4 5 6 
#
# 1 0.010866 -0.002827 -0.004913 0.000000 0.000179 0.000000
# 2 -0.002827 0.011289 -0.003146 0.000000 0.002391 0.000000
# 3 -0.004913 -0.003146 0.022188 0.000000 -0.005202 0.000000
# 4 0.000000 0.000000 0.000000 0.057818 0.000000 0.004860
# 5 0.000179 0.002391 -0.005202 0.000000 0.030374 0.000000
# 6 0.000000 0.000000 0.000000 0.004860 0.000000 0.052751
#
#
# Mechanical properties :
#
#
# Convention : Reuss Voigt Hill
#
# Bulk Modulus (GPa) = 44.30476 51.08214 47.69345
# Shear Modulus (GPa) = 23.30106 26.70812 25.00459
#
# Velocity S-wave (km/s) = 3.47219 3.71739 3.59688
# Velocity P-wave (km/s) = 6.24487 6.69742 6.47510
#
# Compressibility (1/GPa) = 0.02257094
#
# Stress axis : x y z
#
# Youngs Moduli (GPa) = 92.02719 88.58262 45.06931
#
# Poissons Ratio (x) = 0.25044 0.22143
# Poissons Ratio (y) = 0.26017 0.14179
# Poissons Ratio (z) = 0.45214 0.27868
#
# Static dielectric constant tensor:
#      x y z
#    x 4.264930 0.000000 -0.117450 
#    y 0.000000 3.271330 0.000000 
#    z -0.117450 0.000000 3.510880 
# 
# 
# High freq. dielectric constant tensor:
#      x y z
#    x 1.751520 0.000000 0.004180 
#    y 0.000000 1.707700 0.000000 
#    z 0.004180 0.000000 1.760240 
# 
# From -- ./inp_files/43561.got.cif
#   From: 2010.06.25/outbox.cif.g09.slc.cpg/sg11_22_cif.got.tgz:43561.got - 2010.06.27 23:14:04.
