data_PCOD8068155
_publ_section_title
;
Structure prediction by ZEFSAII (Michael W. Deem and Ramdas Pophale) SiO2 
 PCOD8068155
Probable space group: P 21/M
;
_chemical_formula_sum "Si O2"
_cell_formula_units_Z 32
_cell_length_a 18.318456
_cell_length_b 22.920754
_cell_length_c 5.231564
_cell_angle_alpha 90.000000
_cell_angle_beta 64.942190
_cell_angle_gamma 90.000000
_cell_volume 1989.850361
_symmetry_space_group_name_H-M "P 21/M"
_symmetry_group_IT_number 11
_symmetry_cell_setting 'monoclinic'
loop_
_space_group_symop_operation_xyz
x,y,z
-x,1/2+y,-z
-x,-y,-z
x,1/2-y,z
loop_
_atom_site_type_symbol
_atom_site_label
_atom_site_fract_x
_atom_site_fract_y
_atom_site_fract_z
Si Si1 0.479230 0.575472 0.787396
Si Si2 0.006400 0.069838 0.482049
Si Si3 0.060275 0.554875 0.918986
Si Si4 0.776345 0.510700 0.313186
Si Si5 0.312417 0.316919 0.045907
Si Si6 0.598568 0.028827 0.596351
Si Si7 0.191778 0.417456 0.228793
Si Si8 0.584943 0.682719 0.606893
O O1 0.420556 0.561213 0.639779
O O2 0.558734 0.535165 0.659314
O O3 0.505694 0.642739 0.729147
O O4 0.432845 0.567157 0.121608
O O5 0.097403 0.091340 0.323426
O O6 0.955950 0.092762 0.312224
O O7 0.000000 0.000000 0.500000
O O8 0.963534 0.094452 0.800944
O O9 0.152719 0.536491 0.799796
O O10 0.000000 0.500000 0.000000
O O11 0.693905 0.476771 0.483570
O O12 0.792245 0.555365 0.518414
O O13 0.770612 0.542989 0.050042
O O14 0.285169 0.250000 0.085398
O O15 0.231235 0.354039 0.159197
O O16 0.361625 0.332826 0.226645
O O17 0.366026 0.332064 0.721087
O O18 0.556959 0.750000 0.653296
#
# Coordination Sequence:
#
# PCOD8068155 Si02
#       8
#     4   4   4   4   4   4   4   4
#     4  10  19  35  46  65  97 121 160 185 234 277
#     4  10  16  28  40  63  89 124 152 186 218 255
#     4  10  16  29  41  61  96 119 148 193 212 259
#     4  12  20  29  46  70  92 128 162 182 236 283
#     4  10  21  33  46  71  95 117 158 202 232 271
#     4  10  21  30  46  67  96 132 146 190 227 294
#     4  12  19  28  48  64  94 131 157 185 234 285
#     4  10  20  36  55  69  90 124 163 201 235 278
#
# _framework density 16.081610999999999
#
# number of rings (size 3 to 8) (size 9 to 14) (size 15 to 20)
#    0.000    1.500    5.000    3.750    0.000    2.000 
#    0.000    0.000    0.000    0.000    0.000    0.000 
#    0.000    6.000    0.000    0.000    0.000    0.000 
#
# Total GULP energy -396797.747611 kJ/mol
# GULP energy per Si atom -12399.929613 kJ/mol
# Density = 1.604501 g / cm^3
# Si number density = 16.081611 Si / 1000 Ang^3
#
#
#
# Elastic Constant Matrix: (Units=GPa)
#
#
# Indices 1 2 3 4 5 6 
#
# 1 84.7485 25.5383 40.1460 0.0000 -3.8578 0.0000
# 2 25.5383 51.2359 21.6511 0.0000 -6.7788 0.0000
# 3 40.1460 21.6511 109.8308 0.0000 19.8261 0.0000
# 4 0.0000 0.0000 0.0000 1991.5365 0.0000 657.2158
# 5 -3.8578 -6.7788 19.8261 0.0000 38.5458 0.0000
# 6 0.0000 0.0000 0.0000 657.2158 0.0000 241.4675
#
#
#
# Elastic Compliance Matrix: (Units=1/GPa)
#
#
# Indices 1 2 3 4 5 6 
#
# 1 0.016151 -0.005259 -0.005503 0.000000 0.003522 0.000000
# 2 -0.005259 0.024595 -0.003982 0.000000 0.005847 0.000000
# 3 -0.005503 -0.003982 0.013368 0.000000 -0.008127 0.000000
# 4 0.000000 0.000000 0.000000 0.004932 0.000000 -0.013424
# 5 0.003522 0.005847 -0.008127 0.000000 0.031504 0.000000
# 6 0.000000 0.000000 0.000000 -0.013424 0.000000 0.040678
#
#
# Mechanical properties :
#
#
# Convention : Reuss Voigt Hill
#
# Bulk Modulus (GPa) = 40.60478 46.72066 43.66272
# Shear Modulus (GPa) = 29.59889 464.87529 247.23709
#
# Velocity S-wave (km/s) = 4.29481 17.02058 12.41261
# Velocity P-wave (km/s) = 7.06384 20.38093 15.25254
#
# Compressibility (1/GPa) = 0.02462764
#
# Stress axis : x y z
#
# Youngs Moduli (GPa) = 61.91377 40.65845 74.80416
#
# Poissons Ratio (x) = 0.21384 0.41163
# Poissons Ratio (y) = 0.32562 0.29784
# Poissons Ratio (z) = 0.34070 0.16188
#
# Static dielectric constant tensor:
#      x y z
#    x 2.146270 0.000000 -1.507140 
#    y 0.000000 2.657210 0.000000 
#    z -1.507140 0.000000 0.265650 
# 
# 
# High freq. dielectric constant tensor:
#      x y z
#    x 1.621780 0.000000 0.018990 
#    y 0.000000 1.562840 0.000000 
#    z 0.018990 0.000000 1.646220 
# 
# From -- ./inp_files/8304.got.cif
#   From: 2010.06.25/outbox.cif.g09.slc.cpg/sg11_5_cif.got.tgz:8304.got - 2010.06.27 23:14:04.
