data_PCOD8068218
_publ_section_title
;
Structure prediction by ZEFSAII (Michael W. Deem and Ramdas Pophale) SiO2 
 PCOD8068218
Probable space group: P 21/M
;
_chemical_formula_sum "Si O2"
_cell_formula_units_Z 32
_cell_length_a 22.874909
_cell_length_b 9.047738
_cell_length_c 16.357121
_cell_angle_alpha 90.000000
_cell_angle_beta 142.692329
_cell_angle_gamma 90.000000
_cell_volume 2051.856027
_symmetry_space_group_name_H-M "P 21/M"
_symmetry_group_IT_number 11
_symmetry_cell_setting 'monoclinic'
loop_
_space_group_symop_operation_xyz
x,y,z
-x,1/2+y,-z
-x,-y,-z
x,1/2-y,z
loop_
_atom_site_type_symbol
_atom_site_label
_atom_site_fract_x
_atom_site_fract_y
_atom_site_fract_z
Si Si1 0.926704 0.076296 0.479033
Si Si2 0.146700 0.417160 0.183316
Si Si3 0.052479 0.916389 0.941141
Si Si4 0.384990 0.423499 0.705195
Si Si5 0.460343 0.079098 0.035018
Si Si6 0.269632 0.417847 0.741807
Si Si7 0.243287 0.576507 0.431863
Si Si8 0.952303 0.078566 0.693178
O O1 0.932172 0.250000 0.472751
O O2 0.956062 0.030336 0.603317
O O3 0.818481 0.026047 0.339035
O O4 0.000000 0.000000 0.500000
O O5 0.183966 0.250000 0.213339
O O6 0.224641 0.510527 0.321165
O O7 0.045768 0.419229 0.117620
O O8 0.133882 0.491789 0.080229
O O9 0.089986 0.750000 0.970833
O O10 0.034422 0.988154 0.832429
O O11 0.397146 0.250000 0.704790
O O12 0.491496 0.496967 0.833689
O O13 0.321303 0.460149 0.714239
O O14 0.336551 0.496328 0.572271
O O15 0.491974 0.250000 0.069890
O O16 0.343981 0.065198 0.900928
O O17 0.500000 0.000000 0.000000
O O18 0.231289 0.250000 0.694189
O O19 0.262639 0.750000 0.445864
O O20 0.153459 0.540495 0.390690
O O21 0.975325 0.250000 0.731564
#
# Coordination Sequence:
#
# PCOD8068218 Si02
#       8
#     4   4   4   4   4   4   4   4
#     4  11  22  34  47  63  82 108 142 182 224 260
#     4   9  16  25  36  54  79 106 135 168 204 243
#     4   9  16  25  39  56  74 101 135 170 205 244
#     4  10  18  27  41  62  85 111 141 173 209 251
#     4   9  17  28  42  61  82 106 136 171 209 250
#     4   9  18  31  45  60  80 106 138 176 214 254
#     4  10  17  26  40  58  82 110 142 175 207 247
#     4   9  18  30  42  57  76 104 138 174 215 254
#
# _framework density 15.595637
#
# number of rings (size 3 to 8) (size 9 to 14) (size 15 to 20)
#    0.000    2.500    1.250    3.000    0.000    7.000 
#    0.000    0.000    0.000    0.000    0.000    0.000 
#    0.000    0.000    0.000    1.125    0.000   14.750 
#
# Total GULP energy -396732.620645 kJ/mol
# GULP energy per Si atom -12397.894395 kJ/mol
# Density = 1.556014 g / cm^3
# Si number density = 15.595637 Si / 1000 Ang^3
#
#
#
# Elastic Constant Matrix: (Units=GPa)
#
#
# Indices 1 2 3 4 5 6 
#
# 1 32.8418 26.1946 31.5823 0.0000 -4.5414 0.0000
# 2 26.1946 113.3656 75.0157 0.0000 -8.2409 0.0000
# 3 31.5823 75.0157 140.8130 0.0000 -17.2196 0.0000
# 4 0.0000 0.0000 0.0000 35.9408 0.0000 -2.7948
# 5 -4.5414 -8.2409 -17.2196 0.0000 12.9457 0.0000
# 6 0.0000 0.0000 0.0000 -2.7948 0.0000 15.8365
#
#
#
# Elastic Compliance Matrix: (Units=1/GPa)
#
#
# Indices 1 2 3 4 5 6 
#
# 1 0.040810 -0.005248 -0.005990 0.000000 0.003009 0.000000
# 2 -0.005248 0.014313 -0.006639 0.000000 -0.001560 0.000000
# 3 -0.005990 -0.006639 0.013385 0.000000 0.011477 0.000000
# 4 0.000000 0.000000 0.000000 0.028211 0.000000 0.004979
# 5 0.003009 -0.001560 0.011477 0.000000 0.092574 0.000000
# 6 0.000000 0.000000 0.000000 0.004979 0.000000 0.064024
#
#
# Mechanical properties :
#
#
# Convention : Reuss Voigt Hill
#
# Bulk Modulus (GPa) = 30.52826 61.40061 45.96443
# Shear Modulus (GPa) = 16.66728 23.22644 19.94686
#
# Velocity S-wave (km/s) = 3.27267 3.86332 3.58019
# Velocity P-wave (km/s) = 5.82218 7.70430 6.82840
#
# Compressibility (1/GPa) = 0.03275654
#
# Stress axis : x y z
#
# Youngs Moduli (GPa) = 24.50351 69.86542 74.70888
#
# Poissons Ratio (x) = 0.36663 0.44748
# Poissons Ratio (y) = 0.12858 0.49599
# Poissons Ratio (z) = 0.14677 0.46383
#
# Static dielectric constant tensor:
#      x y z
#    x 2.420530 0.000000 -0.137460 
#    y 0.000000 3.159120 0.000000 
#    z -0.137460 0.000000 3.250590 
# 
# 
# High freq. dielectric constant tensor:
#      x y z
#    x 1.515020 0.000000 -0.016880 
#    y 0.000000 1.617830 0.000000 
#    z -0.016880 0.000000 1.612250 
# 
# From -- ./inp_files/51406.got.cif
#   From: 2010.06.25/outbox.cif.g09.slc.cpg/sg11_26_cif.got.tgz:51406.got - 2010.06.27 23:14:04.
