data_PCOD8068203
_publ_section_title
;
Structure prediction by ZEFSAII (Michael W. Deem and Ramdas Pophale) SiO2 
 PCOD8068203
Probable space group: P 21/M
;
_chemical_formula_sum "Si O2"
_cell_formula_units_Z 32
_cell_length_a 24.281641
_cell_length_b 9.233702
_cell_length_c 11.986897
_cell_angle_alpha 90.000000
_cell_angle_beta 49.440676
_cell_angle_gamma 90.000000
_cell_volume 2041.840066
_symmetry_space_group_name_H-M "P 21/M"
_symmetry_group_IT_number 11
_symmetry_cell_setting 'monoclinic'
loop_
_space_group_symop_operation_xyz
x,y,z
-x,1/2+y,-z
-x,-y,-z
x,1/2-y,z
loop_
_atom_site_type_symbol
_atom_site_label
_atom_site_fract_x
_atom_site_fract_y
_atom_site_fract_z
Si Si1 0.895469 0.085779 0.624944
Si Si2 0.523822 0.419552 0.579391
Si Si3 0.656080 0.588919 0.371967
Si Si4 0.625166 0.910417 0.150087
Si Si5 0.759260 0.416727 0.940437
Si Si6 0.804871 0.581948 0.097409
Si Si7 0.988572 0.918199 0.339894
Si Si8 0.967077 0.920650 0.938061
O O1 0.910117 0.250000 0.565047
O O2 0.810939 0.062020 0.765101
O O3 0.941161 0.055308 0.676707
O O4 0.917483 0.974685 0.499002
O O5 0.500000 0.500000 0.500000
O O6 0.531332 0.250000 0.544594
O O7 0.602505 0.482673 0.512102
O O8 0.460551 0.448302 0.755401
O O9 0.643530 0.750000 0.435939
O O10 0.639157 0.582708 0.263295
O O11 0.740819 0.542381 0.270783
O O12 0.641313 0.750000 0.082735
O O13 0.679771 0.019219 0.015686
O O14 0.749488 0.250000 0.984200
O O15 0.797159 0.491862 0.995063
O O16 0.797923 0.750000 0.072414
O O17 0.881260 0.547700 0.053656
O O18 0.977968 0.750000 0.323208
O O19 0.996468 0.012197 0.218977
O O20 0.983757 0.750000 0.920019
O O21 0.000000 0.000000 0.000000
#
# Coordination Sequence:
#
# PCOD8068203 Si02
#       8
#     4   4   4   4   4   4   4   4
#     4   9  18  30  44  65  90 112 139 179 219 256
#     4   9  15  22  31  46  69  99 133 167 201 238
#     4   8  14  24  36  50  69  96 132 170 204 242
#     4   8  15  24  32  47  75 106 136 166 201 247
#     4  10  17  25  40  61  83 107 139 178 211 245
#     4   9  18  30  42  57  79 107 138 173 215 258
#     4  10  19  32  48  66  86 110 143 178 217 263
#     4  11  22  35  50  65  86 114 144 181 223 264
#
# _framework density 15.672138
#
# number of rings (size 3 to 8) (size 9 to 14) (size 15 to 20)
#    0.000    2.750    1.250    3.000    0.000    7.000 
#    0.000    0.000    0.000    0.000    0.000    0.000 
#    0.000    0.000    0.000    1.125    0.000   14.375 
#
# Total GULP energy -396559.159312 kJ/mol
# GULP energy per Si atom -12392.473729 kJ/mol
# Density = 1.563647 g / cm^3
# Si number density = 15.672138 Si / 1000 Ang^3
#
#
#
# Elastic Constant Matrix: (Units=GPa)
#
#
# Indices 1 2 3 4 5 6 
#
# 1 46.3628 40.1799 48.2704 0.0000 -13.9296 0.0000
# 2 40.1799 104.7581 64.0810 0.0000 -16.4067 0.0000
# 3 48.2704 64.0810 99.4208 0.0000 -27.8434 0.0000
# 4 0.0000 0.0000 0.0000 29.5243 0.0000 -5.9205
# 5 -13.9296 -16.4067 -27.8434 0.0000 25.0861 0.0000
# 6 0.0000 0.0000 0.0000 -5.9205 0.0000 18.9428
#
#
#
# Elastic Compliance Matrix: (Units=1/GPa)
#
#
# Indices 1 2 3 4 5 6 
#
# 1 0.046279 -0.006654 -0.017706 0.000000 0.001693 0.000000
# 2 -0.006654 0.016750 -0.008027 0.000000 -0.001650 0.000000
# 3 -0.017706 -0.008027 0.028448 0.000000 0.016493 0.000000
# 4 0.000000 0.000000 0.000000 0.036135 0.000000 0.011294
# 5 0.001693 -0.001650 0.016493 0.000000 0.058030 0.000000
# 6 0.000000 0.000000 0.000000 0.011294 0.000000 0.056320
#
#
# Mechanical properties :
#
#
# Convention : Reuss Voigt Hill
#
# Bulk Modulus (GPa) = 37.45114 61.73380 49.59247
# Shear Modulus (GPa) = 15.84091 21.24467 18.54279
#
# Velocity S-wave (km/s) = 3.18271 3.68580 3.44345
# Velocity P-wave (km/s) = 6.12002 7.58879 6.89364
#
# Compressibility (1/GPa) = 0.02670146
#
# Stress axis : x y z
#
# Youngs Moduli (GPa) = 21.60795 59.70120 35.15200
#
# Poissons Ratio (x) = 0.39727 0.62241
# Poissons Ratio (y) = 0.14379 0.28218
# Poissons Ratio (z) = 0.38259 0.47925
#
# Static dielectric constant tensor:
#      x y z
#    x 2.891280 0.000000 -0.698600 
#    y 0.000000 3.178510 0.000000 
#    z -0.698600 0.000000 3.269230 
# 
# 
# High freq. dielectric constant tensor:
#      x y z
#    x 1.544050 0.000000 -0.049640 
#    y 0.000000 1.614850 0.000000 
#    z -0.049640 0.000000 1.593570 
# 
# From -- ./inp_files/43761.got.cif
#   From: 2010.06.25/outbox.cif.g09.slc.cpg/sg11_22_cif.got.tgz:43761.got - 2010.06.27 23:14:04.
