data_PCOD8068490
_publ_section_title
;
Structure prediction by ZEFSAII (Michael W. Deem and Ramdas Pophale) SiO2 
 PCOD8068490
Probable space group: P 21/M
;
_chemical_formula_sum "Si O2"
_cell_formula_units_Z 32
_cell_length_a 11.458654
_cell_length_b 17.435101
_cell_length_c 13.808007
_cell_angle_alpha 90.000000
_cell_angle_beta 32.778108
_cell_angle_gamma 90.000000
_cell_volume 1493.471350
_symmetry_space_group_name_H-M "P 21/M"
_symmetry_group_IT_number 11
_symmetry_cell_setting 'monoclinic'
loop_
_space_group_symop_operation_xyz
x,y,z
-x,1/2+y,-z
-x,-y,-z
x,1/2-y,z
loop_
_atom_site_type_symbol
_atom_site_label
_atom_site_fract_x
_atom_site_fract_y
_atom_site_fract_z
Si Si1 0.365023 0.163043 0.909863
Si Si2 0.633884 0.839053 0.457323
Si Si3 0.016650 0.084083 0.260357
Si Si4 0.194831 0.417327 0.338193
Si Si5 0.080532 0.586676 0.167338
Si Si6 0.445156 0.579859 0.765566
Si Si7 0.774800 0.406661 0.727198
Si Si8 0.530257 0.088912 0.617200
O O1 0.335527 0.250000 0.959018
O O2 0.561140 0.130018 0.834911
O O3 0.409645 0.151822 0.765934
O O4 0.136495 0.121685 0.086417
O O5 0.596503 0.750000 0.455296
O O6 0.484781 0.857934 0.654142
O O7 0.564606 0.900203 0.423510
O O8 0.887508 0.852055 0.300081
O O9 0.175845 0.105201 0.238710
O O10 0.778912 0.115570 0.444853
O O11 0.977828 0.995039 0.265183
O O12 0.410568 0.394054 0.243573
O O13 0.203168 0.509120 0.333278
O O14 0.001594 0.373064 0.530142
O O15 0.241225 0.603463 0.145470
O O16 0.203381 0.584660 0.978120
O O17 0.494077 0.495739 0.687257
#
# Coordination Sequence:
#
# PCOD8068490 Si02
#       8
#     4   4   4   4   4   4   4   4
#     4  12  25  40  63 101 142 175 215 274 340 400
#     4  12  29  47  64  95 136 175 224 285 337 382
#     4  11  22  41  70 104 133 170 224 269 327 403
#     4  10  17  37  71 101 128 167 214 269 319 394
#     4  11  23  41  75 100 128 174 221 277 326 393
#     4  12  22  43  75 102 127 173 228 272 325 401
#     4  10  18  38  65 100 134 166 211 264 331 393
#     4  12  24  46  71  95 128 179 228 276 325 394
#
# _framework density 21.426591999999999
#
# number of rings (size 3 to 8) (size 9 to 14) (size 15 to 20)
#    0.000    0.750    6.250    2.250    0.000    5.500 
#    0.000    1.875    0.000    0.000    0.000    0.000 
#    0.000    0.000    0.000    0.000    0.000    0.000 
#
# Total GULP energy -396584.592410 kJ/mol
# GULP energy per Si atom -12393.268513 kJ/mol
# Density = 2.137782 g / cm^3
# Si number density = 21.426592 Si / 1000 Ang^3
#
#
#
# Elastic Constant Matrix: (Units=GPa)
#
#
# Indices 1 2 3 4 5 6 
#
# 1 60.1477 42.8049 -262.5954 0.0000 -2.8135 0.0000
# 2 42.8049 36.8461 285.1210 0.0000 21.5936 0.0000
# 3 -262.5954 285.1210-3486.7086 0.0000 -279.9290 0.0000
# 4 0.0000 0.0000 0.0000 20.2307 0.0000 2.6656
# 5 -2.8135 21.5936 -279.9290 0.0000 -3.2170 0.0000
# 6 0.0000 0.0000 0.0000 2.6656 0.0000 14.8055
#
#
#
# Elastic Compliance Matrix: (Units=1/GPa)
#
#
# Indices 1 2 3 4 5 6 
#
# 1 0.018478 -0.006940 -0.000514 0.000000 -0.017997 0.000000
# 2 -0.006940 0.019252 0.001464 0.000000 0.007881 0.000000
# 3 -0.000514 0.001464 0.000159 0.000000 -0.003583 0.000000
# 4 0.000000 0.000000 0.000000 0.050631 0.000000 -0.009116
# 5 -0.017997 0.007881 -0.003583 0.000000 0.069534 0.000000
# 6 0.000000 0.000000 0.000000 -0.009116 0.000000 0.069184
#
#
# Mechanical properties :
#
#
# Convention : Reuss Voigt Hill
#
# Bulk Modulus (GPa) = 38.59482 -362.11709 -161.76114
# Shear Modulus (GPa) = 20.17320 -223.97252 -101.89966
#
# Velocity S-wave (km/s) = 3.07172 -10.23509 -6.90368
# Velocity P-wave (km/s) = 5.53465 17.57972 11.79861
#
# Compressibility (1/GPa) = 0.02591022
#
# Stress axis : x y z
#
# Youngs Moduli (GPa) = 54.11945 51.94142 6277.58713
#
# Poissons Ratio (x) = 0.36046 3.22801
# Poissons Ratio (y) = 0.37557 -9.19232
# Poissons Ratio (z) = 0.02783 -0.07606
#
# Static dielectric constant tensor:
#      x y z
#    x 3.882910 0.000000 0.222320 
#    y 0.000000 4.027060 0.000000 
#    z 0.222320 0.000000 3.622350 
# 
# 
# High freq. dielectric constant tensor:
#      x y z
#    x 1.842100 0.000000 0.010370 
#    y 0.000000 1.800720 0.000000 
#    z 0.010370 0.000000 1.857400 
# 
# From -- ./inp_files/50653.got.cif
#   From: 2010.06.25/outbox.cif.g09.slc.cpg/sg11_26_cif.got.tgz:50653.got - 2010.06.27 23:14:04.
