data_PCOD8068376
_publ_section_title
;
Structure prediction by ZEFSAII (Michael W. Deem and Ramdas Pophale) SiO2 
 PCOD8068376
Probable space group: P 21/M
;
_chemical_formula_sum "Si O2"
_cell_formula_units_Z 32
_cell_length_a 17.692286
_cell_length_b 8.661027
_cell_length_c 23.949913
_cell_angle_alpha 90.000000
_cell_angle_beta 149.160277
_cell_angle_gamma 90.000000
_cell_volume 1881.344364
_symmetry_space_group_name_H-M "P 21/M"
_symmetry_group_IT_number 11
_symmetry_cell_setting 'monoclinic'
loop_
_space_group_symop_operation_xyz
x,y,z
-x,1/2+y,-z
-x,-y,-z
x,1/2-y,z
loop_
_atom_site_type_symbol
_atom_site_label
_atom_site_fract_x
_atom_site_fract_y
_atom_site_fract_z
Si Si1 0.378902 0.567133 0.694683
Si Si2 0.113930 0.933084 0.116767
Si Si3 0.903074 0.068264 0.061709
Si Si4 0.188874 0.430858 0.763285
Si Si5 0.323855 0.432960 0.169845
Si Si6 0.053496 0.567119 0.475977
Si Si7 0.218457 0.068950 0.908098
Si Si8 0.550933 0.432506 0.138367
O O1 0.385713 0.750000 0.703721
O O2 0.508925 0.511390 0.735914
O O3 0.221278 0.511214 0.570769
O O4 0.402338 0.498674 0.771741
O O5 0.107535 0.750000 0.115602
O O6 0.274557 0.988951 0.197307
O O7 0.064649 0.005374 0.144882
O O8 0.000000 0.000000 0.000000
O O9 0.893997 0.250000 0.046140
O O10 0.883497 0.025826 0.113961
O O11 0.775428 0.985618 0.945210
O O12 0.207631 0.250000 0.766510
O O13 0.159365 0.471103 0.809025
O O14 0.340562 0.506929 0.840281
O O15 0.050449 0.494721 0.639730
O O16 0.310545 0.250000 0.167035
O O17 0.047231 0.750000 0.476226
O O18 0.000000 0.500000 0.500000
O O19 0.205781 0.250000 0.913670
O O20 0.386533 0.011418 0.019976
O O21 0.559397 0.250000 0.143681
#
# Coordination Sequence:
#
# PCOD8068376 Si02
#       8
#     4   4   4   4   4   4   4   4
#     4   9  17  29  48  69  92 126 159 191 235 283
#     4  10  18  29  45  68  98 129 156 188 230 280
#     4  11  20  30  46  70  96 126 159 192 231 280
#     4  10  21  33  48  69  93 122 161 205 239 275
#     4  10  17  30  48  68  96 128 159 192 232 281
#     4  10  19  33  49  68  91 121 160 199 240 280
#     4  10  20  34  47  65  95 129 160 193 238 284
#     4  10  18  31  49  66  92 128 160 191 236 288
#
# _framework density 17.009112999999999
#
# number of rings (size 3 to 8) (size 9 to 14) (size 15 to 20)
#    0.000    2.000    2.500    4.500    0.000    1.000 
#    0.000    1.250    0.000    0.000    0.000    0.875 
#    0.000    0.000    0.000    0.000    0.000    0.000 
#
# Total GULP energy -396727.466247 kJ/mol
# GULP energy per Si atom -12397.733320 kJ/mol
# Density = 1.697040 g / cm^3
# Si number density = 17.009113 Si / 1000 Ang^3
#
#
#
# Elastic Constant Matrix: (Units=GPa)
#
#
# Indices 1 2 3 4 5 6 
#
# 1 147.1707 38.2856 57.8601 0.0000 14.1226 0.0000
# 2 38.2856 56.1771 17.3562 0.0000 1.8100 0.0000
# 3 57.8601 17.3562 83.8755 0.0000 -1.9931 0.0000
# 4 0.0000 0.0000 0.0000 11.7682 0.0000 1.8871
# 5 14.1226 1.8100 -1.9931 0.0000 24.6649 0.0000
# 6 0.0000 0.0000 0.0000 1.8871 0.0000 30.9102
#
#
#
# Elastic Compliance Matrix: (Units=1/GPa)
#
#
# Indices 1 2 3 4 5 6 
#
# 1 0.011675 -0.005553 -0.007068 0.000000 -0.006849 0.000000
# 2 -0.005553 0.021730 -0.000630 0.000000 0.001534 0.000000
# 3 -0.007068 -0.000630 0.017058 0.000000 0.005471 0.000000
# 4 0.000000 0.000000 0.000000 0.085815 0.000000 -0.005239
# 5 -0.006849 0.001534 0.005471 0.000000 0.044794 0.000000
# 6 0.000000 0.000000 0.000000 -0.005239 0.000000 0.032672
#
#
# Mechanical properties :
#
#
# Convention : Reuss Voigt Hill
#
# Bulk Modulus (GPa) = 41.73004 57.13635 49.43319
# Shear Modulus (GPa) = 20.14244 25.05010 22.59627
#
# Velocity S-wave (km/s) = 3.44498 3.84180 3.64879
# Velocity P-wave (km/s) = 6.35696 7.30368 6.84671
#
# Compressibility (1/GPa) = 0.02396356
#
# Stress axis : x y z
#
# Youngs Moduli (GPa) = 85.65221 46.01897 58.62263
#
# Poissons Ratio (x) = 0.25552 0.41432
# Poissons Ratio (y) = 0.47559 0.03692
# Poissons Ratio (z) = 0.60536 0.02898
#
# Static dielectric constant tensor:
#      x y z
#    x 3.631090 0.000000 0.207950 
#    y 0.000000 3.094480 0.000000 
#    z 0.207950 0.000000 3.193620 
# 
# 
# High freq. dielectric constant tensor:
#      x y z
#    x 1.665510 0.000000 0.014130 
#    y 0.000000 1.648810 0.000000 
#    z 0.014130 0.000000 1.619150 
# 
# From -- ./inp_files/61798.got.cif
#   From: 2010.06.25/outbox.cif.g09.slc.cpg/sg11_31_cif.got.tgz:61798.got - 2010.06.27 23:14:04.
