data_PCOD8068465
_publ_section_title
;
Structure prediction by ZEFSAII (Michael W. Deem and Ramdas Pophale) SiO2 
 PCOD8068465
Probable space group: P 21/M
;
_chemical_formula_sum "Si O2"
_cell_formula_units_Z 32
_cell_length_a 12.193268
_cell_length_b 17.985391
_cell_length_c 10.067508
_cell_angle_alpha 90.000000
_cell_angle_beta 52.265092
_cell_angle_gamma 90.000000
_cell_volume 1746.049489
_symmetry_space_group_name_H-M "P 21/M"
_symmetry_group_IT_number 11
_symmetry_cell_setting 'monoclinic'
loop_
_space_group_symop_operation_xyz
x,y,z
-x,1/2+y,-z
-x,-y,-z
x,1/2-y,z
loop_
_atom_site_type_symbol
_atom_site_label
_atom_site_fract_x
_atom_site_fract_y
_atom_site_fract_z
Si Si1 0.037068 0.589653 0.215040
Si Si2 0.226699 0.390170 0.737309
Si Si3 0.475005 0.913505 0.513173
Si Si4 0.011079 0.922874 0.713386
Si Si5 0.162364 0.835331 0.371077
Si Si6 0.805125 0.437210 0.171881
Si Si7 0.239662 0.166607 0.012143
Si Si8 0.455211 0.664862 0.257026
O O1 0.004415 0.510114 0.304791
O O2 0.111198 0.643091 0.263490
O O3 0.892161 0.628515 0.280791
O O4 0.135164 0.581074 0.015365
O O5 0.377756 0.375633 0.556568
O O6 0.210268 0.474544 0.801409
O O7 0.212643 0.337231 0.874358
O O8 0.344340 0.895489 0.705622
O O9 0.431033 0.889646 0.398283
O O10 0.500000 0.000000 0.500000
O O11 0.093928 0.886950 0.531950
O O12 0.090690 0.907052 0.792516
O O13 0.857725 0.888308 0.833188
O O14 0.123085 0.750000 0.429813
O O15 0.328560 0.846784 0.249357
O O16 0.207066 0.250000 0.083777
O O17 0.400063 0.144900 0.923519
O O18 0.461170 0.750000 0.304649
#
# Coordination Sequence:
#
# PCOD8068465 Si02
#       8
#     4   4   4   4   4   4   4   4
#     4  11  21  36  55  83 117 145 177 230 287 324
#     4   9  17  32  53  82 113 137 173 229 282 316
#     4   9  17  30  57  84 108 137 183 226 270 318
#     4  11  19  37  57  83 106 145 191 227 269 331
#     4  11  24  40  55  77 113 152 187 224 275 338
#     4  10  17  33  57  83 110 139 181 229 270 322
#     4  10  18  31  56  82 105 137 183 231 272 320
#     4   9  19  36  54  77 110 146 183 223 272 328
#
# _framework density 18.327086999999999
#
# number of rings (size 3 to 8) (size 9 to 14) (size 15 to 20)
#    0.000    2.000    3.750    1.500    0.000    0.500 
#    0.000    2.500    0.000    0.000    0.000    0.000 
#    0.000    0.000    0.000    0.000    0.000    0.000 
#
# Total GULP energy -396700.567128 kJ/mol
# GULP energy per Si atom -12396.892723 kJ/mol
# Density = 1.828537 g / cm^3
# Si number density = 18.327087 Si / 1000 Ang^3
#
#
#
# Elastic Constant Matrix: (Units=GPa)
#
#
# Indices 1 2 3 4 5 6 
#
# 1 132.8554 24.1878 44.4940 0.0000 -15.5100 0.0000
# 2 24.1878 25.1990 8.7626 0.0000 -3.2200 0.0000
# 3 44.4940 8.7626 68.6392 0.0000 -13.5405 0.0000
# 4 0.0000 0.0000 0.0000 15.5201 0.0000 -2.8100
# 5 -15.5100 -3.2200 -13.5405 0.0000 33.2561 0.0000
# 6 0.0000 0.0000 0.0000 -2.8100 0.0000 24.0691
#
#
#
# Elastic Compliance Matrix: (Units=1/GPa)
#
#
# Indices 1 2 3 4 5 6 
#
# 1 0.011266 -0.008531 -0.005807 0.000000 0.002064 0.000000
# 2 -0.008531 0.048113 -0.000520 0.000000 0.000468 0.000000
# 3 -0.005807 -0.000520 0.019415 0.000000 0.005146 0.000000
# 4 0.000000 0.000000 0.000000 0.065824 0.000000 0.007685
# 5 0.002064 0.000468 0.005146 0.000000 0.033173 0.000000
# 6 0.000000 0.000000 0.000000 0.007685 0.000000 0.042444
#
#
# Mechanical properties :
#
#
# Convention : Reuss Voigt Hill
#
# Bulk Modulus (GPa) = 20.37533 42.39805 31.38669
# Shear Modulus (GPa) = 18.77519 24.51899 21.64709
#
# Velocity S-wave (km/s) = 3.20418 3.66164 3.44052
# Velocity P-wave (km/s) = 4.98304 6.40789 5.73985
#
# Compressibility (1/GPa) = 0.04907897
#
# Stress axis : x y z
#
# Youngs Moduli (GPa) = 88.76505 20.78430 51.50780
#
# Poissons Ratio (x) = 0.17731 0.29908
# Poissons Ratio (y) = 0.75723 0.02678
# Poissons Ratio (z) = 0.51542 0.01081
#
# Static dielectric constant tensor:
#      x y z
#    x 3.737820 0.000000 -0.455350 
#    y 0.000000 3.291750 0.000000 
#    z -0.455350 0.000000 3.331360 
# 
# 
# High freq. dielectric constant tensor:
#      x y z
#    x 1.715420 0.000000 -0.030400 
#    y 0.000000 1.697870 0.000000 
#    z -0.030400 0.000000 1.693930 
# 
# From -- ./inp_files/19145.got.cif
#   From: 2010.06.25/outbox.cif.g09.slc.cpg/sg11_10_cif.got.tgz:19145.got - 2010.06.27 23:14:04.
