data_PCOD8068631
_publ_section_title
;
Structure prediction by ZEFSAII (Michael W. Deem and Ramdas Pophale) SiO2 
 PCOD8068631
Probable space group: P 21/M
;
_chemical_formula_sum "Si O2"
_cell_formula_units_Z 32
_cell_length_a 23.968719
_cell_length_b 8.673414
_cell_length_c 33.944677
_cell_angle_alpha 90.000000
_cell_angle_beta 164.356610
_cell_angle_gamma 90.000000
_cell_volume 1902.854705
_symmetry_space_group_name_H-M "P 21/M"
_symmetry_group_IT_number 11
_symmetry_cell_setting 'monoclinic'
loop_
_space_group_symop_operation_xyz
x,y,z
-x,1/2+y,-z
-x,-y,-z
x,1/2-y,z
loop_
_atom_site_type_symbol
_atom_site_label
_atom_site_fract_x
_atom_site_fract_y
_atom_site_fract_z
Si Si1 0.368307 0.932719 0.945982
Si Si2 0.408771 0.568073 0.828425
Si Si3 0.281830 0.068776 0.110040
Si Si4 0.485631 0.568647 0.325592
Si Si5 0.551719 0.931621 0.227904
Si Si6 0.900148 0.428895 0.894272
Si Si7 0.938809 0.931866 0.622554
Si Si8 0.960756 0.566948 0.549311
O O1 0.385709 0.750000 0.956456
O O2 0.131179 0.990888 0.779344
O O3 0.500000 0.000000 0.000000
O O4 0.444226 0.993116 0.039276
O O5 0.422192 0.750000 0.842315
O O6 0.490502 0.516535 0.841710
O O7 0.173056 0.509396 0.673717
O O8 0.308710 0.250000 0.119904
O O9 0.408689 0.025578 0.235485
O O10 0.362897 0.972249 0.128272
O O11 0.036473 0.020330 0.948879
O O12 0.472776 0.750000 0.306130
O O13 0.346286 0.531262 0.270271
O O14 0.721978 0.519830 0.495625
O O15 0.559537 0.750000 0.226082
O O16 0.766567 0.995678 0.392256
O O17 0.935145 0.250000 0.922230
O O18 0.000000 0.500000 0.000000
O O19 0.955037 0.750000 0.629508
O O20 0.949226 0.002343 0.585551
O O21 0.950200 0.750000 0.543478
#
# Coordination Sequence:
#
# PCOD8068631 Si02
#       8
#     4   4   4   4   4   4   4   4
#     4  11  21  35  53  72  95 126 164 204 243 284
#     4  11  22  37  52  69  96 127 162 205 248 282
#     4  10  18  28  42  68 102 130 155 191 237 283
#     4   9  15  28  48  68  93 128 163 195 232 279
#     4  11  21  34  51  71  95 128 168 198 232 287
#     4   8  15  25  41  65  94 126 158 188 228 282
#     4   9  16  29  50  73  95 124 162 201 237 276
#     4   9  17  31  50  71  96 126 160 198 237 281
#
# _framework density 16.816837
#
# number of rings (size 3 to 8) (size 9 to 14) (size 15 to 20)
#    0.000    2.250    2.500    1.875    0.000    0.500 
#    0.000    4.375    0.000    0.000    0.000    0.875 
#    0.000    0.000    0.000    0.000    0.000    0.000 
#
# Total GULP energy -396524.313952 kJ/mol
# GULP energy per Si atom -12391.384811 kJ/mol
# Density = 1.677856 g / cm^3
# Si number density = 16.816837 Si / 1000 Ang^3
#
#
#
# Elastic Constant Matrix: (Units=GPa)
#
#
# Indices 1 2 3 4 5 6 
#
# 1 103.4935 16.1558 76.4829 0.0000 11.0531 0.0000
# 2 16.1558 33.4036 24.4141 0.0000 1.0066 0.0000
# 3 76.4829 24.4141 117.5159 0.0000 15.1105 0.0000
# 4 0.0000 0.0000 0.0000 17.2406 0.0000 -0.3958
# 5 11.0531 1.0066 15.1105 0.0000 34.0890 0.0000
# 6 0.0000 0.0000 0.0000 -0.3958 0.0000 24.0415
#
#
#
# Elastic Compliance Matrix: (Units=1/GPa)
#
#
# Indices 1 2 3 4 5 6 
#
# 1 0.018634 -0.000230 -0.011987 0.000000 -0.000722 0.000000
# 2 -0.000230 0.035476 -0.007525 0.000000 0.002362 0.000000
# 3 -0.011987 -0.007525 0.018394 0.000000 -0.004045 0.000000
# 4 0.000000 0.000000 0.000000 0.058025 0.000000 0.000955
# 5 -0.000722 0.002362 -0.004045 0.000000 0.031292 0.000000
# 6 0.000000 0.000000 0.000000 0.000955 0.000000 0.041610
#
#
# Mechanical properties :
#
#
# Convention : Reuss Voigt Hill
#
# Bulk Modulus (GPa) = 30.28265 54.27984 42.28124
# Shear Modulus (GPa) = 19.69113 24.23157 21.96135
#
# Velocity S-wave (km/s) = 3.42558 3.80005 3.61766
# Velocity P-wave (km/s) = 5.80453 7.18338 6.53045
#
# Compressibility (1/GPa) = 0.03302221
#
# Stress axis : x y z
#
# Youngs Moduli (GPa) = 53.66565 28.18786 54.36457
#
# Poissons Ratio (x) = 0.00647 0.65167
# Poissons Ratio (y) = 0.01232 0.40907
# Poissons Ratio (z) = 0.64329 0.21210
#
# Static dielectric constant tensor:
#      x y z
#    x 3.237650 0.000000 0.412500 
#    y 0.000000 2.948400 0.000000 
#    z 0.412500 0.000000 3.511910 
# 
# 
# High freq. dielectric constant tensor:
#      x y z
#    x 1.634640 0.000000 0.029180 
#    y 0.000000 1.637330 0.000000 
#    z 0.029180 0.000000 1.637640 
# 
# From -- ./inp_files/64205.got.cif
#   From: 2010.06.25/outbox.cif.g09.slc.cpg/sg11_33_cif.got.tgz:64205.got - 2010.06.27 23:14:04.
