data_PCOD8068079
_publ_section_title
;
Structure prediction by ZEFSAII (Michael W. Deem and Ramdas Pophale) SiO2 
 PCOD8068079
Probable space group: P 2/M
;
_chemical_formula_sum "Si O2"
_cell_formula_units_Z 32
_cell_length_a 30.000000
_cell_length_b 9.000000
_cell_length_c 12.000000
_cell_angle_alpha 90.000000
_cell_angle_beta 150.000000
_cell_angle_gamma 90.000000
_cell_volume 1620.000000
_symmetry_space_group_name_H-M "P 2/M"
_symmetry_group_IT_number 10
_symmetry_cell_setting 'monoclinic'
loop_
_space_group_symop_operation_xyz
x,y,z
-x,y,-z
-x,-y,-z
x,-y,z
loop_
_atom_site_type_symbol
_atom_site_label
_atom_site_fract_x
_atom_site_fract_y
_atom_site_fract_z
Si Si1 0.224556 0.669370 0.646201
Si Si2 0.408891 0.322710 0.544784
Si Si3 0.076135 0.171803 0.898871
Si Si4 0.179514 0.329546 0.300606
Si Si5 0.362565 0.172049 0.666994
Si Si6 0.117096 0.824501 0.602354
Si Si7 0.231836 0.827043 0.064784
Si Si8 0.411926 0.825846 0.022689
O O1 0.244674 0.500000 0.723318
O O2 0.169042 0.675418 0.410946
O O3 0.158433 0.746280 0.586824
O O4 0.318309 0.754676 0.854952
O O5 0.411391 0.500000 0.533488
O O6 0.400673 0.280491 0.656108
O O7 0.326576 0.258422 0.290937
O O8 0.507189 0.252058 0.732045
O O9 0.989370 0.217114 0.635265
O O10 0.065939 0.000000 0.911088
O O11 0.090878 0.269881 0.043554
O O12 0.167024 0.200130 0.028113
O O13 0.199864 0.500000 0.306448
O O14 0.259809 0.216121 0.452950
O O15 0.368753 0.000000 0.641572
O O16 0.418566 0.194950 0.902485
O O17 0.127722 0.000000 0.617997
O O18 0.172942 0.768607 0.831688
O O19 0.255866 0.000000 0.102197
O O20 0.411668 0.000000 0.052765
#
# Coordination Sequence:
#
# PCOD8068079 Si02
#       8
#     4   4   4   4   4   4   4   4
#     4  10  22  40  59  83 119 157 193 238 290 342
#     4  12  23  34  54  86 121 153 188 232 287 348
#     4  10  20  36  61  89 117 149 190 241 294 345
#     4  10  20  34  55  85 120 155 189 232 290 347
#     4  10  19  33  54  82 116 153 191 232 283 340
#     4  10  22  40  62  86 111 151 201 244 288 342
#     4  10  21  39  61  85 117 152 193 243 291 339
#     4  10  21  37  59  84 113 152 196 238 282 338
#
# _framework density 19.753086
#
# number of rings (size 3 to 8) (size 9 to 14) (size 15 to 20)
#    0.000    1.750    1.250    3.375    0.000    7.500 
#    0.000    3.125    0.000    6.000    0.000    0.000 
#    0.000    0.000    0.000    0.000    0.000    0.000 
#
# Total GULP energy -396512.228228 kJ/mol
# GULP energy per Si atom -12391.007132 kJ/mol
# Density = 1.970813 g / cm^3
# Si number density = 19.753086 Si / 1000 Ang^3
#
#
#
# Elastic Constant Matrix: (Units=GPa)
#
#
# Indices 1 2 3 4 5 6 
#
# 1 48.6136 50.8446 23.5660 0.0000 -6.8694 0.0000
# 2 50.8446 208.6673 70.3605 0.0000 -12.8643 0.0000
# 3 23.5660 70.3605 199.2886 0.0000 -9.3520 0.0000
# 4 0.0000 0.0000 0.0000 37.7813 0.0000 -0.0345
# 5 -6.8694 -12.8643 -9.3520 0.0000 26.0832 0.0000
# 6 0.0000 0.0000 0.0000 -0.0345 0.0000 24.6797
#
#
#
# Elastic Compliance Matrix: (Units=1/GPa)
#
#
# Indices 1 2 3 4 5 6 
#
# 1 0.028178 -0.006312 -0.000917 0.000000 0.003980 0.000000
# 2 -0.006312 0.006961 -0.001656 0.000000 0.001177 0.000000
# 3 -0.000917 -0.001656 0.005758 0.000000 0.001006 0.000000
# 4 0.000000 0.000000 0.000000 0.026468 0.000000 0.000037
# 5 0.003980 0.001177 0.001006 0.000000 0.040328 0.000000
# 6 0.000000 0.000000 0.000000 0.000037 0.000000 0.040519
#
#
# Mechanical properties :
#
#
# Convention : Reuss Voigt Hill
#
# Bulk Modulus (GPa) = 43.23668 82.90130 63.06899
# Shear Modulus (GPa) = 28.78651 38.49538 33.64094
#
# Velocity S-wave (km/s) = 3.82162 4.41934 4.13131
# Velocity P-wave (km/s) = 6.43500 8.25231 7.39966
#
# Compressibility (1/GPa) = 0.02312851
#
# Stress axis : x y z
#
# Youngs Moduli (GPa) = 35.48816 143.65316 173.66479
#
# Poissons Ratio (x) = 0.90667 0.15926
# Poissons Ratio (y) = 0.22398 0.28761
# Poissons Ratio (z) = 0.03254 0.23791
#
# Static dielectric constant tensor:
#      x y z
#    x 3.331790 0.000000 -0.080090 
#    y 0.000000 3.712280 0.000000 
#    z -0.080090 0.000000 4.210760 
# 
# 
# High freq. dielectric constant tensor:
#      x y z
#    x 1.739110 0.000000 0.000040 
#    y 0.000000 1.779070 0.000000 
#    z 0.000040 0.000000 1.811710 
# 
# From -- ./inp_files/58348.got.cif
#   From: 2010.06.25/outbox.ucp.g09.slc.cvg/sg10_30_cif.got.tgz:58348.got - 2010.06.28 13:37:52.
