data_PCOD8068274
_publ_section_title
;
Structure prediction by ZEFSAII (Michael W. Deem and Ramdas Pophale) SiO2 
 PCOD8068274
Probable space group: P 21/M
;
_chemical_formula_sum "Si O2"
_cell_formula_units_Z 32
_cell_length_a 9.582935
_cell_length_b 8.952415
_cell_length_c 21.147121
_cell_angle_alpha 90.000000
_cell_angle_beta 87.369900
_cell_angle_gamma 90.000000
_cell_volume 1812.309105
_symmetry_space_group_name_H-M "P 21/M"
_symmetry_group_IT_number 11
_symmetry_cell_setting 'monoclinic'
loop_
_space_group_symop_operation_xyz
x,y,z
-x,1/2+y,-z
-x,-y,-z
x,1/2-y,z
loop_
_atom_site_type_symbol
_atom_site_label
_atom_site_fract_x
_atom_site_fract_y
_atom_site_fract_z
Si Si1 0.478044 0.573387 0.354174
Si Si2 0.730295 0.424676 0.536310
Si Si3 0.153448 0.427368 0.001953
Si Si4 0.729906 0.427166 0.743537
Si Si5 0.410870 0.575660 0.947760
Si Si6 0.759871 0.572777 0.402021
Si Si7 0.317519 0.421119 0.126012
Si Si8 0.943651 0.074275 0.637535
O O1 0.460113 0.750000 0.354157
O O2 0.398590 0.516600 0.418575
O O3 0.408896 0.513650 0.290551
O O4 0.638313 0.522113 0.356076
O O5 0.719779 0.250000 0.520898
O O6 0.729586 0.514740 0.472096
O O7 0.869304 0.463432 0.572928
O O8 0.141188 0.250000 0.992523
O O9 0.225564 0.470505 0.067118
O O10 0.258803 0.494845 0.945650
O O11 0.000000 0.500000 0.000000
O O12 0.731822 0.250000 0.746935
O O13 0.737298 0.485800 0.814030
O O14 0.861752 0.489573 0.700333
O O15 0.386707 0.750000 0.962886
O O16 0.514061 0.554745 0.885220
O O17 0.500000 0.500000 0.000000
O O18 0.768369 0.750000 0.406936
O O19 0.901620 0.504460 0.369840
O O20 0.285597 0.250000 0.140732
O O21 0.950798 0.250000 0.646443
#
# Coordination Sequence:
#
# PCOD8068274 Si02
#       8
#     4   4   4   4   4   4   4   4
#     4   8  16  29  44  62  86 115 147 189 234 273
#     4   9  16  28  43  61  87 114 142 180 232 289
#     4  10  20  34  53  79 110 137 162 197 245 293
#     4   9  17  32  50  64  84 123 165 191 223 279
#     4   9  17  31  51  75 104 134 165 201 241 285
#     4  10  17  27  44  64  85 110 145 190 236 279
#     4   9  19  34  52  75 101 129 160 200 245 282
#     4   8  16  29  44  62  87 118 150 188 231 274
#
# _framework density 17.657032999999998
#
# number of rings (size 3 to 8) (size 9 to 14) (size 15 to 20)
#    0.000    3.000    0.000    3.750    0.000    3.000 
#    0.000    5.000    0.000    1.500    0.000    0.000 
#    0.000    0.000    0.000    0.000    0.000    0.000 
#
# Total GULP energy -396465.642595 kJ/mol
# GULP energy per Si atom -12389.551331 kJ/mol
# Density = 1.761684 g / cm^3
# Si number density = 17.657033 Si / 1000 Ang^3
#
#
#
# Elastic Constant Matrix: (Units=GPa)
#
#
# Indices 1 2 3 4 5 6 
#
# 1 117.2450 35.9800 28.5831 0.0000 10.1016 0.0000
# 2 35.9800 43.6403 24.0291 0.0000 -1.0765 0.0000
# 3 28.5831 24.0291 78.4319 0.0000 2.4435 0.0000
# 4 0.0000 0.0000 0.0000 27.4285 0.0000 -2.8750
# 5 10.1016 -1.0765 2.4435 0.0000 10.6895 0.0000
# 6 0.0000 0.0000 0.0000 -2.8750 0.0000 21.5771
#
#
#
# Elastic Compliance Matrix: (Units=1/GPa)
#
#
# Indices 1 2 3 4 5 6 
#
# 1 0.013200 -0.010573 -0.001158 0.000000 -0.013274 0.000000
# 2 -0.010573 0.036273 -0.007740 0.000000 0.015413 0.000000
# 3 -0.001158 -0.007740 0.015645 0.000000 -0.003262 0.000000
# 4 0.000000 0.000000 0.000000 0.036975 0.000000 0.004927
# 5 -0.013274 0.015413 -0.003262 0.000000 0.108391 0.000000
# 6 0.000000 0.000000 0.000000 0.004927 0.000000 0.047002
#
#
# Mechanical properties :
#
#
# Convention : Reuss Voigt Hill
#
# Bulk Modulus (GPa) = 38.20185 46.27796 42.23991
# Shear Modulus (GPa) = 16.38527 21.98737 19.18632
#
# Velocity S-wave (km/s) = 3.04957 3.53263 3.29995
# Velocity P-wave (km/s) = 5.83801 6.55024 6.20435
#
# Compressibility (1/GPa) = 0.02617674
#
# Stress axis : x y z
#
# Youngs Moduli (GPa) = 75.76038 27.56836 63.91889
#
# Poissons Ratio (x) = 0.29147 0.07400
# Poissons Ratio (y) = 0.80098 0.49475
# Poissons Ratio (z) = 0.08771 0.21339
#
# Static dielectric constant tensor:
#      x y z
#    x 4.052610 0.000000 -0.188760 
#    y 0.000000 3.024460 0.000000 
#    z -0.188760 0.000000 3.185970 
# 
# 
# High freq. dielectric constant tensor:
#      x y z
#    x 1.693600 0.000000 -0.009500 
#    y 0.000000 1.658670 0.000000 
#    z -0.009500 0.000000 1.660530 
# 
# From -- ./inp_files/67801.got.cif
#   From: 2010.06.25/outbox.cif.g09.slc.cpg/sg11_34_cif.got.tgz:67801.got - 2010.06.27 23:14:04.
