data_PCOD8068715
_publ_section_title
;
Structure prediction by ZEFSAII (Michael W. Deem and Ramdas Pophale) SiO2 
 PCOD8068715
Probable space group: P 21/M
;
_chemical_formula_sum "Si O2"
_cell_formula_units_Z 20
_cell_length_a 12.333090
_cell_length_b 10.127451
_cell_length_c 28.730649
_cell_angle_alpha 90.000000
_cell_angle_beta 16.131371
_cell_angle_gamma 90.000000
_cell_volume 997.041641
_symmetry_space_group_name_H-M "P 21/M"
_symmetry_group_IT_number 11
_symmetry_cell_setting 'monoclinic'
loop_
_space_group_symop_operation_xyz
x,y,z
-x,1/2+y,-z
-x,-y,-z
x,1/2-y,z
loop_
_atom_site_type_symbol
_atom_site_label
_atom_site_fract_x
_atom_site_fract_y
_atom_site_fract_z
Si Si1 0.111286 0.516108 0.565183
Si Si2 0.256818 0.250000 0.546895
Si Si3 0.908618 0.750000 0.846117
Si Si4 0.704635 0.596596 0.647683
Si Si5 0.854531 0.250000 0.897439
Si Si6 0.144710 0.983864 0.806810
Si Si7 0.494968 0.250000 0.552961
O O1 0.014899 0.378204 0.630146
O O2 0.465307 0.499947 0.383686
O O3 0.228982 0.622058 0.555944
O O4 0.735664 0.566127 0.690293
O O5 0.281310 0.250000 0.592051
O O6 0.683990 0.250000 0.348710
O O7 0.865475 0.877937 0.896807
O O8 0.580256 0.750000 0.942563
O O9 0.814453 0.750000 0.592774
O O10 0.270659 0.566149 0.806529
O O11 0.000000 0.500000 0.500000
O O12 0.914302 0.378201 0.905260
O O13 0.158351 0.250000 0.730101
#
# Coordination Sequence:
#
# PCOD8068715 Si02
#       7
#     4   2   2   4   2   4   2
#     4   9  18  29  46  69  98 124 158 197 242 284
#     4  10  20  31  49  71  99 130 159 198 234 286
#     4  10  18  33  47  71  97 130 161 194 238 284
#     4  10  18  28  46  70  99 127 156 198 252 292
#     4  10  20  31  49  71  99 130 159 198 234 286
#     4   9  18  29  46  69  98 124 158 197 242 284
#     4  10  18  33  47  71  97 130 161 194 238 284
#
# _framework density 20.059342999999998
#
# number of rings (size 3 to 8) (size 9 to 14) (size 15 to 20)
#    0.000    2.400    2.000    1.200    8.400    0.000 
#    0.000    0.000    0.000    0.000    0.000    8.400 
#    0.000    0.000    0.000    0.000    0.000    0.000 
#
# Total GULP energy -247908.144425 kJ/mol
# GULP energy per Si atom -12395.407221 kJ/mol
# Density = 2.001369 g / cm^3
# Si number density = 20.059343 Si / 1000 Ang^3
#
#
#
# Elastic Constant Matrix: (Units=GPa)
#
#
# Indices 1 2 3 4 5 6 
#
# 1 125.1022 65.4834 17.7689 0.0000 -40.4574 0.0000
# 2 65.4834 190.8333 20.5086 0.0000 -25.6803 0.0000
# 3 17.7689 20.5086 19.7428 0.0000 -19.6848 0.0000
# 4 0.0000 0.0000 0.0000 15.3900 0.0000 -13.5049
# 5 -40.4574 -25.6803 -19.6848 0.0000 30.0850 0.0000
# 6 0.0000 0.0000 0.0000 -13.5049 0.0000 39.0427
#
#
#
# Elastic Compliance Matrix: (Units=1/GPa)
#
#
# Indices 1 2 3 4 5 6 
#
# 1 0.019213 -0.004104 0.026580 0.000000 0.039727 0.000000
# 2 -0.004104 0.006868 -0.008912 0.000000 -0.005487 0.000000
# 3 0.026580 -0.008912 0.184230 0.000000 0.148680 0.000000
# 4 0.000000 0.000000 0.000000 0.093295 0.000000 0.032271
# 5 0.039727 -0.005487 0.148680 0.000000 0.179260 0.000000
# 6 0.000000 0.000000 0.000000 0.032271 0.000000 0.036776
#
#
# Mechanical properties :
#
#
# Convention : Reuss Voigt Hill
#
# Bulk Modulus (GPa) = 4.21159 60.35554 32.28357
# Shear Modulus (GPa) = 8.74646 32.36471 20.55559
#
# Velocity S-wave (km/s) = 2.09040 4.02113 3.20463
# Velocity P-wave (km/s) = 2.81611 7.19119 5.46094
#
# Compressibility (1/GPa) = 0.23744001
#
# Stress axis : x y z
#
# Youngs Moduli (GPa) = 52.04680 145.61090 5.42800
#
# Poissons Ratio (x) = 0.59752 -0.14428
# Poissons Ratio (y) = 0.21358 0.04837
# Poissons Ratio (z) = -1.38341 1.29769
#
# Static dielectric constant tensor:
#      x y z
#    x 4.002690 0.000000 -0.550550 
#    y 0.000000 4.076450 0.000000 
#    z -0.550550 0.000000 3.038670 
# 
# 
# High freq. dielectric constant tensor:
#      x y z
#    x 1.787040 0.000000 -0.043380 
#    y 0.000000 1.807320 0.000000 
#    z -0.043380 0.000000 1.711070 
# 
# From -- ./inp_files/23931.got.cif
#   From: 2010.06.25/outbox.cif.g09.slc.cpg/sg11_12_cif.got.tgz:23931.got - 2010.06.27 23:14:04.
