data_PCOD8068444
_publ_section_title
;
Structure prediction by ZEFSAII (Michael W. Deem and Ramdas Pophale) SiO2 
 PCOD8068444
Probable space group: P 21/M
;
_chemical_formula_sum "Si O2"
_cell_formula_units_Z 32
_cell_length_a 19.925999
_cell_length_b 9.027547
_cell_length_c 20.318479
_cell_angle_alpha 90.000000
_cell_angle_beta 29.723608
_cell_angle_gamma 90.000000
_cell_volume 1812.183045
_symmetry_space_group_name_H-M "P 21/M"
_symmetry_group_IT_number 11
_symmetry_cell_setting 'monoclinic'
loop_
_space_group_symop_operation_xyz
x,y,z
-x,1/2+y,-z
-x,-y,-z
x,1/2-y,z
loop_
_atom_site_type_symbol
_atom_site_label
_atom_site_fract_x
_atom_site_fract_y
_atom_site_fract_z
Si Si1 0.139567 0.421537 0.365811
Si Si2 0.366058 0.924268 0.930141
Si Si3 0.086047 0.423266 0.777559
Si Si4 0.847921 0.577385 0.795027
Si Si5 0.790391 0.422746 0.065787
Si Si6 0.123479 0.073666 0.602380
Si Si7 0.330042 0.074396 0.318355
Si Si8 0.143649 0.424011 0.868303
O O1 0.114292 0.250000 0.401779
O O2 0.189065 0.449821 0.249647
O O3 0.256179 0.482916 0.315168
O O4 0.000000 0.500000 0.500000
O O5 0.353079 0.750000 0.956560
O O6 0.322983 0.957478 0.891728
O O7 0.517584 0.987260 0.809443
O O8 0.273642 0.012232 0.059284
O O9 0.066538 0.250000 0.785787
O O10 0.149160 0.483662 0.655533
O O11 0.183290 0.457684 0.757782
O O12 0.934143 0.487065 0.917192
O O13 0.865999 0.750000 0.795606
O O14 0.985731 0.493813 0.692920
O O15 0.799610 0.250000 0.074174
O O16 0.752669 0.505500 0.166882
O O17 0.109685 0.250000 0.609828
O O18 0.247749 0.016244 0.452189
O O19 0.337312 0.250000 0.313906
O O20 0.131920 0.250000 0.890733
O O21 0.000000 0.500000 0.000000
#
# Coordination Sequence:
#
# PCOD8068444 Si02
#       8
#     4   4   4   4   4   4   4   4
#     4  10  20  35  54  78 106 132 169 214 257 308
#     4  10  20  36  54  74 102 137 177 217 252 303
#     4   8  14  25  44  71  96 123 163 207 245 291
#     4  11  22  33  50  79 108 134 167 212 261 311
#     4   9  16  28  46  68  96 130 169 209 252 300
#     4  10  17  32  56  77  99 133 174 214 253 300
#     4   9  19  34  56  79  98 131 179 217 252 303
#     4   9  16  26  41  67 101 131 162 204 254 301
#
# _framework density 17.658261
#
# number of rings (size 3 to 8) (size 9 to 14) (size 15 to 20)
#    0.000    2.500    2.500    1.500    0.000    1.500 
#    0.000    1.875    0.000    0.750    0.000    0.000 
#    0.000    0.000    0.000    0.000    0.000    0.500 
#
# Total GULP energy -396585.894833 kJ/mol
# GULP energy per Si atom -12393.309214 kJ/mol
# Density = 1.761807 g / cm^3
# Si number density = 17.658261 Si / 1000 Ang^3
#
#
#
# Elastic Constant Matrix: (Units=GPa)
#
#
# Indices 1 2 3 4 5 6 
#
# 1 127.0609 41.6085 48.5043 0.0000 12.2347 0.0000
# 2 41.6085 45.9034 30.2506 0.0000 6.5437 0.0000
# 3 48.5043 30.2506 91.9907 0.0000 -1.7027 0.0000
# 4 0.0000 0.0000 0.0000 12.3375 0.0000 6.8764
# 5 12.2347 6.5437 -1.7027 0.0000 29.0497 0.0000
# 6 0.0000 0.0000 0.0000 6.8764 0.0000 22.7369
#
#
#
# Elastic Compliance Matrix: (Units=1/GPa)
#
#
# Indices 1 2 3 4 5 6 
#
# 1 0.012373 -0.008116 -0.003922 0.000000 -0.003613 0.000000
# 2 -0.008116 0.034549 -0.007171 0.000000 -0.004785 0.000000
# 3 -0.003922 -0.007171 0.015374 0.000000 0.004168 0.000000
# 4 0.000000 0.000000 0.000000 0.097486 0.000000 -0.029483
# 5 -0.003613 -0.004785 0.004168 0.000000 0.037267 0.000000
# 6 0.000000 0.000000 0.000000 -0.029483 0.000000 0.052898
#
#
# Mechanical properties :
#
#
# Convention : Reuss Voigt Hill
#
# Bulk Modulus (GPa) = 41.87776 56.18688 49.03232
# Shear Modulus (GPa) = 16.87347 22.46427 19.66887
#
# Velocity S-wave (km/s) = 3.09456 3.57062 3.34108
# Velocity P-wave (km/s) = 6.04447 6.99194 6.53539
#
# Compressibility (1/GPa) = 0.02387902
#
# Stress axis : x y z
#
# Youngs Moduli (GPa) = 80.82172 28.94470 65.04576
#
# Poissons Ratio (x) = 0.23490 0.25511
# Poissons Ratio (y) = 0.65592 0.46641
# Poissons Ratio (z) = 0.31698 0.20755
#
# Static dielectric constant tensor:
#      x y z
#    x 3.845160 0.000000 0.302580 
#    y 0.000000 3.138030 0.000000 
#    z 0.302580 0.000000 3.323360 
# 
# 
# High freq. dielectric constant tensor:
#      x y z
#    x 1.699950 0.000000 0.021870 
#    y 0.000000 1.658670 0.000000 
#    z 0.021870 0.000000 1.654410 
# 
# From -- ./inp_files/66430.got.cif
#   From: 2010.06.25/outbox.cif.g09.slc.cpg/sg11_34_cif.got.tgz:66430.got - 2010.06.27 23:14:04.
