data_PCOD8068422
_publ_section_title
;
Structure prediction by ZEFSAII (Michael W. Deem and Ramdas Pophale) SiO2 
 PCOD8068422
Probable space group: P 21/M
;
_chemical_formula_sum "Si O2"
_cell_formula_units_Z 28
_cell_length_a 30.245695
_cell_length_b 8.517783
_cell_length_c 10.236904
_cell_angle_alpha 90.000000
_cell_angle_beta 146.378471
_cell_angle_gamma 90.000000
_cell_volume 1460.282261
_symmetry_space_group_name_H-M "P 21/M"
_symmetry_group_IT_number 11
_symmetry_cell_setting 'monoclinic'
loop_
_space_group_symop_operation_xyz
x,y,z
-x,1/2+y,-z
-x,-y,-z
x,1/2-y,z
loop_
_atom_site_type_symbol
_atom_site_label
_atom_site_fract_x
_atom_site_fract_y
_atom_site_fract_z
Si Si1 0.909428 0.566545 0.022473
Si Si2 0.656627 0.432021 0.036939
Si Si3 0.665520 0.565809 0.774059
Si Si4 0.919275 0.566037 0.579068
Si Si5 0.836229 0.563905 0.111571
Si Si6 0.820013 0.430953 0.569156
Si Si7 0.502986 0.434602 0.361575
O O1 0.930224 0.750000 0.083498
O O2 0.987480 0.468802 0.177272
O O3 0.875090 0.499357 0.074323
O O4 0.843986 0.539336 0.749575
O O5 0.651991 0.250000 0.986640
O O6 0.727233 0.465955 0.312266
O O7 0.672114 0.529848 0.943788
O O8 0.573143 0.487466 0.899198
O O9 0.656176 0.750000 0.732271
O O10 0.745604 0.500803 0.901837
O O11 0.589151 0.484279 0.515722
O O12 0.903075 0.750000 0.559784
O O13 0.872389 0.469639 0.572009
O O14 0.889267 0.506046 0.364044
O O15 0.834231 0.750000 0.104125
O O16 0.833725 0.250000 0.639577
O O17 0.500000 0.500000 0.500000
O O18 0.493318 0.250000 0.334185
#
# Coordination Sequence:
#
# PCOD8068422 Si02
#       7
#     4   4   4   4   4   4   4
#     4  11  23  39  56  79 110 145 182 222 272 325
#     4  10  19  32  51  77 107 138 177 221 266 314
#     4  10  17  31  53  78 108 139 175 217 266 317
#     4  11  21  38  60  82 107 139 182 228 274 321
#     4   9  20  36  57  82 109 142 181 223 270 323
#     4  11  23  38  56  81 110 143 183 226 271 320
#     4  10  18  28  46  76 110 140 173 214 264 315
#
# _framework density 19.174375000000001
#
# number of rings (size 3 to 8) (size 9 to 14) (size 15 to 20)
#    0.000    1.714    1.429    6.000    0.000    1.714 
#    0.000    5.000    0.000    0.857    0.000    0.000 
#    0.000    0.000    0.000    0.000    0.000    0.000 
#
# Total GULP energy -347215.848706 kJ/mol
# GULP energy per Si atom -12400.566025 kJ/mol
# Density = 1.913073 g / cm^3
# Si number density = 19.174375 Si / 1000 Ang^3
#
#
#
# Elastic Constant Matrix: (Units=GPa)
#
#
# Indices 1 2 3 4 5 6 
#
# 1 42.2746 14.8181 49.3352 0.0000 0.7009 0.0000
# 2 14.8181 51.8202 24.0997 0.0000 10.4822 0.0000
# 3 49.3352 24.0997 122.7675 0.0000 18.6255 0.0000
# 4 0.0000 0.0000 0.0000 22.9631 0.0000 6.8324
# 5 0.7009 10.4822 18.6255 0.0000 36.4090 0.0000
# 6 0.0000 0.0000 0.0000 6.8324 0.0000 17.2310
#
#
#
# Elastic Compliance Matrix: (Units=1/GPa)
#
#
# Indices 1 2 3 4 5 6 
#
# 1 0.049627 -0.007072 -0.020294 0.000000 0.011462 0.000000
# 2 -0.007072 0.022889 -0.000729 0.000000 -0.006081 0.000000
# 3 -0.020294 -0.000729 0.017729 0.000000 -0.008469 0.000000
# 4 0.000000 0.000000 0.000000 0.049373 0.000000 -0.019577
# 5 0.011462 -0.006081 -0.008469 0.000000 0.033328 0.000000
# 6 0.000000 0.000000 0.000000 -0.019577 0.000000 0.065798
#
#
# Mechanical properties :
#
#
# Convention : Reuss Voigt Hill
#
# Bulk Modulus (GPa) = 29.36368 43.70759 36.53563
# Shear Modulus (GPa) = 16.32480 23.89457 20.10968
#
# Velocity S-wave (km/s) = 2.92102 3.53395 3.24200
# Velocity P-wave (km/s) = 5.16950 6.28458 5.75412
#
# Compressibility (1/GPa) = 0.03405568
#
# Stress axis : x y z
#
# Youngs Moduli (GPa) = 20.15047 43.68996 56.40618
#
# Poissons Ratio (x) = 0.30896 1.14469
# Poissons Ratio (y) = 0.14250 0.04111
# Poissons Ratio (z) = 0.40893 0.03184
#
# Static dielectric constant tensor:
#      x y z
#    x 3.593140 0.000000 0.452610 
#    y 0.000000 3.405840 0.000000 
#    z 0.452610 0.000000 3.915440 
# 
# 
# High freq. dielectric constant tensor:
#      x y z
#    x 1.721280 0.000000 0.030750 
#    y 0.000000 1.746640 0.000000 
#    z 0.030750 0.000000 1.751940 
# 
# From -- ./inp_files/28639.got.cif
#   From: 2010.06.25/outbox.cif.g09.slc.cpg/sg11_15_cif.got.tgz:28639.got - 2010.06.27 23:14:04.
