data_PCOD8068940
_publ_section_title
;
Structure prediction by ZEFSAII (Michael W. Deem and Ramdas Pophale) SiO2 
 PCOD8068940
Probable space group: P 21/M
;
_chemical_formula_sum "Si O2"
_cell_formula_units_Z 32
_cell_length_a 12.274158
_cell_length_b 8.775698
_cell_length_c 19.965346
_cell_angle_alpha 90.000000
_cell_angle_beta 55.590078
_cell_angle_gamma 90.000000
_cell_volume 1774.240165
_symmetry_space_group_name_H-M "P 21/M"
_symmetry_group_IT_number 11
_symmetry_cell_setting 'monoclinic'
loop_
_space_group_symop_operation_xyz
x,y,z
-x,1/2+y,-z
-x,-y,-z
x,1/2-y,z
loop_
_atom_site_type_symbol
_atom_site_label
_atom_site_fract_x
_atom_site_fract_y
_atom_site_fract_z
Si Si1 0.408991 0.924983 0.434929
Si Si2 0.187143 0.068939 0.132810
Si Si3 0.359740 0.930719 0.183291
Si Si4 0.648256 0.571382 0.048583
Si Si5 0.889470 0.426848 0.214145
Si Si6 0.668057 0.075282 0.394238
Si Si7 0.298048 0.071569 0.822493
Si Si8 0.575064 0.928337 0.703445
O O1 0.403621 0.750000 0.414745
O O2 0.316405 0.957041 0.531683
O O3 0.559847 0.964283 0.400633
O O4 0.357247 0.025830 0.390635
O O5 0.196661 0.250000 0.133706
O O6 0.037130 0.014951 0.175570
O O7 0.239211 0.998747 0.183575
O O8 0.272576 0.999804 0.041342
O O9 0.353703 0.750000 0.185072
O O10 0.498273 0.991632 0.103829
O O11 0.348351 0.987370 0.263453
O O12 0.642870 0.750000 0.039617
O O13 0.723371 0.531825 0.091712
O O14 0.887088 0.250000 0.194689
O O15 0.807527 0.457307 0.310468
O O16 0.831980 0.522205 0.172093
O O17 0.621988 0.250000 0.398591
O O18 0.327382 0.250000 0.802959
O O19 0.422516 0.978688 0.751161
O O20 0.585063 0.750000 0.712001
#
# Coordination Sequence:
#
# PCOD8068940 Si02
#       8
#     4   4   4   4   4   4   4   4
#     4  10  18  29  49  76 103 133 167 206 251 297
#     4  10  20  35  53  73 100 137 175 208 252 302
#     4  10  20  35  54  76 101 129 169 217 259 296
#     4   8  17  33  52  74 101 130 166 215 258 298
#     4  10  20  33  50  73 105 141 171 204 246 303
#     4   9  18  31  47  72 106 138 168 203 246 299
#     4  10  19  32  50  74 103 136 171 208 252 297
#     4  11  20  32  52  77 104 131 164 209 260 308
#
# _framework density 18.035889000000001
#
# number of rings (size 3 to 8) (size 9 to 14) (size 15 to 20)
#    0.000    2.250    1.250    3.375    0.000    1.500 
#    0.000    3.125    0.000    0.750    0.000    0.000 
#    0.000    0.000    0.000    0.000    0.000    0.000 
#
# Total GULP energy -396811.431641 kJ/mol
# GULP energy per Si atom -12400.357239 kJ/mol
# Density = 1.799484 g / cm^3
# Si number density = 18.035889 Si / 1000 Ang^3
#
#
#
# Elastic Constant Matrix: (Units=GPa)
#
#
# Indices 1 2 3 4 5 6 
#
# 1 115.6092 28.5429 37.8779 0.0000 16.2543 0.0000
# 2 28.5429 49.4329 17.3841 0.0000 3.7188 0.0000
# 3 37.8779 17.3841 70.4179 0.0000 18.9675 0.0000
# 4 0.0000 0.0000 0.0000 20.6394 0.0000 5.9928
# 5 16.2543 3.7188 18.9675 0.0000 23.5916 0.0000
# 6 0.0000 0.0000 0.0000 5.9928 0.0000 27.5920
#
#
#
# Elastic Compliance Matrix: (Units=1/GPa)
#
#
# Indices 1 2 3 4 5 6 
#
# 1 0.011791 -0.005101 -0.003971 0.000000 -0.004126 0.000000
# 2 -0.005101 0.024384 -0.004068 0.000000 0.002942 0.000000
# 3 -0.003971 -0.004068 0.020974 0.000000 -0.013485 0.000000
# 4 0.000000 0.000000 0.000000 0.051712 0.000000 -0.011231
# 5 -0.004126 0.002942 -0.013485 0.000000 0.055610 0.000000
# 6 0.000000 0.000000 0.000000 -0.011231 0.000000 0.038682
#
#
# Mechanical properties :
#
#
# Convention : Reuss Voigt Hill
#
# Bulk Modulus (GPa) = 32.39665 44.78555 38.59110
# Shear Modulus (GPa) = 20.85748 24.47494 22.66621
#
# Velocity S-wave (km/s) = 3.40434 3.68776 3.54888
# Velocity P-wave (km/s) = 5.78395 6.55881 6.18353
#
# Compressibility (1/GPa) = 0.03086739
#
# Stress axis : x y z
#
# Youngs Moduli (GPa) = 84.81372 41.01031 47.67848
#
# Poissons Ratio (x) = 0.20919 0.18935
# Poissons Ratio (y) = 0.43263 0.19397
# Poissons Ratio (z) = 0.33683 0.16684
#
# Static dielectric constant tensor:
#      x y z
#    x 3.169340 0.000000 0.176680 
#    y 0.000000 3.209010 0.000000 
#    z 0.176680 0.000000 3.575010 
# 
# 
# High freq. dielectric constant tensor:
#      x y z
#    x 1.675120 0.000000 0.024890 
#    y 0.000000 1.692260 0.000000 
#    z 0.024890 0.000000 1.699090 
# 
# From -- ./inp_files/64208.got.cif
#   From: 2010.06.25/outbox.cif.g09.slc.cpg/sg11_33_cif.got.tgz:64208.got - 2010.06.27 23:14:04.
