data_PCOD8068233
_publ_section_title
;
Structure prediction by ZEFSAII (Michael W. Deem and Ramdas Pophale) SiO2 
 PCOD8068233
Probable space group: P 21/M
;
_chemical_formula_sum "Si O2"
_cell_formula_units_Z 32
_cell_length_a 13.763378
_cell_length_b 8.720803
_cell_length_c 19.504769
_cell_angle_alpha 90.000000
_cell_angle_beta 58.863028
_cell_angle_gamma 90.000000
_cell_volume 2003.837030
_symmetry_space_group_name_H-M "P 21/M"
_symmetry_group_IT_number 11
_symmetry_cell_setting 'monoclinic'
loop_
_space_group_symop_operation_xyz
x,y,z
-x,1/2+y,-z
-x,-y,-z
x,1/2-y,z
loop_
_atom_site_type_symbol
_atom_site_label
_atom_site_fract_x
_atom_site_fract_y
_atom_site_fract_z
Si Si1 0.242584 0.430409 0.826639
Si Si2 0.895625 0.572923 0.001117
Si Si3 0.073994 0.077534 0.678057
Si Si4 0.970819 0.428523 0.171877
Si Si5 0.442377 0.568789 0.673545
Si Si6 0.091316 0.432622 0.517742
Si Si7 0.667936 0.430980 0.564294
Si Si8 0.335736 0.074949 0.579939
O O1 0.264476 0.250000 0.808217
O O2 0.218897 0.476377 0.916042
O O3 0.355070 0.521093 0.764653
O O4 0.134973 0.476864 0.819498
O O5 0.908850 0.750000 0.009874
O O6 0.911703 0.536092 0.913961
O O7 0.000000 0.500000 0.000000
O O8 0.027417 0.250000 0.699851
O O9 0.057063 0.014144 0.607123
O O10 0.205580 0.069675 0.650472
O O11 0.005344 0.975429 0.758071
O O12 0.939271 0.250000 0.179482
O O13 0.444522 0.750000 0.665674
O O14 0.567217 0.504326 0.646948
O O15 0.409828 0.494061 0.613225
O O16 0.097319 0.250000 0.511527
O O17 0.000000 0.500000 0.500000
O O18 0.213699 0.498820 0.452810
O O19 0.670785 0.250000 0.573227
O O20 0.644561 0.472894 0.494001
O O21 0.372688 0.250000 0.550874
#
# Coordination Sequence:
#
# PCOD8068233 Si02
#       8
#     4   4   4   4   4   4   4   4
#     4  10  18  29  42  58  87 125 160 193 234 272
#     4   8  16  27  39  57  83 118 156 194 230 267
#     4   9  18  30  46  67  93 122 153 188 230 276
#     4  10  17  26  42  64  89 118 158 197 228 269
#     4  12  22  31  44  64  91 122 159 197 230 270
#     4  10  21  38  56  73  94 119 151 190 236 281
#     4  11  22  35  50  68  90 119 154 189 231 276
#     4  10  19  32  46  63  91 123 156 192 231 270
#
# _framework density 15.969362
#
# number of rings (size 3 to 8) (size 9 to 14) (size 15 to 20)
#    0.000    2.000    1.250    4.875    0.000    3.500 
#    0.000    0.000    0.000    0.000    0.000    0.000 
#    0.000    1.000    0.000    3.000    0.000    4.625 
#
# Total GULP energy -396563.878767 kJ/mol
# GULP energy per Si atom -12392.621211 kJ/mol
# Density = 1.593302 g / cm^3
# Si number density = 15.969362 Si / 1000 Ang^3
#
#
#
# Elastic Constant Matrix: (Units=GPa)
#
#
# Indices 1 2 3 4 5 6 
#
# 1 70.9129 25.5780 45.3031 0.0000 -3.3599 0.0000
# 2 25.5780 59.3832 25.1021 0.0000 -2.0559 0.0000
# 3 45.3031 25.1021 108.7488 0.0000 -6.6729 0.0000
# 4 0.0000 0.0000 0.0000 25.3425 0.0000 -1.0937
# 5 -3.3599 -2.0559 -6.6729 0.0000 12.7000 0.0000
# 6 0.0000 0.0000 0.0000 -1.0937 0.0000 20.5575
#
#
#
# Elastic Compliance Matrix: (Units=1/GPa)
#
#
# Indices 1 2 3 4 5 6 
#
# 1 0.020939 -0.005901 -0.007315 0.000000 0.000741 0.000000
# 2 -0.005901 0.020331 -0.002199 0.000000 0.000574 0.000000
# 3 -0.007315 -0.002199 0.013030 0.000000 0.004555 0.000000
# 4 0.000000 0.000000 0.000000 0.039550 0.000000 0.002104
# 5 0.000741 0.000574 0.004555 0.000000 0.081422 0.000000
# 6 0.000000 0.000000 0.000000 0.002104 0.000000 0.048756
#
#
# Mechanical properties :
#
#
# Convention : Reuss Voigt Hill
#
# Bulk Modulus (GPa) = 42.61005 47.89015 45.25010
# Shear Modulus (GPa) = 19.03435 21.25742 20.14588
#
# Velocity S-wave (km/s) = 3.45618 3.65243 3.55566
# Velocity P-wave (km/s) = 6.53201 6.91671 6.72711
#
# Compressibility (1/GPa) = 0.02346864
#
# Stress axis : x y z
#
# Youngs Moduli (GPa) = 47.75831 49.18563 76.74537
#
# Poissons Ratio (x) = 0.29025 0.56141
# Poissons Ratio (y) = 0.28182 0.16880
# Poissons Ratio (z) = 0.34936 0.10818
#
# Static dielectric constant tensor:
#      x y z
#    x 2.620700 0.000000 -0.001430 
#    y 0.000000 3.093110 0.000000 
#    z -0.001430 0.000000 3.630420 
# 
# 
# High freq. dielectric constant tensor:
#      x y z
#    x 1.549090 0.000000 -0.001010 
#    y 0.000000 1.630090 0.000000 
#    z -0.001010 0.000000 1.626860 
# 
# From -- ./inp_files/61817.got.cif
#   From: 2010.06.25/outbox.cif.g09.slc.cpg/sg11_31_cif.got.tgz:61817.got - 2010.06.27 23:14:04.
