data_PCOD8068052
_publ_section_title
;
Structure prediction by ZEFSAII (Michael W. Deem and Ramdas Pophale) SiO2 
 PCOD8068052
Probable space group: P 2/M
;
_chemical_formula_sum "Si O2"
_cell_formula_units_Z 32
_cell_length_a 27.435575
_cell_length_b 9.274694
_cell_length_c 20.477872
_cell_angle_alpha 90.000000
_cell_angle_beta 160.765698
_cell_angle_gamma 90.000000
_cell_volume 1716.580693
_symmetry_space_group_name_H-M "P 2/M"
_symmetry_group_IT_number 10
_symmetry_cell_setting 'monoclinic'
loop_
_space_group_symop_operation_xyz
x,y,z
-x,y,-z
-x,-y,-z
x,-y,z
loop_
_atom_site_type_symbol
_atom_site_label
_atom_site_fract_x
_atom_site_fract_y
_atom_site_fract_z
Si Si1 0.350367 0.661747 0.850373
Si Si2 0.504069 0.829315 0.154089
Si Si3 0.875226 0.831254 0.113124
Si Si4 0.795946 0.170676 0.445956
Si Si5 0.600562 0.831192 0.838405
Si Si6 0.671952 0.833133 0.586447
Si Si7 0.843062 0.833176 0.928596
Si Si8 0.090021 0.340702 0.180026
O O1 0.291494 0.500000 0.791496
O O2 0.232417 0.749549 0.658325
O O3 0.500000 0.650924 0.000000
O O4 0.380599 0.749567 0.954700
O O5 0.671591 0.788545 0.343193
O O6 0.473274 0.770639 0.188591
O O7 0.480182 0.000000 0.116933
O O8 0.042691 0.770566 0.327394
O O9 0.888013 0.000000 0.141071
O O10 0.763285 0.765457 0.026555
O O11 0.795763 0.800733 0.942880
O O12 0.793253 0.000000 0.429984
O O13 0.498462 0.800497 0.645542
O O14 0.617972 0.000000 0.870821
O O15 0.713667 0.786929 0.713691
O O16 0.760457 0.745040 0.643938
O O17 0.711286 0.000000 0.625487
O O18 0.883085 0.000000 0.968834
O O19 0.993470 0.744876 0.110016
O O20 0.126915 0.500000 0.253767
O O21 0.000000 0.351341 0.000000
#
# Coordination Sequence:
#
# PCOD8068052 Si02
#       8
#     4   4   4   4   4   4   4   4
#     4   9  17  31  52  77 102 124 154 201 250 294
#     4   9  17  30  51  75  98 128 165 201 240 292
#     4   9  18  31  48  73 104 134 167 208 249 291
#     4   9  17  30  51  75  98 128 165 201 240 292
#     4   9  18  31  48  73 104 134 167 208 249 291
#     4   9  17  29  48  72  98 130 169 211 252 292
#     4   9  17  29  48  72  98 130 169 211 252 292
#     4   9  17  29  45  67  95 124 159 206 255 299
#
# _framework density 18.64171
#
# number of rings (size 3 to 8) (size 9 to 14) (size 15 to 20)
#    0.000    3.000    0.000    0.750    1.750    3.500 
#    0.000    4.375    0.000    6.750    0.000    3.500 
#    0.000    0.000    0.000    0.000    0.000    0.000 
#
# Total GULP energy -396473.296830 kJ/mol
# GULP energy per Si atom -12389.790526 kJ/mol
# Density = 1.859928 g / cm^3
# Si number density = 18.641710 Si / 1000 Ang^3
#
#
#
# Elastic Constant Matrix: (Units=GPa)
#
#
# Indices 1 2 3 4 5 6 
#
# 1 110.3219 25.5232 79.2052 0.0000 0.8814 0.0000
# 2 25.5232 45.2704 25.7413 0.0000 -1.2060 0.0000
# 3 79.2052 25.7413 110.5758 0.0000 -1.0169 0.0000
# 4 0.0000 0.0000 0.0000 6.6361 0.0000 -2.7264
# 5 0.8814 -1.2060 -1.0169 0.0000 27.4519 0.0000
# 6 0.0000 0.0000 0.0000 -2.7264 0.0000 6.2097
#
#
#
# Elastic Compliance Matrix: (Units=1/GPa)
#
#
# Indices 1 2 3 4 5 6 
#
# 1 0.019160 -0.003487 -0.012924 0.000000 -0.001247 0.000000
# 2 -0.003487 0.026116 -0.003572 0.000000 0.001127 0.000000
# 3 -0.012924 -0.003572 0.019141 0.000000 0.000967 0.000000
# 4 0.000000 0.000000 0.000000 0.183856 0.000000 0.080723
# 5 -0.001247 0.001127 0.000967 0.000000 0.036553 0.000000
# 6 0.000000 0.000000 0.000000 0.080723 0.000000 0.196481
#
#
# Mechanical properties :
#
#
# Convention : Reuss Voigt Hill
#
# Bulk Modulus (GPa) = 40.89555 58.56749 49.73152
# Shear Modulus (GPa) = 9.44426 17.10609 13.27517
#
# Velocity S-wave (km/s) = 2.25326 3.03252 2.67146
# Velocity P-wave (km/s) = 5.36236 6.61417 6.02088
#
# Compressibility (1/GPa) = 0.02445254
#
# Stress axis : x y z
#
# Youngs Moduli (GPa) = 52.19331 38.29034 52.24326
#
# Poissons Ratio (x) = 0.13350 0.67518
# Poissons Ratio (y) = 0.18198 0.18660
# Poissons Ratio (z) = 0.67453 0.13677
#
# Static dielectric constant tensor:
#      x y z
#    x 3.486310 0.000000 0.020570 
#    y 0.000000 3.357650 0.000000 
#    z 0.020570 0.000000 3.484440 
# 
# 
# High freq. dielectric constant tensor:
#      x y z
#    x 1.712750 0.000000 -0.007720 
#    y 0.000000 1.689480 0.000000 
#    z -0.007720 0.000000 1.714020 
# 
# From -- ./inp_files/87069.got.cif
#   From: 2010.06.25/outbox.cif.g09.slc.cpg/sg10_44_cif.got.tgz:87069.got - 2010.06.27 22:07:45.
