data_PCOD8068421
_publ_section_title
;
Structure prediction by ZEFSAII (Michael W. Deem and Ramdas Pophale) SiO2 
 PCOD8068421
Probable space group: P 21/M
;
_chemical_formula_sum "Si O2"
_cell_formula_units_Z 32
_cell_length_a 11.811372
_cell_length_b 19.111327
_cell_length_c 10.686436
_cell_angle_alpha 90.000000
_cell_angle_beta 52.081800
_cell_angle_gamma 90.000000
_cell_volume 1903.005027
_symmetry_space_group_name_H-M "P 21/M"
_symmetry_group_IT_number 11
_symmetry_cell_setting 'monoclinic'
loop_
_space_group_symop_operation_xyz
x,y,z
-x,1/2+y,-z
-x,-y,-z
x,1/2-y,z
loop_
_atom_site_type_symbol
_atom_site_label
_atom_site_fract_x
_atom_site_fract_y
_atom_site_fract_z
Si Si1 0.109884 0.671922 0.771760
Si Si2 0.713808 0.505011 0.429478
Si Si3 0.310067 0.533814 0.018510
Si Si4 0.400767 0.961702 0.237776
Si Si5 0.641886 0.173255 0.592473
Si Si6 0.015443 0.471802 0.127998
Si Si7 0.505144 0.113119 0.469402
Si Si8 0.325011 0.829127 0.854416
O O1 0.042628 0.750000 0.806092
O O2 0.209575 0.657020 0.582475
O O3 0.196955 0.666508 0.841791
O O4 0.986912 0.612994 0.861640
O O5 0.688456 0.501245 0.595187
O O6 0.651473 0.578657 0.422707
O O7 0.632346 0.443949 0.408372
O O8 0.882872 0.503978 0.294301
O O9 0.329314 0.526311 0.153159
O O10 0.162586 0.496506 0.087069
O O11 0.437506 0.491478 0.863820
O O12 0.304536 0.615277 0.980573
O O13 0.392504 0.879021 0.271317
O O14 0.644893 0.250000 0.650177
O O15 0.513892 0.168797 0.576393
O O16 0.000000 0.500000 0.000000
O O17 0.530214 0.150621 0.319114
O O18 0.337459 0.750000 0.900811
#
# Coordination Sequence:
#
# PCOD8068421 Si02
#       8
#     4   4   4   4   4   4   4   4
#     4   9  17  32  53  79 107 137 174 217 274 330
#     4  10  18  31  54  77 108 140 172 214 271 302
#     4  11  23  35  53  82 108 140 187 220 267 310
#     4  10  21  38  54  75 109 146 180 226 252 319
#     4   9  17  31  56  82 102 138 185 221 260 313
#     4  12  21  33  55  87 107 136 174 226 273 325
#     4   9  15  28  54  80 103 131 173 220 256 316
#     4  10  17  31  53  78 106 137 174 217 268 321
#
# _framework density 16.81551
#
# number of rings (size 3 to 8) (size 9 to 14) (size 15 to 20)
#    0.000    2.000    6.250    1.125    3.500    1.000 
#    0.000    0.625    0.000    2.250    0.000    0.000 
#    0.000    0.000    0.000    0.000    0.000    0.000 
#
# Total GULP energy -396568.620148 kJ/mol
# GULP energy per Si atom -12392.769380 kJ/mol
# Density = 1.677724 g / cm^3
# Si number density = 16.815510 Si / 1000 Ang^3
#
#
#
# Elastic Constant Matrix: (Units=GPa)
#
#
# Indices 1 2 3 4 5 6 
#
# 1 75.6589 39.9975 49.7008 0.0000 -10.0909 0.0000
# 2 39.9975 128.7625 47.2047 0.0000 -10.2968 0.0000
# 3 49.7008 47.2047 98.1480 0.0000 -3.1291 0.0000
# 4 0.0000 0.0000 0.0000 26.0886 0.0000 -0.8498
# 5 -10.0909 -10.2968 -3.1291 0.0000 23.3424 0.0000
# 6 0.0000 0.0000 0.0000 -0.8498 0.0000 16.3948
#
#
#
# Elastic Compliance Matrix: (Units=1/GPa)
#
#
# Indices 1 2 3 4 5 6 
#
# 1 0.021851 -0.002739 -0.009526 0.000000 0.006961 0.000000
# 2 -0.002739 0.010077 -0.003370 0.000000 0.002810 0.000000
# 3 -0.009526 -0.003370 0.016525 0.000000 -0.003390 0.000000
# 4 0.000000 0.000000 0.000000 0.038396 0.000000 0.001990
# 5 0.006961 0.002810 -0.003390 0.000000 0.046635 0.000000
# 6 0.000000 0.000000 0.000000 0.001990 0.000000 0.061098
#
#
# Mechanical properties :
#
#
# Convention : Reuss Voigt Hill
#
# Bulk Modulus (GPa) = 58.19424 64.04173 61.11798
# Shear Modulus (GPa) = 21.59078 24.20958 22.90018
#
# Velocity S-wave (km/s) = 3.58715 3.79848 3.69433
# Velocity P-wave (km/s) = 7.19997 7.57664 7.39070
#
# Compressibility (1/GPa) = 0.01718383
#
# Stress axis : x y z
#
# Youngs Moduli (GPa) = 45.76409 99.23416 60.51277
#
# Poissons Ratio (x) = 0.27177 0.57645
# Poissons Ratio (y) = 0.12533 0.20394
# Poissons Ratio (z) = 0.43595 0.33444
#
# Static dielectric constant tensor:
#      x y z
#    x 2.930610 0.000000 0.022400 
#    y 0.000000 3.415230 0.000000 
#    z 0.022400 0.000000 3.109300 
# 
# 
# High freq. dielectric constant tensor:
#      x y z
#    x 1.617310 0.000000 0.012730 
#    y 0.000000 1.655860 0.000000 
#    z 0.012730 0.000000 1.635060 
# 
# From -- ./inp_files/36327.got.cif
#   From: 2010.06.25/outbox.cif.g09.slc.cpg/sg11_19_cif.got.tgz:36327.got - 2010.06.27 23:14:04.
