data_PCOD8068335
_publ_section_title
;
Structure prediction by ZEFSAII (Michael W. Deem and Ramdas Pophale) SiO2 
 PCOD8068335
Probable space group: P 21/M
;
_chemical_formula_sum "Si O2"
_cell_formula_units_Z 32
_cell_length_a 8.997415
_cell_length_b 21.411079
_cell_length_c 11.513540
_cell_angle_alpha 90.000000
_cell_angle_beta 126.213530
_cell_angle_gamma 90.000000
_cell_volume 1789.543577
_symmetry_space_group_name_H-M "P 21/M"
_symmetry_group_IT_number 11
_symmetry_cell_setting 'monoclinic'
loop_
_space_group_symop_operation_xyz
x,y,z
-x,1/2+y,-z
-x,-y,-z
x,1/2-y,z
loop_
_atom_site_type_symbol
_atom_site_label
_atom_site_fract_x
_atom_site_fract_y
_atom_site_fract_z
Si Si1 0.517032 0.425212 0.640619
Si Si2 0.000473 0.602686 0.452812
Si Si3 0.637218 0.821303 0.578336
Si Si4 0.367656 0.916441 0.861830
Si Si5 0.627478 0.560506 0.185986
Si Si6 0.342756 0.821746 0.643596
Si Si7 0.027301 0.399408 0.286206
Si Si8 0.775741 0.484506 0.599511
O O1 0.431359 0.358917 0.565332
O O2 0.525121 0.428268 0.783894
O O3 0.715304 0.433911 0.669618
O O4 0.396338 0.482742 0.540416
O O5 0.135225 0.663300 0.500805
O O6 0.116077 0.544859 0.457998
O O7 0.808423 0.603202 0.292859
O O8 0.951102 0.595209 0.564253
O O9 0.648238 0.750000 0.546225
O O10 0.495907 0.832971 0.616943
O O11 0.844821 0.844203 0.706755
O O12 0.402904 0.869278 0.772435
O O13 0.186086 0.890862 0.846381
O O14 0.325835 0.986794 0.798812
O O15 0.543319 0.914992 0.026566
O O16 0.345530 0.750000 0.688215
O O17 0.101128 0.465568 0.272668
#
# Coordination Sequence:
#
# PCOD8068335 Si02
#       8
#     4   4   4   4   4   4   4   4
#     4  10  19  31  52  80 111 140 178 221 285 319
#     4  11  18  32  57  81 110 134 182 230 268 315
#     4  10  20  34  55  82 107 135 184 235 272 321
#     4  10  23  37  55  79 121 149 181 223 276 334
#     4  11  21  37  54  86 115 147 179 229 280 331
#     4  10  22  38  58  81 107 146 188 226 273 332
#     4  10  19  31  54  83 107 143 181 223 278 322
#     4  10  17  28  52  82 107 140 172 222 275 325
#
# _framework density 17.881654999999999
#
# number of rings (size 3 to 8) (size 9 to 14) (size 15 to 20)
#    0.000    1.750    5.000    1.875    3.500    2.000 
#    0.000    3.125    0.000    0.000    0.000    0.000 
#    0.000    0.000    0.000    0.000    0.000    0.000 
#
# Total GULP energy -396520.585099 kJ/mol
# GULP energy per Si atom -12391.268284 kJ/mol
# Density = 1.784096 g / cm^3
# Si number density = 17.881655 Si / 1000 Ang^3
#
#
#
# Elastic Constant Matrix: (Units=GPa)
#
#
# Indices 1 2 3 4 5 6 
#
# 1 101.1041 46.0489 33.1757 0.0000 8.1684 0.0000
# 2 46.0489 91.1427 38.0780 0.0000 0.1494 0.0000
# 3 33.1757 38.0780 85.5417 0.0000 8.1318 0.0000
# 4 0.0000 0.0000 0.0000 12.5073 0.0000 -4.5767
# 5 8.1684 0.1494 8.1318 0.0000 20.2054 0.0000
# 6 0.0000 0.0000 0.0000 -4.5767 0.0000 26.8680
#
#
#
# Elastic Compliance Matrix: (Units=1/GPa)
#
#
# Indices 1 2 3 4 5 6 
#
# 1 0.013723 -0.006002 -0.002212 0.000000 -0.004613 0.000000
# 2 -0.006002 0.016217 -0.005314 0.000000 0.004445 0.000000
# 3 -0.002212 -0.005314 0.015414 0.000000 -0.005270 0.000000
# 4 0.000000 0.000000 0.000000 0.085268 0.000000 0.014525
# 5 -0.004613 0.004445 -0.005270 0.000000 0.053445 0.000000
# 6 0.000000 0.000000 0.000000 0.014525 0.000000 0.039693
#
#
# Mechanical properties :
#
#
# Convention : Reuss Voigt Hill
#
# Bulk Modulus (GPa) = 54.64668 56.93263 55.78965
# Shear Modulus (GPa) = 19.46174 22.61521 21.03848
#
# Velocity S-wave (km/s) = 3.30261 3.56014 3.43379
# Velocity P-wave (km/s) = 6.72083 6.98621 6.85481
#
# Compressibility (1/GPa) = 0.01829937
#
# Stress axis : x y z
#
# Youngs Moduli (GPa) = 72.87120 61.66475 64.87446
#
# Poissons Ratio (x) = 0.37009 0.14351
# Poissons Ratio (y) = 0.43734 0.34472
# Poissons Ratio (z) = 0.16120 0.32766
#
# Static dielectric constant tensor:
#      x y z
#    x 3.732660 0.000000 0.154550 
#    y 0.000000 3.300970 0.000000 
#    z 0.154550 0.000000 2.985640 
# 
# 
# High freq. dielectric constant tensor:
#      x y z
#    x 1.715620 0.000000 0.009450 
#    y 0.000000 1.679210 0.000000 
#    z 0.009450 0.000000 1.647010 
# 
# From -- ./inp_files/33011.got.cif
#   From: 2010.06.25/outbox.cif.g09.slc.cpg/sg11_17_cif.got.tgz:33011.got - 2010.06.27 23:14:04.
