data_PCOD8068799
_publ_section_title
;
Structure prediction by ZEFSAII (Michael W. Deem and Ramdas Pophale) SiO2 
 PCOD8068799
Probable space group: P 21/M
;
_chemical_formula_sum "Si O2"
_cell_formula_units_Z 32
_cell_length_a 21.383719
_cell_length_b 9.455296
_cell_length_c 20.351468
_cell_angle_alpha 90.000000
_cell_angle_beta 152.562884
_cell_angle_gamma 90.000000
_cell_volume 1896.019675
_symmetry_space_group_name_H-M "P 21/M"
_symmetry_group_IT_number 11
_symmetry_cell_setting 'monoclinic'
loop_
_space_group_symop_operation_xyz
x,y,z
-x,1/2+y,-z
-x,-y,-z
x,1/2-y,z
loop_
_atom_site_type_symbol
_atom_site_label
_atom_site_fract_x
_atom_site_fract_y
_atom_site_fract_z
Si Si1 0.113538 0.909549 0.817220
Si Si2 0.206854 0.091628 0.499828
Si Si3 0.116089 0.915891 0.070240
Si Si4 0.852966 0.408264 0.295736
Si Si5 0.826103 0.908989 0.387819
Si Si6 0.232456 0.588137 0.403398
Si Si7 0.371043 0.587606 0.400679
Si Si8 0.914012 0.914541 0.086646
O O1 0.162768 0.750000 0.880806
O O2 0.178389 0.959746 0.808077
O O3 0.952736 0.907741 0.660483
O O4 0.155348 0.021679 0.912228
O O5 0.264656 0.250000 0.546600
O O6 0.236469 0.033767 0.601425
O O7 0.278039 0.995568 0.511165
O O8 0.075562 0.750000 0.024310
O O9 0.254711 0.931126 0.238709
O O10 0.141725 0.990982 0.024679
O O11 0.000000 0.000000 0.000000
O O12 0.798695 0.250000 0.253896
O O13 0.774919 0.501471 0.277458
O O14 0.012554 0.414414 0.456908
O O15 0.775953 0.750000 0.329474
O O16 0.265459 0.750000 0.448661
O O17 0.318128 0.530887 0.421637
O O18 0.075350 0.568299 0.239288
O O19 0.500000 0.500000 0.500000
O O20 0.414394 0.750000 0.447258
O O21 0.872320 0.750000 0.039874
#
# Coordination Sequence:
#
# PCOD8068799 Si02
#       8
#     4   4   4   4   4   4   4   4
#     4   8  14  24  35  52  78 109 144 183 225 268
#     4   8  14  23  35  53  75 104 144 183 221 269
#     4  11  21  35  53  73  97 122 154 196 236 280
#     4   8  13  20  30  44  68 102 141 178 215 264
#     4   8  13  20  29  44  69  99 137 181 217 257
#     4   9  17  30  44  62  89 114 144 190 230 270
#     4  10  22  38  52  71  97 123 155 194 236 285
#     4  10  18  29  45  67  91 115 150 192 232 276
#
# _framework density 16.877462000000001
#
# number of rings (size 3 to 8) (size 9 to 14) (size 15 to 20)
#    0.000    3.000    1.250    2.250    0.000    3.000 
#    0.000    5.000    0.000    0.000    0.000    0.000 
#    0.000    0.000    0.000    1.125    0.000   15.250 
#
# Total GULP energy -396551.355628 kJ/mol
# GULP energy per Si atom -12392.229863 kJ/mol
# Density = 1.683905 g / cm^3
# Si number density = 16.877462 Si / 1000 Ang^3
#
#
#
# Elastic Constant Matrix: (Units=GPa)
#
#
# Indices 1 2 3 4 5 6 
#
# 1 157.5907 84.2446 36.9047 0.0000 -40.7366 0.0000
# 2 84.2446 107.5435 31.7582 0.0000 -22.8101 0.0000
# 3 36.9047 31.7582 26.4009 0.0000 -7.7819 0.0000
# 4 0.0000 0.0000 0.0000 17.7246 0.0000 -7.7541
# 5 -40.7366 -22.8101 -7.7819 0.0000 21.5484 0.0000
# 6 0.0000 0.0000 0.0000 -7.7541 0.0000 38.0184
#
#
#
# Elastic Compliance Matrix: (Units=1/GPa)
#
#
# Indices 1 2 3 4 5 6 
#
# 1 0.018628 -0.005903 -0.011640 0.000000 0.024764 0.000000
# 2 -0.005903 0.018552 -0.012944 0.000000 0.003805 0.000000
# 3 -0.011640 -0.012944 0.066245 0.000000 -0.011783 0.000000
# 4 0.000000 0.000000 0.000000 0.061946 0.000000 0.012634
# 5 0.024764 0.003805 -0.011783 0.000000 0.092996 0.000000
# 6 0.000000 0.000000 0.000000 0.012634 0.000000 0.028880
#
#
# Mechanical properties :
#
#
# Convention : Reuss Voigt Hill
#
# Bulk Modulus (GPa) = 23.55535 66.37223 44.96379
# Shear Modulus (GPa) = 13.79803 24.70013 19.24908
#
# Velocity S-wave (km/s) = 2.86237 3.82972 3.38082
# Velocity P-wave (km/s) = 4.99111 7.67900 6.47604
#
# Compressibility (1/GPa) = 0.04245320
#
# Stress axis : x y z
#
# Youngs Moduli (GPa) = 53.68160 53.90303 15.09542
#
# Poissons Ratio (x) = 0.31818 0.17571
# Poissons Ratio (y) = 0.31687 0.19539
# Poissons Ratio (z) = 0.62484 0.69770
#
# Static dielectric constant tensor:
#      x y z
#    x 3.524460 0.000000 -0.370700 
#    y 0.000000 3.322850 0.000000 
#    z -0.370700 0.000000 2.511980 
# 
# 
# High freq. dielectric constant tensor:
#      x y z
#    x 1.661730 0.000000 -0.034770 
#    y 0.000000 1.653760 0.000000 
#    z -0.034770 0.000000 1.580510 
# 
# From -- ./inp_files/42175.got.cif
#   From: 2010.06.25/outbox.cif.g09.slc.cpg/sg11_22_cif.got.tgz:42175.got - 2010.06.27 23:14:04.
