data_PCOD8068450
_publ_section_title
;
Structure prediction by ZEFSAII (Michael W. Deem and Ramdas Pophale) SiO2 
 PCOD8068450
Probable space group: P 21/M
;
_chemical_formula_sum "Si O2"
_cell_formula_units_Z 32
_cell_length_a 15.481443
_cell_length_b 8.820385
_cell_length_c 25.852383
_cell_angle_alpha 90.000000
_cell_angle_beta 27.575987
_cell_angle_gamma 90.000000
_cell_volume 1634.217301
_symmetry_space_group_name_H-M "P 21/M"
_symmetry_group_IT_number 11
_symmetry_cell_setting 'monoclinic'
loop_
_space_group_symop_operation_xyz
x,y,z
-x,1/2+y,-z
-x,-y,-z
x,1/2-y,z
loop_
_atom_site_type_symbol
_atom_site_label
_atom_site_fract_x
_atom_site_fract_y
_atom_site_fract_z
Si Si1 0.544351 0.570513 0.246252
Si Si2 0.253327 0.571009 0.770552
Si Si3 0.162356 0.070633 0.994024
Si Si4 0.348224 0.430109 0.999565
Si Si5 0.054940 0.428134 0.237453
Si Si6 0.686653 0.428665 0.380023
Si Si7 0.191536 0.069685 0.379305
Si Si8 0.733297 0.572469 0.776615
O O1 0.514266 0.750000 0.260060
O O2 0.589432 0.516780 0.280288
O O3 0.717080 0.515938 0.118901
O O4 0.356179 0.490456 0.327946
O O5 0.275960 0.750000 0.767131
O O6 0.280485 0.525345 0.696709
O O7 0.049927 0.511680 0.897155
O O8 0.157857 0.250000 0.000436
O O9 0.259250 0.005190 0.993929
O O10 0.358354 0.250000 0.993490
O O11 0.554925 0.492948 0.895933
O O12 0.223126 0.492979 0.113068
O O13 0.047458 0.250000 0.231439
O O14 0.092833 0.466443 0.277630
O O15 0.857068 0.495939 0.323964
O O16 0.500000 0.500000 0.500000
O O17 0.671876 0.250000 0.393849
O O18 0.181718 0.250000 0.387617
O O19 0.222899 0.012087 0.303945
O O20 0.000000 0.000000 0.500000
O O21 0.693570 0.750000 0.796652
#
# Coordination Sequence:
#
# PCOD8068450 Si02
#       8
#     4   4   4   4   4   4   4   4
#     4  11  22  37  59  87 116 147 187 236 287 342
#     4  10  20  37  59  84 115 152 192 233 282 342
#     4   9  17  32  57  85 113 147 186 227 279 342
#     4  10  17  32  59  85 112 149 184 220 273 341
#     4   9  18  35  59  83 111 149 185 220 277 341
#     4  10  21  38  59  81 110 150 193 236 279 333
#     4  11  24  41  59  81 113 153 194 239 285 333
#     4  10  21  36  56  86 117 145 181 229 281 332
#
# _framework density 19.581240999999999
#
# number of rings (size 3 to 8) (size 9 to 14) (size 15 to 20)
#    0.000    2.000    2.500    1.500    0.000    2.000 
#    0.000    3.750    0.000    0.000    0.000    0.000 
#    0.000    0.000    0.000    0.000    0.000    0.000 
#
# Total GULP energy -396816.967953 kJ/mol
# GULP energy per Si atom -12400.530249 kJ/mol
# Density = 1.953667 g / cm^3
# Si number density = 19.581241 Si / 1000 Ang^3
#
#
#
# Elastic Constant Matrix: (Units=GPa)
#
#
# Indices 1 2 3 4 5 6 
#
# 1 157.4558 32.3992 62.3326 0.0000 -21.4069 0.0000
# 2 32.3992 33.7750 29.9794 0.0000 -5.9572 0.0000
# 3 62.3326 29.9794 139.1763 0.0000 -26.9425 0.0000
# 4 0.0000 0.0000 0.0000 29.8302 0.0000 -3.4951
# 5 -21.4069 -5.9572 -26.9425 0.0000 21.4079 0.0000
# 6 0.0000 0.0000 0.0000 -3.4951 0.0000 21.9260
#
#
#
# Elastic Compliance Matrix: (Units=1/GPa)
#
#
# Indices 1 2 3 4 5 6 
#
# 1 0.009001 -0.006223 -0.001697 0.000000 0.005133 0.000000
# 2 -0.006223 0.040911 -0.006645 0.000000 -0.003201 0.000000
# 3 -0.001697 -0.006645 0.011489 0.000000 0.010913 0.000000
# 4 0.000000 0.000000 0.000000 0.034161 0.000000 0.005445
# 5 0.005133 -0.003201 0.010913 0.000000 0.064689 0.000000
# 6 0.000000 0.000000 0.000000 0.005445 0.000000 0.046476
#
#
# Mechanical properties :
#
#
# Convention : Reuss Voigt Hill
#
# Bulk Modulus (GPa) = 30.98759 64.42551 47.70655
# Shear Modulus (GPa) = 20.27459 28.34588 24.31024
#
# Velocity S-wave (km/s) = 3.22127 3.80887 3.52732
# Velocity P-wave (km/s) = 5.44930 7.23300 6.40356
#
# Compressibility (1/GPa) = 0.03227098
#
# Stress axis : x y z
#
# Youngs Moduli (GPa) = 111.09666 24.44352 87.03703
#
# Poissons Ratio (x) = 0.15210 0.14772
# Poissons Ratio (y) = 0.69131 0.57838
# Poissons Ratio (z) = 0.18856 0.16243
#
# Static dielectric constant tensor:
#      x y z
#    x 3.831460 0.000000 -0.040010 
#    y 0.000000 3.215660 0.000000 
#    z -0.040010 0.000000 3.641390 
# 
# 
# High freq. dielectric constant tensor:
#      x y z
#    x 1.781460 0.000000 -0.002130 
#    y 0.000000 1.730880 0.000000 
#    z -0.002130 0.000000 1.762540 
# 
# From -- ./inp_files/55721.got.cif
#   From: 2010.06.25/outbox.cif.g09.slc.cpg/sg11_28_cif.got.tgz:55721.got - 2010.06.27 23:14:04.
