data_PCOD8068833
_publ_section_title
;
Structure prediction by ZEFSAII (Michael W. Deem and Ramdas Pophale) SiO2 
 PCOD8068833
Probable space group: P 21/M
;
_chemical_formula_sum "Si O2"
_cell_formula_units_Z 24
_cell_length_a 19.956054
_cell_length_b 8.707862
_cell_length_c 11.527096
_cell_angle_alpha 90.000000
_cell_angle_beta 43.136316
_cell_angle_gamma 90.000000
_cell_volume 1369.603457
_symmetry_space_group_name_H-M "P 21/M"
_symmetry_group_IT_number 11
_symmetry_cell_setting 'monoclinic'
loop_
_space_group_symop_operation_xyz
x,y,z
-x,1/2+y,-z
-x,-y,-z
x,1/2-y,z
loop_
_atom_site_type_symbol
_atom_site_label
_atom_site_fract_x
_atom_site_fract_y
_atom_site_fract_z
Si Si1 0.642403 0.930767 0.770027
Si Si2 0.211399 0.931979 0.824134
Si Si3 0.820923 0.932177 0.386518
Si Si4 0.442897 0.568515 0.906258
Si Si5 0.586185 0.431385 0.315759
Si Si6 0.983678 0.932704 0.893537
O O1 0.637897 0.750000 0.790157
O O2 0.742025 0.982900 0.581941
O O3 0.550496 0.989234 0.809406
O O4 0.638861 0.004884 0.902048
O O5 0.199339 0.750000 0.831966
O O6 0.310294 0.983347 0.762629
O O7 0.213171 0.000467 0.693146
O O8 0.121791 0.002552 0.013938
O O9 0.829380 0.750000 0.363836
O O10 0.925250 0.002886 0.297042
O O11 0.436276 0.750000 0.915100
O O12 0.421357 0.503520 0.805410
O O13 0.500000 0.500000 0.500000
O O14 0.574809 0.250000 0.331167
O O15 0.983676 0.750000 0.893162
O O16 0.000000 0.000000 0.000000
#
# Coordination Sequence:
#
# PCOD8068833 Si02
#       6
#     4   4   4   4   4   4
#     4   9  18  31  49  71  94 123 157 194 235 278
#     4  10  19  31  47  70  99 128 159 193 235 283
#     4  10  18  30  49  72  98 125 157 197 239 282
#     4   9  18  33  49  68  96 126 157 192 233 278
#     4  10  21  34  50  72  98 129 160 193 233 281
#     4  10  18  29  46  69  96 125 158 195 238 282
#
# _framework density 17.523320999999999
#
# number of rings (size 3 to 8) (size 9 to 14) (size 15 to 20)
#    0.000    2.333    0.000    5.500    0.000    4.667 
#    0.000    3.333    0.000    1.000    0.000    0.000 
#    0.000    0.000    0.000    0.000    0.000    0.000 
#
# Total GULP energy -297551.017170 kJ/mol
# GULP energy per Si atom -12397.959049 kJ/mol
# Density = 1.748344 g / cm^3
# Si number density = 17.523321 Si / 1000 Ang^3
#
#
#
# Elastic Constant Matrix: (Units=GPa)
#
#
# Indices 1 2 3 4 5 6 
#
# 1 108.3850 33.7438 82.6383 0.0000 -8.9487 0.0000
# 2 33.7438 66.8539 49.2635 0.0000 -9.7425 0.0000
# 3 82.6383 49.2635 175.8991 0.0000 -15.1401 0.0000
# 4 0.0000 0.0000 0.0000 32.6515 0.0000 -2.5178
# 5 -8.9487 -9.7425 -15.1401 0.0000 31.8944 0.0000
# 6 0.0000 0.0000 0.0000 -2.5178 0.0000 21.1947
#
#
#
# Elastic Compliance Matrix: (Units=1/GPa)
#
#
# Indices 1 2 3 4 5 6 
#
# 1 0.014831 -0.002925 -0.006117 0.000000 0.000364 0.000000
# 2 -0.002925 0.019783 -0.003875 0.000000 0.003383 0.000000
# 3 -0.006117 -0.003875 0.009795 0.000000 0.001750 0.000000
# 4 0.000000 0.000000 0.000000 0.030910 0.000000 0.003672
# 5 0.000364 0.003383 0.001750 0.000000 0.033319 0.000000
# 6 0.000000 0.000000 0.000000 0.003672 0.000000 0.047618
#
#
# Mechanical properties :
#
#
# Convention : Reuss Voigt Hill
#
# Bulk Modulus (GPa) = 53.83890 75.82547 64.83218
# Shear Modulus (GPa) = 26.55591 29.51427 28.03509
#
# Velocity S-wave (km/s) = 3.89712 4.10846 4.00418
# Velocity P-wave (km/s) = 7.14429 8.11610 7.64565
#
# Compressibility (1/GPa) = 0.01857393
#
# Stress axis : x y z
#
# Youngs Moduli (GPa) = 67.42545 50.54875 102.09460
#
# Poissons Ratio (x) = 0.14787 0.62453
# Poissons Ratio (y) = 0.19723 0.39563
# Poissons Ratio (z) = 0.41245 0.19588
#
# Static dielectric constant tensor:
#      x y z
#    x 3.360400 0.000000 -0.446280 
#    y 0.000000 3.151560 0.000000 
#    z -0.446280 0.000000 3.435460 
# 
# 
# High freq. dielectric constant tensor:
#      x y z
#    x 1.651640 0.000000 -0.020300 
#    y 0.000000 1.681960 0.000000 
#    z -0.020300 0.000000 1.683860 
# 
# From -- ./inp_files/42250.got.cif
#   From: 2010.06.25/outbox.cif.g09.slc.cpg/sg11_22_cif.got.tgz:42250.got - 2010.06.27 23:14:04.
