data_PCOD8068334
_publ_section_title
;
Structure prediction by ZEFSAII (Michael W. Deem and Ramdas Pophale) SiO2 
 PCOD8068334
Probable space group: P 21/M
;
_chemical_formula_sum "Si O2"
_cell_formula_units_Z 28
_cell_length_a 14.079642
_cell_length_b 20.506953
_cell_length_c 7.909364
_cell_angle_alpha 90.000000
_cell_angle_beta 137.676431
_cell_angle_gamma 90.000000
_cell_volume 1537.636583
_symmetry_space_group_name_H-M "P 21/M"
_symmetry_group_IT_number 11
_symmetry_cell_setting 'monoclinic'
loop_
_space_group_symop_operation_xyz
x,y,z
-x,1/2+y,-z
-x,-y,-z
x,1/2-y,z
loop_
_atom_site_type_symbol
_atom_site_label
_atom_site_fract_x
_atom_site_fract_y
_atom_site_fract_z
Si Si1 0.378391 0.095038 0.131313
Si Si2 0.326593 0.537212 0.553591
Si Si3 0.009711 0.593024 0.653446
Si Si4 0.786976 0.010386 0.264969
Si Si5 0.739903 0.897034 0.674835
Si Si6 0.751499 0.826459 0.334888
Si Si7 0.043545 0.574029 0.063788
O O1 0.541212 0.075461 0.344727
O O2 0.347287 0.126797 0.274801
O O3 0.353383 0.145596 0.945814
O O4 0.277676 0.031080 0.975624
O O5 0.341745 0.524144 0.775120
O O6 0.305787 0.471366 0.419963
O O7 0.186019 0.583150 0.358808
O O8 0.903394 0.531193 0.520550
O O9 0.912330 0.656117 0.487216
O O10 0.137505 0.577838 0.692922
O O11 0.081411 0.601258 0.928642
O O12 0.711672 0.855380 0.467447
O O13 0.904288 0.888249 0.947007
O O14 0.732379 0.750000 0.318693
O O15 0.000000 0.500000 0.000000
#
# Coordination Sequence:
#
# PCOD8068334 Si02
#       7
#     4   4   4   4   4   4   4
#     4  11  22  34  55  87 117 146 178 221 282 337
#     4  11  19  31  52  88 122 143 172 220 281 351
#     4   9  17  30  51  80 105 142 180 224 276 316
#     4  10  17  28  52  81 118 142 168 221 282 331
#     4  10  20  35  55  81 111 146 181 225 280 324
#     4  10  22  40  58  77 105 145 198 235 259 320
#     4   9  15  29  46  76 110 140 172 210 266 328
#
# _framework density 18.209765999999998
#
# number of rings (size 3 to 8) (size 9 to 14) (size 15 to 20)
#    0.000    2.000    5.714    2.571    4.000    0.571 
#    0.000    0.000    0.000    4.286    0.000    0.000 
#    0.000    0.000    0.000    0.000    0.000    0.000 
#
# Total GULP energy -346888.301059 kJ/mol
# GULP energy per Si atom -12388.867895 kJ/mol
# Density = 1.816832 g / cm^3
# Si number density = 18.209766 Si / 1000 Ang^3
#
#
#
# Elastic Constant Matrix: (Units=GPa)
#
#
# Indices 1 2 3 4 5 6 
#
# 1 129.1431 37.9120 45.0133 0.0000 -4.8636 0.0000
# 2 37.9120 71.4263 41.4043 0.0000 2.7610 0.0000
# 3 45.0133 41.4043 74.5663 0.0000 2.5801 0.0000
# 4 0.0000 0.0000 0.0000 9.6348 0.0000 1.0569
# 5 -4.8636 2.7610 2.5801 0.0000 27.8639 0.0000
# 6 0.0000 0.0000 0.0000 1.0569 0.0000 15.0173
#
#
#
# Elastic Compliance Matrix: (Units=1/GPa)
#
#
# Indices 1 2 3 4 5 6 
#
# 1 0.010323 -0.002822 -0.004752 0.000000 0.002522 0.000000
# 2 -0.002822 0.021445 -0.010146 0.000000 -0.001678 0.000000
# 3 -0.004752 -0.010146 0.021977 0.000000 -0.001859 0.000000
# 4 0.000000 0.000000 0.000000 0.104598 0.000000 -0.007362
# 5 0.002522 -0.001678 -0.001859 0.000000 0.036667 0.000000
# 6 0.000000 0.000000 0.000000 -0.007362 0.000000 0.067108
#
#
# Mechanical properties :
#
#
# Convention : Reuss Voigt Hill
#
# Bulk Modulus (GPa) = 54.62883 58.19942 56.41412
# Shear Modulus (GPa) = 16.46578 20.55694 18.51136
#
# Velocity S-wave (km/s) = 3.01030 3.36355 3.19182
# Velocity P-wave (km/s) = 6.49210 6.86400 6.68064
#
# Compressibility (1/GPa) = 0.01830535
#
# Stress axis : x y z
#
# Youngs Moduli (GPa) = 96.87000 46.63178 45.50139
#
# Poissons Ratio (x) = 0.13161 0.21622
# Poissons Ratio (y) = 0.27339 0.46164
# Poissons Ratio (z) = 0.46031 0.47311
#
# Static dielectric constant tensor:
#      x y z
#    x 3.411660 0.000000 0.055500 
#    y 0.000000 2.851370 0.000000 
#    z 0.055500 0.000000 3.403820 
# 
# 
# High freq. dielectric constant tensor:
#      x y z
#    x 1.713190 0.000000 -0.010500 
#    y 0.000000 1.633260 0.000000 
#    z -0.010500 0.000000 1.707150 
# 
# From -- ./inp_files/22760.got.cif
#   From: 2010.06.25/outbox.cif.g09.slc.cpg/sg11_12_cif.got.tgz:22760.got - 2010.06.27 23:14:04.
