data_PCOD8068525
_publ_section_title
;
Structure prediction by ZEFSAII (Michael W. Deem and Ramdas Pophale) SiO2 
 PCOD8068525
Probable space group: P 21/M
;
_chemical_formula_sum "Si O2"
_cell_formula_units_Z 32
_cell_length_a 16.081905
_cell_length_b 8.882855
_cell_length_c 18.587858
_cell_angle_alpha 90.000000
_cell_angle_beta 54.490700
_cell_angle_gamma 90.000000
_cell_volume 2161.499572
_symmetry_space_group_name_H-M "P 21/M"
_symmetry_group_IT_number 11
_symmetry_cell_setting 'monoclinic'
loop_
_space_group_symop_operation_xyz
x,y,z
-x,1/2+y,-z
-x,-y,-z
x,1/2-y,z
loop_
_atom_site_type_symbol
_atom_site_label
_atom_site_fract_x
_atom_site_fract_y
_atom_site_fract_z
Si Si1 0.402183 0.572898 0.513328
Si Si2 0.408149 0.923648 0.085256
Si Si3 0.715183 0.427441 0.981587
Si Si4 0.119480 0.925572 0.864371
Si Si5 0.474735 0.428091 0.841770
Si Si6 0.285680 0.428571 0.687908
Si Si7 0.480679 0.426213 0.678754
Si Si8 0.882898 0.574604 0.985528
O O1 0.500000 0.500000 0.500000
O O2 0.398845 0.750000 0.530490
O O3 0.302659 0.494142 0.598317
O O4 0.417245 0.539799 0.420145
O O5 0.426001 0.750000 0.063601
O O6 0.420782 0.961817 0.164119
O O7 0.304461 0.967679 0.093964
O O8 0.500000 0.000000 0.000000
O O9 0.728153 0.250000 0.987469
O O10 0.622226 0.486384 0.077040
O O11 0.819144 0.510938 0.950647
O O12 0.144810 0.750000 0.850958
O O13 0.000772 0.958846 0.909950
O O14 0.179487 0.008098 0.770636
O O15 0.153894 0.992029 0.923643
O O16 0.450655 0.250000 0.853560
O O17 0.494579 0.493217 0.751755
O O18 0.280902 0.250000 0.685823
O O19 0.377745 0.489175 0.692614
O O20 0.464518 0.250000 0.693408
O O21 0.861295 0.750000 0.006929
#
# Coordination Sequence:
#
# PCOD8068525 Si02
#       8
#     4   4   4   4   4   4   4   4
#     4   9  16  27  40  56  79 106 137 171 204 238
#     4   8  15  25  38  56  78 104 134 168 202 238
#     4  10  18  27  39  58  82 108 139 170 201 237
#     4  10  20  32  45  61  80 103 134 172 206 235
#     4   9  15  26  42  58  79 108 139 170 205 240
#     4  10  18  28  42  60  82 109 138 164 198 244
#     4   8  15  25  39  58  78 103 135 166 194 232
#     4  10  20  32  44  59  80 107 137 167 202 241
#
# _framework density 14.804537
#
# number of rings (size 3 to 8) (size 9 to 14) (size 15 to 20)
#    0.000    2.750    0.000    3.375    0.000    3.000 
#    0.000    3.125    0.000    0.000    0.000    0.000 
#    0.000    1.000    0.000    2.000    0.000    2.625 
#
# Total GULP energy -396426.304895 kJ/mol
# GULP energy per Si atom -12388.322028 kJ/mol
# Density = 1.477084 g / cm^3
# Si number density = 14.804537 Si / 1000 Ang^3
#
#
#
# Elastic Constant Matrix: (Units=GPa)
#
#
# Indices 1 2 3 4 5 6 
#
# 1 85.4999 28.2305 33.5836 0.0000 10.9955 0.0000
# 2 28.2305 59.8345 32.7607 0.0000 -1.1245 0.0000
# 3 33.5836 32.7607 91.0711 0.0000 5.0026 0.0000
# 4 0.0000 0.0000 0.0000 22.3022 0.0000 -2.0923
# 5 10.9955 -1.1245 5.0026 0.0000 17.8186 0.0000
# 6 0.0000 0.0000 0.0000 -2.0923 0.0000 18.5740
#
#
#
# Elastic Compliance Matrix: (Units=1/GPa)
#
#
# Indices 1 2 3 4 5 6 
#
# 1 0.016188 -0.006016 -0.003287 0.000000 -0.009446 0.000000
# 2 -0.006016 0.023261 -0.006534 0.000000 0.007015 0.000000
# 3 -0.003287 -0.006534 0.014681 0.000000 -0.002506 0.000000
# 4 0.000000 0.000000 0.000000 0.045318 0.000000 0.005105
# 5 -0.009446 0.007015 -0.002506 0.000000 0.063097 0.000000
# 6 0.000000 0.000000 0.000000 0.005105 0.000000 0.054414
#
#
# Mechanical properties :
#
#
# Convention : Reuss Voigt Hill
#
# Bulk Modulus (GPa) = 44.53196 47.28390 45.90793
# Shear Modulus (GPa) = 19.52244 21.19434 20.35839
#
# Velocity S-wave (km/s) = 3.63530 3.78777 3.71232
# Velocity P-wave (km/s) = 6.91128 7.15106 7.03219
#
# Compressibility (1/GPa) = 0.02245578
#
# Stress axis : x y z
#
# Youngs Moduli (GPa) = 61.77438 42.99125 68.11681
#
# Poissons Ratio (x) = 0.25862 0.22387
# Poissons Ratio (y) = 0.37161 0.44510
# Poissons Ratio (z) = 0.20303 0.28092
#
# Static dielectric constant tensor:
#      x y z
#    x 3.119390 0.000000 0.347000 
#    y 0.000000 2.880390 0.000000 
#    z 0.347000 0.000000 3.072690 
# 
# 
# High freq. dielectric constant tensor:
#      x y z
#    x 1.543540 0.000000 0.014660 
#    y 0.000000 1.573680 0.000000 
#    z 0.014660 0.000000 1.547340 
# 
# From -- ./inp_files/65934.got.cif
#   From: 2010.06.25/outbox.cif.g09.slc.cpg/sg11_33_cif.got.tgz:65934.got - 2010.06.27 23:14:04.
