data_PCOD8068449
_publ_section_title
;
Structure prediction by ZEFSAII (Michael W. Deem and Ramdas Pophale) SiO2 
 PCOD8068449
Probable space group: P 21/M
;
_chemical_formula_sum "Si O2"
_cell_formula_units_Z 28
_cell_length_a 8.806496
_cell_length_b 18.968243
_cell_length_c 16.778894
_cell_angle_alpha 90.000000
_cell_angle_beta 31.744916
_cell_angle_gamma 90.000000
_cell_volume 1474.665883
_symmetry_space_group_name_H-M "P 21/M"
_symmetry_group_IT_number 11
_symmetry_cell_setting 'monoclinic'
loop_
_space_group_symop_operation_xyz
x,y,z
-x,1/2+y,-z
-x,-y,-z
x,1/2-y,z
loop_
_atom_site_type_symbol
_atom_site_label
_atom_site_fract_x
_atom_site_fract_y
_atom_site_fract_z
Si Si1 0.311420 0.409407 0.142982
Si Si2 0.083227 0.956620 0.081711
Si Si3 0.613470 0.670317 0.050309
Si Si4 0.736622 0.911423 0.662395
Si Si5 0.887766 0.103033 0.096446
Si Si6 0.827682 0.428958 0.661938
Si Si7 0.828009 0.978734 0.347915
O O1 0.239922 0.373395 0.261406
O O2 0.032288 0.453554 0.241344
O O3 0.587653 0.460453 0.032710
O O4 0.387121 0.352198 0.042066
O O5 0.048084 0.900133 0.026938
O O6 0.998267 0.033442 0.090357
O O7 0.874600 0.931704 0.247452
O O8 0.499090 0.750000 0.105234
O O9 0.416192 0.621712 0.194823
O O10 0.937418 0.667332 0.941944
O O11 0.455337 0.885685 0.739063
O O12 0.022489 0.895139 0.483381
O O13 0.693710 0.995603 0.697767
O O14 0.081919 0.437657 0.613135
O O15 0.500000 0.000000 0.500000
#
# Coordination Sequence:
#
# PCOD8068449 Si02
#       7
#     4   4   4   4   4   4   4
#     4  10  20  36  55  83 115 148 190 224 285 340
#     4  10  17  32  57  85 111 144 176 250 295 342
#     4  12  24  39  57  78 116 164 202 227 267 350
#     4   9  20  36  63  90 115 141 179 256 302 349
#     4  10  19  32  57  84 111 142 194 233 295 330
#     4  10  20  36  57  93 121 143 186 232 312 347
#     4  11  19  28  57  91 118 137 174 242 302 341
#
# _framework density 18.987352000000001
#
# number of rings (size 3 to 8) (size 9 to 14) (size 15 to 20)
#    0.000    1.714    2.857    4.714    0.000    2.286 
#    0.000    4.286    0.000    0.000    0.000    0.000 
#    0.000    0.000    0.000    0.000    0.000    0.000 
#
# Total GULP energy -347048.074559 kJ/mol
# GULP energy per Si atom -12394.574091 kJ/mol
# Density = 1.894414 g / cm^3
# Si number density = 18.987352 Si / 1000 Ang^3
#
#
#
# Elastic Constant Matrix: (Units=GPa)
#
#
# Indices 1 2 3 4 5 6 
#
# 1 104.5163 17.1121 52.2034 0.0000 3.2195 0.0000
# 2 17.1121 46.5025 19.4316 0.0000 5.9927 0.0000
# 3 52.2034 19.4316 129.3564 0.0000 14.8751 0.0000
# 4 0.0000 0.0000 0.0000 11.7767 0.0000 1.0712
# 5 3.2195 5.9927 14.8751 0.0000 41.7558 0.0000
# 6 0.0000 0.0000 0.0000 1.0712 0.0000 15.5571
#
#
#
# Elastic Compliance Matrix: (Units=1/GPa)
#
#
# Indices 1 2 3 4 5 6 
#
# 1 0.012322 -0.002717 -0.004693 0.000000 0.001111 0.000000
# 2 -0.002717 0.023731 -0.002191 0.000000 -0.002416 0.000000
# 3 -0.004693 -0.002191 0.010297 0.000000 -0.002992 0.000000
# 4 0.000000 0.000000 0.000000 0.085449 0.000000 -0.005884
# 5 0.001111 -0.002416 -0.002992 0.000000 0.025276 0.000000
# 6 0.000000 0.000000 0.000000 -0.005884 0.000000 0.064685
#
#
# Mechanical properties :
#
#
# Convention : Reuss Voigt Hill
#
# Bulk Modulus (GPa) = 36.83153 50.87438 43.85295
# Shear Modulus (GPa) = 19.99927 26.59312 23.29619
#
# Velocity S-wave (km/s) = 3.24897 3.74648 3.50656
# Velocity P-wave (km/s) = 5.78917 6.75032 6.28813
#
# Compressibility (1/GPa) = 0.02715065
#
# Stress axis : x y z
#
# Youngs Moduli (GPa) = 81.15407 42.13962 97.11147
#
# Poissons Ratio (x) = 0.11448 0.45570
# Poissons Ratio (y) = 0.22048 0.21273
# Poissons Ratio (z) = 0.38082 0.09231
#
# Static dielectric constant tensor:
#      x y z
#    x 4.030640 0.000000 0.279440 
#    y 0.000000 2.829770 0.000000 
#    z 0.279440 0.000000 3.702020 
# 
# 
# High freq. dielectric constant tensor:
#      x y z
#    x 1.765710 0.000000 0.011430 
#    y 0.000000 1.654150 0.000000 
#    z 0.011430 0.000000 1.751420 
# 
# From -- ./inp_files/58378.got.cif
#   From: 2010.06.25/outbox.cif.g09.slc.cpg/sg11_30_cif.got.tgz:58378.got - 2010.06.27 23:14:04.
