data_PCOD8068511
_publ_section_title
;
Structure prediction by ZEFSAII (Michael W. Deem and Ramdas Pophale) SiO2 
 PCOD8068511
Probable space group: P 21/M
;
_chemical_formula_sum "Si O2"
_cell_formula_units_Z 28
_cell_length_a 17.147501
_cell_length_b 9.451317
_cell_length_c 13.483554
_cell_angle_alpha 90.000000
_cell_angle_beta 125.844188
_cell_angle_gamma 90.000000
_cell_volume 1771.376225
_symmetry_space_group_name_H-M "P 21/M"
_symmetry_group_IT_number 11
_symmetry_cell_setting 'monoclinic'
loop_
_space_group_symop_operation_xyz
x,y,z
-x,1/2+y,-z
-x,-y,-z
x,1/2-y,z
loop_
_atom_site_type_symbol
_atom_site_label
_atom_site_fract_x
_atom_site_fract_y
_atom_site_fract_z
Si Si1 0.936883 0.086085 0.152526
Si Si2 0.597259 0.914544 0.689830
Si Si3 0.793319 0.588688 0.564286
Si Si4 0.104176 0.587726 0.199052
Si Si5 0.026569 0.411687 0.424734
Si Si6 0.230775 0.590793 0.103804
Si Si7 0.414934 0.410594 0.549253
O O1 0.965164 0.250000 0.157485
O O2 0.958020 0.042392 0.282011
O O3 0.824395 0.060761 0.041686
O O4 0.003139 0.993594 0.129011
O O5 0.592518 0.750000 0.711719
O O6 0.613669 0.944481 0.585905
O O7 0.683411 0.981022 0.817581
O O8 0.497078 0.984950 0.649659
O O9 0.809254 0.750000 0.614319
O O10 0.819091 0.480895 0.669827
O O11 0.861228 0.561287 0.519703
O O12 0.680475 0.566136 0.454647
O O13 0.087883 0.750000 0.217528
O O14 0.146840 0.573836 0.121644
O O15 0.008424 0.250000 0.439072
O O16 0.000000 0.500000 0.500000
O O17 0.273565 0.750000 0.138532
O O18 0.453261 0.250000 0.585830
#
# Coordination Sequence:
#
# PCOD8068511 Si02
#       7
#     4   4   4   4   4   4   4
#     4   9  19  33  46  61  87 123 154 181 220 276
#     4  10  19  28  43  65  91 123 156 190 223 255
#     4   9  17  31  48  65  89 124 155 181 221 274
#     4  10  18  26  41  66  91 117 151 190 220 252
#     4   9  18  32  50  69  90 114 146 186 229 273
#     4  10  19  30  43  62  90 124 157 184 217 262
#     4   9  17  30  45  62  88 123 158 187 218 261
#
# _framework density 15.806919000000001
#
# number of rings (size 3 to 8) (size 9 to 14) (size 15 to 20)
#    0.000    2.571    1.429    2.143    0.000    4.571 
#    0.000    0.000    0.000    0.000    0.000    1.000 
#    0.000    0.000    0.000    0.000    0.000    0.000 
#
# Total GULP energy -347107.235743 kJ/mol
# GULP energy per Si atom -12396.686991 kJ/mol
# Density = 1.577094 g / cm^3
# Si number density = 15.806919 Si / 1000 Ang^3
#
#
#
# Elastic Constant Matrix: (Units=GPa)
#
#
# Indices 1 2 3 4 5 6 
#
# 1 73.0218 42.7360 51.4491 0.0000 10.1797 0.0000
# 2 42.7360 91.2683 57.7764 0.0000 13.4036 0.0000
# 3 51.4491 57.7764 97.2268 0.0000 19.6365 0.0000
# 4 0.0000 0.0000 0.0000 25.8261 0.0000 4.8049
# 5 10.1797 13.4036 19.6365 0.0000 23.0081 0.0000
# 6 0.0000 0.0000 0.0000 4.8049 0.0000 25.3256
#
#
#
# Elastic Compliance Matrix: (Units=1/GPa)
#
#
# Indices 1 2 3 4 5 6 
#
# 1 0.023159 -0.004969 -0.009445 0.000000 0.000710 0.000000
# 2 -0.004969 0.018679 -0.008116 0.000000 -0.001757 0.000000
# 3 -0.009445 -0.008116 0.022120 0.000000 -0.009972 0.000000
# 4 0.000000 0.000000 0.000000 0.040137 0.000000 -0.007615
# 5 0.000710 -0.001757 -0.009972 0.000000 0.052683 0.000000
# 6 0.000000 0.000000 0.000000 -0.007615 0.000000 0.040930
#
#
# Mechanical properties :
#
#
# Convention : Reuss Voigt Hill
#
# Bulk Modulus (GPa) = 52.91630 62.82665 57.87147
# Shear Modulus (GPa) = 20.07494 22.13566 21.10530
#
# Velocity S-wave (km/s) = 3.56759 3.74622 3.65799
# Velocity P-wave (km/s) = 7.10771 7.65146 7.38459
#
# Compressibility (1/GPa) = 0.01889777
#
# Stress axis : x y z
#
# Youngs Moduli (GPa) = 43.18067 53.53651 45.20805
#
# Poissons Ratio (x) = 0.26601 0.42700
# Poissons Ratio (y) = 0.21456 0.36689
# Poissons Ratio (z) = 0.40785 0.43448
#
# Static dielectric constant tensor:
#      x y z
#    x 2.790990 0.000000 0.218280 
#    y 0.000000 3.078190 0.000000 
#    z 0.218280 0.000000 2.944950 
# 
# 
# High freq. dielectric constant tensor:
#      x y z
#    x 1.573470 0.000000 0.025010 
#    y 0.000000 1.616210 0.000000 
#    z 0.025010 0.000000 1.590510 
# 
# From -- ./inp_files/50969.got.cif
#   From: 2010.06.25/outbox.cif.g09.slc.cpg/sg11_26_cif.got.tgz:50969.got - 2010.06.27 23:14:04.
