data_PCOD8068753
_publ_section_title
;
Structure prediction by ZEFSAII (Michael W. Deem and Ramdas Pophale) SiO2 
 PCOD8068753
Probable space group: P 21/M
;
_chemical_formula_sum "Si O2"
_cell_formula_units_Z 28
_cell_length_a 31.317393
_cell_length_b 9.141846
_cell_length_c 9.560168
_cell_angle_alpha 90.000000
_cell_angle_beta 34.052627
_cell_angle_gamma 90.000000
_cell_volume 1532.630611
_symmetry_space_group_name_H-M "P 21/M"
_symmetry_group_IT_number 11
_symmetry_cell_setting 'monoclinic'
loop_
_space_group_symop_operation_xyz
x,y,z
-x,1/2+y,-z
-x,-y,-z
x,1/2-y,z
loop_
_atom_site_type_symbol
_atom_site_label
_atom_site_fract_x
_atom_site_fract_y
_atom_site_fract_z
Si Si1 0.578359 0.079973 0.315010
Si Si2 0.900775 0.583371 0.861310
Si Si3 0.815638 0.919024 0.655284
Si Si4 0.064268 0.582116 0.511203
Si Si5 0.316590 0.082053 0.768770
Si Si6 0.265605 0.418901 0.599559
Si Si7 0.709165 0.420141 0.741283
O O1 0.562600 0.250000 0.379896
O O2 0.500000 0.000000 0.500000
O O3 0.616326 0.018389 0.353141
O O4 0.632915 0.048830 0.035605
O O5 0.897874 0.750000 0.809710
O O6 0.906567 0.472916 0.717562
O O7 0.972803 0.563178 0.769334
O O8 0.824795 0.548929 0.154303
O O9 0.827178 0.750000 0.587547
O O10 0.897415 0.990092 0.468097
O O11 0.780595 0.996296 0.614895
O O12 0.761841 0.944053 0.935432
O O13 0.089151 0.750000 0.459201
O O14 0.342343 0.250000 0.713253
O O15 0.302774 0.037277 0.646403
O O16 0.281880 0.250000 0.520997
O O17 0.304938 0.518658 0.375640
O O18 0.728854 0.250000 0.682608
#
# Coordination Sequence:
#
# PCOD8068753 Si02
#       7
#     4   4   4   4   4   4   4
#     4  10  21  38  60  84 110 136 170 212 257 311
#     4   9  18  32  48  72 106 142 181 223 268 315
#     4  10  18  33  54  75 103 141 183 224 266 318
#     4  10  18  28  48  76 105 137 179 231 274 309
#     4   9  18  33  56  81 106 138 178 217 256 308
#     4  10  19  35  55  78 108 144 181 216 262 320
#     4  10  22  37  54  81 111 137 172 220 267 312
#
# _framework density 18.269241999999998
#
# number of rings (size 3 to 8) (size 9 to 14) (size 15 to 20)
#    0.000    2.286    1.429    1.714    0.000    4.000 
#    0.000    1.429    0.000    0.000    0.000    0.000 
#    0.000    0.000    0.000    0.000    0.000    0.000 
#
# Total GULP energy -347282.382273 kJ/mol
# GULP energy per Si atom -12402.942224 kJ/mol
# Density = 1.822766 g / cm^3
# Si number density = 18.269242 Si / 1000 Ang^3
#
#
#
# Elastic Constant Matrix: (Units=GPa)
#
#
# Indices 1 2 3 4 5 6 
#
# 1 126.9119 73.6497 57.5269 0.0000 -5.0424 0.0000
# 2 73.6497 115.5998 49.8508 0.0000 -5.7299 0.0000
# 3 57.5269 49.8508 61.8343 0.0000 -1.0979 0.0000
# 4 0.0000 0.0000 0.0000 26.6442 0.0000 -0.5960
# 5 -5.0424 -5.7299 -1.0979 0.0000 32.9311 0.0000
# 6 0.0000 0.0000 0.0000 -0.5960 0.0000 39.5694
#
#
#
# Elastic Compliance Matrix: (Units=1/GPa)
#
#
# Indices 1 2 3 4 5 6 
#
# 1 0.015780 -0.005636 -0.010117 0.000000 0.001098 0.000000
# 2 -0.005636 0.015401 -0.007144 0.000000 0.001578 0.000000
# 3 -0.010117 -0.007144 0.031313 0.000000 -0.001748 0.000000
# 4 0.000000 0.000000 0.000000 0.037544 0.000000 0.000565
# 5 0.001098 0.001578 -0.001748 0.000000 0.030751 0.000000
# 6 0.000000 0.000000 0.000000 0.000565 0.000000 0.025281
#
#
# Mechanical properties :
#
#
# Convention : Reuss Voigt Hill
#
# Bulk Modulus (GPa) = 59.88616 74.04452 66.96534
# Shear Modulus (GPa) = 24.10437 28.05017 26.07727
#
# Velocity S-wave (km/s) = 3.63629 3.92264 3.78218
# Velocity P-wave (km/s) = 7.10500 7.81881 7.47044
#
# Compressibility (1/GPa) = 0.01669835
#
# Stress axis : x y z
#
# Youngs Moduli (GPa) = 63.37181 64.93294 31.93512
#
# Poissons Ratio (x) = 0.36597 0.32310
# Poissons Ratio (y) = 0.35717 0.22815
# Poissons Ratio (z) = 0.64115 0.46390
#
# Static dielectric constant tensor:
#      x y z
#    x 3.404320 0.000000 -0.105190 
#    y 0.000000 3.438050 0.000000 
#    z -0.105190 0.000000 3.115860 
# 
# 
# High freq. dielectric constant tensor:
#      x y z
#    x 1.711380 0.000000 -0.007150 
#    y 0.000000 1.716880 0.000000 
#    z -0.007150 0.000000 1.678560 
# 
# From -- ./inp_files/28446.got.cif
#   From: 2010.06.25/outbox.cif.g09.slc.cpg/sg11_15_cif.got.tgz:28446.got - 2010.06.27 23:14:04.
