data_PCOD8068966
_publ_section_title
;
Structure prediction by ZEFSAII (Michael W. Deem and Ramdas Pophale) SiO2 
 PCOD8068966
Probable space group: P 21/M
;
_chemical_formula_sum "Si O2"
_cell_formula_units_Z 32
_cell_length_a 22.630514
_cell_length_b 9.408494
_cell_length_c 10.578666
_cell_angle_alpha 90.000000
_cell_angle_beta 46.024029
_cell_angle_gamma 90.000000
_cell_volume 1620.896705
_symmetry_space_group_name_H-M "P 21/M"
_symmetry_group_IT_number 11
_symmetry_cell_setting 'monoclinic'
loop_
_space_group_symop_operation_xyz
x,y,z
-x,1/2+y,-z
-x,-y,-z
x,1/2-y,z
loop_
_atom_site_type_symbol
_atom_site_label
_atom_site_fract_x
_atom_site_fract_y
_atom_site_fract_z
Si Si1 0.263444 0.590270 0.970262
Si Si2 0.200789 0.409429 0.520502
Si Si3 0.323989 0.907485 0.470047
Si Si4 0.931313 0.415488 0.432630
Si Si5 0.573555 0.405708 0.931875
Si Si6 0.689321 0.594113 0.886518
Si Si7 0.579891 0.415899 0.431497
Si Si8 0.915322 0.091084 0.748702
O O1 0.278116 0.750000 0.002235
O O2 0.337351 0.546902 0.768637
O O3 0.253050 0.473193 0.094141
O O4 0.171713 0.583564 0.046264
O O5 0.172456 0.250000 0.603316
O O6 0.246085 0.486089 0.572737
O O7 0.124734 0.502862 0.585689
O O8 0.265605 0.393799 0.312531
O O9 0.293871 0.750000 0.560405
O O10 0.362189 0.891336 0.275752
O O11 0.394247 0.961729 0.464054
O O12 0.931289 0.250000 0.396086
O O13 0.900169 0.440625 0.621819
O O14 0.023258 0.477243 0.282048
O O15 0.543360 0.250000 0.020590
O O16 0.612728 0.486106 0.992988
O O17 0.500000 0.500000 0.000000
O O18 0.658176 0.750000 0.974708
O O19 0.500000 0.500000 0.500000
O O20 0.557433 0.250000 0.456853
O O21 0.953190 0.250000 0.705231
#
# Coordination Sequence:
#
# PCOD8068966 Si02
#       8
#     4   4   4   4   4   4   4   4
#     4  10  20  36  56  78 107 144 182 224 272 320
#     4  10  19  32  53  80 110 142 178 218 265 319
#     4   9  20  38  55  74 104 139 178 221 270 323
#     4  10  18  29  50  80 115 149 178 212 265 325
#     4  10  20  33  51  74 103 134 168 217 272 328
#     4  10  20  32  49  76 106 138 176 216 265 321
#     4  10  23  41  60  81 105 141 185 229 274 321
#     4   9  18  31  49  76 113 148 180 218 263 319
#
# _framework density 19.742156999999999
#
# number of rings (size 3 to 8) (size 9 to 14) (size 15 to 20)
#    0.000    2.250    1.250    1.500    1.750    3.500 
#    0.000    0.000    0.000    0.750    0.000    0.000 
#    0.000    0.000    0.000    0.000    0.000    0.000 
#
# Total GULP energy -396517.318245 kJ/mol
# GULP energy per Si atom -12391.166195 kJ/mol
# Density = 1.969722 g / cm^3
# Si number density = 19.742157 Si / 1000 Ang^3
#
#
#
# Elastic Constant Matrix: (Units=GPa)
#
#
# Indices 1 2 3 4 5 6 
#
# 1 122.1631 78.4845 15.8628 0.0000 -21.6020 0.0000
# 2 78.4845 162.4183 27.1610 0.0000 -22.0901 0.0000
# 3 15.8628 27.1610 46.1072 0.0000 -23.1817 0.0000
# 4 0.0000 0.0000 0.0000 17.7514 0.0000 -10.7055
# 5 -21.6020 -22.0901 -23.1817 0.0000 28.5513 0.0000
# 6 0.0000 0.0000 0.0000 -10.7055 0.0000 39.1750
#
#
#
# Elastic Compliance Matrix: (Units=1/GPa)
#
#
# Indices 1 2 3 4 5 6 
#
# 1 0.012757 -0.005592 0.002675 0.000000 0.007497 0.000000
# 2 -0.005592 0.009483 -0.003550 0.000000 0.000224 0.000000
# 3 0.002675 -0.003550 0.038014 0.000000 0.030142 0.000000
# 4 0.000000 0.000000 0.000000 0.067449 0.000000 0.018432
# 5 0.007497 0.000224 0.030142 0.000000 0.065343 0.000000
# 6 0.000000 0.000000 0.000000 0.018432 0.000000 0.030563
#
#
# Mechanical properties :
#
#
# Convention : Reuss Voigt Hill
#
# Bulk Modulus (GPa) = 21.13290 63.74504 42.43897
# Shear Modulus (GPa) = 19.81621 31.04091 25.42856
#
# Velocity S-wave (km/s) = 3.17164 3.96955 3.59281
# Velocity P-wave (km/s) = 4.91326 7.30538 6.22530
#
# Compressibility (1/GPa) = 0.04731959
#
# Stress axis : x y z
#
# Youngs Moduli (GPa) = 78.38976 105.44904 26.30577
#
# Poissons Ratio (x) = 0.58967 -0.07036
# Poissons Ratio (y) = 0.43836 0.09338
# Poissons Ratio (z) = -0.20966 0.37434
#
# Static dielectric constant tensor:
#      x y z
#    x 3.286320 0.000000 -0.043530 
#    y 0.000000 3.962410 0.000000 
#    z -0.043530 0.000000 3.091480 
# 
# 
# High freq. dielectric constant tensor:
#      x y z
#    x 1.765660 0.000000 -0.021050 
#    y 0.000000 1.782150 0.000000 
#    z -0.021050 0.000000 1.724690 
# 
# From -- ./inp_files/42776.got.cif
#   From: 2010.06.25/outbox.cif.g09.slc.cpg/sg11_22_cif.got.tgz:42776.got - 2010.06.27 23:14:04.
