data_PCOD8068627
_publ_section_title
;
Structure prediction by ZEFSAII (Michael W. Deem and Ramdas Pophale) SiO2 
 PCOD8068627
Probable space group: P 21/M
;
_chemical_formula_sum "Si O2"
_cell_formula_units_Z 32
_cell_length_a 11.921557
_cell_length_b 8.831597
_cell_length_c 20.398741
_cell_angle_alpha 90.000000
_cell_angle_beta 65.490051
_cell_angle_gamma 90.000000
_cell_volume 1954.178002
_symmetry_space_group_name_H-M "P 21/M"
_symmetry_group_IT_number 11
_symmetry_cell_setting 'monoclinic'
loop_
_space_group_symop_operation_xyz
x,y,z
-x,1/2+y,-z
-x,-y,-z
x,1/2-y,z
loop_
_atom_site_type_symbol
_atom_site_label
_atom_site_fract_x
_atom_site_fract_y
_atom_site_fract_z
Si Si1 0.131357 0.570057 0.453647
Si Si2 0.606579 0.582164 0.114014
Si Si3 0.680787 0.924892 0.494030
Si Si4 0.629727 0.073552 0.982715
Si Si5 0.547162 0.930396 0.268277
Si Si6 0.716353 0.571491 0.694650
Si Si7 0.313937 0.580999 0.168644
Si Si8 0.593857 0.424993 0.388664
O O1 0.123334 0.750000 0.450770
O O2 0.222967 0.524398 0.489501
O O3 0.175514 0.502092 0.373903
O O4 0.000000 0.500000 0.500000
O O5 0.659844 0.750000 0.093332
O O6 0.626397 0.525016 0.184056
O O7 0.461003 0.578683 0.137486
O O8 0.679232 0.483519 0.041583
O O9 0.721859 0.750000 0.483281
O O10 0.549122 0.945150 0.559868
O O11 0.677548 0.988028 0.421029
O O12 0.608437 0.250000 0.992520
O O13 0.720224 0.035386 0.898732
O O14 0.500000 0.000000 0.000000
O O15 0.531396 0.750000 0.277686
O O16 0.412230 0.002839 0.297934
O O17 0.620299 0.997655 0.312257
O O18 0.713826 0.750000 0.683877
O O19 0.743384 0.534585 0.764733
O O20 0.265301 0.750000 0.196492
O O21 0.632716 0.250000 0.377415
#
# Coordination Sequence:
#
# PCOD8068627 Si02
#       8
#     4   4   4   4   4   4   4   4
#     4  12  24  38  54  69  91 119 150 189 232 275
#     4   8  15  24  34  51  77 108 143 177 215 259
#     4  10  20  34  50  70  93 116 149 186 228 275
#     4   9  15  22  33  49  72 103 140 177 214 255
#     4  10  18  28  42  61  87 119 149 185 227 265
#     4  11  20  30  44  64  85 110 148 187 225 270
#     4   8  15  26  37  52  75 106 141 179 220 259
#     4  10  19  30  48  70  93 119 150 188 228 271
#
# _framework density 16.375170000000001
#
# number of rings (size 3 to 8) (size 9 to 14) (size 15 to 20)
#    0.000    2.250    1.250    5.250    0.000    6.500 
#    0.000    0.000    0.000    0.000    0.000    0.000 
#    0.000    0.000    0.000    1.125    0.000   15.375 
#
# Total GULP energy -396592.823879 kJ/mol
# GULP energy per Si atom -12393.525746 kJ/mol
# Density = 1.633790 g / cm^3
# Si number density = 16.375170 Si / 1000 Ang^3
#
#
#
# Elastic Constant Matrix: (Units=GPa)
#
#
# Indices 1 2 3 4 5 6 
#
# 1 26.6222 22.3006 36.3644 0.0000 8.8515 0.0000
# 2 22.3006 107.3328 58.4961 0.0000 14.2013 0.0000
# 3 36.3644 58.4961 133.1415 0.0000 37.0880 0.0000
# 4 0.0000 0.0000 0.0000 31.1428 0.0000 7.3366
# 5 8.8515 14.2013 37.0880 0.0000 23.4891 0.0000
# 6 0.0000 0.0000 0.0000 7.3366 0.0000 19.3607
#
#
#
# Elastic Compliance Matrix: (Units=1/GPa)
#
#
# Indices 1 2 3 4 5 6 
#
# 1 0.062092 -0.004674 -0.016378 0.000000 0.005288 0.000000
# 2 -0.004674 0.012652 -0.004716 0.000000 0.001559 0.000000
# 3 -0.016378 -0.004716 0.020606 0.000000 -0.023512 0.000000
# 4 0.000000 0.000000 0.000000 0.035258 0.000000 -0.013361
# 5 0.005288 0.001559 -0.023512 0.000000 0.076762 0.000000
# 6 0.000000 0.000000 0.000000 -0.013361 0.000000 0.056714
#
#
# Mechanical properties :
#
#
# Convention : Reuss Voigt Hill
#
# Bulk Modulus (GPa) = 22.82484 55.71318 39.26901
# Shear Modulus (GPa) = 15.14118 24.79419 19.96769
#
# Velocity S-wave (km/s) = 3.04409 3.89541 3.49576
# Velocity P-wave (km/s) = 5.13072 7.37083 6.35033
#
# Compressibility (1/GPa) = 0.04381192
#
# Stress axis : x y z
#
# Youngs Moduli (GPa) = 16.10520 79.03812 48.53014
#
# Poissons Ratio (x) = 0.36946 0.79483
# Poissons Ratio (y) = 0.07528 0.22888
# Poissons Ratio (z) = 0.26377 0.37277
#
# Static dielectric constant tensor:
#      x y z
#    x 2.622520 0.000000 0.482700 
#    y 0.000000 3.223230 0.000000 
#    z 0.482700 0.000000 3.540880 
# 
# 
# High freq. dielectric constant tensor:
#      x y z
#    x 1.558120 0.000000 0.043190 
#    y 0.000000 1.645550 0.000000 
#    z 0.043190 0.000000 1.639840 
# 
# From -- ./inp_files/64180.got.cif
#   From: 2010.06.25/outbox.cif.g09.slc.cpg/sg11_33_cif.got.tgz:64180.got - 2010.06.27 23:14:04.
