data_PCOD8068158
_publ_section_title
;
Structure prediction by ZEFSAII (Michael W. Deem and Ramdas Pophale) SiO2 
 PCOD8068158
Probable space group: P 21/M
;
_chemical_formula_sum "Si O2"
_cell_formula_units_Z 32
_cell_length_a 9.399406
_cell_length_b 18.145843
_cell_length_c 10.530952
_cell_angle_alpha 90.000000
_cell_angle_beta 84.895267
_cell_angle_gamma 90.000000
_cell_volume 1789.036628
_symmetry_space_group_name_H-M "P 21/M"
_symmetry_group_IT_number 11
_symmetry_cell_setting 'monoclinic'
loop_
_space_group_symop_operation_xyz
x,y,z
-x,1/2+y,-z
-x,-y,-z
x,1/2-y,z
loop_
_atom_site_type_symbol
_atom_site_label
_atom_site_fract_x
_atom_site_fract_y
_atom_site_fract_z
Si Si1 0.600954 0.930287 0.478118
Si Si2 0.537442 0.415088 0.011648
Si Si3 0.418036 0.597483 0.268256
Si Si4 0.858538 0.093892 0.982040
Si Si5 0.348362 0.423960 0.252166
Si Si6 0.058699 0.048595 0.166762
Si Si7 0.116910 0.665311 0.280010
Si Si8 0.925282 0.540575 0.390965
O O1 0.531823 0.882127 0.369686
O O2 0.610204 0.888319 0.613957
O O3 0.757980 0.954324 0.425727
O O4 0.500000 0.000000 0.500000
O O5 0.435751 0.383915 0.131739
O O6 0.500000 0.500000 0.000000
O O7 0.516568 0.377335 0.873968
O O8 0.697728 0.397670 0.045726
O O9 0.378604 0.511265 0.260669
O O10 0.273943 0.640936 0.313017
O O11 0.897048 0.152230 0.869861
O O12 0.863301 0.010518 0.929238
O O13 0.970607 0.106367 0.087495
O O14 0.180250 0.410218 0.239026
O O15 0.944551 0.008006 0.264021
O O16 0.091179 0.750000 0.314363
O O17 0.996847 0.620505 0.366520
O O18 0.000000 0.500000 0.500000
#
# Coordination Sequence:
#
# PCOD8068158 Si02
#       8
#     4   4   4   4   4   4   4   4
#     4  10  20  29  47  77 115 144 174 228 283 323
#     4   9  15  25  43  65 103 129 166 207 257 317
#     4   9  17  32  46  75 102 138 180 217 267 321
#     4   9  18  29  46  77 101 135 174 220 266 328
#     4  10  16  29  44  77 110 136 166 216 278 322
#     4  10  17  27  47  75 110 131 168 219 283 310
#     4  10  20  38  57  76 107 146 184 233 283 338
#     4  11  19  33  53  82 114 143 186 234 276 334
#
# _framework density 17.886723
#
# number of rings (size 3 to 8) (size 9 to 14) (size 15 to 20)
#    0.000    2.250    6.250    0.750    5.250    1.000 
#    0.000    0.625    0.000    0.750    0.000    3.500 
#    0.000    0.000    0.000    0.000    0.000    0.000 
#
# Total GULP energy -396551.130025 kJ/mol
# GULP energy per Si atom -12392.222813 kJ/mol
# Density = 1.784601 g / cm^3
# Si number density = 17.886723 Si / 1000 Ang^3
#
#
#
# Elastic Constant Matrix: (Units=GPa)
#
#
# Indices 1 2 3 4 5 6 
#
# 1 143.7301 26.1331 82.5164 0.0000 7.9823 0.0000
# 2 26.1331 45.4133 17.0043 0.0000 -2.8268 0.0000
# 3 82.5164 17.0043 128.4042 0.0000 11.1350 0.0000
# 4 0.0000 0.0000 0.0000 8.6721 0.0000 -1.2602
# 5 7.9823 -2.8268 11.1350 0.0000 48.0411 0.0000
# 6 0.0000 0.0000 0.0000 -1.2602 0.0000 9.9910
#
#
#
# Elastic Compliance Matrix: (Units=1/GPa)
#
#
# Indices 1 2 3 4 5 6 
#
# 1 0.011733 -0.004192 -0.006934 0.000000 -0.000589 0.000000
# 2 -0.004192 0.024880 -0.000804 0.000000 0.002347 0.000000
# 3 -0.006934 -0.000804 0.012506 0.000000 -0.001794 0.000000
# 4 0.000000 0.000000 0.000000 0.117466 0.000000 0.014817
# 5 -0.000589 0.002347 -0.001794 0.000000 0.021467 0.000000
# 6 0.000000 0.000000 0.000000 0.014817 0.000000 0.101959
#
#
# Mechanical properties :
#
#
# Convention : Reuss Voigt Hill
#
# Bulk Modulus (GPa) = 39.59135 63.20616 51.39876
# Shear Modulus (GPa) = 15.51396 26.13375 20.82386
#
# Velocity S-wave (km/s) = 2.94827 3.82654 3.41575
# Velocity P-wave (km/s) = 5.81139 7.41194 6.65992
#
# Compressibility (1/GPa) = 0.02525804
#
# Stress axis : x y z
#
# Youngs Moduli (GPa) = 85.22802 40.19353 79.96241
#
# Poissons Ratio (x) = 0.16850 0.55445
# Poissons Ratio (y) = 0.35730 0.06431
# Poissons Ratio (z) = 0.59096 0.03232
#
# Static dielectric constant tensor:
#      x y z
#    x 3.666250 0.000000 0.332430 
#    y 0.000000 2.610130 0.000000 
#    z 0.332430 0.000000 4.762990 
# 
# 
# High freq. dielectric constant tensor:
#      x y z
#    x 1.705290 0.000000 0.002970 
#    y 0.000000 1.604950 0.000000 
#    z 0.002970 0.000000 1.709630 
# 
# From -- ./inp_files/32497.got.cif
#   From: 2010.06.25/outbox.cif.g09.slc.cpg/sg11_17_cif.got.tgz:32497.got - 2010.06.27 23:14:04.
