data_PCOD8068700
_publ_section_title
;
Structure prediction by ZEFSAII (Michael W. Deem and Ramdas Pophale) SiO2 
 PCOD8068700
Probable space group: P 21/M
;
_chemical_formula_sum "Si O2"
_cell_formula_units_Z 24
_cell_length_a 12.109749
_cell_length_b 9.059376
_cell_length_c 21.430254
_cell_angle_alpha 90.000000
_cell_angle_beta 37.757097
_cell_angle_gamma 90.000000
_cell_volume 1439.579972
_symmetry_space_group_name_H-M "P 21/M"
_symmetry_group_IT_number 11
_symmetry_cell_setting 'monoclinic'
loop_
_space_group_symop_operation_xyz
x,y,z
-x,1/2+y,-z
-x,-y,-z
x,1/2-y,z
loop_
_atom_site_type_symbol
_atom_site_label
_atom_site_fract_x
_atom_site_fract_y
_atom_site_fract_z
Si Si1 0.919009 0.422999 0.337408
Si Si2 0.983827 0.422973 0.941421
Si Si3 0.413994 0.079445 0.480037
Si Si4 0.779625 0.417652 0.261600
Si Si5 0.718838 0.077855 0.839919
Si Si6 0.362556 0.579184 0.981848
O O1 0.922905 0.250000 0.348975
O O2 0.776074 0.498632 0.449226
O O3 0.860987 0.460173 0.292585
O O4 0.113549 0.491672 0.264744
O O5 0.003919 0.250000 0.941593
O O6 0.143400 0.474691 0.824912
O O7 0.000000 0.500000 0.000000
O O8 0.790532 0.464800 0.998893
O O9 0.377582 0.250000 0.512420
O O10 0.561047 0.065428 0.358739
O O11 0.500000 0.000000 0.500000
O O12 0.834161 0.250000 0.220775
O O13 0.740113 0.250000 0.816526
O O14 0.536945 0.019197 0.888603
O O15 0.713162 0.042435 0.915885
O O16 0.417888 0.750000 0.952479
#
# Coordination Sequence:
#
# PCOD8068700 Si02
#       6
#     4   4   4   4   4   4
#     4  10  18  28  45  70  99 130 159 193 238 290
#     4  11  22  35  51  70  95 128 166 204 240 283
#     4   9  17  28  43  66  95 126 159 195 237 288
#     4   9  18  31  46  66  94 127 161 199 239 280
#     4  10  18  29  48  71  96 127 160 196 240 290
#     4   9  19  33  46  67  95 126 161 198 242 286
#
# _framework density 16.671530000000001
#
# number of rings (size 3 to 8) (size 9 to 14) (size 15 to 20)
#    0.000    2.333    1.667    3.000    0.000    5.333 
#    0.000    0.000    0.000    0.000    0.000    1.167 
#    0.000    0.000    0.000    0.000    0.000    0.000 
#
# Total GULP energy -297568.449547 kJ/mol
# GULP energy per Si atom -12398.685398 kJ/mol
# Density = 1.663358 g / cm^3
# Si number density = 16.671530 Si / 1000 Ang^3
#
#
#
# Elastic Constant Matrix: (Units=GPa)
#
#
# Indices 1 2 3 4 5 6 
#
# 1 71.7092 46.2864 47.7721 0.0000 -12.3337 0.0000
# 2 46.2864 110.1893 69.0934 0.0000 -18.8653 0.0000
# 3 47.7721 69.0934 104.9370 0.0000 -29.8327 0.0000
# 4 0.0000 0.0000 0.0000 35.1368 0.0000 -6.8904
# 5 -12.3337 -18.8653 -29.8327 0.0000 26.6804 0.0000
# 6 0.0000 0.0000 0.0000 -6.8904 0.0000 23.8050
#
#
#
# Elastic Compliance Matrix: (Units=1/GPa)
#
#
# Indices 1 2 3 4 5 6 
#
# 1 0.021506 -0.004915 -0.006914 0.000000 -0.001264 0.000000
# 2 -0.004915 0.016588 -0.008790 0.000000 -0.000372 0.000000
# 3 -0.006914 -0.008790 0.023147 0.000000 0.016470 0.000000
# 4 0.000000 0.000000 0.000000 0.030173 0.000000 0.008734
# 5 -0.001264 -0.000372 0.016470 0.000000 0.055050 0.000000
# 6 0.000000 0.000000 0.000000 0.008734 0.000000 0.044536
#
#
# Mechanical properties :
#
#
# Convention : Reuss Voigt Hill
#
# Bulk Modulus (GPa) = 49.99166 68.12659 59.05912
# Shear Modulus (GPa) = 20.92872 25.37001 23.14937
#
# Velocity S-wave (km/s) = 3.54695 3.90520 3.73038
# Velocity P-wave (km/s) = 6.84294 7.82859 7.35230
#
# Compressibility (1/GPa) = 0.02000334
#
# Stress axis : x y z
#
# Youngs Moduli (GPa) = 46.49804 60.28396 43.20210
#
# Poissons Ratio (x) = 0.29631 0.29869
# Poissons Ratio (y) = 0.22855 0.37975
# Poissons Ratio (z) = 0.32147 0.52990
#
# Static dielectric constant tensor:
#      x y z
#    x 2.859450 0.000000 -0.310010 
#    y 0.000000 3.278630 0.000000 
#    z -0.310010 0.000000 3.189860 
# 
# 
# High freq. dielectric constant tensor:
#      x y z
#    x 1.594620 0.000000 -0.035570 
#    y 0.000000 1.658500 0.000000 
#    z -0.035570 0.000000 1.639810 
# 
# From -- ./inp_files/36978.got.cif
#   From: 2010.06.25/outbox.cif.g09.slc.cpg/sg11_19_cif.got.tgz:36978.got - 2010.06.27 23:14:04.
