data_PCOD8068518
_publ_section_title
;
Structure prediction by ZEFSAII (Michael W. Deem and Ramdas Pophale) SiO2 
 PCOD8068518
Probable space group: P 21/M
;
_chemical_formula_sum "Si O2"
_cell_formula_units_Z 28
_cell_length_a 31.314227
_cell_length_b 9.019429
_cell_length_c 9.745967
_cell_angle_alpha 90.000000
_cell_angle_beta 145.342388
_cell_angle_gamma 90.000000
_cell_volume 1565.333438
_symmetry_space_group_name_H-M "P 21/M"
_symmetry_group_IT_number 11
_symmetry_cell_setting 'monoclinic'
loop_
_space_group_symop_operation_xyz
x,y,z
-x,1/2+y,-z
-x,-y,-z
x,1/2-y,z
loop_
_atom_site_type_symbol
_atom_site_label
_atom_site_fract_x
_atom_site_fract_y
_atom_site_fract_z
Si Si1 0.815837 0.917445 0.831981
Si Si2 0.099853 0.077031 0.365718
Si Si3 0.419394 0.926437 0.785429
Si Si4 0.061330 0.578457 0.983255
Si Si5 0.260950 0.074545 0.869082
Si Si6 0.315850 0.420965 0.722863
Si Si7 0.690385 0.574239 0.709004
O O1 0.843276 0.750000 0.920850
O O2 0.764908 0.937485 0.562002
O O3 0.768320 0.966008 0.839304
O O4 0.891092 0.015426 0.018986
O O5 0.107803 0.250000 0.351863
O O6 0.174972 0.015760 0.637924
O O7 0.089939 0.996259 0.196610
O O8 0.027705 0.047420 0.273004
O O9 0.425810 0.750000 0.797605
O O10 0.376502 0.975022 0.810185
O O11 0.377169 0.984753 0.538423
O O12 0.500000 0.000000 0.000000
O O13 0.078539 0.750000 0.041539
O O14 0.257864 0.250000 0.866593
O O15 0.307397 0.023959 0.857593
O O16 0.302650 0.017504 0.116026
O O17 0.342917 0.250000 0.785089
O O18 0.674094 0.750000 0.652238
#
# Coordination Sequence:
#
# PCOD8068518 Si02
#       7
#     4   4   4   4   4   4   4
#     4   9  16  29  48  70 100 134 174 215 254 304
#     4   9  17  30  46  68  98 134 173 217 264 303
#     4  11  22  38  59  82 108 135 165 204 246 299
#     4  10  18  26  43  70  99 132 176 222 260 299
#     4   9  16  32  56  77 101 135 176 215 255 307
#     4   9  17  32  56  81 102 133 174 213 251 300
#     4   9  19  35  56  79 102 135 173 210 255 306
#
# _framework density 17.887563
#
# number of rings (size 3 to 8) (size 9 to 14) (size 15 to 20)
#    0.000    2.571    1.429    2.571    0.000    2.857 
#    0.000    2.857    0.000    0.000    0.000    0.000 
#    0.000    0.000    0.000    0.000    0.000    0.000 
#
# Total GULP energy -347101.879094 kJ/mol
# GULP energy per Si atom -12396.495682 kJ/mol
# Density = 1.784685 g / cm^3
# Si number density = 17.887563 Si / 1000 Ang^3
#
#
#
# Elastic Constant Matrix: (Units=GPa)
#
#
# Indices 1 2 3 4 5 6 
#
# 1 102.1068 39.8886 72.6142 0.0000 -3.8357 0.0000
# 2 39.8886 73.0367 43.6290 0.0000 9.7769 0.0000
# 3 72.6142 43.6290 106.5380 0.0000 -0.2498 0.0000
# 4 0.0000 0.0000 0.0000 20.2564 0.0000 6.4080
# 5 -3.8357 9.7769 -0.2498 0.0000 35.3335 0.0000
# 6 0.0000 0.0000 0.0000 6.4080 0.0000 29.4297
#
#
#
# Elastic Compliance Matrix: (Units=1/GPa)
#
#
# Indices 1 2 3 4 5 6 
#
# 1 0.020060 -0.004278 -0.011913 0.000000 0.003277 0.000000
# 2 -0.004278 0.019994 -0.005286 0.000000 -0.006034 0.000000
# 3 -0.011913 -0.005286 0.019671 0.000000 0.000309 0.000000
# 4 0.000000 0.000000 0.000000 0.053019 0.000000 -0.011544
# 5 0.003277 -0.006034 0.000309 0.000000 0.030329 0.000000
# 6 0.000000 0.000000 0.000000 -0.011544 0.000000 0.036493
#
#
# Mechanical properties :
#
#
# Convention : Reuss Voigt Hill
#
# Bulk Modulus (GPa) = 59.62673 65.99391 62.81032
# Shear Modulus (GPa) = 21.91922 25.37390 23.64656
#
# Velocity S-wave (km/s) = 3.50435 3.77041 3.63981
# Velocity P-wave (km/s) = 7.05553 7.47854 7.27011
#
# Compressibility (1/GPa) = 0.01677100
#
# Stress axis : x y z
#
# Youngs Moduli (GPa) = 49.85052 50.01603 50.83552
#
# Poissons Ratio (x) = 0.21398 0.60560
# Poissons Ratio (y) = 0.21327 0.26871
# Poissons Ratio (z) = 0.59386 0.26438
#
# Static dielectric constant tensor:
#      x y z
#    x 3.556040 0.000000 -0.017220 
#    y 0.000000 3.178170 0.000000 
#    z -0.017220 0.000000 3.298210 
# 
# 
# High freq. dielectric constant tensor:
#      x y z
#    x 1.696590 0.000000 0.008570 
#    y 0.000000 1.674260 0.000000 
#    z 0.008570 0.000000 1.670010 
# 
# From -- ./inp_files/29099.got.cif
#   From: 2010.06.25/outbox.cif.g09.slc.cpg/sg11_15_cif.got.tgz:29099.got - 2010.06.27 23:14:04.
