data_PCOD8068973
_publ_section_title
;
Structure prediction by ZEFSAII (Michael W. Deem and Ramdas Pophale) SiO2 
 PCOD8068973
Probable space group: P 21/M
;
_chemical_formula_sum "Si O2"
_cell_formula_units_Z 32
_cell_length_a 12.154691
_cell_length_b 22.049482
_cell_length_c 18.594670
_cell_angle_alpha 90.000000
_cell_angle_beta 19.209139
_cell_angle_gamma 90.000000
_cell_volume 1639.643725
_symmetry_space_group_name_H-M "P 21/M"
_symmetry_group_IT_number 11
_symmetry_cell_setting 'monoclinic'
loop_
_space_group_symop_operation_xyz
x,y,z
-x,1/2+y,-z
-x,-y,-z
x,1/2-y,z
loop_
_atom_site_type_symbol
_atom_site_label
_atom_site_fract_x
_atom_site_fract_y
_atom_site_fract_z
Si Si1 0.779213 0.819428 0.536809
Si Si2 0.003085 0.509944 0.594768
Si Si3 0.666720 0.070547 0.176518
Si Si4 0.009299 0.399099 0.106381
Si Si5 0.385998 0.181630 0.519590
Si Si6 0.812949 0.922392 0.266226
Si Si7 0.133196 0.972238 0.667245
Si Si8 0.748397 0.403873 0.670724
O O1 0.718247 0.750000 0.599153
O O2 0.454918 0.859861 0.754296
O O3 0.839049 0.822388 0.413741
O O4 0.094371 0.846614 0.385101
O O5 0.363905 0.476548 0.367634
O O6 0.904661 0.527501 0.736982
O O7 0.015810 0.571970 0.540350
O O8 0.722179 0.463013 0.739588
O O9 0.895340 0.062333 0.106755
O O10 0.874047 0.059997 0.975837
O O11 0.760190 0.343312 0.273256
O O12 0.032254 0.439661 0.163302
O O13 0.395276 0.379774 0.857656
O O14 0.429567 0.250000 0.518916
O O15 0.199204 0.147346 0.700285
O O16 0.477033 0.939710 0.430644
O O17 0.801482 0.958469 0.349307
#
# Coordination Sequence:
#
# PCOD8068973 Si02
#       8
#     4   4   4   4   4   4   4   4
#     4   9  19  37  56  73  99 134 171 211 254 302
#     4  10  20  34  50  75 109 139 168 204 249 304
#     4  10  19  33  54  79 103 131 171 211 252 302
#     4  10  20  33  53  79 103 133 170 208 254 303
#     4   9  19  36  55  75 100 130 169 214 254 298
#     4  10  18  29  52  80 103 130 166 211 254 296
#     4  10  19  31  49  76 108 137 165 203 253 303
#     4  10  20  33  51  76 105 137 170 206 250 301
#
# _framework density 19.516432999999999
#
# number of rings (size 3 to 8) (size 9 to 14) (size 15 to 20)
#    0.000    2.250    0.000    5.250    0.000    3.000 
#    0.000    3.750    0.000    6.000    0.000    0.000 
#    0.000    0.000    0.000    0.000    0.000    0.000 
#
# Total GULP energy -396601.322160 kJ/mol
# GULP energy per Si atom -12393.791318 kJ/mol
# Density = 1.947201 g / cm^3
# Si number density = 19.516433 Si / 1000 Ang^3
#
#
#
# Elastic Constant Matrix: (Units=GPa)
#
#
# Indices 1 2 3 4 5 6 
#
# 1 105.5804 31.3103 17.0688 0.0000 1.6541 0.0000
# 2 31.3103 97.9612 12.0827 0.0000 5.9689 0.0000
# 3 17.0688 12.0827 56.5383 0.0000 -3.2652 0.0000
# 4 0.0000 0.0000 0.0000 11.7475 0.0000 0.7739
# 5 1.6541 5.9689 -3.2652 0.0000 31.2307 0.0000
# 6 0.0000 0.0000 0.0000 0.7739 0.0000 27.9318
#
#
#
# Elastic Compliance Matrix: (Units=1/GPa)
#
#
# Indices 1 2 3 4 5 6 
#
# 1 0.010824 -0.003122 -0.002615 0.000000 -0.000250 0.000000
# 2 -0.003122 0.011545 -0.001653 0.000000 -0.002214 0.000000
# 3 -0.002615 -0.001653 0.018971 0.000000 0.002438 0.000000
# 4 0.000000 0.000000 0.000000 0.085280 0.000000 -0.002363
# 5 -0.000250 -0.002214 0.002438 0.000000 0.032711 0.000000
# 6 0.000000 0.000000 0.000000 -0.002363 0.000000 0.035867
#
#
# Mechanical properties :
#
#
# Convention : Reuss Voigt Hill
#
# Bulk Modulus (GPa) = 37.65008 42.33374 39.99191
# Shear Modulus (GPa) = 22.84881 27.48984 25.16933
#
# Velocity S-wave (km/s) = 3.42533 3.75714 3.59506
# Velocity P-wave (km/s) = 5.91415 6.36866 6.14561
#
# Compressibility (1/GPa) = 0.02656037
#
# Stress axis : x y z
#
# Youngs Moduli (GPa) = 92.38809 86.62036 52.71326
#
# Poissons Ratio (x) = 0.27041 0.13785
# Poissons Ratio (y) = 0.28841 0.08711
# Poissons Ratio (z) = 0.24160 0.14315
#
# Static dielectric constant tensor:
#      x y z
#    x 3.733370 0.000000 -0.087090 
#    y 0.000000 3.452790 0.000000 
#    z -0.087090 0.000000 3.254410 
# 
# 
# High freq. dielectric constant tensor:
#      x y z
#    x 1.770710 0.000000 -0.002200 
#    y 0.000000 1.740460 0.000000 
#    z -0.002200 0.000000 1.737050 
# 
# From -- ./inp_files/59745.got.cif
#   From: 2010.06.25/outbox.cif.g09.slc.cpg/sg11_30_cif.got.tgz:59745.got - 2010.06.27 23:14:04.
