data_PCOD8068594
_publ_section_title
;
Structure prediction by ZEFSAII (Michael W. Deem and Ramdas Pophale) SiO2 
 PCOD8068594
Probable space group: P 21/M
;
_chemical_formula_sum "Si O2"
_cell_formula_units_Z 32
_cell_length_a 19.970758
_cell_length_b 9.039516
_cell_length_c 20.372507
_cell_angle_alpha 90.000000
_cell_angle_beta 29.782698
_cell_angle_gamma 90.000000
_cell_volume 1826.790571
_symmetry_space_group_name_H-M "P 21/M"
_symmetry_group_IT_number 11
_symmetry_cell_setting 'monoclinic'
loop_
_space_group_symop_operation_xyz
x,y,z
-x,1/2+y,-z
-x,-y,-z
x,1/2-y,z
loop_
_atom_site_type_symbol
_atom_site_label
_atom_site_fract_x
_atom_site_fract_y
_atom_site_fract_z
Si Si1 0.138380 0.425303 0.361520
Si Si2 0.385386 0.925091 0.908820
Si Si3 0.082671 0.923828 0.774564
Si Si4 0.829093 0.423891 0.801768
Si Si5 0.801785 0.423533 0.046142
Si Si6 0.119536 0.076317 0.612179
Si Si7 0.315661 0.074690 0.332276
Si Si8 0.135583 0.580138 0.868801
O O1 0.116912 0.250000 0.377950
O O2 0.188807 0.483971 0.249086
O O3 0.251768 0.472447 0.317447
O O4 0.000000 0.500000 0.500000
O O5 0.395728 0.750000 0.901866
O O6 0.322989 0.977304 0.892267
O O7 0.534362 0.994550 0.789977
O O8 0.290355 0.977819 0.049047
O O9 0.069900 0.750000 0.773057
O O10 0.178259 0.960410 0.757517
O O11 0.153344 0.997662 0.652004
O O12 0.934074 0.988837 0.911839
O O13 0.822390 0.250000 0.791285
O O14 0.969575 0.464252 0.716620
O O15 0.830898 0.250000 0.008736
O O16 0.762698 0.454419 0.156709
O O17 0.136195 0.250000 0.608301
O O18 0.223919 0.013521 0.469643
O O19 0.320761 0.250000 0.333334
O O20 0.097080 0.750000 0.902630
O O21 0.000000 0.500000 0.000000
#
# Coordination Sequence:
#
# PCOD8068594 Si02
#       8
#     4   4   4   4   4   4   4   4
#     4  11  21  35  54  75 100 129 161 199 244 287
#     4   9  17  31  52  74  97 126 162 201 239 283
#     4  10  18  27  43  72 103 127 157 200 245 281
#     4  10  19  33  53  77  98 124 161 201 242 284
#     4   9  15  28  49  70  94 129 165 194 236 286
#     4  10  18  32  51  71  95 127 165 202 237 280
#     4   9  19  34  51  72  97 125 161 202 240 283
#     4   8  15  25  40  66  98 126 156 196 236 281
#
# _framework density 17.517059
#
# number of rings (size 3 to 8) (size 9 to 14) (size 15 to 20)
#    0.000    2.500    2.500    0.750    0.000    1.500 
#    0.000    0.000    0.000    4.500    0.000    0.000 
#    0.000    0.000    0.000    0.000    0.000    0.625 
#
# Total GULP energy -396533.885775 kJ/mol
# GULP energy per Si atom -12391.683930 kJ/mol
# Density = 1.747719 g / cm^3
# Si number density = 17.517059 Si / 1000 Ang^3
#
#
#
# Elastic Constant Matrix: (Units=GPa)
#
#
# Indices 1 2 3 4 5 6 
#
# 1 174.5041 43.7510 82.0984 0.0000 23.4362 0.0000
# 2 43.7510 36.5908 27.9692 0.0000 9.0064 0.0000
# 3 82.0984 27.9692 116.0568 0.0000 5.4021 0.0000
# 4 0.0000 0.0000 0.0000 15.0760 0.0000 9.5720
# 5 23.4362 9.0064 5.4021 0.0000 31.5270 0.0000
# 6 0.0000 0.0000 0.0000 9.5720 0.0000 24.0715
#
#
#
# Elastic Compliance Matrix: (Units=1/GPa)
#
#
# Indices 1 2 3 4 5 6 
#
# 1 0.010986 -0.007520 -0.005724 0.000000 -0.005037 0.000000
# 2 -0.007520 0.040922 -0.004293 0.000000 -0.005365 0.000000
# 3 -0.005724 -0.004293 0.013553 0.000000 0.003159 0.000000
# 4 0.000000 0.000000 0.000000 0.088734 0.000000 -0.035285
# 5 -0.005037 -0.005365 0.003159 0.000000 0.036455 0.000000
# 6 0.000000 0.000000 0.000000 -0.035285 0.000000 0.055574
#
#
# Mechanical properties :
#
#
# Convention : Reuss Voigt Hill
#
# Bulk Modulus (GPa) = 32.90867 70.53211 51.72039
# Shear Modulus (GPa) = 17.15693 25.69041 21.42367
#
# Velocity S-wave (km/s) = 3.13300 3.83377 3.50096
# Velocity P-wave (km/s) = 5.64934 7.74269 6.77732
#
# Compressibility (1/GPa) = 0.03038713
#
# Stress axis : x y z
#
# Youngs Moduli (GPa) = 91.02895 24.43648 73.78183
#
# Poissons Ratio (x) = 0.18375 0.42236
# Poissons Ratio (y) = 0.68451 0.31674
# Poissons Ratio (z) = 0.52109 0.10491
#
# Static dielectric constant tensor:
#      x y z
#    x 3.863940 0.000000 0.199820 
#    y 0.000000 2.972290 0.000000 
#    z 0.199820 0.000000 3.235350 
# 
# 
# High freq. dielectric constant tensor:
#      x y z
#    x 1.694990 0.000000 0.022540 
#    y 0.000000 1.653420 0.000000 
#    z 0.022540 0.000000 1.649630 
# 
# From -- ./inp_files/66429.got.cif
#   From: 2010.06.25/outbox.cif.g09.slc.cpg/sg11_34_cif.got.tgz:66429.got - 2010.06.27 23:14:04.
