data_PCOD8068636
_publ_section_title
;
Structure prediction by ZEFSAII (Michael W. Deem and Ramdas Pophale) SiO2 
 PCOD8068636
Probable space group: P 21/M
;
_chemical_formula_sum "Si O2"
_cell_formula_units_Z 32
_cell_length_a 11.564815
_cell_length_b 8.934661
_cell_length_c 23.795923
_cell_angle_alpha 90.000000
_cell_angle_beta 126.685934
_cell_angle_gamma 90.000000
_cell_volume 1971.749021
_symmetry_space_group_name_H-M "P 21/M"
_symmetry_group_IT_number 11
_symmetry_cell_setting 'monoclinic'
loop_
_space_group_symop_operation_xyz
x,y,z
-x,1/2+y,-z
-x,-y,-z
x,1/2-y,z
loop_
_atom_site_type_symbol
_atom_site_label
_atom_site_fract_x
_atom_site_fract_y
_atom_site_fract_z
Si Si1 0.512223 0.926132 0.773578
Si Si2 0.924552 0.584765 0.347896
Si Si3 0.303468 0.428863 0.799364
Si Si4 0.675561 0.917704 0.368059
Si Si5 0.831238 0.924357 0.898762
Si Si6 0.115924 0.426384 0.959908
Si Si7 0.120715 0.570090 0.496218
Si Si8 0.649225 0.573081 0.059753
O O1 0.482079 0.750000 0.766123
O O2 0.680946 0.964360 0.825855
O O3 0.438056 0.998805 0.806477
O O4 0.456505 0.993595 0.698611
O O5 0.964662 0.750000 0.339489
O O6 0.847487 0.506112 0.271809
O O7 0.806072 0.587095 0.362540
O O8 0.072785 0.518376 0.418339
O O9 0.312573 0.250000 0.793490
O O10 0.306936 0.476722 0.864916
O O11 0.625566 0.750000 0.369284
O O12 0.725144 0.002786 0.439932
O O13 0.864572 0.750000 0.906052
O O14 0.827995 0.978588 0.962670
O O15 0.957995 0.007122 0.901723
O O16 0.104485 0.250000 0.951795
O O17 0.227670 0.488162 0.946169
O O18 0.121204 0.750000 0.501681
O O19 0.000000 0.500000 0.500000
O O20 0.631632 0.750000 0.049929
O O21 0.500000 0.500000 0.000000
#
# Coordination Sequence:
#
# PCOD8068636 Si02
#       8
#     4   4   4   4   4   4   4   4
#     4  10  18  28  43  63  87 113 143 179 217 256
#     4   7  12  22  35  51  74 105 139 171 201 242
#     4   9  17  29  43  61  86 115 145 175 212 257
#     4   9  16  25  36  54  81 111 143 175 209 255
#     4   9  18  31  46  63  84 110 141 179 218 254
#     4   9  18  32  47  64  85 110 143 178 212 253
#     4   9  14  21  34  52  76 108 143 177 212 250
#     4  10  20  32  47  66  89 116 144 177 214 254
#
# _framework density 16.229244999999999
#
# number of rings (size 3 to 8) (size 9 to 14) (size 15 to 20)
#    0.000    3.000    0.000    3.375    0.000    3.000 
#    0.000    3.125    0.000    0.000    0.000    0.000 
#    0.000    1.000    0.000    2.000    0.000    4.250 
#
# Total GULP energy -396427.259244 kJ/mol
# GULP energy per Si atom -12388.351851 kJ/mol
# Density = 1.619231 g / cm^3
# Si number density = 16.229245 Si / 1000 Ang^3
#
#
#
# Elastic Constant Matrix: (Units=GPa)
#
#
# Indices 1 2 3 4 5 6 
#
# 1 78.9124 25.9760 58.9513 0.0000 7.9148 0.0000
# 2 25.9760 51.8408 45.3892 0.0000 6.8165 0.0000
# 3 58.9513 45.3892 164.3276 0.0000 11.1455 0.0000
# 4 0.0000 0.0000 0.0000 26.3029 0.0000 4.9733
# 5 7.9148 6.8165 11.1455 0.0000 15.9041 0.0000
# 6 0.0000 0.0000 0.0000 4.9733 0.0000 17.2585
#
#
#
# Elastic Compliance Matrix: (Units=1/GPa)
#
#
# Indices 1 2 3 4 5 6 
#
# 1 0.018259 -0.004151 -0.005153 0.000000 -0.003696 0.000000
# 2 -0.004151 0.026998 -0.005589 0.000000 -0.005589 0.000000
# 3 -0.005153 -0.005589 0.009597 0.000000 -0.001766 0.000000
# 4 0.000000 0.000000 0.000000 0.040209 0.000000 -0.011587
# 5 -0.003696 -0.005589 -0.001766 0.000000 0.068349 0.000000
# 6 0.000000 0.000000 0.000000 -0.011587 0.000000 0.061281
#
#
# Mechanical properties :
#
#
# Convention : Reuss Voigt Hill
#
# Bulk Modulus (GPa) = 39.89105 61.74599 50.81852
# Shear Modulus (GPa) = 19.02316 22.87738 20.95027
#
# Velocity S-wave (km/s) = 3.42739 3.75859 3.59680
# Velocity P-wave (km/s) = 6.34789 7.54750 6.97354
#
# Compressibility (1/GPa) = 0.02506828
#
# Stress axis : x y z
#
# Youngs Moduli (GPa) = 54.76746 37.03949 104.19413
#
# Poissons Ratio (x) = 0.15377 0.53690
# Poissons Ratio (y) = 0.22736 0.58233
# Poissons Ratio (z) = 0.28221 0.20701
#
# Static dielectric constant tensor:
#      x y z
#    x 2.670750 0.000000 0.051460 
#    y 0.000000 3.098240 0.000000 
#    z 0.051460 0.000000 3.974380 
# 
# 
# High freq. dielectric constant tensor:
#      x y z
#    x 1.561510 0.000000 0.012910 
#    y 0.000000 1.617930 0.000000 
#    z 0.012910 0.000000 1.646480 
# 
# From -- ./inp_files/64230.got.cif
#   From: 2010.06.25/outbox.cif.g09.slc.cpg/sg11_33_cif.got.tgz:64230.got - 2010.06.27 23:14:04.
