data_PCOD8068650
_publ_section_title
;
Structure prediction by ZEFSAII (Michael W. Deem and Ramdas Pophale) SiO2 
 PCOD8068650
Probable space group: P 21/M
;
_chemical_formula_sum "Si O2"
_cell_formula_units_Z 32
_cell_length_a 30.806217
_cell_length_b 8.819442
_cell_length_c 21.463965
_cell_angle_alpha 90.000000
_cell_angle_beta 160.548928
_cell_angle_gamma 90.000000
_cell_volume 1941.940705
_symmetry_space_group_name_H-M "P 21/M"
_symmetry_group_IT_number 11
_symmetry_cell_setting 'monoclinic'
loop_
_space_group_symop_operation_xyz
x,y,z
-x,1/2+y,-z
-x,-y,-z
x,1/2-y,z
loop_
_atom_site_type_symbol
_atom_site_label
_atom_site_fract_x
_atom_site_fract_y
_atom_site_fract_z
Si Si1 0.936692 0.925983 0.772110
Si Si2 0.291692 0.572004 0.459896
Si Si3 0.799047 0.428639 0.220575
Si Si4 0.970329 0.926689 0.551745
Si Si5 0.134983 0.425604 0.460631
Si Si6 0.113171 0.574819 0.115212
Si Si7 0.589106 0.070809 0.173676
Si Si8 0.494683 0.929125 0.174155
O O1 0.898570 0.750000 0.731508
O O2 0.945816 0.963042 0.711335
O O3 0.824887 0.029222 0.650806
O O4 0.080576 0.960046 0.998101
O O5 0.320967 0.750000 0.506280
O O6 0.251426 0.524836 0.333520
O O7 0.420665 0.478874 0.651670
O O8 0.801942 0.250000 0.230096
O O9 0.849773 0.493773 0.354411
O O10 0.891355 0.485446 0.288588
O O11 0.652074 0.484604 0.010466
O O12 0.955536 0.750000 0.518551
O O13 0.962185 0.964204 0.613951
O O14 0.179075 0.250000 0.521933
O O15 0.261827 0.528906 0.637838
O O16 0.101815 0.750000 0.114087
O O17 0.000000 0.500000 0.000000
O O18 0.572158 0.250000 0.149501
O O19 0.548605 0.009140 0.185893
O O20 0.500000 0.000000 0.000000
O O21 0.504059 0.750000 0.177028
#
# Coordination Sequence:
#
# PCOD8068650 Si02
#       8
#     4   4   4   4   4   4   4   4
#     4   9  16  28  45  65  93 125 153 184 225 279
#     4  10  18  28  43  66  94 123 155 191 228 271
#     4   9  19  34  50  67  88 117 154 196 235 272
#     4   9  18  33  51  70  90 114 150 195 236 274
#     4  10  19  31  49  71  95 121 151 187 231 280
#     4   8  15  26  41  62  89 121 154 185 222 269
#     4  12  24  35  47  65  94 126 156 187 225 276
#     4  11  21  33  48  67  93 124 158 192 231 275
#
# _framework density 16.478362000000001
#
# number of rings (size 3 to 8) (size 9 to 14) (size 15 to 20)
#    0.000    2.250    1.250    2.625    0.000    4.000 
#    0.000    0.000    0.000    0.000    0.000    0.875 
#    0.000    0.000    0.000    0.000    0.000    0.000 
#
# Total GULP energy -396538.991273 kJ/mol
# GULP energy per Si atom -12391.843477 kJ/mol
# Density = 1.644086 g / cm^3
# Si number density = 16.478362 Si / 1000 Ang^3
#
#
#
# Elastic Constant Matrix: (Units=GPa)
#
#
# Indices 1 2 3 4 5 6 
#
# 1 83.3578 13.9606 53.9356 0.0000 -12.6611 0.0000
# 2 13.9606 39.0426 18.2037 0.0000 -1.4127 0.0000
# 3 53.9356 18.2037 104.2598 0.0000 -18.4991 0.0000
# 4 0.0000 0.0000 0.0000 21.2896 0.0000 -5.0178
# 5 -12.6611 -1.4127 -18.4991 0.0000 28.1039 0.0000
# 6 0.0000 0.0000 0.0000 -5.0178 0.0000 13.6411
#
#
#
# Elastic Compliance Matrix: (Units=1/GPa)
#
#
# Indices 1 2 3 4 5 6 
#
# 1 0.018371 -0.002452 -0.008638 0.000000 0.002467 0.000000
# 2 -0.002452 0.028314 -0.004097 0.000000 -0.002378 0.000000
# 3 -0.008638 -0.004097 0.015906 0.000000 0.006373 0.000000
# 4 0.000000 0.000000 0.000000 0.051430 0.000000 0.018918
# 5 0.002467 -0.002378 0.006373 0.000000 0.040769 0.000000
# 6 0.000000 0.000000 0.000000 0.018918 0.000000 0.080267
#
#
# Mechanical properties :
#
#
# Convention : Reuss Voigt Hill
#
# Bulk Modulus (GPa) = 31.03958 44.31778 37.67868
# Shear Modulus (GPa) = 18.10481 21.97761 20.04121
#
# Velocity S-wave (km/s) = 3.31826 3.65598 3.49121
# Velocity P-wave (km/s) = 5.79298 6.69138 6.25832
#
# Compressibility (1/GPa) = 0.03221693
#
# Stress axis : x y z
#
# Youngs Moduli (GPa) = 54.43414 35.31812 62.86981
#
# Poissons Ratio (x) = 0.08661 0.54305
# Poissons Ratio (y) = 0.13349 0.25758
# Poissons Ratio (z) = 0.47018 0.14470
#
# Static dielectric constant tensor:
#      x y z
#    x 3.307330 0.000000 -0.338650 
#    y 0.000000 2.909840 0.000000 
#    z -0.338650 0.000000 3.547030 
# 
# 
# High freq. dielectric constant tensor:
#      x y z
#    x 1.610130 0.000000 -0.026450 
#    y 0.000000 1.638650 0.000000 
#    z -0.026450 0.000000 1.631490 
# 
# From -- ./inp_files/64211.got.cif
#   From: 2010.06.25/outbox.cif.g09.slc.cpg/sg11_33_cif.got.tgz:64211.got - 2010.06.27 23:14:04.
