data_PCOD8068605
_publ_section_title
;
Structure prediction by ZEFSAII (Michael W. Deem and Ramdas Pophale) SiO2 
 PCOD8068605
Probable space group: P 21/M
;
_chemical_formula_sum "Si O2"
_cell_formula_units_Z 32
_cell_length_a 12.249632
_cell_length_b 9.028954
_cell_length_c 21.067902
_cell_angle_alpha 90.000000
_cell_angle_beta 128.544938
_cell_angle_gamma 90.000000
_cell_volume 1822.447302
_symmetry_space_group_name_H-M "P 21/M"
_symmetry_group_IT_number 11
_symmetry_cell_setting 'monoclinic'
loop_
_space_group_symop_operation_xyz
x,y,z
-x,1/2+y,-z
-x,-y,-z
x,1/2-y,z
loop_
_atom_site_type_symbol
_atom_site_label
_atom_site_fract_x
_atom_site_fract_y
_atom_site_fract_z
Si Si1 0.762707 0.076604 0.052088
Si Si2 0.458492 0.573897 0.132142
Si Si3 0.267330 0.574932 0.814100
Si Si4 0.957518 0.077728 0.838094
Si Si5 0.015098 0.922169 0.299446
Si Si6 0.334984 0.575727 0.218807
Si Si7 0.280195 0.079511 0.430618
Si Si8 0.536537 0.079552 0.605102
O O1 0.786402 0.250000 0.055385
O O2 0.719232 0.028718 0.107195
O O3 0.907853 0.002402 0.084025
O O4 0.641554 0.022516 0.961258
O O5 0.479973 0.750000 0.140543
O O6 0.606283 0.495864 0.178384
O O7 0.392160 0.512258 0.173394
O O8 0.267377 0.750000 0.805126
O O9 0.125768 0.508470 0.733787
O O10 0.975820 0.250000 0.858551
O O11 0.943229 0.046978 0.758132
O O12 0.819014 0.011637 0.821353
O O13 0.992932 0.750000 0.305760
O O14 0.139376 0.985076 0.388284
O O15 0.319447 0.750000 0.207029
O O16 0.443600 0.535099 0.314213
O O17 0.239919 0.250000 0.405364
O O18 0.374264 0.058192 0.527858
O O19 0.367011 0.025903 0.401519
O O20 0.584012 0.250000 0.610459
#
# Coordination Sequence:
#
# PCOD8068605 Si02
#       8
#     4   4   4   4   4   4   4   4
#     4   9  19  33  49  72  99 125 158 208 253 287
#     4  10  20  34  52  71  94 130 171 203 241 292
#     4  10  20  34  51  72 100 126 160 210 254 287
#     4   9  17  30  49  71  96 130 164 195 239 293
#     4  10  18  31  52  74 100 130 163 200 243 295
#     4   9  17  32  51  70  98 134 168 199 233 289
#     4  10  18  27  47  77 104 128 159 200 243 285
#     4   9  17  31  48  70 102 136 164 193 237 291
#
# _framework density 17.558807999999999
#
# number of rings (size 3 to 8) (size 9 to 14) (size 15 to 20)
#    0.000    2.500    1.250    1.500    0.000    2.500 
#    0.000    1.250    0.000    0.750    0.000    0.000 
#    0.000    0.000    0.000    0.000    0.000    0.000 
#
# Total GULP energy -396816.225900 kJ/mol
# GULP energy per Si atom -12400.507059 kJ/mol
# Density = 1.751884 g / cm^3
# Si number density = 17.558808 Si / 1000 Ang^3
#
#
#
# Elastic Constant Matrix: (Units=GPa)
#
#
# Indices 1 2 3 4 5 6 
#
# 1 118.6127 33.1633 45.8490 0.0000 20.9976 0.0000
# 2 33.1633 48.8666 26.8696 0.0000 11.1110 0.0000
# 3 45.8490 26.8696 72.1994 0.0000 24.1911 0.0000
# 4 0.0000 0.0000 0.0000 24.7160 0.0000 10.4149
# 5 20.9976 11.1110 24.1911 0.0000 25.7442 0.0000
# 6 0.0000 0.0000 0.0000 10.4149 0.0000 26.5164
#
#
#
# Elastic Compliance Matrix: (Units=1/GPa)
#
#
# Indices 1 2 3 4 5 6 
#
# 1 0.012265 -0.004900 -0.004848 0.000000 -0.003333 0.000000
# 2 -0.004900 0.027854 -0.006664 0.000000 -0.001763 0.000000
# 3 -0.004848 -0.006664 0.024988 0.000000 -0.016650 0.000000
# 4 0.000000 0.000000 0.000000 0.048484 0.000000 -0.019043
# 5 -0.003333 -0.001763 -0.016650 0.000000 0.057969 0.000000
# 6 0.000000 0.000000 0.000000 -0.019043 0.000000 0.045192
#
#
# Mechanical properties :
#
#
# Convention : Reuss Voigt Hill
#
# Bulk Modulus (GPa) = 30.97566 50.16027 40.56797
# Shear Modulus (GPa) = 19.20581 24.31509 21.76045
#
# Velocity S-wave (km/s) = 3.31085 3.72530 3.52417
# Velocity P-wave (km/s) = 5.68287 6.86534 6.30190
#
# Compressibility (1/GPa) = 0.03228341
#
# Stress axis : x y z
#
# Youngs Moduli (GPa) = 81.53360 35.90119 40.01888
#
# Poissons Ratio (x) = 0.17591 0.19403
# Poissons Ratio (y) = 0.39950 0.26668
# Poissons Ratio (z) = 0.39530 0.23924
#
# Static dielectric constant tensor:
#      x y z
#    x 3.193360 0.000000 0.123300 
#    y 0.000000 3.142670 0.000000 
#    z 0.123300 0.000000 3.416020 
# 
# 
# High freq. dielectric constant tensor:
#      x y z
#    x 1.658740 0.000000 0.021640 
#    y 0.000000 1.669660 0.000000 
#    z 0.021640 0.000000 1.678200 
# 
# From -- ./inp_files/42443.got.cif
#   From: 2010.06.25/outbox.cif.g09.slc.cpg/sg11_22_cif.got.tgz:42443.got - 2010.06.27 23:14:04.
