data_PCOD8068537
_publ_section_title
;
Structure prediction by ZEFSAII (Michael W. Deem and Ramdas Pophale) SiO2 
 PCOD8068537
Probable space group: P 21/M
;
_chemical_formula_sum "Si O2"
_cell_formula_units_Z 32
_cell_length_a 22.714802
_cell_length_b 9.607365
_cell_length_c 15.732612
_cell_angle_alpha 90.000000
_cell_angle_beta 148.612989
_cell_angle_gamma 90.000000
_cell_volume 1788.127549
_symmetry_space_group_name_H-M "P 21/M"
_symmetry_group_IT_number 11
_symmetry_cell_setting 'monoclinic'
loop_
_space_group_symop_operation_xyz
x,y,z
-x,1/2+y,-z
-x,-y,-z
x,1/2-y,z
loop_
_atom_site_type_symbol
_atom_site_label
_atom_site_fract_x
_atom_site_fract_y
_atom_site_fract_z
Si Si1 0.961446 0.084996 0.871123
Si Si2 0.684314 0.590890 0.945888
Si Si3 0.226587 0.087601 0.451168
Si Si4 0.580228 0.097817 0.048659
Si Si5 0.766783 0.905760 0.232847
Si Si6 0.097304 0.090335 0.872756
Si Si7 0.515532 0.902870 0.255658
Si Si8 0.080212 0.404893 0.430975
O O1 0.943653 0.250000 0.867745
O O2 0.059963 0.061378 0.923053
O O3 0.845596 0.015362 0.696925
O O4 0.000000 0.000000 0.000000
O O5 0.644707 0.750000 0.891824
O O6 0.760826 0.564669 0.124902
O O7 0.769882 0.550706 0.974600
O O8 0.568354 0.503331 0.794889
O O9 0.210267 0.250000 0.404900
O O10 0.356541 0.040541 0.596349
O O11 0.188330 0.065325 0.502127
O O12 0.588875 0.250000 0.102190
O O13 0.536315 0.111368 0.900196
O O14 0.500000 0.000000 0.000000
O O15 0.700444 0.025311 0.200023
O O16 0.717230 0.750000 0.189066
O O17 0.887979 0.916956 0.429396
O O18 0.079578 0.250000 0.825630
O O19 0.022109 0.007257 0.713015
O O20 0.516448 0.750000 0.300482
O O21 0.035572 0.250000 0.356434
#
# Coordination Sequence:
#
# PCOD8068537 Si02
#       8
#     4   4   4   4   4   4   4   4
#     4  10  20  35  56  80 102 122 149 188 237 293
#     4   9  18  32  48  67  96 134 170 202 238 279
#     4   9  17  31  50  72 100 129 157 195 243 286
#     4  10  18  27  40  60  88 124 166 209 249 284
#     4   9  17  29  43  62  91 128 169 207 241 278
#     4   9  19  34  50  71  99 128 158 196 242 290
#     4   9  18  31  47  68  95 128 165 203 239 280
#     4   9  17  29  46  68  95 129 167 206 245 283
#
# _framework density 17.895814999999999
#
# number of rings (size 3 to 8) (size 9 to 14) (size 15 to 20)
#    0.000    2.750    0.000    1.500    0.000    5.000 
#    0.000    2.500    0.000    0.750    0.000    0.000 
#    0.000    0.000    0.000    0.000    0.000    0.000 
#
# Total GULP energy -396458.004353 kJ/mol
# GULP energy per Si atom -12389.312636 kJ/mol
# Density = 1.785508 g / cm^3
# Si number density = 17.895815 Si / 1000 Ang^3
#
#
#
# Elastic Constant Matrix: (Units=GPa)
#
#
# Indices 1 2 3 4 5 6 
#
# 1 56.8512 33.9027 27.1393 0.0000 20.6073 0.0000
# 2 33.9027 90.9348 27.6618 0.0000 14.3289 0.0000
# 3 27.1393 27.6618 57.2964 0.0000 13.6000 0.0000
# 4 0.0000 0.0000 0.0000 30.3553 0.0000 4.2602
# 5 20.6073 14.3289 13.6000 0.0000 32.7668 0.0000
# 6 0.0000 0.0000 0.0000 4.2602 0.0000 23.0602
#
#
#
# Elastic Compliance Matrix: (Units=1/GPa)
#
#
# Indices 1 2 3 4 5 6 
#
# 1 0.029992 -0.006780 -0.007942 0.000000 -0.012601 0.000000
# 2 -0.006780 0.014771 -0.003770 0.000000 -0.000630 0.000000
# 3 -0.007942 -0.003770 0.023803 0.000000 -0.003236 0.000000
# 4 0.000000 0.000000 0.000000 0.033820 0.000000 -0.006248
# 5 -0.012601 -0.000630 -0.003236 0.000000 0.040062 0.000000
# 6 0.000000 0.000000 0.000000 -0.006248 0.000000 0.044519
#
#
# Mechanical properties :
#
#
# Convention : Reuss Voigt Hill
#
# Bulk Modulus (GPa) = 31.66367 42.49888 37.08127
# Shear Modulus (GPa) = 21.32393 24.99504 23.15948
#
# Velocity S-wave (km/s) = 3.45564 3.74130 3.60130
# Velocity P-wave (km/s) = 5.80118 6.51633 6.16913
#
# Compressibility (1/GPa) = 0.03158194
#
# Stress axis : x y z
#
# Youngs Moduli (GPa) = 33.34241 67.70077 42.01139
#
# Poissons Ratio (x) = 0.45903 0.33364
# Poissons Ratio (y) = 0.22607 0.15838
# Poissons Ratio (z) = 0.26479 0.25523
#
# Static dielectric constant tensor:
#      x y z
#    x 4.059920 0.000000 0.292700 
#    y 0.000000 3.700410 0.000000 
#    z 0.292700 0.000000 3.137370 
# 
# 
# High freq. dielectric constant tensor:
#      x y z
#    x 1.671190 0.000000 0.014920 
#    y 0.000000 1.703250 0.000000 
#    z 0.014920 0.000000 1.668440 
# 
# From -- ./inp_files/61811.got.cif
#   From: 2010.06.25/outbox.cif.g09.slc.cpg/sg11_31_cif.got.tgz:61811.got - 2010.06.27 23:14:04.
