data_PCOD8068641
_publ_section_title
;
Structure prediction by ZEFSAII (Michael W. Deem and Ramdas Pophale) SiO2 
 PCOD8068641
Probable space group: P 21/M
;
_chemical_formula_sum "Si O2"
_cell_formula_units_Z 28
_cell_length_a 11.473602
_cell_length_b 8.943675
_cell_length_c 21.645746
_cell_angle_alpha 90.000000
_cell_angle_beta 49.135507
_cell_angle_gamma 90.000000
_cell_volume 1679.805302
_symmetry_space_group_name_H-M "P 21/M"
_symmetry_group_IT_number 11
_symmetry_cell_setting 'monoclinic'
loop_
_space_group_symop_operation_xyz
x,y,z
-x,1/2+y,-z
-x,-y,-z
x,1/2-y,z
loop_
_atom_site_type_symbol
_atom_site_label
_atom_site_fract_x
_atom_site_fract_y
_atom_site_fract_z
Si Si1 0.393968 0.424705 0.953895
Si Si2 0.016729 0.073628 0.736658
Si Si3 0.298080 0.075322 0.123684
Si Si4 0.747248 0.420830 0.421030
Si Si5 0.760246 0.576947 0.232365
Si Si6 0.161340 0.427721 0.928564
Si Si7 0.522116 0.922254 0.409131
O O1 0.433336 0.250000 0.936519
O O2 0.551955 0.515415 0.892968
O O3 0.284875 0.478903 0.936515
O O4 0.308347 0.463942 0.047591
O O5 0.001563 0.250000 0.741730
O O6 0.116978 0.013003 0.760207
O O7 0.102816 0.022836 0.643322
O O8 0.848841 0.003879 0.796171
O O9 0.283674 0.250000 0.140368
O O10 0.799022 0.250000 0.394930
O O11 0.663354 0.446340 0.517529
O O12 0.612786 0.459902 0.419498
O O13 0.796658 0.750000 0.212428
O O14 0.782726 0.505550 0.156963
O O15 0.584001 0.550257 0.317600
O O16 0.143909 0.250000 0.934930
O O17 0.000000 0.500000 0.000000
O O18 0.564743 0.750000 0.413160
#
# Coordination Sequence:
#
# PCOD8068641 Si02
#       7
#     4   4   4   4   4   4   4
#     4   9  19  33  47  65  88 115 146 180 218 257
#     4  10  18  28  43  64  91 118 145 177 216 261
#     4  10  19  31  47  65  86 113 147 184 219 256
#     4   9  15  23  38  60  86 114 144 178 214 254
#     4   8  15  27  43  63  87 118 148 173 209 257
#     4  10  19  31  47  66  90 117 146 178 211 252
#     4   8  14  25  39  57  84 116 147 176 211 257
#
# _framework density 16.668599
#
# number of rings (size 3 to 8) (size 9 to 14) (size 15 to 20)
#    0.000    2.857    0.000    3.000    0.000    1.714 
#    0.000    2.857    0.000    0.000    0.000    1.000 
#    0.000    0.000    0.000    0.000    0.000    0.000 
#
# Total GULP energy -346947.360998 kJ/mol
# GULP energy per Si atom -12390.977178 kJ/mol
# Density = 1.663066 g / cm^3
# Si number density = 16.668599 Si / 1000 Ang^3
#
#
#
# Elastic Constant Matrix: (Units=GPa)
#
#
# Indices 1 2 3 4 5 6 
#
# 1 79.8492 32.3796 63.4177 0.0000 -10.8962 0.0000
# 2 32.3796 50.9805 43.2100 0.0000 -13.2909 0.0000
# 3 63.4177 43.2100 163.0408 0.0000 -21.5640 0.0000
# 4 0.0000 0.0000 0.0000 26.4187 0.0000 -7.9630
# 5 -10.8962 -13.2909 -21.5640 0.0000 24.5361 0.0000
# 6 0.0000 0.0000 0.0000 -7.9630 0.0000 18.6829
#
#
#
# Elastic Compliance Matrix: (Units=1/GPa)
#
#
# Indices 1 2 3 4 5 6 
#
# 1 0.020393 -0.008126 -0.005842 0.000000 -0.000480 0.000000
# 2 -0.008126 0.030351 -0.003605 0.000000 0.009664 0.000000
# 3 -0.005842 -0.003605 0.009912 0.000000 0.004164 0.000000
# 4 0.000000 0.000000 0.000000 0.043432 0.000000 0.018511
# 5 -0.000480 0.009664 0.004164 0.000000 0.049438 0.000000
# 6 0.000000 0.000000 0.000000 0.018511 0.000000 0.061415
#
#
# Mechanical properties :
#
#
# Convention : Reuss Voigt Hill
#
# Bulk Modulus (GPa) = 39.19961 63.54279 51.37120
# Shear Modulus (GPa) = 19.33560 24.25177 21.79368
#
# Velocity S-wave (km/s) = 3.40957 3.81850 3.61982
# Velocity P-wave (km/s) = 6.25047 7.59245 6.95391
#
# Compressibility (1/GPa) = 0.02551046
#
# Stress axis : x y z
#
# Youngs Moduli (GPa) = 49.03585 32.94739 100.88728
#
# Poissons Ratio (x) = 0.26773 0.58941
# Poissons Ratio (y) = 0.39846 0.36370
# Poissons Ratio (z) = 0.28648 0.11878
#
# Static dielectric constant tensor:
#      x y z
#    x 2.835390 0.000000 -0.005060 
#    y 0.000000 3.046270 0.000000 
#    z -0.005060 0.000000 3.600210 
# 
# 
# High freq. dielectric constant tensor:
#      x y z
#    x 1.587510 0.000000 -0.016240 
#    y 0.000000 1.637310 0.000000 
#    z -0.016240 0.000000 1.661210 
# 
# From -- ./inp_files/68240.got.cif
#   From: 2010.06.25/outbox.cif.g09.slc.cpg/sg11_35_cif.got.tgz:68240.got - 2010.06.27 23:14:04.
