data_PCOD8068881
_publ_section_title
;
Structure prediction by ZEFSAII (Michael W. Deem and Ramdas Pophale) SiO2 
 PCOD8068881
Probable space group: P 21/M
;
_chemical_formula_sum "Si O2"
_cell_formula_units_Z 32
_cell_length_a 11.746470
_cell_length_b 8.787081
_cell_length_c 21.463344
_cell_angle_alpha 90.000000
_cell_angle_beta 126.809907
_cell_angle_gamma 90.000000
_cell_volume 1773.699510
_symmetry_space_group_name_H-M "P 21/M"
_symmetry_group_IT_number 11
_symmetry_cell_setting 'monoclinic'
loop_
_space_group_symop_operation_xyz
x,y,z
-x,1/2+y,-z
-x,-y,-z
x,1/2-y,z
loop_
_atom_site_type_symbol
_atom_site_label
_atom_site_fract_x
_atom_site_fract_y
_atom_site_fract_z
Si Si1 0.539919 0.918721 0.831966
Si Si2 0.143991 0.573640 0.284504
Si Si3 0.434781 0.430517 0.917004
Si Si4 0.374816 0.573952 0.259529
Si Si5 0.777097 0.083749 0.322633
Si Si6 0.856510 0.068267 0.219592
Si Si7 0.347714 0.572192 0.459267
Si Si8 0.347681 0.569838 0.598040
O O1 0.598388 0.750000 0.867151
O O2 0.384602 0.905541 0.752591
O O3 0.535565 0.019814 0.892747
O O4 0.640873 0.995224 0.813016
O O5 0.106578 0.750000 0.283125
O O6 0.227505 0.549117 0.247590
O O7 0.235405 0.508030 0.372548
O O8 0.999983 0.477508 0.231749
O O9 0.430824 0.250000 0.919687
O O10 0.275136 0.493380 0.858854
O O11 0.500000 0.500000 0.000000
O O12 0.409040 0.750000 0.260325
O O13 0.499147 0.506176 0.343284
O O14 0.845024 0.250000 0.354083
O O15 0.862834 0.003619 0.293980
O O16 0.767013 0.004227 0.387986
O O17 0.834759 0.250000 0.212920
O O18 0.500000 0.500000 0.500000
O O19 0.367497 0.750000 0.454651
O O20 0.290267 0.534819 0.510007
O O21 0.366748 0.750000 0.615466
#
# Coordination Sequence:
#
# PCOD8068881 Si02
#       8
#     4   4   4   4   4   4   4   4
#     4   9  17  31  51  78 108 135 172 215 254 304
#     4  10  21  34  47  70 106 143 179 224 273 321
#     4  11  21  36  60  88 115 140 168 206 254 304
#     4  10  18  29  47  72 103 137 176 223 269 311
#     4   7  13  27  46  68  93 123 164 214 258 302
#     4  10  20  35  54  76 104 139 180 219 258 313
#     4  10  19  31  47  69  99 135 177 228 276 320
#     4   9  16  28  48  69  93 129 173 224 277 319
#
# _framework density 18.041388000000001
#
# number of rings (size 3 to 8) (size 9 to 14) (size 15 to 20)
#    0.000    2.500    1.250    3.750    0.000    1.500 
#    0.000    1.250    0.000    0.750    0.000    0.000 
#    0.000    0.000    0.000    0.000    0.000    0.000 
#
# Total GULP energy -396542.123268 kJ/mol
# GULP energy per Si atom -12391.941352 kJ/mol
# Density = 1.800032 g / cm^3
# Si number density = 18.041388 Si / 1000 Ang^3
#
#
#
# Elastic Constant Matrix: (Units=GPa)
#
#
# Indices 1 2 3 4 5 6 
#
# 1 101.7991 43.6581 52.7937 0.0000 -13.9441 0.0000
# 2 43.6581 91.7468 41.3293 0.0000 -6.9741 0.0000
# 3 52.7937 41.3293 97.6318 0.0000 -17.6723 0.0000
# 4 0.0000 0.0000 0.0000 22.8871 0.0000 -2.8785
# 5 -13.9441 -6.9741 -17.6723 0.0000 24.4341 0.0000
# 6 0.0000 0.0000 0.0000 -2.8785 0.0000 27.4257
#
#
#
# Elastic Compliance Matrix: (Units=1/GPa)
#
#
# Indices 1 2 3 4 5 6 
#
# 1 0.015113 -0.004359 -0.005743 0.000000 0.003227 0.000000
# 2 -0.004359 0.014727 -0.004104 0.000000 -0.001252 0.000000
# 3 -0.005743 -0.004104 0.016431 0.000000 0.007435 0.000000
# 4 0.000000 0.000000 0.000000 0.044277 0.000000 0.004647
# 5 0.003227 -0.001252 0.007435 0.000000 0.047788 0.000000
# 6 0.000000 0.000000 0.000000 0.004647 0.000000 0.036950
#
#
# Mechanical properties :
#
#
# Convention : Reuss Voigt Hill
#
# Bulk Modulus (GPa) = 55.99211 62.97111 59.48161
# Shear Modulus (GPa) = 23.84906 25.17584 24.51245
#
# Velocity S-wave (km/s) = 3.63975 3.73962 3.69002
# Velocity P-wave (km/s) = 6.98330 7.32297 7.15515
#
# Compressibility (1/GPa) = 0.01785966
#
# Stress axis : x y z
#
# Youngs Moduli (GPa) = 66.16761 67.90048 60.86059
#
# Poissons Ratio (x) = 0.29600 0.34951
# Poissons Ratio (y) = 0.28845 0.24976
# Poissons Ratio (z) = 0.37999 0.27865
#
# Static dielectric constant tensor:
#      x y z
#    x 3.536810 0.000000 -0.493070 
#    y 0.000000 3.361910 0.000000 
#    z -0.493070 0.000000 3.343380 
# 
# 
# High freq. dielectric constant tensor:
#      x y z
#    x 1.694440 0.000000 -0.034730 
#    y 0.000000 1.692560 0.000000 
#    z -0.034730 0.000000 1.673450 
# 
# From -- ./inp_files/42565.got.cif
#   From: 2010.06.25/outbox.cif.g09.slc.cpg/sg11_22_cif.got.tgz:42565.got - 2010.06.27 23:14:04.
