data_PCOD8068159
_publ_section_title
;
Structure prediction by ZEFSAII (Michael W. Deem and Ramdas Pophale) SiO2 
 PCOD8068159
Probable space group: P 21/M
;
_chemical_formula_sum "Si O2"
_cell_formula_units_Z 24
_cell_length_a 21.429546
_cell_length_b 13.873110
_cell_length_c 11.952958
_cell_angle_alpha 90.000000
_cell_angle_beta 158.691305
_cell_angle_gamma 90.000000
_cell_volume 1291.333127
_symmetry_space_group_name_H-M "P 21/M"
_symmetry_group_IT_number 11
_symmetry_cell_setting 'monoclinic'
loop_
_space_group_symop_operation_xyz
x,y,z
-x,1/2+y,-z
-x,-y,-z
x,1/2-y,z
loop_
_atom_site_type_symbol
_atom_site_label
_atom_site_fract_x
_atom_site_fract_y
_atom_site_fract_z
Si Si1 0.207095 0.354898 0.111970
Si Si2 0.411220 0.642232 0.150884
Si Si3 0.734451 0.362883 0.657409
Si Si4 0.100777 0.360292 0.175112
Si Si5 0.569294 0.980518 0.237452
Si Si6 0.308445 0.962356 0.181971
O O1 0.168864 0.250000 0.991938
O O2 0.400604 0.356347 0.480787
O O3 0.083735 0.371809 0.012256
O O4 0.183483 0.443525 0.985618
O O5 0.346960 0.750000 0.016421
O O6 0.423113 0.582092 0.056282
O O7 0.274805 0.593584 0.009284
O O8 0.699872 0.250000 0.581968
O O9 0.596476 0.421132 0.353056
O O10 0.716759 0.388788 0.757944
O O11 0.923329 0.394584 0.932994
O O12 0.141570 0.250000 0.274768
O O13 0.252732 0.423952 0.478829
O O14 0.500000 0.000000 0.000000
O O15 0.500000 0.000000 0.500000
#
# Coordination Sequence:
#
# PCOD8068159 Si02
#       6
#     4   4   4   4   4   4
#     4   8  14  25  46  71  97 130 161 201 259 308
#     4   9  17  31  48  69 100 137 172 207 257 314
#     4  11  21  32  52  83 107 129 174 229 266 303
#     4   9  18  34  54  76 105 138 172 216 267 311
#     4  11  21  34  53  76 108 143 175 207 261 319
#     4  10  16  29  48  76 104 132 168 222 266 302
#
# _framework density 18.585443999999999
#
# number of rings (size 3 to 8) (size 9 to 14) (size 15 to 20)
#    0.000    2.333    5.000    2.500    0.000    2.000 
#    0.000    0.000    0.000    1.000    0.000    0.000 
#    0.000    0.000    0.000    0.000    0.000    0.000 
#
# Total GULP energy -297462.626346 kJ/mol
# GULP energy per Si atom -12394.276098 kJ/mol
# Density = 1.854314 g / cm^3
# Si number density = 18.585444 Si / 1000 Ang^3
#
#
#
# Elastic Constant Matrix: (Units=GPa)
#
#
# Indices 1 2 3 4 5 6 
#
# 1 153.8762 79.0931 33.5574 0.0000 2.3691 0.0000
# 2 79.0931 141.8583 29.9224 0.0000 -6.8750 0.0000
# 3 33.5574 29.9224 22.4054 0.0000 -1.0118 0.0000
# 4 0.0000 0.0000 0.0000 11.3750 0.0000 7.9275
# 5 2.3691 -6.8750 -1.0118 0.0000 23.4148 0.0000
# 6 0.0000 0.0000 0.0000 7.9275 0.0000 37.4624
#
#
#
# Elastic Compliance Matrix: (Units=1/GPa)
#
#
# Indices 1 2 3 4 5 6 
#
# 1 0.011031 -0.003859 -0.011491 0.000000 -0.002746 0.000000
# 2 -0.003859 0.011292 -0.009150 0.000000 0.003311 0.000000
# 3 -0.011491 -0.009150 0.074138 0.000000 0.001680 0.000000
# 4 0.000000 0.000000 0.000000 0.103120 0.000000 -0.021821
# 5 -0.002746 0.003311 0.001680 0.000000 0.044030 0.000000
# 6 0.000000 0.000000 0.000000 -0.021821 0.000000 0.031311
#
#
# Mechanical properties :
#
#
# Convention : Reuss Voigt Hill
#
# Bulk Modulus (GPa) = 21.07043 67.03174 44.05109
# Shear Modulus (GPa) = 14.71702 26.15490 20.43596
#
# Velocity S-wave (km/s) = 2.81705 3.75544 3.31957
# Velocity P-wave (km/s) = 4.68430 7.41280 6.20049
#
# Compressibility (1/GPa) = 0.04745987
#
# Stress axis : x y z
#
# Youngs Moduli (GPa) = 90.65585 88.56141 13.48835
#
# Poissons Ratio (x) = 0.34180 0.15499
# Poissons Ratio (y) = 0.34988 0.12342
# Poissons Ratio (z) = 1.04171 0.81033
#
# Static dielectric constant tensor:
#      x y z
#    x 3.874790 0.000000 0.371130 
#    y 0.000000 4.375850 0.000000 
#    z 0.371130 0.000000 2.749100 
# 
# 
# High freq. dielectric constant tensor:
#      x y z
#    x 1.729930 0.000000 0.030010 
#    y 0.000000 1.749680 0.000000 
#    z 0.030010 0.000000 1.641250 
# 
# From -- ./inp_files/35201.got.cif
#   From: 2010.06.25/outbox.cif.g09.slc.cpg/sg11_18_cif.got.tgz:35201.got - 2010.06.27 23:14:04.
