data_PCOD8068959
_publ_section_title
;
Structure prediction by ZEFSAII (Michael W. Deem and Ramdas Pophale) SiO2 
 PCOD8068959
Probable space group: P 21/M
;
_chemical_formula_sum "Si O2"
_cell_formula_units_Z 32
_cell_length_a 19.848059
_cell_length_b 9.064275
_cell_length_c 12.093501
_cell_angle_alpha 90.000000
_cell_angle_beta 122.761152
_cell_angle_gamma 90.000000
_cell_volume 1829.636933
_symmetry_space_group_name_H-M "P 21/M"
_symmetry_group_IT_number 11
_symmetry_cell_setting 'monoclinic'
loop_
_space_group_symop_operation_xyz
x,y,z
-x,1/2+y,-z
-x,-y,-z
x,1/2-y,z
loop_
_atom_site_type_symbol
_atom_site_label
_atom_site_fract_x
_atom_site_fract_y
_atom_site_fract_z
Si Si1 0.314899 0.418992 0.704287
Si Si2 0.261878 0.421646 0.898023
Si Si3 0.892495 0.421528 0.315419
Si Si4 0.069867 0.420564 0.423865
Si Si5 0.546992 0.920855 0.333748
Si Si6 0.366141 0.923066 0.172492
Si Si7 0.659486 0.421334 0.598528
Si Si8 0.796446 0.077299 0.559187
O O1 0.290352 0.250000 0.655993
O O2 0.314578 0.449382 0.834666
O O3 0.403162 0.452850 0.734102
O O4 0.251249 0.528048 0.592688
O O5 0.244678 0.250000 0.901277
O O6 0.177178 0.504803 0.817910
O O7 0.310415 0.484232 0.043344
O O8 0.873794 0.250000 0.318357
O O9 0.899624 0.499410 0.439197
O O10 0.975262 0.443005 0.321096
O O11 0.092360 0.250000 0.455556
O O12 0.118178 0.492182 0.363585
O O13 0.544274 0.750000 0.361672
O O14 0.457077 0.978527 0.235642
O O15 0.586226 0.997588 0.474404
O O16 0.357053 0.750000 0.138411
O O17 0.338058 0.961826 0.271103
O O18 0.643802 0.250000 0.564778
O O19 0.744858 0.467999 0.621105
O O20 0.813247 0.250000 0.569166
#
# Coordination Sequence:
#
# PCOD8068959 Si02
#       8
#     4   4   4   4   4   4   4   4
#     4   9  18  32  48  71 103 133 165 208 256 300
#     4  11  22  34  50  72 104 139 172 209 248 299
#     4  10  20  33  51  75 104 136 167 200 244 299
#     4  10  19  31  50  78 107 132 162 203 248 295
#     4   9  18  33  54  76  98 130 169 214 262 304
#     4  10  21  36  52  71 100 137 175 213 256 302
#     4   9  19  34  52  76 102 130 169 218 259 295
#     4  10  18  29  50  77 103 132 167 206 253 303
#
# _framework density 17.489809000000001
#
# number of rings (size 3 to 8) (size 9 to 14) (size 15 to 20)
#    0.000    2.250    1.250    1.875    0.000    4.000 
#    0.000    0.000    0.000    0.750    0.000    0.000 
#    0.000    0.000    0.000    0.000    0.000    0.000 
#
# Total GULP energy -396813.194544 kJ/mol
# GULP energy per Si atom -12400.412329 kJ/mol
# Density = 1.745000 g / cm^3
# Si number density = 17.489809 Si / 1000 Ang^3
#
#
#
# Elastic Constant Matrix: (Units=GPa)
#
#
# Indices 1 2 3 4 5 6 
#
# 1 132.7935 61.2066 64.0494 0.0000 14.6417 0.0000
# 2 61.2066 90.6584 48.5461 0.0000 5.7801 0.0000
# 3 64.0494 48.5461 86.3453 0.0000 -2.5102 0.0000
# 4 0.0000 0.0000 0.0000 26.6570 0.0000 1.3262
# 5 14.6417 5.7801 -2.5102 0.0000 14.6953 0.0000
# 6 0.0000 0.0000 0.0000 1.3262 0.0000 24.7051
#
#
#
# Elastic Compliance Matrix: (Units=1/GPa)
#
#
# Indices 1 2 3 4 5 6 
#
# 1 0.016187 -0.004621 -0.009874 0.000000 -0.015997 0.000000
# 2 -0.004621 0.018034 -0.006818 0.000000 -0.003654 0.000000
# 3 -0.009874 -0.006818 0.023218 0.000000 0.016486 0.000000
# 4 0.000000 0.000000 0.000000 0.037614 0.000000 -0.002019
# 5 -0.015997 -0.003654 0.016486 0.000000 0.088241 0.000000
# 6 0.000000 0.000000 0.000000 -0.002019 0.000000 0.040586
#
#
# Mechanical properties :
#
#
# Convention : Reuss Voigt Hill
#
# Bulk Modulus (GPa) = 67.50635 73.04460 70.27547
# Shear Modulus (GPa) = 18.42014 22.27781 20.34897
#
# Velocity S-wave (km/s) = 3.24881 3.57285 3.41468
# Velocity P-wave (km/s) = 7.26322 7.67301 7.47093
#
# Compressibility (1/GPa) = 0.01481342
#
# Stress axis : x y z
#
# Youngs Moduli (GPa) = 61.77977 55.45115 43.06973
#
# Poissons Ratio (x) = 0.25623 0.42527
# Poissons Ratio (y) = 0.28548 0.29364
# Poissons Ratio (z) = 0.61001 0.37805
#
# Static dielectric constant tensor:
#      x y z
#    x 3.737960 0.000000 0.080000 
#    y 0.000000 3.345310 0.000000 
#    z 0.080000 0.000000 2.909520 
# 
# 
# High freq. dielectric constant tensor:
#      x y z
#    x 1.693520 0.000000 0.007300 
#    y 0.000000 1.684040 0.000000 
#    z 0.007300 0.000000 1.637300 
# 
# From -- ./inp_files/42772.got.cif
#   From: 2010.06.25/outbox.cif.g09.slc.cpg/sg11_22_cif.got.tgz:42772.got - 2010.06.27 23:14:04.
