data_PCOD8068652
_publ_section_title
;
Structure prediction by ZEFSAII (Michael W. Deem and Ramdas Pophale) SiO2 
 PCOD8068652
Probable space group: P 21/M
;
_chemical_formula_sum "Si O2"
_cell_formula_units_Z 32
_cell_length_a 23.464279
_cell_length_b 8.764247
_cell_length_c 17.476757
_cell_angle_alpha 90.000000
_cell_angle_beta 148.324511
_cell_angle_gamma 90.000000
_cell_volume 1887.256794
_symmetry_space_group_name_H-M "P 21/M"
_symmetry_group_IT_number 11
_symmetry_cell_setting 'monoclinic'
loop_
_space_group_symop_operation_xyz
x,y,z
-x,1/2+y,-z
-x,-y,-z
x,1/2-y,z
loop_
_atom_site_type_symbol
_atom_site_label
_atom_site_fract_x
_atom_site_fract_y
_atom_site_fract_z
Si Si1 0.262135 0.929943 0.838525
Si Si2 0.079619 0.930689 0.743541
Si Si3 0.154632 0.425257 0.572598
Si Si4 0.318018 0.075840 0.624036
Si Si5 0.810908 0.429444 0.650978
Si Si6 0.485863 0.070632 0.067175
Si Si7 0.888936 0.073661 0.895313
Si Si8 0.961561 0.070258 0.135409
O O1 0.279052 0.750000 0.864300
O O2 0.180740 0.994387 0.810597
O O3 0.214724 0.967739 0.701330
O O4 0.376497 0.011596 0.981953
O O5 0.079188 0.750000 0.739759
O O6 0.089349 0.986155 0.842550
O O7 0.967379 0.988133 0.577429
O O8 0.157449 0.250000 0.604486
O O9 0.213663 0.440426 0.558878
O O10 0.358151 0.250000 0.665389
O O11 0.284265 0.018368 0.501503
O O12 0.415189 0.972398 0.765355
O O13 0.796029 0.250000 0.619685
O O14 0.799098 0.474495 0.728786
O O15 0.928673 0.478677 0.754939
O O16 0.479310 0.250000 0.049034
O O17 0.500000 0.000000 0.000000
O O18 0.908022 0.250000 0.905633
O O19 0.870160 0.036841 0.964322
O O20 0.000000 0.000000 0.000000
O O21 0.990874 0.250000 0.172364
#
# Coordination Sequence:
#
# PCOD8068652 Si02
#       8
#     4   4   4   4   4   4   4   4
#     4  11  22  35  52  73  98 130 168 207 248 291
#     4   9  18  32  50  73 100 132 170 205 238 289
#     4  10  19  33  51  71  98 131 168 205 241 287
#     4  11  21  34  54  75  97 130 169 204 246 295
#     4  10  18  28  43  72 105 130 163 204 247 294
#     4  12  24  39  56  73  96 126 164 209 252 293
#     4   8  15  25  42  66  96 132 165 198 239 290
#     4   9  15  29  48  67  97 137 171 200 240 288
#
# _framework density 16.955825999999998
#
# number of rings (size 3 to 8) (size 9 to 14) (size 15 to 20)
#    0.000    2.000    2.500    2.625    0.000    1.000 
#    0.000    1.875    0.000    0.000    0.000    0.875 
#    0.000    0.000    0.000    0.000    0.000    0.000 
#
# Total GULP energy -396597.514523 kJ/mol
# GULP energy per Si atom -12393.672329 kJ/mol
# Density = 1.691723 g / cm^3
# Si number density = 16.955826 Si / 1000 Ang^3
#
#
#
# Elastic Constant Matrix: (Units=GPa)
#
#
# Indices 1 2 3 4 5 6 
#
# 1 51.6093 20.7630 47.3742 0.0000 -3.8517 0.0000
# 2 20.7630 63.3891 31.0131 0.0000 0.0585 0.0000
# 3 47.3742 31.0131 108.6755 0.0000 -9.6581 0.0000
# 4 0.0000 0.0000 0.0000 25.8907 0.0000 0.2189
# 5 -3.8517 0.0585 -9.6581 0.0000 33.9674 0.0000
# 6 0.0000 0.0000 0.0000 0.2189 0.0000 14.9931
#
#
#
# Elastic Compliance Matrix: (Units=1/GPa)
#
#
# Indices 1 2 3 4 5 6 
#
# 1 0.033338 -0.004429 -0.013268 0.000000 0.000016 0.000000
# 2 -0.004429 0.019005 -0.003632 0.000000 -0.001568 0.000000
# 3 -0.013268 -0.003632 0.016301 0.000000 0.003137 0.000000
# 4 0.000000 0.000000 0.000000 0.038629 0.000000 -0.000564
# 5 0.000016 -0.001568 0.003137 0.000000 0.030336 0.000000
# 6 0.000000 0.000000 0.000000 -0.000564 0.000000 0.066705
#
#
# Mechanical properties :
#
#
# Convention : Reuss Voigt Hill
#
# Bulk Modulus (GPa) = 38.48159 46.88605 42.68382
# Shear Modulus (GPa) = 19.55928 23.27182 21.41555
#
# Velocity S-wave (km/s) = 3.40007 3.70874 3.55776
# Velocity P-wave (km/s) = 6.17725 6.78613 6.48884
#
# Compressibility (1/GPa) = 0.02598645
#
# Stress axis : x y z
#
# Youngs Moduli (GPa) = 29.99570 52.61862 61.34712
#
# Poissons Ratio (x) = 0.23303 0.81393
# Poissons Ratio (y) = 0.13284 0.22283
# Poissons Ratio (z) = 0.39797 0.19112
#
# Static dielectric constant tensor:
#      x y z
#    x 3.429090 0.000000 -0.309570 
#    y 0.000000 3.102450 0.000000 
#    z -0.309570 0.000000 3.368200 
# 
# 
# High freq. dielectric constant tensor:
#      x y z
#    x 1.631880 0.000000 -0.026380 
#    y 0.000000 1.652350 0.000000 
#    z -0.026380 0.000000 1.648500 
# 
# From -- ./inp_files/43815.got.cif
#   From: 2010.06.25/outbox.cif.g09.slc.cpg/sg11_22_cif.got.tgz:43815.got - 2010.06.27 23:14:04.
