data_PCOD8068743
_publ_section_title
;
Structure prediction by ZEFSAII (Michael W. Deem and Ramdas Pophale) SiO2 
 PCOD8068743
Probable space group: P 21/M
;
_chemical_formula_sum "Si O2"
_cell_formula_units_Z 32
_cell_length_a 23.630217
_cell_length_b 8.524977
_cell_length_c 17.633435
_cell_angle_alpha 90.000000
_cell_angle_beta 148.991406
_cell_angle_gamma 90.000000
_cell_volume 1829.976776
_symmetry_space_group_name_H-M "P 21/M"
_symmetry_group_IT_number 11
_symmetry_cell_setting 'monoclinic'
loop_
_space_group_symop_operation_xyz
x,y,z
-x,1/2+y,-z
-x,-y,-z
x,1/2-y,z
loop_
_atom_site_type_symbol
_atom_site_label
_atom_site_fract_x
_atom_site_fract_y
_atom_site_fract_z
Si Si1 0.242382 0.068628 0.812773
Si Si2 0.092297 0.568345 0.761829
Si Si3 0.811185 0.433460 0.648454
Si Si4 0.299891 0.429859 0.615428
Si Si5 0.134975 0.930672 0.543095
Si Si6 0.471828 0.567507 0.049268
Si Si7 0.116074 0.567317 0.113332
Si Si8 0.955308 0.066131 0.124754
O O1 0.232883 0.250000 0.779514
O O2 0.182434 0.036418 0.823248
O O3 0.186042 0.965520 0.683306
O O4 0.369225 0.022666 0.967290
O O5 0.120778 0.750000 0.782361
O O6 0.099115 0.520472 0.858075
O O7 0.971268 0.537694 0.590453
O O8 0.786913 0.250000 0.611003
O O9 0.721930 0.529003 0.497445
O O10 0.798878 0.490685 0.723346
O O11 0.933559 0.468072 0.758207
O O12 0.269472 0.250000 0.597516
O O13 0.224661 0.537799 0.581708
O O14 0.427051 0.462428 0.778134
O O15 0.099206 0.750000 0.498451
O O16 0.443610 0.750000 0.008610
O O17 0.500000 0.500000 0.000000
O O18 0.108398 0.750000 0.116747
O O19 0.135228 0.526582 0.046085
O O20 0.000000 0.500000 0.000000
O O21 0.987039 0.250000 0.159473
#
# Coordination Sequence:
#
# PCOD8068743 Si02
#       8
#     4   4   4   4   4   4   4   4
#     4  12  25  40  56  75 103 137 177 219 262 311
#     4  11  22  36  54  77 107 141 178 215 258 309
#     4  10  18  28  47  74 106 136 171 211 252 304
#     4  11  22  35  53  77 105 137 173 211 261 312
#     4  12  23  36  55  77 105 137 175 217 260 307
#     4  11  23  39  59  78 100 132 174 221 265 311
#     4   8  15  27  43  69 100 135 170 205 249 301
#     4   9  17  30  49  70 102 140 173 208 253 305
#
# _framework density 17.486560999999998
#
# number of rings (size 3 to 8) (size 9 to 14) (size 15 to 20)
#    0.000    1.500    2.500    4.125    0.000    2.500 
#    0.000    0.000    0.000    0.000    0.000    0.875 
#    0.000    0.000    0.000    0.000    0.000    0.000 
#
# Total GULP energy -396688.698086 kJ/mol
# GULP energy per Si atom -12396.521815 kJ/mol
# Density = 1.744676 g / cm^3
# Si number density = 17.486561 Si / 1000 Ang^3
#
#
#
# Elastic Constant Matrix: (Units=GPa)
#
#
# Indices 1 2 3 4 5 6 
#
# 1 81.9286 18.0840 68.4712 0.0000 -10.4664 0.0000
# 2 18.0840 51.3732 23.4524 0.0000 -4.9019 0.0000
# 3 68.4712 23.4524 96.4440 0.0000 -26.0426 0.0000
# 4 0.0000 0.0000 0.0000 24.0094 0.0000 0.2677
# 5 -10.4664 -4.9019 -26.0426 0.0000 32.9455 0.0000
# 6 0.0000 0.0000 0.0000 0.2677 0.0000 23.2295
#
#
#
# Elastic Compliance Matrix: (Units=1/GPa)
#
#
# Indices 1 2 3 4 5 6 
#
# 1 0.032455 -0.000705 -0.025573 0.000000 -0.010009 0.000000
# 2 -0.000705 0.021949 -0.005105 0.000000 -0.000994 0.000000
# 3 -0.025573 -0.005105 0.034794 0.000000 0.018620 0.000000
# 4 0.000000 0.000000 0.000000 0.041656 0.000000 -0.000480
# 5 -0.010009 -0.000994 0.018620 0.000000 0.041744 0.000000
# 6 0.000000 0.000000 0.000000 -0.000480 0.000000 0.043054
#
#
# Mechanical properties :
#
#
# Convention : Reuss Voigt Hill
#
# Bulk Modulus (GPa) = 37.83362 49.97345 43.90353
# Shear Modulus (GPa) = 17.40765 24.01943 20.71354
#
# Velocity S-wave (km/s) = 3.15856 3.71022 3.44545
# Velocity P-wave (km/s) = 5.91479 6.85526 6.40232
#
# Compressibility (1/GPa) = 0.02643152
#
# Stress axis : x y z
#
# Youngs Moduli (GPa) = 30.81159 45.55945 28.74072
#
# Poissons Ratio (x) = 0.03213 0.73499
# Poissons Ratio (y) = 0.02173 0.14672
# Poissons Ratio (z) = 0.78795 0.23258
#
# Static dielectric constant tensor:
#      x y z
#    x 3.376400 0.000000 -0.467960 
#    y 0.000000 3.331880 0.000000 
#    z -0.467960 0.000000 3.483610 
# 
# 
# High freq. dielectric constant tensor:
#      x y z
#    x 1.655660 0.000000 -0.031610 
#    y 0.000000 1.687630 0.000000 
#    z -0.031610 0.000000 1.664300 
# 
# From -- ./inp_files/43800.got.cif
#   From: 2010.06.25/outbox.cif.g09.slc.cpg/sg11_22_cif.got.tgz:43800.got - 2010.06.27 23:14:04.
