data_PCOD8068430
_publ_section_title
;
Structure prediction by ZEFSAII (Michael W. Deem and Ramdas Pophale) SiO2 
 PCOD8068430
Probable space group: P 21/M
;
_chemical_formula_sum "Si O2"
_cell_formula_units_Z 32
_cell_length_a 11.392446
_cell_length_b 18.206831
_cell_length_c 19.338780
_cell_angle_alpha 90.000000
_cell_angle_beta 24.474618
_cell_angle_gamma 90.000000
_cell_volume 1661.823733
_symmetry_space_group_name_H-M "P 21/M"
_symmetry_group_IT_number 11
_symmetry_cell_setting 'monoclinic'
loop_
_space_group_symop_operation_xyz
x,y,z
-x,1/2+y,-z
-x,-y,-z
x,1/2-y,z
loop_
_atom_site_type_symbol
_atom_site_label
_atom_site_fract_x
_atom_site_fract_y
_atom_site_fract_z
Si Si1 0.480965 0.831799 0.337110
Si Si2 0.442822 0.337748 0.186262
Si Si3 0.136791 0.068760 0.467240
Si Si4 0.349988 0.832649 0.251333
Si Si5 0.029604 0.581089 0.058183
Si Si6 0.998573 0.663098 0.690547
Si Si7 0.703809 0.054810 0.229364
Si Si8 0.955901 0.836864 0.869181
O O1 0.535547 0.750000 0.333399
O O2 0.325391 0.833411 0.347222
O O3 0.785146 0.865841 0.163876
O O4 0.275492 0.870930 0.503627
O O5 0.468342 0.250000 0.184715
O O6 0.282053 0.372975 0.337649
O O7 0.281394 0.357666 0.202192
O O8 0.753069 0.374795 0.009178
O O9 0.363878 0.043173 0.404398
O O10 0.893222 0.110833 0.642168
O O11 0.000000 0.000000 0.500000
O O12 0.296725 0.750000 0.251267
O O13 0.654251 0.861596 0.062167
O O14 0.869728 0.511670 0.179900
O O15 0.202078 0.553609 0.900231
O O16 0.029427 0.750000 0.675103
O O17 0.974381 0.632764 0.781111
O O18 0.785848 0.129257 0.225106
O O19 0.993404 0.750000 0.853864
#
# Coordination Sequence:
#
# PCOD8068430 Si02
#       8
#     4   4   4   4   4   4   4   4
#     4  10  17  31  56  82 108 140 189 235 277 330
#     4  10  20  35  58  84 111 145 189 234 280 330
#     4  11  22  34  57  84 118 147 183 239 287 326
#     4  10  19  33  57  85 108 143 195 235 274 334
#     4  10  20  34  54  83 114 141 185 237 281 328
#     4   9  19  36  57  83 113 148 186 230 283 334
#     4  10  22  35  53  83 117 149 183 228 290 341
#     4  10  21  38  59  82 117 153 185 231 285 339
#
# _framework density 19.255953999999999
#
# number of rings (size 3 to 8) (size 9 to 14) (size 15 to 20)
#    0.000    2.000    2.500    1.500    3.500    2.500 
#    0.000    2.500    0.000    4.500    0.000    0.000 
#    0.000    0.000    0.000    0.000    0.000    0.000 
#
# Total GULP energy -396575.402546 kJ/mol
# GULP energy per Si atom -12392.981330 kJ/mol
# Density = 1.921213 g / cm^3
# Si number density = 19.255954 Si / 1000 Ang^3
#
#
#
# Elastic Constant Matrix: (Units=GPa)
#
#
# Indices 1 2 3 4 5 6 
#
# 1 38.1903 15.0483 14.6061 0.0000 -9.9437 0.0000
# 2 15.0483 68.4727 34.9880 0.0000 -16.9745 0.0000
# 3 14.6061 34.9880 85.4078 0.0000 -22.6896 0.0000
# 4 0.0000 0.0000 0.0000 24.4348 0.0000 -11.7574
# 5 -9.9437 -16.9745 -22.6896 0.0000 38.0429 0.0000
# 6 0.0000 0.0000 0.0000 -11.7574 0.0000 22.8087
#
#
#
# Elastic Compliance Matrix: (Units=1/GPa)
#
#
# Indices 1 2 3 4 5 6 
#
# 1 0.029907 -0.004352 -0.002104 0.000000 0.004620 0.000000
# 2 -0.004352 0.019755 -0.006309 0.000000 0.003914 0.000000
# 3 -0.002104 -0.006309 0.016349 0.000000 0.006386 0.000000
# 4 0.000000 0.000000 0.000000 0.054424 0.000000 0.028055
# 5 0.004620 0.003914 0.006386 0.000000 0.033049 0.000000
# 6 0.000000 0.000000 0.000000 0.028055 0.000000 0.058305
#
#
# Mechanical properties :
#
#
# Convention : Reuss Voigt Hill
#
# Bulk Modulus (GPa) = 24.70264 35.70616 30.20440
# Shear Modulus (GPa) = 19.93514 25.55251 22.74383
#
# Velocity S-wave (km/s) = 3.22105 3.64674 3.44049
# Velocity P-wave (km/s) = 5.16624 6.02618 5.61270
#
# Compressibility (1/GPa) = 0.04048151
#
# Stress axis : x y z
#
# Youngs Moduli (GPa) = 33.43656 50.62090 61.16460
#
# Poissons Ratio (x) = 0.22031 0.12871
# Poissons Ratio (y) = 0.14552 0.38586
# Poissons Ratio (z) = 0.07036 0.31934
#
# Static dielectric constant tensor:
#      x y z
#    x 3.394740 0.000000 -0.162910 
#    y 0.000000 3.627160 0.000000 
#    z -0.162910 0.000000 3.811310 
# 
# 
# High freq. dielectric constant tensor:
#      x y z
#    x 1.712400 0.000000 -0.022440 
#    y 0.000000 1.747340 0.000000 
#    z -0.022440 0.000000 1.753990 
# 
# From -- ./inp_files/59602.got.cif
#   From: 2010.06.25/outbox.cif.g09.slc.cpg/sg11_30_cif.got.tgz:59602.got - 2010.06.27 23:14:04.
