data_PCOD8068791
_publ_section_title
;
Structure prediction by ZEFSAII (Michael W. Deem and Ramdas Pophale) SiO2 
 PCOD8068791
Probable space group: P 21/M
;
_chemical_formula_sum "Si O2"
_cell_formula_units_Z 24
_cell_length_a 13.081531
_cell_length_b 8.684132
_cell_length_c 13.637034
_cell_angle_alpha 90.000000
_cell_angle_beta 89.421971
_cell_angle_gamma 90.000000
_cell_volume 1549.111982
_symmetry_space_group_name_H-M "P 21/M"
_symmetry_group_IT_number 11
_symmetry_cell_setting 'monoclinic'
loop_
_space_group_symop_operation_xyz
x,y,z
-x,1/2+y,-z
-x,-y,-z
x,1/2-y,z
loop_
_atom_site_type_symbol
_atom_site_label
_atom_site_fract_x
_atom_site_fract_y
_atom_site_fract_z
Si Si1 0.015163 0.423747 0.103833
Si Si2 0.907593 0.068790 0.716916
Si Si3 0.504133 0.932920 0.608573
Si Si4 0.710605 0.067470 0.598489
Si Si5 0.701350 0.568936 0.383973
Si Si6 0.111574 0.923617 0.716101
O O1 0.053920 0.250000 0.088410
O O2 0.099586 0.515199 0.168588
O O3 0.907670 0.426649 0.165682
O O4 0.000000 0.500000 0.000000
O O5 0.921151 0.250000 0.710880
O O6 0.807283 0.013270 0.660939
O O7 0.007713 0.989444 0.666071
O O8 0.502464 0.750000 0.609198
O O9 0.500000 0.000000 0.500000
O O10 0.610366 0.995269 0.652968
O O11 0.402729 0.998598 0.662833
O O12 0.699158 0.250000 0.595150
O O13 0.725516 0.005381 0.488784
O O14 0.688556 0.750000 0.396892
O O15 0.792814 0.531034 0.309104
O O16 0.131557 0.750000 0.678033
#
# Coordination Sequence:
#
# PCOD8068791 Si02
#       6
#     4   4   4   4   4   4
#     4   9  18  31  50  69  92 118 147 187 227 274
#     4   9  18  31  47  68  93 120 153 187 226 272
#     4  10  18  29  45  63  87 119 158 195 225 264
#     4  10  19  31  46  65  93 125 157 192 225 266
#     4  11  20  30  46  65  91 125 158 193 227 267
#     4   9  19  32  46  67  93 120 152 188 226 273
#
# _framework density 15.492746
#
# number of rings (size 3 to 8) (size 9 to 14) (size 15 to 20)
#    1.000    1.333    0.000    6.500    0.000    3.333 
#    0.000    0.000    0.000    0.000    0.000    1.167 
#    0.000    0.000    0.000    0.000    0.000    0.000 
#
# Total GULP energy -297368.631900 kJ/mol
# GULP energy per Si atom -12390.359663 kJ/mol
# Density = 1.545748 g / cm^3
# Si number density = 15.492746 Si / 1000 Ang^3
#
#
#
# Elastic Constant Matrix: (Units=GPa)
#
#
# Indices 1 2 3 4 5 6 
#
# 1 122.2806 43.8883 32.1789 0.0000 -8.1443 0.0000
# 2 43.8883 98.6317 20.7134 0.0000 -2.5688 0.0000
# 3 32.1789 20.7134 49.2583 0.0000 -3.1005 0.0000
# 4 0.0000 0.0000 0.0000 22.9831 0.0000 -1.4003
# 5 -8.1443 -2.5688 -3.1005 0.0000 3.0086 0.0000
# 6 0.0000 0.0000 0.0000 -1.4003 0.0000 29.4201
#
#
#
# Elastic Compliance Matrix: (Units=1/GPa)
#
#
# Indices 1 2 3 4 5 6 
#
# 1 0.012591 -0.003890 -0.004976 0.000000 0.025634 0.000000
# 2 -0.003890 0.012393 -0.002852 0.000000 -0.002888 0.000000
# 3 -0.004976 -0.002852 0.025397 0.000000 0.010268 0.000000
# 4 0.000000 0.000000 0.000000 0.043637 0.000000 0.002077
# 5 0.025634 -0.002888 0.010268 0.000000 0.409882 0.000000
# 6 0.000000 0.000000 0.000000 0.002077 0.000000 0.034089
#
#
# Mechanical properties :
#
#
# Convention : Reuss Voigt Hill
#
# Bulk Modulus (GPa) = 37.11169 51.52574 44.31872
# Shear Modulus (GPa) = 8.76567 22.64171 15.70369
#
# Velocity S-wave (km/s) = 2.38122 3.82702 3.18719
# Velocity P-wave (km/s) = 5.61841 7.27037 6.49711
#
# Compressibility (1/GPa) = 0.02694568
#
# Stress axis : x y z
#
# Youngs Moduli (GPa) = 79.42283 80.68807 39.37407
#
# Poissons Ratio (x) = 0.31387 0.19592
# Poissons Ratio (y) = 0.30895 0.11230
# Poissons Ratio (z) = 0.39520 0.23013
#
# Static dielectric constant tensor:
#      x y z
#    x 3.374860 0.000000 0.022450 
#    y 0.000000 3.100380 0.000000 
#    z 0.022450 0.000000 2.599530 
# 
# 
# High freq. dielectric constant tensor:
#      x y z
#    x 1.594830 0.000000 -0.001930 
#    y 0.000000 1.618710 0.000000 
#    z -0.001930 0.000000 1.543980 
# 
# From -- ./inp_files/58499.got.cif
#   From: 2010.06.25/outbox.cif.g09.slc.cpg/sg11_30_cif.got.tgz:58499.got - 2010.06.27 23:14:04.
