data_PCOD8068971
_publ_section_title
;
Structure prediction by ZEFSAII (Michael W. Deem and Ramdas Pophale) SiO2 
 PCOD8068971
Probable space group: P 21/M
;
_chemical_formula_sum "Si O2"
_cell_formula_units_Z 32
_cell_length_a 16.751055
_cell_length_b 8.909673
_cell_length_c 11.950396
_cell_angle_alpha 90.000000
_cell_angle_beta 85.596793
_cell_angle_gamma 90.000000
_cell_volume 1778.289613
_symmetry_space_group_name_H-M "P 21/M"
_symmetry_group_IT_number 11
_symmetry_cell_setting 'monoclinic'
loop_
_space_group_symop_operation_xyz
x,y,z
-x,1/2+y,-z
-x,-y,-z
x,1/2-y,z
loop_
_atom_site_type_symbol
_atom_site_label
_atom_site_fract_x
_atom_site_fract_y
_atom_site_fract_z
Si Si1 0.455381 0.575251 0.241790
Si Si2 0.331252 0.427467 0.405039
Si Si3 0.725086 0.424487 0.368710
Si Si4 0.928359 0.922976 0.653958
Si Si5 0.362558 0.425483 0.818568
Si Si6 0.213974 0.923094 0.245456
Si Si7 0.899348 0.422407 0.427424
Si Si8 0.658165 0.421853 0.948140
O O1 0.442657 0.750000 0.269842
O O2 0.416061 0.481655 0.346439
O O3 0.547454 0.528992 0.223954
O O4 0.413042 0.535490 0.129041
O O5 0.328912 0.250000 0.406023
O O6 0.323626 0.486251 0.531876
O O7 0.258378 0.488845 0.339394
O O8 0.705165 0.250000 0.384030
O O9 0.698355 0.482008 0.250781
O O10 0.820096 0.455024 0.364809
O O11 0.908070 0.750000 0.674449
O O12 0.023060 0.955724 0.658816
O O13 0.877352 0.017137 0.750756
O O14 0.900303 0.968992 0.533181
O O15 0.347861 0.250000 0.803396
O O16 0.346108 0.466122 0.948408
O O17 0.215832 0.750000 0.279897
O O18 0.256625 0.948023 0.121982
O O19 0.902292 0.250000 0.469561
O O20 0.649754 0.250000 0.989750
#
# Coordination Sequence:
#
# PCOD8068971 Si02
#       8
#     4   4   4   4   4   4   4   4
#     4   9  20  38  57  78 106 138 171 217 272 321
#     4  11  21  33  53  81 107 136 177 221 262 309
#     4  11  22  37  55  73 107 150 179 210 260 322
#     4  10  18  29  51  82 109 135 174 219 260 308
#     4  11  23  37  55  79 105 136 179 224 265 311
#     4  10  19  33  53  79 111 143 172 211 266 321
#     4   9  19  33  50  75 108 144 175 211 262 315
#     4   9  19  36  57  78 103 137 177 216 263 319
#
# _framework density 17.994817999999999
#
# number of rings (size 3 to 8) (size 9 to 14) (size 15 to 20)
#    0.000    2.000    1.250    3.750    0.000    5.000 
#    0.000    0.000    0.000    0.750    0.000    0.000 
#    0.000    0.000    0.000    0.000    0.000    0.000 
#
# Total GULP energy -396878.148600 kJ/mol
# GULP energy per Si atom -12402.442144 kJ/mol
# Density = 1.795386 g / cm^3
# Si number density = 17.994818 Si / 1000 Ang^3
#
#
#
# Elastic Constant Matrix: (Units=GPa)
#
#
# Indices 1 2 3 4 5 6 
#
# 1 125.7649 56.0475 48.0734 0.0000 -8.8291 0.0000
# 2 56.0475 99.5928 39.8570 0.0000 -5.7820 0.0000
# 3 48.0734 39.8570 51.5491 0.0000 5.1297 0.0000
# 4 0.0000 0.0000 0.0000 31.3780 0.0000 -4.9786
# 5 -8.8291 -5.7820 5.1297 0.0000 19.4249 0.0000
# 6 0.0000 0.0000 0.0000 -4.9786 0.0000 28.8970
#
#
#
# Elastic Compliance Matrix: (Units=1/GPa)
#
#
# Indices 1 2 3 4 5 6 
#
# 1 0.014508 -0.002699 -0.012343 0.000000 0.009050 0.000000
# 2 -0.002699 0.016188 -0.010636 0.000000 0.006400 0.000000
# 3 -0.012343 -0.010636 0.041086 0.000000 -0.019626 0.000000
# 4 0.000000 0.000000 0.000000 0.032765 0.000000 0.005645
# 5 0.009050 0.006400 -0.019626 0.000000 0.062682 0.000000
# 6 0.000000 0.000000 0.000000 0.005645 0.000000 0.035578
#
#
# Mechanical properties :
#
#
# Convention : Reuss Voigt Hill
#
# Bulk Modulus (GPa) = 48.95837 62.76251 55.86044
# Shear Modulus (GPa) = 19.15909 24.80192 21.98051
#
# Velocity S-wave (km/s) = 3.26651 3.71655 3.49877
# Velocity P-wave (km/s) = 6.44149 7.30553 6.88708
#
# Compressibility (1/GPa) = 0.02042552
#
# Stress axis : x y z
#
# Youngs Moduli (GPa) = 68.92844 61.77375 24.33894
#
# Poissons Ratio (x) = 0.16675 0.30042
# Poissons Ratio (y) = 0.18606 0.25887
# Poissons Ratio (z) = 0.85079 0.65702
#
# Static dielectric constant tensor:
#      x y z
#    x 3.568830 0.000000 -0.216640 
#    y 0.000000 3.356470 0.000000 
#    z -0.216640 0.000000 3.057490 
# 
# 
# High freq. dielectric constant tensor:
#      x y z
#    x 1.701770 0.000000 -0.019800 
#    y 0.000000 1.706300 0.000000 
#    z -0.019800 0.000000 1.668370 
# 
# From -- ./inp_files/40615.got.cif
#   From: 2010.06.25/outbox.cif.g09.slc.cpg/sg11_21_cif.got.tgz:40615.got - 2010.06.27 23:14:04.
