data_PCOD8068270
_publ_section_title
;
Structure prediction by ZEFSAII (Michael W. Deem and Ramdas Pophale) SiO2 
 PCOD8068270
Probable space group: P 21/M
;
_chemical_formula_sum "Si O2"
_cell_formula_units_Z 24
_cell_length_a 12.023584
_cell_length_b 8.756851
_cell_length_c 15.661658
_cell_angle_alpha 90.000000
_cell_angle_beta 72.188943
_cell_angle_gamma 90.000000
_cell_volume 1569.960381
_symmetry_space_group_name_H-M "P 21/M"
_symmetry_group_IT_number 11
_symmetry_cell_setting 'monoclinic'
loop_
_space_group_symop_operation_xyz
x,y,z
-x,1/2+y,-z
-x,-y,-z
x,1/2-y,z
loop_
_atom_site_type_symbol
_atom_site_label
_atom_site_fract_x
_atom_site_fract_y
_atom_site_fract_z
Si Si1 0.554885 0.574903 0.868475
Si Si2 0.924333 0.570619 0.943254
Si Si3 0.055691 0.578582 0.238141
Si Si4 0.933081 0.930520 0.594910
Si Si5 0.320453 0.924112 0.003890
Si Si6 0.722232 0.078865 0.716120
O O1 0.594284 0.750000 0.872424
O O2 0.611663 0.470229 0.927169
O O3 0.603574 0.512923 0.766098
O O4 0.414155 0.560036 0.904136
O O5 0.940606 0.750000 0.939157
O O6 0.973607 0.506524 0.842432
O O7 0.789099 0.530858 0.990247
O O8 0.000000 0.500000 0.000000
O O9 0.003492 0.750000 0.248331
O O10 0.003253 0.487296 0.332390
O O11 0.196964 0.584327 0.216808
O O12 0.934780 0.750000 0.589251
O O13 0.798348 0.991611 0.625506
O O14 0.000000 0.000000 0.500000
O O15 0.276302 0.750000 0.022568
O O16 0.692008 0.250000 0.691744
#
# Coordination Sequence:
#
# PCOD8068270 Si02
#       6
#     4   4   4   4   4   4
#     4  10  18  27  43  63  86 116 147 183 226 270
#     4  12  23  34  48  64  87 122 160 195 230 268
#     4   9  18  31  44  62  88 117 149 185 224 266
#     4  10  17  27  43  64  90 119 149 181 224 275
#     4  10  19  30  42  61  86 113 150 189 224 266
#     4   9  17  27  41  60  87 116 143 177 219 264
#
# _framework density 15.28701
#
# number of rings (size 3 to 8) (size 9 to 14) (size 15 to 20)
#    1.000    1.000    1.667    4.500    0.000    2.000 
#    0.000    0.000    0.000    0.000    0.000    0.000 
#    0.000    1.333    0.000    5.000    0.000    8.167 
#
# Total GULP energy -297406.500079 kJ/mol
# GULP energy per Si atom -12391.937503 kJ/mol
# Density = 1.525222 g / cm^3
# Si number density = 15.287010 Si / 1000 Ang^3
#
#
#
# Elastic Constant Matrix: (Units=GPa)
#
#
# Indices 1 2 3 4 5 6 
#
# 1 38.9090 18.7446 31.4657 0.0000 -1.5592 0.0000
# 2 18.7446 138.1963 58.3631 0.0000 -6.0762 0.0000
# 3 31.4657 58.3631 117.4941 0.0000 -16.2403 0.0000
# 4 0.0000 0.0000 0.0000 29.4748 0.0000 -3.7829
# 5 -1.5592 -6.0762 -16.2403 0.0000 20.1304 0.0000
# 6 0.0000 0.0000 0.0000 -3.7829 0.0000 20.7597
#
#
#
# Elastic Compliance Matrix: (Units=1/GPa)
#
#
# Indices 1 2 3 4 5 6 
#
# 1 0.033361 -0.000858 -0.009214 0.000000 -0.005109 0.000000
# 2 -0.000858 0.009198 -0.004462 0.000000 -0.000890 0.000000
# 3 -0.009214 -0.004462 0.014531 0.000000 0.009662 0.000000
# 4 0.000000 0.000000 0.000000 0.034740 0.000000 0.006330
# 5 -0.005109 -0.000890 0.009662 0.000000 0.056807 0.000000
# 6 0.000000 0.000000 0.000000 0.006330 0.000000 0.049324
#
#
# Mechanical properties :
#
#
# Convention : Reuss Voigt Hill
#
# Bulk Modulus (GPa) = 35.68785 56.86069 46.27427
# Shear Modulus (GPa) = 21.15337 26.47473 23.81405
#
# Velocity S-wave (km/s) = 3.72391 4.16606 3.95117
# Velocity P-wave (km/s) = 6.47193 7.77287 7.15205
#
# Compressibility (1/GPa) = 0.02802074
#
# Stress axis : x y z
#
# Youngs Moduli (GPa) = 29.97493 108.72215 68.82031
#
# Poissons Ratio (x) = 0.09332 0.63412
# Poissons Ratio (y) = 0.02573 0.30707
# Poissons Ratio (z) = 0.27619 0.48511
#
# Static dielectric constant tensor:
#      x y z
#    x 2.626850 0.000000 -0.254070 
#    y 0.000000 3.104530 0.000000 
#    z -0.254070 0.000000 2.794820 
# 
# 
# High freq. dielectric constant tensor:
#      x y z
#    x 1.531500 0.000000 -0.030660 
#    y 0.000000 1.610710 0.000000 
#    z -0.030660 0.000000 1.571900 
# 
# From -- ./inp_files/48695.got.cif
#   From: 2010.06.25/outbox.cif.g09.slc.cpg/sg11_25_cif.got.tgz:48695.got - 2010.06.27 23:14:04.
