data_PCOD8068034
_publ_section_title
;
Structure prediction by ZEFSAII (Michael W. Deem and Ramdas Pophale) SiO2 
 PCOD8068034
Probable space group: P 2/M
;
_chemical_formula_sum "Si O2"
_cell_formula_units_Z 32
_cell_length_a 20.951974
_cell_length_b 14.380980
_cell_length_c 19.467802
_cell_angle_alpha 90.000000
_cell_angle_beta 21.694918
_cell_angle_gamma 90.000000
_cell_volume 2168.392577
_symmetry_space_group_name_H-M "P 2/M"
_symmetry_group_IT_number 10
_symmetry_cell_setting 'monoclinic'
loop_
_space_group_symop_operation_xyz
x,y,z
-x,y,-z
-x,-y,-z
x,-y,z
loop_
_atom_site_type_symbol
_atom_site_label
_atom_site_fract_x
_atom_site_fract_y
_atom_site_fract_z
Si Si1 0.000004 0.103269 0.418745
Si Si2 0.702196 0.603845 0.981796
Si Si3 0.190331 0.610062 0.640580
Si Si4 0.809664 0.610061 0.021248
Si Si5 0.702208 0.603845 0.613801
Si Si6 0.302048 0.762548 0.117978
Si Si7 0.499999 0.611161 0.422679
Si Si8 0.697960 0.237454 0.722067
O O1 0.825853 0.155945 0.568999
O O2 0.000000 0.095295 0.500000
O O3 0.174153 0.155944 0.220699
O O4 0.999998 0.000000 0.385874
O O5 0.773829 0.500000 0.894410
O O6 0.784352 0.646999 0.968941
O O7 0.749581 0.669062 0.870502
O O8 0.499994 0.599362 0.196843
O O9 0.213648 0.500000 0.614356
O O10 0.215641 0.647000 0.537652
O O11 0.331005 0.650952 0.552718
O O12 0.999997 0.638753 0.857304
O O13 0.786346 0.500000 0.041657
O O14 0.668989 0.650954 0.214733
O O15 0.773843 0.500000 0.557918
O O16 0.749591 0.669062 0.630327
O O17 0.275249 0.740170 0.224750
O O18 0.500004 0.792890 0.904802
O O19 0.500000 0.650561 0.500000
O O20 0.499994 0.500000 0.423655
#
# Coordination Sequence:
#
# PCOD8068034 Si02
#       8
#     4   4   4   4   4   4   4   4
#     4   9  18  32  47  61  79 103 133 174 220 260
#     4   9  16  27  42  58  82 114 143 173 206 243
#     4   9  16  25  37  53  73 102 138 169 201 240
#     4   9  16  25  37  53  73 102 138 169 201 240
#     4   9  16  27  42  58  82 114 143 173 206 243
#     4   9  18  30  43  62  84 106 139 178 210 248
#     4   9  16  26  38  52  73  99 134 179 209 229
#     4   9  18  30  43  62  84 106 139 178 210 248
#
# _framework density 14.757474999999999
#
# number of rings (size 3 to 8) (size 9 to 14) (size 15 to 20)
#    0.000    3.000    1.250    0.000    1.750    1.500 
#    0.000    7.500    0.000    2.250    0.000    0.000 
#    0.000    0.000    0.000    0.000    0.000    3.750 
#
# Total GULP energy -396632.998062 kJ/mol
# GULP energy per Si atom -12394.781189 kJ/mol
# Density = 1.472389 g / cm^3
# Si number density = 14.757475 Si / 1000 Ang^3
#
#
#
# Elastic Constant Matrix: (Units=GPa)
#
#
# Indices 1 2 3 4 5 6 
#
# 1 81.0077 35.1005 53.9846 0.0000 0.5553 0.0000
# 2 35.1005 64.3936 39.3609 0.0000 -1.2639 0.0000
# 3 53.9846 39.3609 99.4620 0.0000 -6.0315 0.0000
# 4 0.0000 0.0000 0.0000 14.9370 0.0000 -3.7625
# 5 0.5553 -1.2639 -6.0315 0.0000 14.5294 0.0000
# 6 0.0000 0.0000 0.0000 -3.7625 0.0000 2.2516
#
#
#
# Elastic Compliance Matrix: (Units=1/GPa)
#
#
# Indices 1 2 3 4 5 6 
#
# 1 0.021291 -0.005869 -0.009554 0.000000 -0.005290 0.000000
# 2 -0.005869 0.022140 -0.005586 0.000000 -0.000169 0.000000
# 3 -0.009554 -0.005586 0.017894 0.000000 0.007307 0.000000
# 4 0.000000 0.000000 0.000000 0.115614 0.000000 0.193202
# 5 -0.005290 -0.000169 0.007307 0.000000 0.072047 0.000000
# 6 0.000000 0.000000 0.000000 0.193202 0.000000 0.766996
#
#
# Mechanical properties :
#
#
# Convention : Reuss Voigt Hill
#
# Bulk Modulus (GPa) = 51.79945 55.75059 53.77502
# Shear Modulus (GPa) = 4.69732 14.10475 9.40104
#
# Velocity S-wave (km/s) = 1.78604 3.09491 2.52669
# Velocity P-wave (km/s) = 6.27932 7.11556 6.71048
#
# Compressibility (1/GPa) = 0.01930522
#
# Stress axis : x y z
#
# Youngs Moduli (GPa) = 46.96835 45.16675 55.88619
#
# Poissons Ratio (x) = 0.26510 0.53394
# Poissons Ratio (y) = 0.27568 0.31219
# Poissons Ratio (z) = 0.44874 0.25231
#
# Static dielectric constant tensor:
#      x y z
#    x 2.833060 0.000000 -0.062100 
#    y 0.000000 2.577740 0.000000 
#    z -0.062100 0.000000 3.042330 
# 
# 
# High freq. dielectric constant tensor:
#      x y z
#    x 1.551260 0.000000 -0.008740 
#    y 0.000000 1.500240 0.000000 
#    z -0.008740 0.000000 1.580710 
# 
# From -- ./inp_files/34596.got.cif
#   From: 2010.06.25/outbox.cif.g09.slc.cpg/sg10_18_cif.got.tgz:34596.got - 2010.06.27 22:07:45.
