data_PCOD8068778
_publ_section_title
;
Structure prediction by ZEFSAII (Michael W. Deem and Ramdas Pophale) SiO2 
 PCOD8068778
Probable space group: P 21/M
;
_chemical_formula_sum "Si O2"
_cell_formula_units_Z 32
_cell_length_a 21.210815
_cell_length_b 8.840560
_cell_length_c 28.138906
_cell_angle_alpha 90.000000
_cell_angle_beta 21.329633
_cell_angle_gamma 90.000000
_cell_volume 1919.230341
_symmetry_space_group_name_H-M "P 21/M"
_symmetry_group_IT_number 11
_symmetry_cell_setting 'monoclinic'
loop_
_space_group_symop_operation_xyz
x,y,z
-x,1/2+y,-z
-x,-y,-z
x,1/2-y,z
loop_
_atom_site_type_symbol
_atom_site_label
_atom_site_fract_x
_atom_site_fract_y
_atom_site_fract_z
Si Si1 0.218822 0.425973 0.307612
Si Si2 0.213414 0.569084 0.511465
Si Si3 0.124704 0.580625 0.719214
Si Si4 0.544744 0.072940 0.018295
Si Si5 0.873372 0.574149 0.522176
Si Si6 0.544872 0.082733 0.580881
Si Si7 0.658143 0.931508 0.360498
Si Si8 0.926965 0.070799 0.777463
O O1 0.176410 0.250000 0.328873
O O2 0.403224 0.474537 0.157000
O O3 0.221184 0.463542 0.361922
O O4 0.072505 0.522146 0.383693
O O5 0.204768 0.750000 0.521405
O O6 0.230503 0.516419 0.445324
O O7 0.382556 0.503461 0.421945
O O8 0.039349 0.502735 0.656629
O O9 0.057567 0.750000 0.776722
O O10 0.296270 0.585039 0.567329
O O11 0.164359 0.498593 0.742137
O O12 0.978286 0.488233 0.793721
O O13 0.544102 0.250000 0.010569
O O14 0.730388 0.018257 0.906715
O O15 0.500000 0.000000 0.000000
O O16 0.868226 0.750000 0.513301
O O17 0.490471 0.250000 0.634218
O O18 0.377563 0.015007 0.669832
O O19 0.657720 0.750000 0.364701
O O20 0.500000 0.000000 0.500000
O O21 0.950751 0.250000 0.759103
#
# Coordination Sequence:
#
# PCOD8068778 Si02
#       8
#     4   4   4   4   4   4   4   4
#     4   9  19  35  50  64  86 115 144 178 222 263
#     4  10  18  29  44  63  90 120 146 175 218 263
#     4   9  16  26  38  55  81 114 147 177 217 262
#     4  10  21  34  48  66  88 115 145 179 219 261
#     4  10  19  31  48  68  87 110 145 183 216 258
#     4   7  13  23  35  53  78 109 142 172 204 249
#     4   9  14  22  36  54  78 110 147 182 214 253
#     4  10  19  30  44  64  87 113 150 187 216 257
#
# _framework density 16.673349999999999
#
# number of rings (size 3 to 8) (size 9 to 14) (size 15 to 20)
#    0.000    2.750    0.000    4.125    0.000    4.000 
#    0.000    1.875    0.000    0.000    0.000    0.000 
#    0.000    1.000    0.000    2.000    0.000    4.000 
#
# Total GULP energy -396466.374726 kJ/mol
# GULP energy per Si atom -12389.574210 kJ/mol
# Density = 1.663540 g / cm^3
# Si number density = 16.673350 Si / 1000 Ang^3
#
#
#
# Elastic Constant Matrix: (Units=GPa)
#
#
# Indices 1 2 3 4 5 6 
#
# 1 161.8688 47.8151 51.8834 0.0000 -28.1127 0.0000
# 2 47.8151 67.0280 21.1548 0.0000 -9.3142 0.0000
# 3 51.8834 21.1548 53.7100 0.0000 -8.1116 0.0000
# 4 0.0000 0.0000 0.0000 15.3093 0.0000 -4.5268
# 5 -28.1127 -9.3142 -8.1116 0.0000 21.9935 0.0000
# 6 0.0000 0.0000 0.0000 -4.5268 0.0000 30.0151
#
#
#
# Elastic Compliance Matrix: (Units=1/GPa)
#
#
# Indices 1 2 3 4 5 6 
#
# 1 0.011919 -0.004484 -0.008189 0.000000 0.010316 0.000000
# 2 -0.004484 0.019264 -0.003060 0.000000 0.001298 0.000000
# 3 -0.008189 -0.003060 0.027489 0.000000 -0.001625 0.000000
# 4 0.000000 0.000000 0.000000 0.068369 0.000000 0.010311
# 5 0.010316 0.001298 -0.001625 0.000000 0.058604 0.000000
# 6 0.000000 0.000000 0.000000 0.010311 0.000000 0.034872
#
#
# Mechanical properties :
#
#
# Convention : Reuss Voigt Hill
#
# Bulk Modulus (GPa) = 36.75772 58.25704 47.50738
# Shear Modulus (GPa) = 19.15325 24.24715 21.70020
#
# Velocity S-wave (km/s) = 3.39298 3.81759 3.61153
# Velocity P-wave (km/s) = 6.11910 7.37890 6.77833
#
# Compressibility (1/GPa) = 0.02720517
#
# Stress axis : x y z
#
# Youngs Moduli (GPa) = 83.89915 51.90996 36.37803
#
# Poissons Ratio (x) = 0.23279 0.29792
# Poissons Ratio (y) = 0.37624 0.11130
# Poissons Ratio (z) = 0.68709 0.15883
#
# Static dielectric constant tensor:
#      x y z
#    x 3.337340 0.000000 -0.318770 
#    y 0.000000 3.191970 0.000000 
#    z -0.318770 0.000000 2.787200 
# 
# 
# High freq. dielectric constant tensor:
#      x y z
#    x 1.659340 0.000000 -0.029080 
#    y 0.000000 1.643410 0.000000 
#    z -0.029080 0.000000 1.583690 
# 
# From -- ./inp_files/64191.got.cif
#   From: 2010.06.25/outbox.cif.g09.slc.cpg/sg11_33_cif.got.tgz:64191.got - 2010.06.27 23:14:04.
