data_PCOD8068988
_publ_section_title
;
Structure prediction by ZEFSAII (Michael W. Deem and Ramdas Pophale) SiO2 
 PCOD8068988
Probable space group: P 21/M
;
_chemical_formula_sum "Si O2"
_cell_formula_units_Z 32
_cell_length_a 28.382981
_cell_length_b 9.172052
_cell_length_c 21.997869
_cell_angle_alpha 90.000000
_cell_angle_beta 18.776728
_cell_angle_gamma 90.000000
_cell_volume 1843.319813
_symmetry_space_group_name_H-M "P 21/M"
_symmetry_group_IT_number 11
_symmetry_cell_setting 'monoclinic'
loop_
_space_group_symop_operation_xyz
x,y,z
-x,1/2+y,-z
-x,-y,-z
x,1/2-y,z
loop_
_atom_site_type_symbol
_atom_site_label
_atom_site_fract_x
_atom_site_fract_y
_atom_site_fract_z
Si Si1 0.550435 0.080270 0.748429
Si Si2 0.574056 0.575840 0.351888
Si Si3 0.148170 0.919734 0.552972
Si Si4 0.598652 0.077397 0.555405
Si Si5 0.927841 0.423663 0.144322
Si Si6 0.412231 0.585662 0.021762
Si Si7 0.719799 0.585667 0.714189
Si Si8 0.906763 0.577401 0.939184
O O1 0.512788 0.250000 0.801671
O O2 0.716604 0.050209 0.566785
O O3 0.532103 0.025627 0.701274
O O4 0.433260 0.991395 0.931157
O O5 0.500000 0.500000 0.500000
O O6 0.563731 0.750000 0.372526
O O7 0.495106 0.520325 0.387005
O O8 0.740670 0.520318 0.141441
O O9 0.141705 0.750000 0.543846
O O10 0.998864 0.974382 0.767765
O O11 0.162094 0.008584 0.473491
O O12 0.602184 0.250000 0.551277
O O13 0.762640 0.018048 0.349315
O O14 0.936162 0.250000 0.127668
O O15 0.013464 0.481962 0.098485
O O16 0.000000 0.500000 0.000000
O O17 0.357111 0.750000 0.078678
O O18 0.563879 0.583408 0.872246
O O19 0.290224 0.500007 0.209780
O O20 0.771331 0.750000 0.664449
O O21 0.909115 0.750000 0.937421
#
# Coordination Sequence:
#
# PCOD8068988 Si02
#       8
#     4   4   4   4   4   4   4   4
#     4   9  15  26  44  63  85 117 153 188 225 268
#     4  10  20  34  50  68  91 120 155 194 233 278
#     4   9  15  26  44  63  85 117 153 188 225 268
#     4   9  17  30  48  67  89 119 154 189 230 278
#     4  10  18  30  46  66  89 116 149 186 229 278
#     4   9  16  25  38  61  93 125 153 183 221 267
#     4   9  16  25  38  61  93 125 153 183 221 267
#     4   9  17  30  48  67  89 119 154 189 230 278
#
# _framework density 17.359983
#
# number of rings (size 3 to 8) (size 9 to 14) (size 15 to 20)
#    0.000    2.750    1.250    1.500    0.000    3.000 
#    0.000    2.500    0.000    0.000    0.000    0.875 
#    0.000    0.000    0.000    0.000    0.000    0.000 
#
# Total GULP energy -396709.328131 kJ/mol
# GULP energy per Si atom -12397.166504 kJ/mol
# Density = 1.732047 g / cm^3
# Si number density = 17.359983 Si / 1000 Ang^3
#
#
#
# Elastic Constant Matrix: (Units=GPa)
#
#
# Indices 1 2 3 4 5 6 
#
# 1 124.7464 44.1917 84.6419 0.0000 24.3435 0.0000
# 2 44.1917 68.0375 47.2125 0.0000 19.7795 0.0000
# 3 84.6419 47.2125 132.5892 0.0000 27.0793 0.0000
# 4 0.0000 0.0000 0.0000 21.7807 0.0000 14.5208
# 5 24.3435 19.7795 27.0793 0.0000 39.8317 0.0000
# 6 0.0000 0.0000 0.0000 14.5208 0.0000 19.5646
#
#
#
# Elastic Compliance Matrix: (Units=1/GPa)
#
#
# Indices 1 2 3 4 5 6 
#
# 1 0.015085 -0.003743 -0.007889 0.000000 -0.001997 0.000000
# 2 -0.003743 0.021663 -0.004174 0.000000 -0.005632 0.000000
# 3 -0.007889 -0.004174 0.014697 0.000000 -0.003098 0.000000
# 4 0.000000 0.000000 0.000000 0.090880 0.000000 -0.067451
# 5 -0.001997 -0.005632 -0.003098 0.000000 0.031229 0.000000
# 6 0.000000 0.000000 0.000000 -0.067451 0.000000 0.101175
#
#
# Mechanical properties :
#
#
# Convention : Reuss Voigt Hill
#
# Bulk Modulus (GPa) = 50.42203 75.27393 62.84798
# Shear Modulus (GPa) = 15.97692 26.19054 21.08373
#
# Velocity S-wave (km/s) = 3.03699 3.88838 3.48875
# Velocity P-wave (km/s) = 6.43473 7.97584 7.24637
#
# Compressibility (1/GPa) = 0.01983260
#
# Stress axis : x y z
#
# Youngs Moduli (GPa) = 66.29193 46.16254 68.03988
#
# Poissons Ratio (x) = 0.17278 0.53678
# Poissons Ratio (y) = 0.24812 0.28400
# Poissons Ratio (z) = 0.52299 0.19268
#
# Static dielectric constant tensor:
#      x y z
#    x 3.539150 0.000000 -0.077130 
#    y 0.000000 2.957200 0.000000 
#    z -0.077130 0.000000 3.527590 
# 
# 
# High freq. dielectric constant tensor:
#      x y z
#    x 1.656140 0.000000 0.032090 
#    y 0.000000 1.645850 0.000000 
#    z 0.032090 0.000000 1.661040 
# 
# From -- ./inp_files/64177.got.cif
#   From: 2010.06.25/outbox.cif.g09.slc.cpg/sg11_33_cif.got.tgz:64177.got - 2010.06.27 23:14:04.
