data_PCOD8068917
_publ_section_title
;
Structure prediction by ZEFSAII (Michael W. Deem and Ramdas Pophale) SiO2 
 PCOD8068917
Probable space group: P 21/M
;
_chemical_formula_sum "Si O2"
_cell_formula_units_Z 28
_cell_length_a 14.054440
_cell_length_b 9.192753
_cell_length_c 12.239989
_cell_angle_alpha 90.000000
_cell_angle_beta 121.850820
_cell_angle_gamma 90.000000
_cell_volume 1343.275778
_symmetry_space_group_name_H-M "P 21/M"
_symmetry_group_IT_number 11
_symmetry_cell_setting 'monoclinic'
loop_
_space_group_symop_operation_xyz
x,y,z
-x,1/2+y,-z
-x,-y,-z
x,1/2-y,z
loop_
_atom_site_type_symbol
_atom_site_label
_atom_site_fract_x
_atom_site_fract_y
_atom_site_fract_z
Si Si1 0.781133 0.917083 0.307605
Si Si2 0.076837 0.418495 0.799537
Si Si3 0.311590 0.078056 0.516907
Si Si4 0.587647 0.093372 0.114694
Si Si5 0.517152 0.909398 0.716885
Si Si6 0.157449 0.575585 0.256961
Si Si7 0.228505 0.077241 0.089664
O O1 0.744627 0.750000 0.274532
O O2 0.899577 0.945583 0.316896
O O3 0.768167 0.962499 0.426530
O O4 0.703350 0.009723 0.181520
O O5 0.064048 0.250000 0.815128
O O6 0.956467 0.486202 0.756370
O O7 0.177378 0.471655 0.941168
O O8 0.312020 0.250000 0.496082
O O9 0.441072 0.025160 0.604348
O O10 0.261938 0.993724 0.384102
O O11 0.602281 0.250000 0.065847
O O12 0.548815 0.116425 0.213106
O O13 0.500000 0.000000 0.000000
O O14 0.524651 0.750000 0.662099
O O15 0.641091 0.970289 0.819201
O O16 0.167800 0.750000 0.263786
O O17 0.157863 0.513117 0.135240
O O18 0.216382 0.250000 0.101483
#
# Coordination Sequence:
#
# PCOD8068917 Si02
#       7
#     4   4   4   4   4   4   4
#     4   9  18  35  57  80 108 142 181 225 274 328
#     4   9  19  37  60  84 111 146 183 224 279 333
#     4  10  21  37  58  84 113 145 183 227 274 326
#     4  10  18  29  48  77 111 145 180 219 270 329
#     4   9  19  35  56  80 108 144 182 224 275 331
#     4  11  23  38  57  80 111 150 189 229 272 324
#     4  10  20  37  60  83 109 143 185 230 277 326
#
# _framework density 20.844567000000001
#
# number of rings (size 3 to 8) (size 9 to 14) (size 15 to 20)
#    0.000    2.286    0.000    2.571    0.000    5.143 
#    0.000    4.286    0.000    0.000    0.000    0.000 
#    0.000    0.000    0.000    0.000    0.000    0.000 
#
# Total GULP energy -346881.419852 kJ/mol
# GULP energy per Si atom -12388.622138 kJ/mol
# Density = 2.079712 g / cm^3
# Si number density = 20.844567 Si / 1000 Ang^3
#
#
#
# Elastic Constant Matrix: (Units=GPa)
#
#
# Indices 1 2 3 4 5 6 
#
# 1 58.2530 -0.7895 -6.0081 0.0000 7.9069 0.0000
# 2 -0.7895 59.6813 14.2694 0.0000 -1.8057 0.0000
# 3 -6.0081 14.2694 58.5591 0.0000 6.1606 0.0000
# 4 0.0000 0.0000 0.0000 22.4775 0.0000 -4.6393
# 5 7.9069 -1.8057 6.1606 0.0000 30.5323 0.0000
# 6 0.0000 0.0000 0.0000 -4.6393 0.0000 23.8480
#
#
#
# Elastic Compliance Matrix: (Units=1/GPa)
#
#
# Indices 1 2 3 4 5 6 
#
# 1 0.018132 -0.000526 0.002540 0.000000 -0.005239 0.000000
# 2 -0.000526 0.017924 -0.004646 0.000000 0.002134 0.000000
# 3 0.002540 -0.004646 0.018970 0.000000 -0.004760 0.000000
# 4 0.000000 0.000000 0.000000 0.046350 0.000000 0.009017
# 5 -0.005239 0.002134 -0.004760 0.000000 0.035196 0.000000
# 6 0.000000 0.000000 0.000000 0.009017 0.000000 0.043686
#
#
# Mechanical properties :
#
#
# Convention : Reuss Voigt Hill
#
# Bulk Modulus (GPa) = 20.09556 21.27081 20.68318
# Shear Modulus (GPa) = 24.73892 26.63967 25.68929
#
# Velocity S-wave (km/s) = 3.44877 3.57881 3.51439
# Velocity P-wave (km/s) = 5.05176 5.22531 5.13927
#
# Compressibility (1/GPa) = 0.04976224
#
# Stress axis : x y z
#
# Youngs Moduli (GPa) = 55.14979 55.79077 52.71411
#
# Poissons Ratio (x) = 0.02934 -0.13388
# Poissons Ratio (y) = 0.02900 0.24491
# Poissons Ratio (z) = -0.14006 0.25921
#
# Static dielectric constant tensor:
#      x y z
#    x 3.865990 0.000000 -0.005180 
#    y 0.000000 3.946000 0.000000 
#    z -0.005180 0.000000 3.519710 
# 
# 
# High freq. dielectric constant tensor:
#      x y z
#    x 1.820360 0.000000 -0.003210 
#    y 0.000000 1.803660 0.000000 
#    z -0.003210 0.000000 1.805190 
# 
# From -- ./inp_files/37910.got.cif
#   From: 2010.06.25/outbox.cif.g09.slc.cpg/sg11_19_cif.got.tgz:37910.got - 2010.06.27 23:14:04.
