data_PCOD8068480
_publ_section_title
;
Structure prediction by ZEFSAII (Michael W. Deem and Ramdas Pophale) SiO2 
 PCOD8068480
Probable space group: P 21/M
;
_chemical_formula_sum "Si O2"
_cell_formula_units_Z 32
_cell_length_a 14.283464
_cell_length_b 15.243929
_cell_length_c 20.983000
_cell_angle_alpha 90.000000
_cell_angle_beta 20.642068
_cell_angle_gamma 90.000000
_cell_volume 1610.618505
_symmetry_space_group_name_H-M "P 21/M"
_symmetry_group_IT_number 11
_symmetry_cell_setting 'monoclinic'
loop_
_space_group_symop_operation_xyz
x,y,z
-x,1/2+y,-z
-x,-y,-z
x,1/2-y,z
loop_
_atom_site_type_symbol
_atom_site_label
_atom_site_fract_x
_atom_site_fract_y
_atom_site_fract_z
Si Si1 0.404755 0.498001 0.265087
Si Si2 0.390654 0.150954 0.640177
Si Si3 0.924445 0.040771 0.880406
Si Si4 0.851808 0.622142 0.754211
Si Si5 0.088141 0.946345 0.344181
Si Si6 0.397891 0.845425 0.356679
Si Si7 0.757269 0.347534 0.870505
Si Si8 0.959621 0.346799 0.227320
O O1 0.295829 0.530131 0.266593
O O2 0.495948 0.585772 0.242629
O O3 0.200865 0.441828 0.438319
O O4 0.658962 0.436581 0.089941
O O5 0.274852 0.250000 0.712502
O O6 0.486384 0.124549 0.649397
O O7 0.642192 0.143622 0.433556
O O8 0.173889 0.080825 0.757488
O O9 0.904000 0.082886 0.823133
O O10 0.937801 0.934082 0.873308
O O11 0.888463 0.517882 0.726925
O O12 0.901424 0.657511 0.792722
O O13 0.075447 0.661059 0.564152
O O14 0.559304 0.648733 0.918127
O O15 0.161515 0.860480 0.256237
O O16 0.507961 0.750000 0.266871
O O17 0.853511 0.250000 0.828043
O O18 0.022776 0.250000 0.155178
#
# Coordination Sequence:
#
# PCOD8068480 Si02
#       8
#     4   4   4   4   4   4   4   4
#     4  10  22  35  59  82 118 159 191 238 299 347
#     4   9  20  39  60  85 114 151 201 246 290 348
#     4  12  22  37  59  91 121 158 190 241 295 357
#     4  10  17  35  58  83 114 147 194 243 287 341
#     4  10  20  39  54  82 122 157 192 236 294 356
#     4   9  19  36  59  84 112 152 202 247 288 343
#     4  12  23  35  58  89 121 156 195 240 294 356
#     4  10  20  35  59  88 115 147 193 248 293 335
#
# _framework density 19.868144000000001
#
# number of rings (size 3 to 8) (size 9 to 14) (size 15 to 20)
#    0.000    1.750    2.500    3.750    0.000    1.500 
#    0.000    1.250    0.000    0.000    0.000    0.000 
#    0.000    0.000    0.000    0.000    0.000    0.000 
#
# Total GULP energy -396544.848629 kJ/mol
# GULP energy per Si atom -12392.026520 kJ/mol
# Density = 1.982292 g / cm^3
# Si number density = 19.868144 Si / 1000 Ang^3
#
#
#
# Elastic Constant Matrix: (Units=GPa)
#
#
# Indices 1 2 3 4 5 6 
#
# 1 68.7419 34.2983 45.1549 0.0000 -9.2104 0.0000
# 2 34.2983 104.0491 37.2916 0.0000 -3.3817 0.0000
# 3 45.1549 37.2916 82.2771 0.0000 -0.8738 0.0000
# 4 0.0000 0.0000 0.0000 107.0378 0.0000 30.7108
# 5 -9.2104 -3.3817 -0.8738 0.0000 27.4643 0.0000
# 6 0.0000 0.0000 0.0000 30.7108 0.0000 33.1904
#
#
#
# Elastic Compliance Matrix: (Units=1/GPa)
#
#
# Indices 1 2 3 4 5 6 
#
# 1 0.025463 -0.003778 -0.012181 0.000000 0.007687 0.000000
# 2 -0.003778 0.012078 -0.003400 0.000000 0.000112 0.000000
# 3 -0.012181 -0.003400 0.020339 0.000000 -0.003856 0.000000
# 4 0.000000 0.000000 0.000000 0.012719 0.000000 -0.011769
# 5 0.007687 0.000112 -0.003856 0.000000 0.038880 0.000000
# 6 0.000000 0.000000 0.000000 -0.011769 0.000000 0.041019
#
#
# Mechanical properties :
#
#
# Convention : Reuss Voigt Hill
#
# Bulk Modulus (GPa) = 52.18239 54.28418 53.23328
# Shear Modulus (GPa) = 25.56197 42.76006 34.16102
#
# Velocity S-wave (km/s) = 3.59079 4.64421 4.15105
# Velocity P-wave (km/s) = 6.59644 7.49264 7.05878
#
# Compressibility (1/GPa) = 0.01916355
#
# Stress axis : x y z
#
# Youngs Moduli (GPa) = 39.27230 82.79243 49.16696
#
# Poissons Ratio (x) = 0.31281 0.59888
# Poissons Ratio (y) = 0.14838 0.16715
# Poissons Ratio (z) = 0.47836 0.28147
#
# Static dielectric constant tensor:
#      x y z
#    x 3.373690 0.000000 -0.029350 
#    y 0.000000 3.696230 0.000000 
#    z -0.029350 0.000000 3.572150 
# 
# 
# High freq. dielectric constant tensor:
#      x y z
#    x 1.756440 0.000000 -0.004420 
#    y 0.000000 1.773880 0.000000 
#    z -0.004420 0.000000 1.767270 
# 
# From -- ./inp_files/65725.got.cif
#   From: 2010.06.25/outbox.cif.g09.slc.cpg/sg11_33_cif.got.tgz:65725.got - 2010.06.27 23:14:04.
