data_PCOD8068168
_publ_section_title
;
Structure prediction by ZEFSAII (Michael W. Deem and Ramdas Pophale) SiO2 
 PCOD8068168
Probable space group: P 21/M
;
_chemical_formula_sum "Si O2"
_cell_formula_units_Z 20
_cell_length_a 8.813482
_cell_length_b 9.708813
_cell_length_c 21.138930
_cell_angle_alpha 90.000000
_cell_angle_beta 38.981420
_cell_angle_gamma 90.000000
_cell_volume 1137.874826
_symmetry_space_group_name_H-M "P 21/M"
_symmetry_group_IT_number 11
_symmetry_cell_setting 'monoclinic'
loop_
_space_group_symop_operation_xyz
x,y,z
-x,1/2+y,-z
-x,-y,-z
x,1/2-y,z
loop_
_atom_site_type_symbol
_atom_site_label
_atom_site_fract_x
_atom_site_fract_y
_atom_site_fract_z
Si Si1 0.208470 0.598305 0.057267
Si Si2 0.566522 0.411306 0.883723
Si Si3 0.951437 0.036385 0.657340
Si Si4 0.763348 0.750000 0.219600
Si Si5 0.283687 0.250000 0.615672
Si Si6 0.783668 0.250000 0.616143
Si Si7 0.833278 0.250000 0.450681
O O1 0.326921 0.750000 0.007486
O O2 0.274938 0.549182 0.106511
O O3 0.915771 0.613938 0.147835
O O4 0.309722 0.490613 0.972874
O O5 0.515642 0.250000 0.893614
O O6 0.706303 0.464110 0.776994
O O7 0.902889 0.113778 0.606930
O O8 0.164285 0.113374 0.625698
O O9 0.025282 0.881511 0.620043
O O10 0.758381 0.750000 0.296520
O O11 0.500713 0.750000 0.274557
O O12 0.566036 0.250000 0.508037
O O13 0.828445 0.250000 0.527618
#
# Coordination Sequence:
#
# PCOD8068168 Si02
#       7
#     4   4   4   2   2   2   2
#     4   8  16  29  52  79 105 130 172 209 259 308
#     4  10  16  30  53  78 104 139 164 213 263 314
#     4  11  20  37  56  79 105 140 180 216 264 318
#     4   9  16  35  56  78 104 148 172 211 261 316
#     4  10  18  38  56  80 109 136 170 216 279 318
#     4  10  22  38  58  67 108 149 181 208 271 316
#     4  11  24  33  58  81 103 135 181 231 261 304
#
# _framework density 17.576625
#
# number of rings (size 3 to 8) (size 9 to 14) (size 15 to 20)
#    0.600    1.600    4.000    1.200    1.400    0.000 
#    0.000    1.000    2.200    0.000    0.000    0.000 
#    0.000    0.000    0.000    0.000    0.000    0.000 
#
# Total GULP energy -247882.372124 kJ/mol
# GULP energy per Si atom -12394.118606 kJ/mol
# Density = 1.753662 g / cm^3
# Si number density = 17.576625 Si / 1000 Ang^3
#
#
#
# Elastic Constant Matrix: (Units=GPa)
#
#
# Indices 1 2 3 4 5 6 
#
# 1 62.4992 34.7934 23.9667 0.0000 -6.7427 0.0000
# 2 34.7934 124.9296 69.2138 0.0000 -6.6282 0.0000
# 3 23.9667 69.2138 95.9395 0.0000 -1.1721 0.0000
# 4 0.0000 0.0000 0.0000 38.1043 0.0000 -0.6749
# 5 -6.7427 -6.6282 -1.1721 0.0000 23.1470 0.0000
# 6 0.0000 0.0000 0.0000 -0.6749 0.0000 9.2031
#
#
#
# Elastic Compliance Matrix: (Units=1/GPa)
#
#
# Indices 1 2 3 4 5 6 
#
# 1 0.019501 -0.004213 -0.001778 0.000000 0.004384 0.000000
# 2 -0.004213 0.014506 -0.009383 0.000000 0.002451 0.000000
# 3 -0.001778 -0.009383 0.017608 0.000000 -0.002313 0.000000
# 4 0.000000 0.000000 0.000000 0.026278 0.000000 0.001927
# 5 0.004384 0.002451 -0.002313 0.000000 0.045064 0.000000
# 6 0.000000 0.000000 0.000000 0.001927 0.000000 0.108801
#
#
# Mechanical properties :
#
#
# Convention : Reuss Voigt Hill
#
# Bulk Modulus (GPa) = 47.92388 59.92400 53.92394
# Shear Modulus (GPa) = 18.55548 24.45049 21.50299
#
# Velocity S-wave (km/s) = 3.25266 3.73376 3.50149
# Velocity P-wave (km/s) = 6.43672 7.26327 6.86245
#
# Compressibility (1/GPa) = 0.02086643
#
# Stress axis : x y z
#
# Youngs Moduli (GPa) = 51.28045 68.93580 56.79133
#
# Poissons Ratio (x) = 0.29043 0.10100
# Poissons Ratio (y) = 0.21605 0.53286
# Poissons Ratio (z) = 0.09120 0.64681
#
# Static dielectric constant tensor:
#      x y z
#    x 3.145460 0.000000 -0.073860 
#    y 0.000000 3.170210 0.000000 
#    z -0.073860 0.000000 3.339920 
# 
# 
# High freq. dielectric constant tensor:
#      x y z
#    x 1.662330 0.000000 0.002240 
#    y 0.000000 1.668190 0.000000 
#    z 0.002240 0.000000 1.684070 
# 
# From -- ./inp_files/63152.got.cif
#   From: 2010.06.25/outbox.cif.g09.slc.cpg/sg11_32_cif.got.tgz:63152.got - 2010.06.27 23:14:04.
