data_PCOD8068772
_publ_section_title
;
Structure prediction by ZEFSAII (Michael W. Deem and Ramdas Pophale) SiO2 
 PCOD8068772
Probable space group: P 21/M
;
_chemical_formula_sum "Si O2"
_cell_formula_units_Z 32
_cell_length_a 30.740179
_cell_length_b 8.971754
_cell_length_c 16.006372
_cell_angle_alpha 90.000000
_cell_angle_beta 29.120240
_cell_angle_gamma 90.000000
_cell_volume 2148.265930
_symmetry_space_group_name_H-M "P 21/M"
_symmetry_group_IT_number 11
_symmetry_cell_setting 'monoclinic'
loop_
_space_group_symop_operation_xyz
x,y,z
-x,1/2+y,-z
-x,-y,-z
x,1/2-y,z
loop_
_atom_site_type_symbol
_atom_site_label
_atom_site_fract_x
_atom_site_fract_y
_atom_site_fract_z
Si Si1 0.166461 0.575969 0.839584
Si Si2 0.532890 0.423343 0.073088
Si Si3 0.477793 0.426942 0.733412
Si Si4 0.583355 0.424305 0.316730
Si Si5 0.997110 0.421497 0.092885
Si Si6 0.199679 0.580458 0.590310
Si Si7 0.664940 0.076618 0.346204
Si Si8 0.633654 0.577300 0.760805
O O1 0.153048 0.750000 0.878253
O O2 0.190003 0.541574 0.704134
O O3 0.245689 0.506133 0.763705
O O4 0.073299 0.496548 0.023023
O O5 0.547775 0.250000 0.067214
O O6 0.543334 0.517483 0.139156
O O7 0.435451 0.455127 0.198070
O O8 0.609007 0.478462 0.882107
O O9 0.470846 0.250000 0.741058
O O10 0.402867 0.496315 0.796061
O O11 0.575434 0.487545 0.540699
O O12 0.500000 0.500000 0.500000
O O13 0.565498 0.250000 0.333242
O O14 0.665006 0.450010 0.245415
O O15 0.021533 0.250000 0.039446
O O16 0.895732 0.439220 0.297382
O O17 0.000000 0.500000 0.000000
O O18 0.234505 0.750000 0.522069
O O19 0.268198 0.466865 0.433946
O O20 0.665795 0.250000 0.366355
O O21 0.631707 0.750000 0.789796
#
# Coordination Sequence:
#
# PCOD8068772 Si02
#       8
#     4   4   4   4   4   4   4   4
#     4   9  16  27  42  60  82 110 141 170 203 242
#     4  10  20  32  44  60  83 109 137 172 211 246
#     4  10  18  29  44  60  81 111 144 175 207 244
#     4   9  16  27  41  59  83 110 140 172 206 245
#     4   9  17  28  40  57  80 107 137 169 205 242
#     4   9  17  28  42  58  81 112 140 168 206 247
#     4   8  15  26  41  60  83 111 139 168 204 244
#     4  10  20  31  44  62  82 106 139 175 207 242
#
# _framework density 14.895735
#
# number of rings (size 3 to 8) (size 9 to 14) (size 15 to 20)
#    0.000    2.750    0.000    4.125    0.000    5.000 
#    0.000    3.750    0.000    0.000    0.000    0.000 
#    0.000    1.000    0.000    3.000    0.000    4.625 
#
# Total GULP energy -396592.615180 kJ/mol
# GULP energy per Si atom -12393.519224 kJ/mol
# Density = 1.486183 g / cm^3
# Si number density = 14.895735 Si / 1000 Ang^3
#
#
#
# Elastic Constant Matrix: (Units=GPa)
#
#
# Indices 1 2 3 4 5 6 
#
# 1 100.8740 38.9765 38.4992 0.0000 -4.4957 0.0000
# 2 38.9765 71.3248 30.6245 0.0000 -1.4070 0.0000
# 3 38.4992 30.6245 58.4004 0.0000 -8.1850 0.0000
# 4 0.0000 0.0000 0.0000 24.5510 0.0000 0.6343
# 5 -4.4957 -1.4070 -8.1850 0.0000 21.9238 0.0000
# 6 0.0000 0.0000 0.0000 0.6343 0.0000 22.7747
#
#
#
# Elastic Compliance Matrix: (Units=1/GPa)
#
#
# Indices 1 2 3 4 5 6 
#
# 1 0.014470 -0.004922 -0.006950 0.000000 0.000057 0.000000
# 2 -0.004922 0.019901 -0.007548 0.000000 -0.002550 0.000000
# 3 -0.006950 -0.007548 0.026798 0.000000 0.008095 0.000000
# 4 0.000000 0.000000 0.000000 0.040761 0.000000 -0.001135
# 5 0.000057 -0.002550 0.008095 0.000000 0.048483 0.000000
# 6 0.000000 0.000000 0.000000 -0.001135 0.000000 0.043940
#
#
# Mechanical properties :
#
#
# Convention : Reuss Voigt Hill
#
# Bulk Modulus (GPa) = 44.78787 49.64439 47.21613
# Shear Modulus (GPa) = 20.77823 22.01649 21.39736
#
# Velocity S-wave (km/s) = 3.73890 3.84870 3.79420
# Velocity P-wave (km/s) = 6.98370 7.29042 7.13871
#
# Compressibility (1/GPa) = 0.02232747
#
# Stress axis : x y z
#
# Youngs Moduli (GPa) = 69.10681 50.24895 37.31664
#
# Poissons Ratio (x) = 0.24734 0.25936
# Poissons Ratio (y) = 0.34016 0.28168
# Poissons Ratio (z) = 0.48030 0.37930
#
# Static dielectric constant tensor:
#      x y z
#    x 3.199440 0.000000 -0.227870 
#    y 0.000000 2.975180 0.000000 
#    z -0.227870 0.000000 2.743270 
# 
# 
# High freq. dielectric constant tensor:
#      x y z
#    x 1.561120 0.000000 -0.010200 
#    y 0.000000 1.576480 0.000000 
#    z -0.010200 0.000000 1.533530 
# 
# From -- ./inp_files/51203.got.cif
#   From: 2010.06.25/outbox.cif.g09.slc.cpg/sg11_26_cif.got.tgz:51203.got - 2010.06.27 23:14:04.
