data_PCOD8068061
_publ_section_title
;
Structure prediction by ZEFSAII (Michael W. Deem and Ramdas Pophale) SiO2 
 PCOD8068061
Probable space group: P 2/M
;
_chemical_formula_sum "Si O2"
_cell_formula_units_Z 20
_cell_length_a 7.610708
_cell_length_b 9.606566
_cell_length_c 24.094317
_cell_angle_alpha 90.000000
_cell_angle_beta 142.155474
_cell_angle_gamma 90.000000
_cell_volume 1080.779815
_symmetry_space_group_name_H-M "P 2/M"
_symmetry_group_IT_number 10
_symmetry_cell_setting 'monoclinic'
loop_
_space_group_symop_operation_xyz
x,y,z
-x,y,-z
-x,-y,-z
x,-y,z
loop_
_atom_site_type_symbol
_atom_site_label
_atom_site_fract_x
_atom_site_fract_y
_atom_site_fract_z
Si Si1 0.292965 0.162652 0.735949
Si Si2 0.250711 0.835462 0.600284
Si Si3 0.701427 0.654631 0.098436
Si Si4 0.113219 0.837348 0.264051
Si Si5 0.709246 0.654631 0.901564
O O1 0.203276 0.212146 0.652092
O O2 0.586461 0.243289 0.823957
O O3 0.032918 0.197835 0.713167
O O4 0.368099 0.000000 0.756228
O O5 0.557183 0.787851 0.652092
O O6 0.000000 0.767838 0.500000
O O7 0.229241 0.000000 0.591695
O O8 0.810515 0.500000 0.107936
O O9 0.526131 0.642885 0.110452
O O10 0.966674 0.756712 0.176042
O O11 0.500000 0.717949 0.000000
O O12 0.086964 0.000000 0.243774
O O13 0.770837 0.500000 0.892065
O O14 0.000000 0.717949 0.000000
#
# Coordination Sequence:
#
# PCOD8068061 Si02
#       5
#     4   4   4   4   4
#     4   9  18  32  49  71  98 126 159 199 241 284
#     4   9  18  32  51  75  99 125 161 203 246 289
#     4   9  18  31  47  69  96 128 163 196 236 286
#     4   9  18  32  49  71  98 126 159 199 241 284
#     4   9  18  31  47  69  96 128 163 196 236 286
#
# _framework density 18.505157000000001
#
# number of rings (size 3 to 8) (size 9 to 14) (size 15 to 20)
#    0.000    3.000    0.000    0.000    2.800    1.600 
#    0.000    4.000    0.000    2.400    0.000    5.600 
#    0.000    0.000    0.000    0.000    0.000    0.000 
#
# Total GULP energy -247898.938811 kJ/mol
# GULP energy per Si atom -12394.946941 kJ/mol
# Density = 1.846304 g / cm^3
# Si number density = 18.505157 Si / 1000 Ang^3
#
#
#
# Elastic Constant Matrix: (Units=GPa)
#
#
# Indices 1 2 3 4 5 6 
#
# 1 80.5900 27.7527 67.0730 0.0000 -1.4387 0.0000
# 2 27.7527 47.6590 58.8378 0.0000 -0.8865 0.0000
# 3 67.0730 58.8378 198.3993 0.0000 -1.9196 0.0000
# 4 0.0000 0.0000 0.0000 -111.1175 0.0000 3.4544
# 5 -1.4387 -0.8865 -1.9196 0.0000 32.0092 0.0000
# 6 0.0000 0.0000 0.0000 3.4544 0.0000 10.0040
#
#
#
# Elastic Compliance Matrix: (Units=1/GPa)
#
#
# Indices 1 2 3 4 5 6 
#
# 1 0.017904 -0.004655 -0.004669 0.000000 0.000396 0.000000
# 2 -0.004655 0.034315 -0.008601 0.000000 0.000225 0.000000
# 3 -0.004669 -0.008601 0.009170 0.000000 0.000102 0.000000
# 4 0.000000 0.000000 0.000000 -0.008904 0.000000 0.003075
# 5 0.000396 0.000225 0.000102 0.000000 0.031271 0.000000
# 6 0.000000 0.000000 0.000000 0.003075 0.000000 0.098898
#
#
# Mechanical properties :
#
#
# Convention : Reuss Voigt Hill
#
# Bulk Modulus (GPa) = 39.15228 70.44171 54.79699
# Shear Modulus (GPa) = 22.02473 -2.28854 9.86809
#
# Velocity S-wave (km/s) = 3.45366 -1.11328 2.31175
# Velocity P-wave (km/s) = 6.09156 6.04120 6.06643
#
# Compressibility (1/GPa) = 0.02554130
#
# Stress axis : x y z
#
# Youngs Moduli (GPa) = 55.85323 29.14139 109.04766
#
# Poissons Ratio (x) = 0.13565 0.50909
# Poissons Ratio (y) = 0.25999 0.93790
# Poissons Ratio (z) = 0.26075 0.25064
#
# Static dielectric constant tensor:
#      x y z
#    x 3.415790 0.000000 -0.007740 
#    y 0.000000 3.464370 0.000000 
#    z -0.007740 0.000000 3.687610 
# 
# 
# High freq. dielectric constant tensor:
#      x y z
#    x 1.721800 0.000000 0.000180 
#    y 0.000000 1.686110 0.000000 
#    z 0.000180 0.000000 1.715390 
# 
# From -- ./inp_files/23584.got.cif
#   From: 2010.06.25/outbox.cif.g09.slc.cpg/sg10_12_cif.got.tgz:23584.got - 2010.06.27 22:07:45.
