data_PCOD8068500
_publ_section_title
;
Structure prediction by ZEFSAII (Michael W. Deem and Ramdas Pophale) SiO2 
 PCOD8068500
Probable space group: P 21/M
;
_chemical_formula_sum "Si O2"
_cell_formula_units_Z 32
_cell_length_a 16.163957
_cell_length_b 9.104059
_cell_length_c 15.841411
_cell_angle_alpha 90.000000
_cell_angle_beta 70.560983
_cell_angle_gamma 90.000000
_cell_volume 2198.298054
_symmetry_space_group_name_H-M "P 21/M"
_symmetry_group_IT_number 11
_symmetry_cell_setting 'monoclinic'
loop_
_space_group_symop_operation_xyz
x,y,z
-x,1/2+y,-z
-x,-y,-z
x,1/2-y,z
loop_
_atom_site_type_symbol
_atom_site_label
_atom_site_fract_x
_atom_site_fract_y
_atom_site_fract_z
Si Si1 0.874010 0.579651 0.014075
Si Si2 0.087265 0.920137 0.497936
Si Si3 0.984779 0.082834 0.304179
Si Si4 0.016300 0.422264 0.864224
Si Si5 0.314095 0.577093 0.169718
Si Si6 0.831261 0.923073 0.671925
Si Si7 0.497371 0.417538 0.914710
Si Si8 0.308812 0.420214 0.993528
O O1 0.893539 0.750000 0.991018
O O2 0.907452 0.532962 0.095448
O O3 0.770962 0.542364 0.042412
O O4 0.924258 0.491215 0.924234
O O5 0.083836 0.750000 0.472398
O O6 0.090936 0.935254 0.598523
O O7 0.166691 0.000478 0.421714
O O8 0.000000 0.000000 0.500000
O O9 0.989153 0.250000 0.270994
O O10 0.080305 0.036640 0.307173
O O11 0.956554 0.981286 0.236329
O O12 0.003532 0.250000 0.862586
O O13 0.291620 0.750000 0.181996
O O14 0.251598 0.486230 0.251397
O O15 0.414690 0.542634 0.168354
O O16 0.302378 0.522675 0.077762
O O17 0.821064 0.750000 0.663015
O O18 0.506413 0.250000 0.936991
O O19 0.500000 0.500000 0.000000
O O20 0.399896 0.448526 0.909164
O O21 0.303426 0.250000 0.024872
#
# Coordination Sequence:
#
# PCOD8068500 Si02
#       8
#     4   4   4   4   4   4   4   4
#     4   9  18  30  41  55  77 104 134 167 198 228
#     4   9  17  29  43  59  79 103 131 162 195 230
#     4   9  18  30  42  56  77 105 132 158 191 231
#     4  10  19  28  40  58  78 102 133 167 198 227
#     4  10  18  26  38  59  83 103 130 165 197 232
#     4  10  19  29  41  58  80 107 136 161 191 231
#     4   8  15  26  39  55  75 101 130 161 195 231
#     4   9  16  28  43  55  74 106 138 164 195 234
#
# _framework density 14.556715000000001
#
# number of rings (size 3 to 8) (size 9 to 14) (size 15 to 20)
#    0.000    2.750    0.000    3.000    0.000    7.500 
#    0.000    0.000    0.000    0.000    0.000    0.000 
#    0.000    1.000    0.000    2.000    0.000    2.625 
#
# Total GULP energy -396457.023605 kJ/mol
# GULP energy per Si atom -12389.281988 kJ/mol
# Density = 1.452358 g / cm^3
# Si number density = 14.556715 Si / 1000 Ang^3
#
#
#
# Elastic Constant Matrix: (Units=GPa)
#
#
# Indices 1 2 3 4 5 6 
#
# 1 90.7476 31.3260 42.4870 0.0000 -12.2791 0.0000
# 2 31.3260 66.6565 42.7869 0.0000 -5.0467 0.0000
# 3 42.4870 42.7869 88.6530 0.0000 -10.0802 0.0000
# 4 0.0000 0.0000 0.0000 26.5703 0.0000 -1.4656
# 5 -12.2791 -5.0467 -10.0802 0.0000 19.0135 0.0000
# 6 0.0000 0.0000 0.0000 -1.4656 0.0000 16.7699
#
#
#
# Elastic Compliance Matrix: (Units=1/GPa)
#
#
# Indices 1 2 3 4 5 6 
#
# 1 0.015439 -0.003606 -0.004931 0.000000 0.006399 0.000000
# 2 -0.003606 0.022579 -0.009314 0.000000 -0.001274 0.000000
# 3 -0.004931 -0.009314 0.018618 0.000000 0.004214 0.000000
# 4 0.000000 0.000000 0.000000 0.037818 0.000000 0.003305
# 5 0.006399 -0.001274 0.004214 0.000000 0.058623 0.000000
# 6 0.000000 0.000000 0.000000 0.003305 0.000000 0.059920
#
#
# Mechanical properties :
#
#
# Convention : Reuss Voigt Hill
#
# Bulk Modulus (GPa) = 47.77076 53.25078 50.51077
# Shear Modulus (GPa) = 19.55594 21.10121 20.32858
#
# Velocity S-wave (km/s) = 3.66926 3.81147 3.74104
# Velocity P-wave (km/s) = 7.13018 7.48537 7.30994
#
# Compressibility (1/GPa) = 0.02093331
#
# Stress axis : x y z
#
# Youngs Moduli (GPa) = 64.77135 44.28835 53.71249
#
# Poissons Ratio (x) = 0.15970 0.26487
# Poissons Ratio (y) = 0.23356 0.50029
# Poissons Ratio (z) = 0.31940 0.41251
#
# Static dielectric constant tensor:
#      x y z
#    x 3.055570 0.000000 -0.205810 
#    y 0.000000 2.994030 0.000000 
#    z -0.205810 0.000000 2.787760 
# 
# 
# High freq. dielectric constant tensor:
#      x y z
#    x 1.533700 0.000000 -0.017690 
#    y 0.000000 1.571550 0.000000 
#    z -0.017690 0.000000 1.534350 
# 
# From -- ./inp_files/52933.got.cif
#   From: 2010.06.25/outbox.cif.g09.slc.cpg/sg11_27_cif.got.tgz:52933.got - 2010.06.27 23:14:04.
