data_PCOD8068354
_publ_section_title
;
Structure prediction by ZEFSAII (Michael W. Deem and Ramdas Pophale) SiO2 
 PCOD8068354
Probable space group: P 21/M
;
_chemical_formula_sum "Si O2"
_cell_formula_units_Z 32
_cell_length_a 23.676923
_cell_length_b 9.108643
_cell_length_c 29.872479
_cell_angle_alpha 90.000000
_cell_angle_beta 16.438379
_cell_angle_gamma 90.000000
_cell_volume 1823.106577
_symmetry_space_group_name_H-M "P 21/M"
_symmetry_group_IT_number 11
_symmetry_cell_setting 'monoclinic'
loop_
_space_group_symop_operation_xyz
x,y,z
-x,1/2+y,-z
-x,-y,-z
x,1/2-y,z
loop_
_atom_site_type_symbol
_atom_site_label
_atom_site_fract_x
_atom_site_fract_y
_atom_site_fract_z
Si Si1 0.106522 0.576316 0.563051
Si Si2 0.110313 0.419852 0.876317
Si Si3 0.152737 0.576979 0.628519
Si Si4 0.505558 0.424548 0.778525
Si Si5 0.295125 0.423520 0.025722
Si Si6 0.533636 0.078576 0.363592
Si Si7 0.723269 0.416288 0.123292
Si Si8 0.335713 0.075481 0.094935
O O1 0.102002 0.750000 0.567221
O O2 0.172291 0.523550 0.562230
O O3 0.270021 0.517735 0.403042
O O4 0.882716 0.522662 0.721370
O O5 0.143987 0.250000 0.863148
O O6 0.324439 0.499427 0.707278
O O7 0.000000 0.500000 0.000000
O O8 0.964299 0.434278 0.944293
O O9 0.192388 0.750000 0.603221
O O10 0.312527 0.488292 0.536445
O O11 0.932245 0.532288 0.813092
O O12 0.499393 0.250000 0.783100
O O13 0.350186 0.476069 0.859336
O O14 0.440782 0.486951 0.876405
O O15 0.307821 0.250000 0.017875
O O16 0.361565 0.481273 0.024095
O O17 0.528593 0.250000 0.378179
O O18 0.617452 0.043395 0.250512
O O19 0.668435 0.250000 0.151633
O O20 0.358775 0.250000 0.080638
O O21 0.500000 0.000000 0.000000
#
# Coordination Sequence:
#
# PCOD8068354 Si02
#       8
#     4   4   4   4   4   4   4   4
#     4   8  15  27  47  71  92 119 157 191 223 273
#     4   9  17  28  41  61  92 126 159 197 244 287
#     4   9  15  28  47  67  90 121 156 194 239 280
#     4  10  17  29  50  72  91 122 161 192 229 281
#     4   8  17  31  49  72  98 122 153 195 233 275
#     4  10  18  27  42  67  95 121 157 202 243 280
#     4   9  18  29  41  64  97 125 149 192 245 279
#     4   9  17  33  52  71  97 126 156 190 227 270
#
# _framework density 17.552457
#
# number of rings (size 3 to 8) (size 9 to 14) (size 15 to 20)
#    0.000    3.000    1.250    3.000    0.000    2.500 
#    0.000    5.000    0.000    0.750    0.000    0.000 
#    0.000    0.000    0.000    0.000    0.000    0.000 
#
# Total GULP energy -396542.617176 kJ/mol
# GULP energy per Si atom -12391.956787 kJ/mol
# Density = 1.751251 g / cm^3
# Si number density = 17.552457 Si / 1000 Ang^3
#
#
#
# Elastic Constant Matrix: (Units=GPa)
#
#
# Indices 1 2 3 4 5 6 
#
# 1 74.3488 27.5063 66.0208 0.0000 -9.5337 0.0000
# 2 27.5063 53.4363 34.5931 0.0000 -9.4897 0.0000
# 3 66.0208 34.5931 134.4666 0.0000 -8.5246 0.0000
# 4 0.0000 0.0000 0.0000 21.4174 0.0000 -10.7876
# 5 -9.5337 -9.4897 -8.5246 0.0000 34.5778 0.0000
# 6 0.0000 0.0000 0.0000 -10.7876 0.0000 22.6944
#
#
#
# Elastic Compliance Matrix: (Units=1/GPa)
#
#
# Indices 1 2 3 4 5 6 
#
# 1 0.025609 -0.005587 -0.010957 0.000000 0.002826 0.000000
# 2 -0.005587 0.024490 -0.003280 0.000000 0.004372 0.000000
# 3 -0.010957 -0.003280 0.013625 0.000000 -0.000562 0.000000
# 4 0.000000 0.000000 0.000000 0.061389 0.000000 0.029181
# 5 0.002826 0.004372 -0.000562 0.000000 0.030761 0.000000
# 6 0.000000 0.000000 0.000000 0.029181 0.000000 0.057935
#
#
# Mechanical properties :
#
#
# Convention : Reuss Voigt Hill
#
# Bulk Modulus (GPa) = 41.53650 57.61024 49.57337
# Shear Modulus (GPa) = 19.12179 24.68003 21.90091
#
# Velocity S-wave (km/s) = 3.30420 3.75383 3.53617
# Velocity P-wave (km/s) = 6.18648 7.18897 6.70649
#
# Compressibility (1/GPa) = 0.02407521
#
# Stress axis : x y z
#
# Youngs Moduli (GPa) = 39.04805 40.83379 73.39566
#
# Poissons Ratio (x) = 0.22814 0.80422
# Poissons Ratio (y) = 0.21816 0.24073
# Poissons Ratio (z) = 0.42786 0.13393
#
# Static dielectric constant tensor:
#      x y z
#    x 3.306550 0.000000 -0.143280 
#    y 0.000000 3.001590 0.000000 
#    z -0.143280 0.000000 3.792030 
# 
# 
# High freq. dielectric constant tensor:
#      x y z
#    x 1.648400 0.000000 -0.018710 
#    y 0.000000 1.654900 0.000000 
#    z -0.018710 0.000000 1.679770 
# 
# From -- ./inp_files/66421.got.cif
#   From: 2010.06.25/outbox.cif.g09.slc.cpg/sg11_34_cif.got.tgz:66421.got - 2010.06.27 23:14:04.
