data_PCOD8068553
_publ_section_title
;
Structure prediction by ZEFSAII (Michael W. Deem and Ramdas Pophale) SiO2 
 PCOD8068553
Probable space group: P 21/M
;
_chemical_formula_sum "Si O2"
_cell_formula_units_Z 28
_cell_length_a 12.099862
_cell_length_b 9.108008
_cell_length_c 22.600265
_cell_angle_alpha 90.000000
_cell_angle_beta 44.268608
_cell_angle_gamma 90.000000
_cell_volume 1738.549741
_symmetry_space_group_name_H-M "P 21/M"
_symmetry_group_IT_number 11
_symmetry_cell_setting 'monoclinic'
loop_
_space_group_symop_operation_xyz
x,y,z
-x,1/2+y,-z
-x,-y,-z
x,1/2-y,z
loop_
_atom_site_type_symbol
_atom_site_label
_atom_site_fract_x
_atom_site_fract_y
_atom_site_fract_z
Si Si1 0.357619 0.920164 0.984901
Si Si2 0.033161 0.578014 0.048391
Si Si3 0.980965 0.920042 0.721077
Si Si4 0.429388 0.917124 0.602352
Si Si5 0.671805 0.078375 0.867519
Si Si6 0.144328 0.584353 0.784018
Si Si7 0.257589 0.417555 0.567616
O O1 0.403411 0.750000 0.962190
O O2 0.210278 0.962819 0.000427
O O3 0.311416 0.960104 0.069708
O O4 0.506481 0.015434 0.906239
O O5 0.011960 0.750000 0.048278
O O6 0.907970 0.526743 0.145389
O O7 0.000000 0.500000 0.000000
O O8 0.952875 0.750000 0.719860
O O9 0.054624 0.951738 0.757204
O O10 0.814570 0.002040 0.778006
O O11 0.100851 0.981840 0.624713
O O12 0.394282 0.750000 0.592111
O O13 0.334233 0.935470 0.700768
O O14 0.621047 0.937735 0.535056
O O15 0.362945 0.039407 0.583684
O O16 0.677817 0.250000 0.852637
O O17 0.104525 0.750000 0.819769
O O18 0.201019 0.250000 0.595425
#
# Coordination Sequence:
#
# PCOD8068553 Si02
#       7
#     4   4   4   4   4   4   4
#     4   9  19  33  46  64  89 115 147 186 229 270
#     4  11  22  35  49  66  89 117 153 192 229 268
#     4  10  18  27  41  62  91 121 150 182 221 266
#     4   8  15  26  38  56  82 114 147 181 220 263
#     4  10  18  29  47  68  89 115 151 186 222 270
#     4   9  17  29  44  61  84 116 152 186 224 266
#     4   9  15  23  37  57  84 115 148 181 215 259
#
# _framework density 16.105377000000001
#
# number of rings (size 3 to 8) (size 9 to 14) (size 15 to 20)
#    0.000    2.571    1.429    2.571    0.000    4.571 
#    0.000    0.000    0.000    0.000    0.000    0.000 
#    0.000    1.143    0.000    3.429    0.000    4.857 
#
# Total GULP energy -347039.073183 kJ/mol
# GULP energy per Si atom -12394.252614 kJ/mol
# Density = 1.606872 g / cm^3
# Si number density = 16.105377 Si / 1000 Ang^3
#
#
#
# Elastic Constant Matrix: (Units=GPa)
#
#
# Indices 1 2 3 4 5 6 
#
# 1 62.5319 41.6498 49.1556 0.0000 -15.4977 0.0000
# 2 41.6498 87.5521 60.8361 0.0000 -19.5449 0.0000
# 3 49.1556 60.8361 110.6203 0.0000 -36.9171 0.0000
# 4 0.0000 0.0000 0.0000 28.8961 0.0000 -7.3874
# 5 -15.4977 -19.5449 -36.9171 0.0000 27.4134 0.0000
# 6 0.0000 0.0000 0.0000 -7.3874 0.0000 21.2210
#
#
#
# Elastic Compliance Matrix: (Units=1/GPa)
#
#
# Indices 1 2 3 4 5 6 
#
# 1 0.027243 -0.007343 -0.008490 0.000000 -0.001268 0.000000
# 2 -0.007343 0.020478 -0.008195 0.000000 -0.000587 0.000000
# 3 -0.008490 -0.008195 0.025006 0.000000 0.023033 0.000000
# 4 0.000000 0.000000 0.000000 0.037988 0.000000 0.013224
# 5 -0.001268 -0.000587 0.023033 0.000000 0.066361 0.000000
# 6 0.000000 0.000000 0.000000 0.013224 0.000000 0.051727
#
#
# Mechanical properties :
#
#
# Convention : Reuss Voigt Hill
#
# Bulk Modulus (GPa) = 40.53486 62.66527 51.60007
# Shear Modulus (GPa) = 17.53873 22.77697 20.15785
#
# Velocity S-wave (km/s) = 3.30358 3.76473 3.54167
# Velocity P-wave (km/s) = 6.30672 7.60865 6.98807
#
# Compressibility (1/GPa) = 0.02467012
#
# Stress axis : x y z
#
# Youngs Moduli (GPa) = 36.70696 48.83207 39.98988
#
# Poissons Ratio (x) = 0.35859 0.33953
# Poissons Ratio (y) = 0.26955 0.32772
# Poissons Ratio (z) = 0.31166 0.40018
#
# Static dielectric constant tensor:
#      x y z
#    x 2.682010 0.000000 -0.377490 
#    y 0.000000 3.151150 0.000000 
#    z -0.377490 0.000000 3.287320 
# 
# 
# High freq. dielectric constant tensor:
#      x y z
#    x 1.558860 0.000000 -0.044820 
#    y 0.000000 1.634060 0.000000 
#    z -0.044820 0.000000 1.618500 
# 
# From -- ./inp_files/64153.got.cif
#   From: 2010.06.25/outbox.cif.g09.slc.cpg/sg11_33_cif.got.tgz:64153.got - 2010.06.27 23:14:04.
