data_PCOD8068337
_publ_section_title
;
Structure prediction by ZEFSAII (Michael W. Deem and Ramdas Pophale) SiO2 
 PCOD8068337
Probable space group: P 21/M
;
_chemical_formula_sum "Si O2"
_cell_formula_units_Z 28
_cell_length_a 16.936418
_cell_length_b 13.947880
_cell_length_c 8.714409
_cell_angle_alpha 90.000000
_cell_angle_beta 40.796236
_cell_angle_gamma 90.000000
_cell_volume 1345.016075
_symmetry_space_group_name_H-M "P 21/M"
_symmetry_group_IT_number 11
_symmetry_cell_setting 'monoclinic'
loop_
_space_group_symop_operation_xyz
x,y,z
-x,1/2+y,-z
-x,-y,-z
x,1/2-y,z
loop_
_atom_site_type_symbol
_atom_site_label
_atom_site_fract_x
_atom_site_fract_y
_atom_site_fract_z
Si Si1 0.411230 0.358502 0.351636
Si Si2 0.987562 0.507616 0.269263
Si Si3 0.086752 0.862853 0.373708
Si Si4 0.191918 0.013701 0.736411
Si Si5 0.393185 0.145613 0.014276
Si Si6 0.335644 0.941310 0.044300
Si Si7 0.334367 0.642059 0.380417
O O1 0.412888 0.250000 0.408473
O O2 0.301061 0.411836 0.596217
O O3 0.395271 0.364603 0.193759
O O4 0.538122 0.406810 0.214167
O O5 0.998337 0.594336 0.374625
O O6 0.941537 0.411103 0.420213
O O7 0.892432 0.543302 0.282725
O O8 0.116379 0.484499 0.003648
O O9 0.066284 0.750000 0.416175
O O10 0.225103 0.887920 0.123277
O O11 0.244979 0.906800 0.634143
O O12 0.336932 0.250000 0.051297
O O13 0.530553 0.141006 0.750827
O O14 0.319632 0.056996 0.048974
O O15 0.331776 0.919245 0.229945
O O16 0.289745 0.750000 0.412212
#
# Coordination Sequence:
#
# PCOD8068337 Si02
#       7
#     4   4   4   4   4   4   4
#     4  10  18  29  53  87 117 151 190 243 306 353
#     4  10  25  40  60  86 116 160 202 249 298 347
#     4  11  23  43  63  83 115 162 208 242 289 363
#     4  11  20  39  59  88 125 148 193 260 303 352
#     4   9  16  27  50  87 124 152 189 236 292 351
#     4  11  17  33  57  86 119 152 200 244 292 355
#     4  10  17  28  54  87 118 154 191 241 299 349
#
# _framework density 20.817594
#
# number of rings (size 3 to 8) (size 9 to 14) (size 15 to 20)
#    0.000    1.714    4.286    3.000    0.000    1.714 
#    0.000    7.857    0.000    0.000    0.000    0.000 
#    0.000    0.000    0.000    0.000    0.000    0.000 
#
# Total GULP energy -347178.719138 kJ/mol
# GULP energy per Si atom -12399.239969 kJ/mol
# Density = 2.077021 g / cm^3
# Si number density = 20.817594 Si / 1000 Ang^3
#
#
#
# Elastic Constant Matrix: (Units=GPa)
#
#
# Indices 1 2 3 4 5 6 
#
# 1 28.8131 25.2947 15.8221 0.0000 0.5864 0.0000
# 2 25.2947 181.6653 33.9656 0.0000 -13.3531 0.0000
# 3 15.8221 33.9656 104.7238 0.0000 -20.7100 0.0000
# 4 0.0000 0.0000 0.0000 18.1353 0.0000 -9.8889
# 5 0.5864 -13.3531 -20.7100 0.0000 20.8447 0.0000
# 6 0.0000 0.0000 0.0000 -9.8889 0.0000 18.6083
#
#
#
# Elastic Compliance Matrix: (Units=1/GPa)
#
#
# Indices 1 2 3 4 5 6 
#
# 1 0.043835 -0.005644 -0.007157 0.000000 -0.011960 0.000000
# 2 -0.005644 0.006678 -0.000542 0.000000 0.003898 0.000000
# 3 -0.007157 -0.000542 0.013413 0.000000 0.013180 0.000000
# 4 0.000000 0.000000 0.000000 0.077639 0.000000 0.041259
# 5 -0.011960 0.003898 0.013180 0.000000 0.063902 0.000000
# 6 0.000000 0.000000 0.000000 0.041259 0.000000 0.075666
#
#
# Mechanical properties :
#
#
# Convention : Reuss Voigt Hill
#
# Bulk Modulus (GPa) = 26.85423 51.70746 39.28084
# Shear Modulus (GPa) = 15.61355 27.52566 21.56961
#
# Velocity S-wave (km/s) = 2.74162 3.64019 3.22238
# Velocity P-wave (km/s) = 4.79059 6.52382 5.72320
#
# Compressibility (1/GPa) = 0.03723809
#
# Stress axis : x y z
#
# Youngs Moduli (GPa) = 22.81260 149.73440 74.55652
#
# Poissons Ratio (x) = 0.84517 0.53363
# Poissons Ratio (y) = 0.12877 0.04044
# Poissons Ratio (z) = 0.16328 0.08121
#
# Static dielectric constant tensor:
#      x y z
#    x 3.477330 0.000000 -0.361430 
#    y 0.000000 3.942130 0.000000 
#    z -0.361430 0.000000 3.792850 
# 
# 
# High freq. dielectric constant tensor:
#      x y z
#    x 1.779520 0.000000 -0.027780 
#    y 0.000000 1.821400 0.000000 
#    z -0.027780 0.000000 1.806480 
# 
# From -- ./inp_files/24937.got.cif
#   From: 2010.06.25/outbox.cif.g09.slc.cpg/sg11_13_cif.got.tgz:24937.got - 2010.06.27 23:14:04.
