data_PCOD8068889
_publ_section_title
;
Structure prediction by ZEFSAII (Michael W. Deem and Ramdas Pophale) SiO2 
 PCOD8068889
Probable space group: P 21/M
;
_chemical_formula_sum "Si O2"
_cell_formula_units_Z 28
_cell_length_a 12.981461
_cell_length_b 8.931781
_cell_length_c 14.206759
_cell_angle_alpha 90.000000
_cell_angle_beta 54.445590
_cell_angle_gamma 90.000000
_cell_volume 1340.133961
_symmetry_space_group_name_H-M "P 21/M"
_symmetry_group_IT_number 11
_symmetry_cell_setting 'monoclinic'
loop_
_space_group_symop_operation_xyz
x,y,z
-x,1/2+y,-z
-x,-y,-z
x,1/2-y,z
loop_
_atom_site_type_symbol
_atom_site_label
_atom_site_fract_x
_atom_site_fract_y
_atom_site_fract_z
Si Si1 0.617000 0.914792 0.477058
Si Si2 0.792416 0.913529 0.208053
Si Si3 0.403319 0.071625 0.843941
Si Si4 0.022117 0.927361 0.763000
Si Si5 0.261026 0.427015 0.104583
Si Si6 0.196737 0.574394 0.499918
Si Si7 0.331207 0.072261 0.273149
O O1 0.582933 0.750000 0.537639
O O2 0.715488 0.889857 0.342965
O O3 0.500000 0.000000 0.500000
O O4 0.669254 0.026494 0.527626
O O5 0.840679 0.750000 0.146816
O O6 0.701374 0.985435 0.176468
O O7 0.911727 0.015030 0.175588
O O8 0.420705 0.250000 0.826211
O O9 0.537911 0.993309 0.754434
O O10 0.353672 0.019756 0.972550
O O11 0.030285 0.750000 0.763094
O O12 0.086365 0.980553 0.629774
O O13 0.879978 0.991416 0.837680
O O14 0.249463 0.250000 0.112007
O O15 0.317248 0.484733 0.173270
O O16 0.189460 0.750000 0.485415
O O17 0.204848 0.488741 0.395072
O O18 0.332712 0.250000 0.279794
#
# Coordination Sequence:
#
# PCOD8068889 Si02
#       7
#     4   4   4   4   4   4   4
#     4  10  18  29  47  74 109 144 179 222 273 326
#     4   9  19  33  51  78 109 140 175 220 270 319
#     4  10  20  37  59  81 111 147 181 220 272 329
#     4   9  19  37  58  80 109 145 183 220 267 329
#     4   9  20  38  58  80 109 146 183 225 274 322
#     4  10  20  34  53  77 106 142 184 227 273 327
#     4  11  22  36  56  82 111 142 183 231 276 324
#
# _framework density 20.893433999999999
#
# number of rings (size 3 to 8) (size 9 to 14) (size 15 to 20)
#    0.000    2.286    0.000    2.571    0.000    4.000 
#    0.000    2.857    0.000    0.000    0.000    0.000 
#    0.000    0.000    0.000    0.000    0.000    0.000 
#
# Total GULP energy -346976.050655 kJ/mol
# GULP energy per Si atom -12392.001809 kJ/mol
# Density = 2.084588 g / cm^3
# Si number density = 20.893434 Si / 1000 Ang^3
#
#
#
# Elastic Constant Matrix: (Units=GPa)
#
#
# Indices 1 2 3 4 5 6 
#
# 1 85.9169 14.0690 12.3998 0.0000 3.3984 0.0000
# 2 14.0690 46.6361 14.8228 0.0000 -2.3921 0.0000
# 3 12.3998 14.8228 63.1925 0.0000 9.4275 0.0000
# 4 0.0000 0.0000 0.0000 23.4653 0.0000 5.0241
# 5 3.3984 -2.3921 9.4275 0.0000 37.6331 0.0000
# 6 0.0000 0.0000 0.0000 5.0241 0.0000 25.2182
#
#
#
# Elastic Compliance Matrix: (Units=1/GPa)
#
#
# Indices 1 2 3 4 5 6 
#
# 1 0.012440 -0.003318 -0.001520 0.000000 -0.000953 0.000000
# 2 -0.003318 0.024374 -0.005549 0.000000 0.003239 0.000000
# 3 -0.001520 -0.005549 0.018135 0.000000 -0.004758 0.000000
# 4 0.000000 0.000000 0.000000 0.044515 0.000000 -0.008869
# 5 -0.000953 0.003239 -0.004758 0.000000 0.028056 0.000000
# 6 0.000000 0.000000 0.000000 -0.008869 0.000000 0.041421
#
#
# Mechanical properties :
#
#
# Convention : Reuss Voigt Hill
#
# Bulk Modulus (GPa) = 29.26393 30.92540 30.09466
# Shear Modulus (GPa) = 24.86243 27.56025 26.21134
#
# Velocity S-wave (km/s) = 3.45333 3.63586 3.54577
# Velocity P-wave (km/s) = 5.47150 5.69734 5.58556
#
# Compressibility (1/GPa) = 0.03417176
#
# Stress axis : x y z
#
# Youngs Moduli (GPa) = 80.38790 41.02791 55.14336
#
# Poissons Ratio (x) = 0.13615 0.08384
# Poissons Ratio (y) = 0.26676 0.30601
# Poissons Ratio (z) = 0.12221 0.22768
#
# Static dielectric constant tensor:
#      x y z
#    x 3.795250 0.000000 0.225410 
#    y 0.000000 3.773810 0.000000 
#    z 0.225410 0.000000 3.552060 
# 
# 
# High freq. dielectric constant tensor:
#      x y z
#    x 1.815380 0.000000 0.008600 
#    y 0.000000 1.795930 0.000000 
#    z 0.008600 0.000000 1.823550 
# 
# From -- ./inp_files/37864.got.cif
#   From: 2010.06.25/outbox.cif.g09.slc.cpg/sg11_19_cif.got.tgz:37864.got - 2010.06.27 23:14:04.
