data_PCOD8068133
_publ_section_title
;
Structure prediction by ZEFSAII (Michael W. Deem and Ramdas Pophale) SiO2 
 PCOD8068133
Probable space group: P 21/M
;
_chemical_formula_sum "Si O2"
_cell_formula_units_Z 24
_cell_length_a 21.897726
_cell_length_b 8.587844
_cell_length_c 16.701833
_cell_angle_alpha 90.000000
_cell_angle_beta 22.255798
_cell_angle_gamma 90.000000
_cell_volume 1189.572961
_symmetry_space_group_name_H-M "P 21/M"
_symmetry_group_IT_number 11
_symmetry_cell_setting 'monoclinic'
loop_
_space_group_symop_operation_xyz
x,y,z
-x,1/2+y,-z
-x,-y,-z
x,1/2-y,z
loop_
_atom_site_type_symbol
_atom_site_label
_atom_site_fract_x
_atom_site_fract_y
_atom_site_fract_z
Si Si1 0.175630 0.068390 0.297839
Si Si2 0.939019 0.071311 0.247920
Si Si3 0.141053 0.567920 0.884753
Si Si4 0.471816 0.567475 0.857288
Si Si5 0.748083 0.428097 0.629425
Si Si6 0.666475 0.928091 0.474899
O O1 0.174417 0.250000 0.280522
O O2 0.238568 0.039863 0.311080
O O3 0.000000 0.000000 0.500000
O O4 0.289698 0.982997 0.095348
O O5 0.908696 0.250000 0.258596
O O6 0.909752 0.052593 0.378558
O O7 0.813960 0.958172 0.355918
O O8 0.116802 0.014180 0.001869
O O9 0.127329 0.750000 0.912772
O O10 0.311525 0.526149 0.634484
O O11 0.000000 0.500000 0.000000
O O12 0.498427 0.750000 0.841442
O O13 0.588850 0.470198 0.773097
O O14 0.507479 0.528664 0.719937
O O15 0.731999 0.250000 0.678406
O O16 0.664462 0.750000 0.450725
#
# Coordination Sequence:
#
# PCOD8068133 Si02
#       6
#     4   4   4   4   4   4
#     4  12  25  40  57  76 102 134 170 214 261 312
#     4   9  16  26  42  65  96 131 166 204 246 294
#     4  10  16  22  36  60  95 132 165 202 245 294
#     4  10  20  35  55  79 106 137 174 214 257 305
#     4  10  20  35  55  79 106 137 174 214 257 305
#     4   9  16  26  42  65  96 131 166 204 246 294
#
# _framework density 20.175305999999999
#
# number of rings (size 3 to 8) (size 9 to 14) (size 15 to 20)
#    0.000    2.000    0.000    7.500    0.000    4.000 
#    0.000    0.000    0.000    0.000    0.000    1.167 
#    0.000    0.000    0.000    0.000    0.000    0.000 
#
# Total GULP energy -297424.144229 kJ/mol
# GULP energy per Si atom -12392.672676 kJ/mol
# Density = 2.012939 g / cm^3
# Si number density = 20.175306 Si / 1000 Ang^3
#
#
#
# Elastic Constant Matrix: (Units=GPa)
#
#
# Indices 1 2 3 4 5 6 
#
# 1 14.0834 15.7865 39.4984 0.0000 10.8074 0.0000
# 2 15.7865 94.8208 45.4259 0.0000 16.8367 0.0000
# 3 39.4984 45.4259 153.5396 0.0000 39.5476 0.0000
# 4 0.0000 0.0000 0.0000 33.0422 0.0000 7.4903
# 5 10.8074 16.8367 39.5476 0.0000 30.4512 0.0000
# 6 0.0000 0.0000 0.0000 7.4903 0.0000 22.5993
#
#
#
# Elastic Compliance Matrix: (Units=1/GPa)
#
#
# Indices 1 2 3 4 5 6 
#
# 1 0.269641 -0.013266 -0.064135 0.000000 -0.005069 0.000000
# 2 -0.013266 0.013140 0.000276 0.000000 -0.002916 0.000000
# 3 -0.064135 0.000276 0.025705 0.000000 -0.010775 0.000000
# 4 0.000000 0.000000 0.000000 0.032723 0.000000 -0.010846
# 5 -0.005069 -0.002916 -0.010775 0.000000 0.050244 0.000000
# 6 0.000000 0.000000 0.000000 -0.010846 0.000000 0.047844
#
#
# Mechanical properties :
#
#
# Convention : Reuss Voigt Hill
#
# Bulk Modulus (GPa) = 6.48356 51.54059 29.01207
# Shear Modulus (GPa) = 7.75241 28.00074 17.87657
#
# Velocity S-wave (km/s) = 1.96236 3.72946 2.97991
# Velocity P-wave (km/s) = 2.89052 6.64432 5.12357
#
# Compressibility (1/GPa) = 0.15423616
#
# Stress axis : x y z
#
# Youngs Moduli (GPa) = 3.70863 76.10165 38.90221
#
# Poissons Ratio (x) = 1.00959 2.49500
# Poissons Ratio (y) = 0.04920 -0.01074
# Poissons Ratio (z) = 0.23785 -0.02101
#
# Static dielectric constant tensor:
#      x y z
#    x 3.399570 0.000000 0.877890 
#    y 0.000000 3.752300 0.000000 
#    z 0.877890 0.000000 4.526460 
# 
# 
# High freq. dielectric constant tensor:
#      x y z
#    x 1.726830 0.000000 0.058340 
#    y 0.000000 1.802870 0.000000 
#    z 0.058340 0.000000 1.797220 
# 
# From -- ./inp_files/61837.got.cif
#   From: 2010.06.25/outbox.cif.g09.slc.cpg/sg11_31_cif.got.tgz:61837.got - 2010.06.27 23:14:04.
