data_PCOD8068658
_publ_section_title
;
Structure prediction by ZEFSAII (Michael W. Deem and Ramdas Pophale) SiO2 
 PCOD8068658
Probable space group: P 21/M
;
_chemical_formula_sum "Si O2"
_cell_formula_units_Z 32
_cell_length_a 35.009192
_cell_length_b 8.720894
_cell_length_c 23.867269
_cell_angle_alpha 90.000000
_cell_angle_beta 164.209775
_cell_angle_gamma 90.000000
_cell_volume 1982.896444
_symmetry_space_group_name_H-M "P 21/M"
_symmetry_group_IT_number 11
_symmetry_cell_setting 'monoclinic'
loop_
_space_group_symop_operation_xyz
x,y,z
-x,1/2+y,-z
-x,-y,-z
x,1/2-y,z
loop_
_atom_site_type_symbol
_atom_site_label
_atom_site_fract_x
_atom_site_fract_y
_atom_site_fract_z
Si Si1 0.606461 0.925832 0.277986
Si Si2 0.387179 0.927512 0.881110
Si Si3 0.284996 0.929103 0.461007
Si Si4 0.994879 0.429372 0.078253
Si Si5 0.289047 0.430775 0.355666
Si Si6 0.938254 0.929454 0.113670
Si Si7 0.172407 0.429119 0.507231
Si Si8 0.629143 0.571649 0.650569
O O1 0.631147 0.750000 0.330619
O O2 0.722005 0.971786 0.394493
O O3 0.617998 0.031860 0.348884
O O4 0.448291 0.948868 0.030300
O O5 0.369376 0.750000 0.841217
O O6 0.239239 0.012646 0.660574
O O7 0.500000 0.000000 0.000000
O O8 0.251954 0.750000 0.414118
O O9 0.359839 0.980988 0.508360
O O10 0.143149 0.027181 0.261260
O O11 0.964769 0.250000 0.027624
O O12 0.003103 0.470886 0.155193
O O13 0.875520 0.527850 0.879325
O O14 0.306826 0.250000 0.388220
O O15 0.361215 0.489347 0.399840
O O16 0.960165 0.750000 0.131844
O O17 0.772996 0.966942 0.886980
O O18 0.024476 0.982273 0.290188
O O19 0.143406 0.250000 0.470753
O O20 0.500000 0.500000 0.500000
O O21 0.602738 0.750000 0.611495
#
# Coordination Sequence:
#
# PCOD8068658 Si02
#       8
#     4   4   4   4   4   4   4   4
#     4   9  18  30  42  60  88 124 161 192 229 268
#     4   9  17  28  42  59  85 120 159 196 231 269
#     4  12  22  30  44  65  90 123 158 192 228 266
#     4  11  20  31  45  63  90 121 154 191 229 268
#     4  10  21  36  49  65  89 117 152 189 228 273
#     4  10  19  31  47  69  93 121 157 191 229 274
#     4  10  18  28  44  65  90 121 158 194 233 270
#     4   9  20  36  54  72  91 117 147 187 236 281
#
# _framework density 16.138010000000001
#
# number of rings (size 3 to 8) (size 9 to 14) (size 15 to 20)
#    0.000    2.000    1.250    5.625    0.000    5.500 
#    0.000    0.000    0.000    0.000    0.000    0.000 
#    0.000    1.000    0.000    3.250    0.000    4.000 
#
# Total GULP energy -396688.363722 kJ/mol
# GULP energy per Si atom -12396.511366 kJ/mol
# Density = 1.610128 g / cm^3
# Si number density = 16.138010 Si / 1000 Ang^3
#
#
#
# Elastic Constant Matrix: (Units=GPa)
#
#
# Indices 1 2 3 4 5 6 
#
# 1 65.8538 28.7408 49.1201 0.0000 -8.9204 0.0000
# 2 28.7408 72.0171 33.9905 0.0000 -4.2410 0.0000
# 3 49.1201 33.9905 85.0595 0.0000 -11.5930 0.0000
# 4 0.0000 0.0000 0.0000 27.9850 0.0000 -4.9683
# 5 -8.9204 -4.2410 -11.5930 0.0000 19.7793 0.0000
# 6 0.0000 0.0000 0.0000 -4.9683 0.0000 23.0274
#
#
#
# Elastic Compliance Matrix: (Units=1/GPa)
#
#
# Indices 1 2 3 4 5 6 
#
# 1 0.027949 -0.004382 -0.013910 0.000000 0.003512 0.000000
# 2 -0.004382 0.017803 -0.004709 0.000000 -0.000919 0.000000
# 3 -0.013910 -0.004709 0.022474 0.000000 0.005889 0.000000
# 4 0.000000 0.000000 0.000000 0.037157 0.000000 0.008017
# 5 0.003512 -0.000919 0.005889 0.000000 0.055397 0.000000
# 6 0.000000 0.000000 0.000000 0.008017 0.000000 0.045156
#
#
# Mechanical properties :
#
#
# Convention : Reuss Voigt Hill
#
# Bulk Modulus (GPa) = 44.99767 49.62591 47.31179
# Shear Modulus (GPa) = 19.27940 21.56360 20.42150
#
# Velocity S-wave (km/s) = 3.46013 3.65937 3.56115
# Velocity P-wave (km/s) = 6.62623 6.97656 6.80365
#
# Compressibility (1/GPa) = 0.02222337
#
# Stress axis : x y z
#
# Youngs Moduli (GPa) = 35.77978 56.17120 44.49651
#
# Poissons Ratio (x) = 0.24613 0.61895
# Poissons Ratio (y) = 0.15678 0.20953
# Poissons Ratio (z) = 0.49770 0.26451
#
# Static dielectric constant tensor:
#      x y z
#    x 3.547240 0.000000 -0.064090 
#    y 0.000000 3.115380 0.000000 
#    z -0.064090 0.000000 3.406560 
# 
# 
# High freq. dielectric constant tensor:
#      x y z
#    x 1.579700 0.000000 -0.037400 
#    y 0.000000 1.634720 0.000000 
#    z -0.037400 0.000000 1.603710 
# 
# From -- ./inp_files/67442.got.cif
#   From: 2010.06.25/outbox.cif.g09.slc.cpg/sg11_34_cif.got.tgz:67442.got - 2010.06.27 23:14:04.
