data_PCOD8068964
_publ_section_title
;
Structure prediction by ZEFSAII (Michael W. Deem and Ramdas Pophale) SiO2 
 PCOD8068964
Probable space group: P 21/M
;
_chemical_formula_sum "Si O2"
_cell_formula_units_Z 32
_cell_length_a 16.465410
_cell_length_b 16.927006
_cell_length_c 5.119904
_cell_angle_alpha 90.000000
_cell_angle_beta 94.913572
_cell_angle_gamma 90.000000
_cell_volume 1421.724864
_symmetry_space_group_name_H-M "P 21/M"
_symmetry_group_IT_number 11
_symmetry_cell_setting 'monoclinic'
loop_
_space_group_symop_operation_xyz
x,y,z
-x,1/2+y,-z
-x,-y,-z
x,1/2-y,z
loop_
_atom_site_type_symbol
_atom_site_label
_atom_site_fract_x
_atom_site_fract_y
_atom_site_fract_z
Si Si1 0.492370 0.157872 0.304396
Si Si2 0.844753 0.160519 0.372185
Si Si3 0.766610 0.088458 0.849272
Si Si4 0.990413 0.068506 0.293397
Si Si5 0.686475 0.840508 0.790120
Si Si6 0.407132 0.842911 0.157839
Si Si7 0.212032 0.340554 0.666175
Si Si8 0.128372 0.045262 0.991453
O O1 0.483101 0.250000 0.242688
O O2 0.402279 0.118264 0.258437
O O3 0.527872 0.140347 0.597654
O O4 0.553008 0.125380 0.098874
O O5 0.829948 0.250000 0.450042
O O6 0.803906 0.105757 0.576975
O O7 0.942584 0.144302 0.393781
O O8 0.802996 0.144891 0.082497
O O9 0.670490 0.102621 0.809083
O O10 0.784569 0.994546 0.906497
O O11 0.928453 0.031771 0.062242
O O12 0.000000 0.000000 0.500000
O O13 0.078768 0.094796 0.200271
O O14 0.676227 0.750000 0.699512
O O15 0.752647 0.874205 0.598394
O O16 0.718712 0.847837 0.092290
O O17 0.382705 0.750000 0.142477
O O18 0.180817 0.250000 0.635684
O O19 0.138264 0.397655 0.741678
#
# Coordination Sequence:
#
# PCOD8068964 Si02
#       8
#     4   4   4   4   4   4   4   4
#     4   9  17  30  51  78 110 147 183 227 280 329
#     4  11  22  37  59  85 114 149 189 236 283 328
#     4  11  22  37  56  82 118 154 187 230 282 343
#     4  10  21  41  60  81 112 151 190 226 277 351
#     4   9  18  34  55  82 114 146 184 233 288 337
#     4  10  18  29  50  79 108 141 187 232 271 324
#     4  10  21  36  59  88 113 143 191 243 283 327
#     4  10  23  39  61  82 113 153 190 228 286 347
#
# _framework density 22.507873
#
# number of rings (size 3 to 8) (size 9 to 14) (size 15 to 20)
#    0.000    2.000    1.250    2.625    1.750    4.500 
#    0.000    0.625    0.000    4.500    0.000    0.000 
#    0.000    0.000    0.000    0.000    0.000    0.000 
#
# Total GULP energy -396660.990847 kJ/mol
# GULP energy per Si atom -12395.655964 kJ/mol
# Density = 2.245664 g / cm^3
# Si number density = 22.507873 Si / 1000 Ang^3
#
#
#
# Elastic Constant Matrix: (Units=GPa)
#
#
# Indices 1 2 3 4 5 6 
#
# 1 67.0400 2.9363 -5.6751 0.0000 -32.2253 0.0000
# 2 2.9363 44.3215 -7.5404 0.0000 -9.9824 0.0000
# 3 -5.6751 -7.5404 64.6189 0.0000 -16.9817 0.0000
# 4 0.0000 0.0000 0.0000 24.3438 0.0000 -6.4152
# 5 -32.2253 -9.9824 -16.9817 0.0000 38.2839 0.0000
# 6 0.0000 0.0000 0.0000 -6.4152 0.0000 22.7692
#
#
#
# Elastic Compliance Matrix: (Units=1/GPa)
#
#
# Indices 1 2 3 4 5 6 
#
# 1 0.032731 0.008058 0.013139 0.000000 0.035480 0.000000
# 2 0.008058 0.027488 0.008582 0.000000 0.017757 0.000000
# 3 0.013139 0.008582 0.023913 0.000000 0.023904 0.000000
# 4 0.000000 0.000000 0.000000 0.044373 0.000000 0.012502
# 5 0.035480 0.017757 0.023904 0.000000 0.071219 0.000000
# 6 0.000000 0.000000 0.000000 0.012502 0.000000 0.047441
#
#
# Mechanical properties :
#
#
# Convention : Reuss Voigt Hill
#
# Bulk Modulus (GPa) = 6.95951 17.26911 12.11431
# Shear Modulus (GPa) = 21.23112 29.49669 25.36390
#
# Velocity S-wave (km/s) = 3.07461 3.62402 3.36056
# Velocity P-wave (km/s) = 3.96271 5.02001 4.52236
#
# Compressibility (1/GPa) = 0.14368834
#
# Stress axis : x y z
#
# Youngs Moduli (GPa) = 30.55246 36.37965 41.81884
#
# Poissons Ratio (x) = -0.29315 -0.54945
# Poissons Ratio (y) = -0.24619 -0.35888
# Poissons Ratio (z) = -0.40143 -0.31220
#
# Static dielectric constant tensor:
#      x y z
#    x 5.194960 0.000000 0.355050 
#    y 0.000000 1.060850 0.000000 
#    z 0.355050 0.000000 4.333930 
# 
# 
# High freq. dielectric constant tensor:
#      x y z
#    x 1.894500 0.000000 -0.006670 
#    y 0.000000 1.850480 0.000000 
#    z -0.006670 0.000000 1.899430 
# 
# From -- ./inp_files/6846.got.cif
#   From: 2010.06.25/outbox.cif.g09.slc.cpg/sg11_4_cif.got.tgz:6846.got - 2010.06.27 23:14:04.
