data_PCOD8068363
_publ_section_title
;
Structure prediction by ZEFSAII (Michael W. Deem and Ramdas Pophale) SiO2 
 PCOD8068363
Probable space group: P 21/M
;
_chemical_formula_sum "Si O2"
_cell_formula_units_Z 24
_cell_length_a 9.206181
_cell_length_b 13.362432
_cell_length_c 15.814221
_cell_angle_alpha 90.000000
_cell_angle_beta 42.853936
_cell_angle_gamma 90.000000
_cell_volume 1323.140135
_symmetry_space_group_name_H-M "P 21/M"
_symmetry_group_IT_number 11
_symmetry_cell_setting 'monoclinic'
loop_
_space_group_symop_operation_xyz
x,y,z
-x,1/2+y,-z
-x,-y,-z
x,1/2-y,z
loop_
_atom_site_type_symbol
_atom_site_label
_atom_site_fract_x
_atom_site_fract_y
_atom_site_fract_z
Si Si1 0.742758 0.526801 0.380360
Si Si2 0.939238 0.363919 0.190197
Si Si3 0.215712 0.028355 0.453589
Si Si4 0.425432 0.135794 0.698365
Si Si5 0.433585 0.638006 0.788734
Si Si6 0.782464 0.959196 0.057095
O O1 0.500000 0.500000 0.500000
O O2 0.881947 0.429420 0.296337
O O3 0.837005 0.568566 0.428824
O O4 0.746206 0.606734 0.301986
O O5 0.972636 0.250000 0.205113
O O6 0.742412 0.373585 0.209398
O O7 0.162787 0.403677 0.054247
O O8 0.361563 0.929800 0.398618
O O9 0.335869 0.115271 0.350198
O O10 0.000000 0.000000 0.500000
O O11 0.493121 0.250000 0.658103
O O12 0.315446 0.121048 0.836184
O O13 0.433276 0.750000 0.827434
O O14 0.377986 0.555103 0.884676
O O15 0.000000 0.000000 0.000000
#
# Coordination Sequence:
#
# PCOD8068363 Si02
#       6
#     4   4   4   4   4   4
#     4  10  18  33  48  75 104 130 171 213 257 295
#     4  10  17  29  52  78 104 133 165 209 259 306
#     4  10  21  36  51  72 105 140 175 212 252 304
#     4  10  19  32  52  78 104 132 167 213 256 298
#     4   9  17  30  51  73 101 136 168 206 253 302
#     4   9  15  30  47  79 108 125 162 210 260 304
#
# _framework density 18.138667999999999
#
# number of rings (size 3 to 8) (size 9 to 14) (size 15 to 20)
#    0.000    2.333    6.667    0.500    0.000    4.667 
#    0.000    0.000    0.000    4.000    0.000    2.333 
#    0.000    0.000    0.000    0.000    0.000    0.000 
#
# Total GULP energy -297412.478312 kJ/mol
# GULP energy per Si atom -12392.186596 kJ/mol
# Density = 1.809738 g / cm^3
# Si number density = 18.138668 Si / 1000 Ang^3
#
#
#
# Elastic Constant Matrix: (Units=GPa)
#
#
# Indices 1 2 3 4 5 6 
#
# 1 61.6646 12.5043 25.1021 0.0000 -2.7298 0.0000
# 2 12.5043 109.6390 40.9998 0.0000 -2.9164 0.0000
# 3 25.1021 40.9998 114.5244 0.0000 8.3832 0.0000
# 4 0.0000 0.0000 0.0000 23.8263 0.0000 -1.5651
# 5 -2.7298 -2.9164 8.3832 0.0000 13.0114 0.0000
# 6 0.0000 0.0000 0.0000 -1.5651 0.0000 8.7242
#
#
#
# Elastic Compliance Matrix: (Units=1/GPa)
#
#
# Indices 1 2 3 4 5 6 
#
# 1 0.018362 -0.000267 -0.004415 0.000000 0.006637 0.000000
# 2 -0.000267 0.010857 -0.004201 0.000000 0.005084 0.000000
# 3 -0.004415 -0.004201 0.011901 0.000000 -0.009536 0.000000
# 4 0.000000 0.000000 0.000000 0.042471 0.000000 0.007619
# 5 0.006637 0.005084 -0.009536 0.000000 0.085532 0.000000
# 6 0.000000 0.000000 0.000000 0.007619 0.000000 0.115990
#
#
# Mechanical properties :
#
#
# Convention : Reuss Voigt Hill
#
# Bulk Modulus (GPa) = 42.81566 49.22671 46.02119
# Shear Modulus (GPa) = 16.09458 22.92716 19.51087
#
# Velocity S-wave (km/s) = 2.98200 3.55913 3.28327
# Velocity P-wave (km/s) = 5.95922 6.63987 6.30873
#
# Compressibility (1/GPa) = 0.02335594
#
# Stress axis : x y z
#
# Youngs Moduli (GPa) = 54.46057 92.10369 84.02413
#
# Poissons Ratio (x) = 0.02455 0.37097
# Poissons Ratio (y) = 0.01452 0.35296
# Poissons Ratio (z) = 0.24045 0.38690
#
# Static dielectric constant tensor:
#      x y z
#    x 3.073670 0.000000 0.328930 
#    y 0.000000 3.505610 0.000000 
#    z 0.328930 0.000000 3.907890 
# 
# 
# High freq. dielectric constant tensor:
#      x y z
#    x 1.638580 0.000000 0.005340 
#    y 0.000000 1.700550 0.000000 
#    z 0.005340 0.000000 1.715800 
# 
# From -- ./inp_files/39319.got.cif
#   From: 2010.06.25/outbox.cif.g09.slc.cpg/sg11_20_cif.got.tgz:39319.got - 2010.06.27 23:14:04.
