data_PCOD8068679
_publ_section_title
;
Structure prediction by ZEFSAII (Michael W. Deem and Ramdas Pophale) SiO2 
 PCOD8068679
Probable space group: P 21/M
;
_chemical_formula_sum "Si O2"
_cell_formula_units_Z 32
_cell_length_a 30.336223
_cell_length_b 9.017499
_cell_length_c 21.281743
_cell_angle_alpha 90.000000
_cell_angle_beta 160.557111
_cell_angle_gamma 90.000000
_cell_volume 1937.874586
_symmetry_space_group_name_H-M "P 21/M"
_symmetry_group_IT_number 11
_symmetry_cell_setting 'monoclinic'
loop_
_space_group_symop_operation_xyz
x,y,z
-x,1/2+y,-z
-x,-y,-z
x,1/2-y,z
loop_
_atom_site_type_symbol
_atom_site_label
_atom_site_fract_x
_atom_site_fract_y
_atom_site_fract_z
Si Si1 0.954211 0.422283 0.034658
Si Si2 0.417022 0.423840 0.334380
Si Si3 0.271710 0.421968 0.936776
Si Si4 0.891857 0.919690 0.394392
Si Si5 0.886825 0.925701 0.069737
Si Si6 0.532849 0.077642 0.355558
Si Si7 0.799428 0.578223 0.721625
Si Si8 0.048782 0.924369 0.718512
O O1 0.924496 0.250000 0.005661
O O2 0.959592 0.507072 0.107409
O O3 0.094842 0.450014 0.190925
O O4 0.836644 0.487954 0.834156
O O5 0.500000 0.500000 0.500000
O O6 0.424701 0.250000 0.355662
O O7 0.476400 0.469873 0.347272
O O8 0.265577 0.478441 0.133670
O O9 0.243408 0.250000 0.916750
O O10 0.248378 0.450473 0.829812
O O11 0.176728 0.522835 0.851436
O O12 0.423515 0.460206 0.155787
O O13 0.929774 0.750000 0.439730
O O14 0.912552 0.962722 0.495743
O O15 0.000000 0.000000 0.500000
O O16 0.899548 0.750000 0.085697
O O17 0.963257 0.987815 0.232928
O O18 0.572375 0.250000 0.407718
O O19 0.659408 0.979509 0.508285
O O20 0.791058 0.750000 0.728802
O O21 0.062495 0.750000 0.750822
#
# Coordination Sequence:
#
# PCOD8068679 Si02
#       8
#     4   4   4   4   4   4   4   4
#     4  10  21  37  54  72  94 122 161 206 246 284
#     4  10  21  33  44  64  93 126 158 190 230 279
#     4   9  16  30  47  66  96 131 163 199 236 279
#     4   8  15  26  43  65  92 126 162 195 233 278
#     4  11  21  34  50  70  97 129 163 197 240 287
#     4  10  19  32  49  69  96 129 164 197 237 284
#     4  10  21  36  53  73  96 123 159 203 247 287
#     4  10  18  28  44  70  99 129 162 196 236 285
#
# _framework density 16.512936
#
# number of rings (size 3 to 8) (size 9 to 14) (size 15 to 20)
#    0.000    2.250    1.250    2.250    0.000    6.000 
#    0.000    0.000    0.000    0.000    0.000    0.875 
#    0.000    0.000    0.000    0.000    0.000    0.000 
#
# Total GULP energy -396648.052009 kJ/mol
# GULP energy per Si atom -12395.251625 kJ/mol
# Density = 1.647535 g / cm^3
# Si number density = 16.512936 Si / 1000 Ang^3
#
#
#
# Elastic Constant Matrix: (Units=GPa)
#
#
# Indices 1 2 3 4 5 6 
#
# 1 84.9609 45.7018 61.2979 0.0000 -22.6764 0.0000
# 2 45.7018 68.4944 44.5380 0.0000 -10.7330 0.0000
# 3 61.2979 44.5380 117.1942 0.0000 -27.7532 0.0000
# 4 0.0000 0.0000 0.0000 24.8453 0.0000 -0.9704
# 5 -22.6764 -10.7330 -27.7532 0.0000 29.1576 0.0000
# 6 0.0000 0.0000 0.0000 -0.9704 0.0000 26.2404
#
#
#
# Elastic Compliance Matrix: (Units=1/GPa)
#
#
# Indices 1 2 3 4 5 6 
#
# 1 0.024830 -0.010757 -0.006796 0.000000 0.008883 0.000000
# 2 -0.010757 0.024052 -0.004388 0.000000 -0.003689 0.000000
# 3 -0.006796 -0.004388 0.015648 0.000000 0.007994 0.000000
# 4 0.000000 0.000000 0.000000 0.040307 0.000000 0.001491
# 5 0.008883 -0.003689 0.007994 0.000000 0.047456 0.000000
# 6 0.000000 0.000000 0.000000 0.001491 0.000000 0.038164
#
#
# Mechanical properties :
#
#
# Convention : Reuss Voigt Hill
#
# Bulk Modulus (GPa) = 48.42738 63.74722 56.08730
# Shear Modulus (GPa) = 20.72776 23.98944 22.35860
#
# Velocity S-wave (km/s) = 3.54679 3.81565 3.68367
# Velocity P-wave (km/s) = 6.79437 7.62237 7.22025
#
# Compressibility (1/GPa) = 0.02064947
#
# Stress axis : x y z
#
# Youngs Moduli (GPa) = 40.27328 41.57618 63.90590
#
# Poissons Ratio (x) = 0.44723 0.43429
# Poissons Ratio (y) = 0.43321 0.28042
# Poissons Ratio (z) = 0.27369 0.18243
#
# Static dielectric constant tensor:
#      x y z
#    x 3.063570 0.000000 -0.387750 
#    y 0.000000 3.142250 0.000000 
#    z -0.387750 0.000000 3.399260 
# 
# 
# High freq. dielectric constant tensor:
#      x y z
#    x 1.612130 0.000000 -0.027290 
#    y 0.000000 1.645550 0.000000 
#    z -0.027290 0.000000 1.631620 
# 
# From -- ./inp_files/40645.got.cif
#   From: 2010.06.25/outbox.cif.g09.slc.cpg/sg11_21_cif.got.tgz:40645.got - 2010.06.27 23:14:04.
