data_PCOD8068668
_publ_section_title
;
Structure prediction by ZEFSAII (Michael W. Deem and Ramdas Pophale) SiO2 
 PCOD8068668
Probable space group: P 21/M
;
_chemical_formula_sum "Si O2"
_cell_formula_units_Z 32
_cell_length_a 12.673418
_cell_length_b 8.765449
_cell_length_c 19.150187
_cell_angle_alpha 90.000000
_cell_angle_beta 63.589670
_cell_angle_gamma 90.000000
_cell_volume 1905.330610
_symmetry_space_group_name_H-M "P 21/M"
_symmetry_group_IT_number 11
_symmetry_cell_setting 'monoclinic'
loop_
_space_group_symop_operation_xyz
x,y,z
-x,1/2+y,-z
-x,-y,-z
x,1/2-y,z
loop_
_atom_site_type_symbol
_atom_site_label
_atom_site_fract_x
_atom_site_fract_y
_atom_site_fract_z
Si Si1 0.830086 0.069242 0.920238
Si Si2 0.405671 0.569836 0.080122
Si Si3 0.227059 0.569441 0.909417
Si Si4 0.618269 0.431239 0.497727
Si Si5 0.484252 0.072388 0.348063
Si Si6 0.910240 0.570665 0.176711
Si Si7 0.283371 0.430117 0.658082
Si Si8 0.506469 0.073523 0.183633
O O1 0.825085 0.250000 0.924395
O O2 0.724056 0.008717 0.902879
O O3 0.955339 0.013598 0.852381
O O4 0.814327 0.006240 0.003404
O O5 0.413664 0.750000 0.070859
O O6 0.427779 0.521058 0.153033
O O7 0.500000 0.500000 0.000000
O O8 0.221453 0.750000 0.906437
O O9 0.140766 0.504124 0.877274
O O10 0.359945 0.512282 0.856957
O O11 0.500000 0.500000 0.500000
O O12 0.617015 0.250000 0.499824
O O13 0.622744 0.497578 0.575350
O O14 0.723258 0.491880 0.416962
O O15 0.497427 0.250000 0.362950
O O16 0.452839 0.048025 0.276355
O O17 0.607767 0.991876 0.328762
O O18 0.904670 0.750000 0.166389
O O19 0.836431 0.523939 0.266954
O O20 0.297731 0.250000 0.644879
O O21 0.503111 0.250000 0.162382
#
# Coordination Sequence:
#
# PCOD8068668 Si02
#       8
#     4   4   4   4   4   4   4   4
#     4   9  19  35  50  67  95 130 163 203 247 283
#     4  11  21  35  54  71  94 127 166 208 249 289
#     4  10  18  32  50  68  98 131 161 197 244 289
#     4  10  18  28  44  66  95 127 159 192 232 285
#     4  10  18  30  47  67  97 129 157 193 239 287
#     4  10  20  32  48  71  98 128 166 201 234 286
#     4  10  18  28  44  68  97 127 160 194 232 284
#     4  10  20  33  50  73  99 130 162 199 246 289
#
# _framework density 16.794986000000002
#
# number of rings (size 3 to 8) (size 9 to 14) (size 15 to 20)
#    0.000    2.000    2.500    4.125    0.000    2.000 
#    0.000    1.250    0.000    0.000    0.000    0.875 
#    0.000    0.000    0.000    0.000    0.000    0.000 
#
# Total GULP energy -396729.019135 kJ/mol
# GULP energy per Si atom -12397.781848 kJ/mol
# Density = 1.675676 g / cm^3
# Si number density = 16.794986 Si / 1000 Ang^3
#
#
#
# Elastic Constant Matrix: (Units=GPa)
#
#
# Indices 1 2 3 4 5 6 
#
# 1 107.5975 30.1886 64.6306 0.0000 -4.7323 0.0000
# 2 30.1886 63.2036 45.6256 0.0000 1.2552 0.0000
# 3 64.6306 45.6256 144.2947 0.0000 1.9296 0.0000
# 4 0.0000 0.0000 0.0000 25.6800 0.0000 5.9176
# 5 -4.7323 1.2552 1.9296 0.0000 17.7715 0.0000
# 6 0.0000 0.0000 0.0000 5.9176 0.0000 19.9117
#
#
#
# Elastic Compliance Matrix: (Units=1/GPa)
#
#
# Indices 1 2 3 4 5 6 
#
# 1 0.013360 -0.002728 -0.005179 0.000000 0.004313 0.000000
# 2 -0.002728 0.021068 -0.005418 0.000000 -0.001626 0.000000
# 3 -0.005179 -0.005418 0.010992 0.000000 -0.002190 0.000000
# 4 0.000000 0.000000 0.000000 0.041804 0.000000 -0.012424
# 5 0.004313 -0.001626 -0.002190 0.000000 0.057771 0.000000
# 6 0.000000 0.000000 0.000000 -0.012424 0.000000 0.053914
#
#
# Mechanical properties :
#
#
# Convention : Reuss Voigt Hill
#
# Bulk Modulus (GPa) = 53.27586 66.22062 59.74824
# Shear Modulus (GPa) = 21.56877 24.31604 22.94240
#
# Velocity S-wave (km/s) = 3.58752 3.80914 3.69999
# Velocity P-wave (km/s) = 6.99646 7.67206 7.34204
#
# Compressibility (1/GPa) = 0.01877023
#
# Stress axis : x y z
#
# Youngs Moduli (GPa) = 74.85087 47.46424 90.97173
#
# Poissons Ratio (x) = 0.12949 0.47114
# Poissons Ratio (y) = 0.20421 0.49289
# Poissons Ratio (z) = 0.38765 0.25716
#
# Static dielectric constant tensor:
#      x y z
#    x 3.096300 0.000000 -0.163820 
#    y 0.000000 3.163100 0.000000 
#    z -0.163820 0.000000 4.014030 
# 
# 
# High freq. dielectric constant tensor:
#      x y z
#    x 1.607300 0.000000 0.005080 
#    y 0.000000 1.646040 0.000000 
#    z 0.005080 0.000000 1.660720 
# 
# From -- ./inp_files/64206.got.cif
#   From: 2010.06.25/outbox.cif.g09.slc.cpg/sg11_33_cif.got.tgz:64206.got - 2010.06.27 23:14:04.
