data_PCOD8068877
_publ_section_title
;
Structure prediction by ZEFSAII (Michael W. Deem and Ramdas Pophale) SiO2 
 PCOD8068877
Probable space group: P 21/M
;
_chemical_formula_sum "Si O2"
_cell_formula_units_Z 28
_cell_length_a 18.147627
_cell_length_b 8.963048
_cell_length_c 16.444418
_cell_angle_alpha 90.000000
_cell_angle_beta 36.836971
_cell_angle_gamma 90.000000
_cell_volume 1603.660205
_symmetry_space_group_name_H-M "P 21/M"
_symmetry_group_IT_number 11
_symmetry_cell_setting 'monoclinic'
loop_
_space_group_symop_operation_xyz
x,y,z
-x,1/2+y,-z
-x,-y,-z
x,1/2-y,z
loop_
_atom_site_type_symbol
_atom_site_label
_atom_site_fract_x
_atom_site_fract_y
_atom_site_fract_z
Si Si1 0.755101 0.924955 0.974473
Si Si2 0.484117 0.923139 0.271179
Si Si3 0.825858 0.922662 0.208111
Si Si4 0.592635 0.073670 0.480732
Si Si5 0.898605 0.422756 0.983359
Si Si6 0.399209 0.082395 0.194791
Si Si7 0.322939 0.918272 0.111478
O O1 0.782199 0.750000 0.949430
O O2 0.757856 0.985643 0.880005
O O3 0.626043 0.963879 0.131153
O O4 0.861594 0.008947 0.929610
O O5 0.460725 0.750000 0.275767
O O6 0.450217 0.971923 0.391654
O O7 0.395513 0.010755 0.287527
O O8 0.788229 0.750000 0.234355
O O9 0.728706 0.010513 0.348388
O O10 0.826147 0.989280 0.117389
O O11 0.956172 0.945019 0.136111
O O12 0.592082 0.250000 0.468490
O O13 0.500000 0.000000 0.500000
O O14 0.861279 0.250000 0.021532
O O15 0.348381 0.250000 0.245113
O O16 0.311741 0.990539 0.210824
O O17 0.536826 0.079505 0.040140
O O18 0.271934 0.750000 0.159743
#
# Coordination Sequence:
#
# PCOD8068877 Si02
#       7
#     4   4   4   4   4   4   4
#     4  10  18  29  47  71  99 127 159 199 240 284
#     4   9  19  32  45  66  96 129 160 193 236 284
#     4  10  21  36  52  71  96 126 162 202 243 287
#     4  11  22  35  52  73  99 130 164 200 240 287
#     4  10  20  34  52  72  95 125 161 201 245 290
#     4   9  16  26  42  64  90 123 160 195 233 279
#     4   9  16  26  41  63  94 127 157 192 235 283
#
# _framework density 17.460059000000001
#
# number of rings (size 3 to 8) (size 9 to 14) (size 15 to 20)
#    0.000    2.286    0.000    3.429    0.000    8.000 
#    0.000    0.000    0.000    0.000    0.000    1.000 
#    0.000    0.000    0.000    0.000    0.000    0.000 
#
# Total GULP energy -347281.901773 kJ/mol
# GULP energy per Si atom -12402.925063 kJ/mol
# Density = 1.742032 g / cm^3
# Si number density = 17.460059 Si / 1000 Ang^3
#
#
#
# Elastic Constant Matrix: (Units=GPa)
#
#
# Indices 1 2 3 4 5 6 
#
# 1 129.5143 68.6336 39.9100 0.0000 29.5827 0.0000
# 2 68.6336 114.2589 41.1376 0.0000 17.3083 0.0000
# 3 39.9100 41.1376 56.1896 0.0000 14.7680 0.0000
# 4 0.0000 0.0000 0.0000 24.2957 0.0000 5.0269
# 5 29.5827 17.3083 14.7680 0.0000 23.6002 0.0000
# 6 0.0000 0.0000 0.0000 5.0269 0.0000 37.7929
#
#
#
# Elastic Compliance Matrix: (Units=1/GPa)
#
#
# Indices 1 2 3 4 5 6 
#
# 1 0.014430 -0.005829 -0.002814 0.000000 -0.012052 0.000000
# 2 -0.005829 0.014550 -0.006735 0.000000 0.000851 0.000000
# 3 -0.002814 -0.006735 0.026931 0.000000 -0.008385 0.000000
# 4 0.000000 0.000000 0.000000 0.042324 0.000000 -0.005630
# 5 -0.012052 0.000851 -0.008385 0.000000 0.062102 0.000000
# 6 0.000000 0.000000 0.000000 -0.005630 0.000000 0.027209
#
#
# Mechanical properties :
#
#
# Convention : Reuss Voigt Hill
#
# Bulk Modulus (GPa) = 39.75683 66.59170 53.17427
# Shear Modulus (GPa) = 22.05675 27.15654 24.60665
#
# Velocity S-wave (km/s) = 3.55811 3.94807 3.75815
# Velocity P-wave (km/s) = 6.30077 7.68149 7.02513
#
# Compressibility (1/GPa) = 0.02515291
#
# Stress axis : x y z
#
# Youngs Moduli (GPa) = 69.29891 68.73028 37.13249
#
# Poissons Ratio (x) = 0.40063 0.10450
# Poissons Ratio (y) = 0.40395 0.25010
# Poissons Ratio (z) = 0.19502 0.46293
#
# Static dielectric constant tensor:
#      x y z
#    x 3.294190 0.000000 0.178810 
#    y 0.000000 3.427840 0.000000 
#    z 0.178810 0.000000 2.954900 
# 
# 
# High freq. dielectric constant tensor:
#      x y z
#    x 1.680390 0.000000 0.021340 
#    y 0.000000 1.693440 0.000000 
#    z 0.021340 0.000000 1.627730 
# 
# From -- ./inp_files/48906.got.cif
#   From: 2010.06.25/outbox.cif.g09.slc.cpg/sg11_25_cif.got.tgz:48906.got - 2010.06.27 23:14:04.
