data_PCOD8068653
_publ_section_title
;
Structure prediction by ZEFSAII (Michael W. Deem and Ramdas Pophale) SiO2 
 PCOD8068653
Probable space group: P 21/M
;
_chemical_formula_sum "Si O2"
_cell_formula_units_Z 32
_cell_length_a 28.564639
_cell_length_b 9.551423
_cell_length_c 22.169577
_cell_angle_alpha 90.000000
_cell_angle_beta 18.752695
_cell_angle_gamma 90.000000
_cell_volume 1944.525291
_symmetry_space_group_name_H-M "P 21/M"
_symmetry_group_IT_number 11
_symmetry_cell_setting 'monoclinic'
loop_
_space_group_symop_operation_xyz
x,y,z
-x,1/2+y,-z
-x,-y,-z
x,1/2-y,z
loop_
_atom_site_type_symbol
_atom_site_label
_atom_site_fract_x
_atom_site_fract_y
_atom_site_fract_z
Si Si1 0.431234 0.415495 0.637612
Si Si2 0.929097 0.081930 0.141874
Si Si3 0.065517 0.417094 0.224770
Si Si4 0.353842 0.417096 0.936417
Si Si5 0.907167 0.406046 0.532081
Si Si6 0.098719 0.084641 0.052568
Si Si7 0.785740 0.906062 0.775041
Si Si8 0.401204 0.915350 0.447519
O O1 0.500000 0.500000 0.500000
O O2 0.445803 0.250000 0.608457
O O3 0.515297 0.464048 0.594700
O O4 0.264840 0.463965 0.845259
O O5 0.941678 0.250000 0.116746
O O6 0.763266 0.028628 0.351000
O O7 0.008471 0.028583 0.105722
O O8 0.000000 0.000000 0.000000
O O9 0.071455 0.250000 0.219112
O O10 0.939046 0.466531 0.425726
O O11 0.033135 0.471981 0.196329
O O12 0.222898 0.475004 0.054156
O O13 0.347350 0.250000 0.943186
O O14 0.507881 0.472026 0.721559
O O15 0.331356 0.466508 0.033382
O O16 0.842035 0.250000 0.607969
O O17 0.788363 0.500042 0.711652
O O18 0.058354 0.404305 0.383246
O O19 0.089492 0.250000 0.064125
O O20 0.742116 0.750000 0.807917
O O21 0.396803 0.750000 0.449564
#
# Coordination Sequence:
#
# PCOD8068653 Si02
#       8
#     4   4   4   4   4   4   4   4
#     4  10  18  28  44  62  81 106 134 166 205 250
#     4  10  20  32  46  64  85 108 136 174 213 248
#     4   8  12  21  38  59  80 104 137 171 199 233
#     4   8  12  21  38  59  80 104 137 171 199 233
#     4   8  13  20  33  54  79 105 130 159 196 236
#     4   9  16  27  43  63  83 106 138 173 206 241
#     4   8  13  20  33  54  79 105 130 159 196 236
#     4   9  16  27  43  63  83 106 138 173 206 241
#
# _framework density 16.456458000000001
#
# number of rings (size 3 to 8) (size 9 to 14) (size 15 to 20)
#    0.000    3.250    1.250    2.250    0.000    0.000 
#    0.000    0.000    0.000    3.000    0.000    0.875 
#    0.000    0.000    0.000    0.000    0.000    0.000 
#
# Total GULP energy -396462.132604 kJ/mol
# GULP energy per Si atom -12389.441644 kJ/mol
# Density = 1.641900 g / cm^3
# Si number density = 16.456458 Si / 1000 Ang^3
#
#
#
# Elastic Constant Matrix: (Units=GPa)
#
#
# Indices 1 2 3 4 5 6 
#
# 1 117.7478 26.7501 87.4241 0.0000 22.3397 0.0000
# 2 26.7501 27.1864 31.3945 0.0000 12.7888 0.0000
# 3 87.4241 31.3945 136.1654 0.0000 29.5424 0.0000
# 4 0.0000 0.0000 0.0000 17.5218 0.0000 10.1743
# 5 22.3397 12.7888 29.5424 0.0000 39.0086 0.0000
# 6 0.0000 0.0000 0.0000 10.1743 0.0000 13.8664
#
#
#
# Elastic Compliance Matrix: (Units=1/GPa)
#
#
# Indices 1 2 3 4 5 6 
#
# 1 0.016842 -0.005338 -0.009417 0.000000 -0.000763 0.000000
# 2 -0.005338 0.054737 -0.007135 0.000000 -0.009484 0.000000
# 3 -0.009417 -0.007135 0.015984 0.000000 -0.004373 0.000000
# 4 0.000000 0.000000 0.000000 0.099439 0.000000 -0.072962
# 5 -0.000763 -0.009484 -0.004373 0.000000 0.032494 0.000000
# 6 0.000000 0.000000 0.000000 -0.072962 0.000000 0.125653
#
#
# Mechanical properties :
#
#
# Convention : Reuss Voigt Hill
#
# Bulk Modulus (GPa) = 22.84025 63.58189 43.21107
# Shear Modulus (GPa) = 12.39088 23.11473 17.75281
#
# Velocity S-wave (km/s) = 2.74697 3.75186 3.28803
# Velocity P-wave (km/s) = 4.89596 7.58215 6.38198
#
# Compressibility (1/GPa) = 0.04378236
#
# Stress axis : x y z
#
# Youngs Moduli (GPa) = 59.37507 18.26926 62.56275
#
# Poissons Ratio (x) = 0.09752 0.58915
# Poissons Ratio (y) = 0.31695 0.44639
# Poissons Ratio (z) = 0.55913 0.13035
#
# Static dielectric constant tensor:
#      x y z
#    x 2.350340 0.000000 1.082580 
#    y 0.000000 2.678800 0.000000 
#    z 1.082580 0.000000 2.733730 
# 
# 
# High freq. dielectric constant tensor:
#      x y z
#    x 1.620320 0.000000 0.031760 
#    y 0.000000 1.577410 0.000000 
#    z 0.031760 0.000000 1.631780 
# 
# From -- ./inp_files/61431.got.cif
#   From: 2010.06.25/outbox.cif.g09.slc.cpg/sg11_31_cif.got.tgz:61431.got - 2010.06.27 23:14:04.
