data_PCOD8068924
_publ_section_title
;
Structure prediction by ZEFSAII (Michael W. Deem and Ramdas Pophale) SiO2 
 PCOD8068924
Probable space group: P 21/M
;
_chemical_formula_sum "Si O2"
_cell_formula_units_Z 32
_cell_length_a 14.399225
_cell_length_b 8.959487
_cell_length_c 26.418908
_cell_angle_alpha 90.000000
_cell_angle_beta 145.358865
_cell_angle_gamma 90.000000
_cell_volume 1937.392438
_symmetry_space_group_name_H-M "P 21/M"
_symmetry_group_IT_number 11
_symmetry_cell_setting 'monoclinic'
loop_
_space_group_symop_operation_xyz
x,y,z
-x,1/2+y,-z
-x,-y,-z
x,1/2-y,z
loop_
_atom_site_type_symbol
_atom_site_label
_atom_site_fract_x
_atom_site_fract_y
_atom_site_fract_z
Si Si1 0.451256 0.583501 0.132343
Si Si2 0.791089 0.584002 0.233355
Si Si3 0.253618 0.924721 0.603664
Si Si4 0.801629 0.924850 0.045407
Si Si5 0.321732 0.926165 0.914526
Si Si6 0.574754 0.076032 0.764304
Si Si7 0.049861 0.424277 0.596801
Si Si8 0.939981 0.425388 0.921536
O O1 0.374144 0.750000 0.091069
O O2 0.639294 0.588175 0.203027
O O3 0.429492 0.526723 0.179312
O O4 0.365786 0.463898 0.057954
O O5 0.819558 0.750000 0.222822
O O6 0.765096 0.465537 0.177291
O O7 0.938250 0.537473 0.337604
O O8 0.271183 0.750000 0.617693
O O9 0.131336 0.968939 0.503146
O O10 0.432191 0.990273 0.670313
O O11 0.186199 0.987971 0.626221
O O12 0.807614 0.750000 0.060045
O O13 0.952323 0.977560 0.078001
O O14 0.802332 0.015167 0.098237
O O15 0.345448 0.750000 0.929890
O O16 0.500000 0.000000 0.000000
O O17 0.540493 0.250000 0.742500
O O18 0.753816 0.030825 0.824084
O O19 0.083911 0.250000 0.602774
O O20 0.957013 0.250000 0.938225
O O21 0.000000 0.500000 0.000000
#
# Coordination Sequence:
#
# PCOD8068924 Si02
#       8
#     4   4   4   4   4   4   4   4
#     4  10  18  29  49  70  97 135 169 198 242 291
#     4  10  19  33  51  71  97 132 168 201 243 293
#     4  10  19  29  47  74 101 130 167 204 239 290
#     4  11  22  35  50  71  99 130 169 211 246 286
#     4  12  24  36  51  72  98 130 167 205 248 294
#     4  10  19  33  49  69 101 138 168 198 245 295
#     4   9  18  33  49  69 100 134 163 199 250 297
#     4  10  21  34  51  74  99 132 171 208 246 292
#
# _framework density 16.517046000000001
#
# number of rings (size 3 to 8) (size 9 to 14) (size 15 to 20)
#    0.000    1.750    3.750    1.875    0.000    2.500 
#    0.000    0.000    0.000    0.000    0.000    0.875 
#    0.000    0.000    0.000    0.000    0.000    0.000 
#
# Total GULP energy -396750.508691 kJ/mol
# GULP energy per Si atom -12398.453397 kJ/mol
# Density = 1.647945 g / cm^3
# Si number density = 16.517046 Si / 1000 Ang^3
#
#
#
# Elastic Constant Matrix: (Units=GPa)
#
#
# Indices 1 2 3 4 5 6 
#
# 1 90.6082 36.0818 41.5126 0.0000 -5.2600 0.0000
# 2 36.0818 70.8185 38.2700 0.0000 -4.7221 0.0000
# 3 41.5126 38.2700 103.8020 0.0000 -4.8126 0.0000
# 4 0.0000 0.0000 0.0000 27.2984 0.0000 -2.1659
# 5 -5.2600 -4.7221 -4.8126 0.0000 22.7966 0.0000
# 6 0.0000 0.0000 0.0000 -2.1659 0.0000 22.4633
#
#
#
# Elastic Compliance Matrix: (Units=1/GPa)
#
#
# Indices 1 2 3 4 5 6 
#
# 1 0.015113 -0.005458 -0.003961 0.000000 0.001520 0.000000
# 2 -0.005458 0.019726 -0.005008 0.000000 0.001769 0.000000
# 3 -0.003961 -0.005008 0.013102 0.000000 0.000815 0.000000
# 4 0.000000 0.000000 0.000000 0.036915 0.000000 0.003559
# 5 0.001520 0.001769 0.000815 0.000000 0.044755 0.000000
# 6 0.000000 0.000000 0.000000 0.003559 0.000000 0.044860
#
#
# Mechanical properties :
#
#
# Convention : Reuss Voigt Hill
#
# Bulk Modulus (GPa) = 52.39262 55.21750 53.80506
# Shear Modulus (GPa) = 23.84503 24.46927 24.15715
#
# Velocity S-wave (km/s) = 3.80368 3.85314 3.82849
# Velocity P-wave (km/s) = 7.14701 7.30060 7.22422
#
# Compressibility (1/GPa) = 0.01908666
#
# Stress axis : x y z
#
# Youngs Moduli (GPa) = 66.16747 50.69559 76.32463
#
# Poissons Ratio (x) = 0.27670 0.30234
# Poissons Ratio (y) = 0.36115 0.38221
# Poissons Ratio (z) = 0.26211 0.25387
#
# Static dielectric constant tensor:
#      x y z
#    x 3.088970 0.000000 0.023900 
#    y 0.000000 3.128590 0.000000 
#    z 0.023900 0.000000 3.215030 
# 
# 
# High freq. dielectric constant tensor:
#      x y z
#    x 1.610250 0.000000 -0.002700 
#    y 0.000000 1.638730 0.000000 
#    z -0.002700 0.000000 1.628770 
# 
# From -- ./inp_files/71629.got.cif
#   From: 2010.06.25/outbox.cif.g09.slc.cpg/sg11_36_cif.got.tgz:71629.got - 2010.06.27 23:14:04.
