data_PCOD8068895
_publ_section_title
;
Structure prediction by ZEFSAII (Michael W. Deem and Ramdas Pophale) SiO2 
 PCOD8068895
Probable space group: P 21/M
;
_chemical_formula_sum "Si O2"
_cell_formula_units_Z 32
_cell_length_a 26.795905
_cell_length_b 8.883316
_cell_length_c 19.064323
_cell_angle_alpha 90.000000
_cell_angle_beta 24.605550
_cell_angle_gamma 90.000000
_cell_volume 1889.483805
_symmetry_space_group_name_H-M "P 21/M"
_symmetry_group_IT_number 11
_symmetry_cell_setting 'monoclinic'
loop_
_space_group_symop_operation_xyz
x,y,z
-x,1/2+y,-z
-x,-y,-z
x,1/2-y,z
loop_
_atom_site_type_symbol
_atom_site_label
_atom_site_fract_x
_atom_site_fract_y
_atom_site_fract_z
Si Si1 0.997947 0.573467 0.338395
Si Si2 0.400953 0.424081 0.790663
Si Si3 0.023629 0.924319 0.151219
Si Si4 0.880054 0.572445 0.624091
Si Si5 0.761822 0.072158 0.894767
Si Si6 0.273622 0.427924 0.812006
Si Si7 0.106193 0.075813 0.821684
Si Si8 0.666107 0.075235 0.405600
O O1 0.015482 0.750000 0.313781
O O2 0.976015 0.514201 0.287400
O O3 0.884699 0.534743 0.534163
O O4 0.123431 0.508848 0.208404
O O5 0.369820 0.250000 0.841903
O O6 0.357421 0.516662 0.913915
O O7 0.333661 0.484899 0.807235
O O8 0.542087 0.450991 0.604220
O O9 0.063959 0.750000 0.103856
O O10 0.917364 0.945023 0.231153
O O11 0.136175 0.022083 0.983028
O O12 0.879619 0.750000 0.638036
O O13 0.000000 0.500000 0.500000
O O14 0.767687 0.497421 0.808161
O O15 0.759491 0.250000 0.890606
O O16 0.283353 0.250000 0.792237
O O17 0.345118 0.501491 0.656465
O O18 0.112193 0.250000 0.835591
O O19 0.231729 0.999272 0.677944
O O20 0.000000 0.000000 0.000000
O O21 0.695979 0.250000 0.357580
#
# Coordination Sequence:
#
# PCOD8068895 Si02
#       8
#     4   4   4   4   4   4   4   4
#     4   8  15  28  46  70  97 129 164 195 241 299
#     4  10  22  36  50  73 101 133 170 210 252 298
#     4  10  19  33  52  73  99 132 166 204 253 299
#     4   9  16  27  44  68 100 133 165 200 240 296
#     4  10  18  29  48  72 100 135 166 197 245 303
#     4  11  21  33  51  75 100 127 168 211 252 300
#     4  11  22  35  54  75  98 129 169 214 255 297
#     4  11  23  38  53  69  98 136 172 210 254 300
#
# _framework density 16.935842000000001
#
# number of rings (size 3 to 8) (size 9 to 14) (size 15 to 20)
#    0.000    2.000    2.500    3.000    0.000    2.000 
#    0.000    0.625    0.000    0.000    0.000    0.875 
#    0.000    0.000    0.000    0.000    0.000    0.000 
#
# Total GULP energy -396705.351767 kJ/mol
# GULP energy per Si atom -12397.042243 kJ/mol
# Density = 1.689730 g / cm^3
# Si number density = 16.935842 Si / 1000 Ang^3
#
#
#
# Elastic Constant Matrix: (Units=GPa)
#
#
# Indices 1 2 3 4 5 6 
#
# 1 63.7969 30.6853 47.5404 0.0000 15.3038 0.0000
# 2 30.6853 83.5968 48.3766 0.0000 10.1614 0.0000
# 3 47.5404 48.3766 99.2552 0.0000 20.5414 0.0000
# 4 0.0000 0.0000 0.0000 27.7889 0.0000 2.1175
# 5 15.3038 10.1614 20.5414 0.0000 35.0428 0.0000
# 6 0.0000 0.0000 0.0000 2.1175 0.0000 20.5383
#
#
#
# Elastic Compliance Matrix: (Units=1/GPa)
#
#
# Indices 1 2 3 4 5 6 
#
# 1 0.025561 -0.003189 -0.009753 0.000000 -0.004521 0.000000
# 2 -0.003189 0.017060 -0.006887 0.000000 0.000483 0.000000
# 3 -0.009753 -0.006887 0.019129 0.000000 -0.004957 0.000000
# 4 0.000000 0.000000 0.000000 0.036270 0.000000 -0.003739
# 5 -0.004521 0.000483 -0.004957 0.000000 0.033276 0.000000
# 6 0.000000 0.000000 0.000000 -0.003739 0.000000 0.049075
#
#
# Mechanical properties :
#
#
# Convention : Reuss Voigt Hill
#
# Bulk Modulus (GPa) = 45.26714 55.53926 50.40320
# Shear Modulus (GPa) = 21.98827 24.67711 23.33269
#
# Velocity S-wave (km/s) = 3.60714 3.82133 3.71578
# Velocity P-wave (km/s) = 6.64344 7.23431 6.94516
#
# Compressibility (1/GPa) = 0.02209108
#
# Stress axis : x y z
#
# Youngs Moduli (GPa) = 39.12229 58.61781 52.27638
#
# Poissons Ratio (x) = 0.18693 0.50985
# Poissons Ratio (y) = 0.12476 0.36005
# Poissons Ratio (z) = 0.38156 0.40372
#
# Static dielectric constant tensor:
#      x y z
#    x 3.396990 0.000000 0.401610 
#    y 0.000000 3.205130 0.000000 
#    z 0.401610 0.000000 3.218850 
# 
# 
# High freq. dielectric constant tensor:
#      x y z
#    x 1.635600 0.000000 0.028660 
#    y 0.000000 1.656700 0.000000 
#    z 0.028660 0.000000 1.639230 
# 
# From -- ./inp_files/67391.got.cif
#   From: 2010.06.25/outbox.cif.g09.slc.cpg/sg11_34_cif.got.tgz:67391.got - 2010.06.27 23:14:04.
