data_PCOD8068932
_publ_section_title
;
Structure prediction by ZEFSAII (Michael W. Deem and Ramdas Pophale) SiO2 
 PCOD8068932
Probable space group: P 21/M
;
_chemical_formula_sum "Si O2"
_cell_formula_units_Z 32
_cell_length_a 12.078059
_cell_length_b 9.311494
_cell_length_c 19.700469
_cell_angle_alpha 90.000000
_cell_angle_beta 122.539532
_cell_angle_gamma 90.000000
_cell_volume 1867.803694
_symmetry_space_group_name_H-M "P 21/M"
_symmetry_group_IT_number 11
_symmetry_cell_setting 'monoclinic'
loop_
_space_group_symop_operation_xyz
x,y,z
-x,1/2+y,-z
-x,-y,-z
x,1/2-y,z
loop_
_atom_site_type_symbol
_atom_site_label
_atom_site_fract_x
_atom_site_fract_y
_atom_site_fract_z
Si Si1 0.095068 0.916192 0.938187
Si Si2 0.913609 0.915881 0.343992
Si Si3 0.172154 0.084286 0.456288
Si Si4 0.962677 0.582441 0.207846
Si Si5 0.679312 0.581312 0.362611
Si Si6 0.414711 0.084709 0.270021
Si Si7 0.186875 0.414741 0.091498
Si Si8 0.779790 0.914609 0.679380
O O1 0.131613 0.750000 0.941531
O O2 0.943614 0.940099 0.907620
O O3 0.121977 0.998901 0.876557
O O4 0.188770 0.983606 0.026438
O O5 0.944634 0.750000 0.368147
O O6 0.781785 0.964922 0.338269
O O7 0.893878 0.945643 0.257576
O O8 0.035071 0.002179 0.414635
O O9 0.137992 0.250000 0.457350
O O10 0.267579 0.027390 0.546899
O O11 0.245803 0.059905 0.408902
O O12 0.968983 0.750000 0.191523
O O13 0.109683 0.521581 0.257490
O O14 0.655095 0.750000 0.355017
O O15 0.542603 0.508410 0.300376
O O16 0.454576 0.250000 0.276668
O O17 0.309597 0.041838 0.178146
O O18 0.354029 0.052722 0.324418
O O19 0.194261 0.250000 0.069755
O O20 0.825793 0.750000 0.708851
#
# Coordination Sequence:
#
# PCOD8068932 Si02
#       8
#     4   4   4   4   4   4   4   4
#     4  10  18  30  50  76 103 129 157 197 245 291
#     4   9  19  34  51  72 100 129 164 211 253 287
#     4   9  18  32  53  75  97 126 164 211 255 293
#     4  10  18  29  49  75 100 129 162 201 248 294
#     4  10  21  35  49  71 100 132 169 208 248 290
#     4  10  20  34  50  69 100 137 166 197 240 293
#     4   9  18  32  48  71 102 132 160 195 239 291
#     4   9  17  32  49  70 100 131 162 202 250 293
#
# _framework density 17.132421999999998
#
# number of rings (size 3 to 8) (size 9 to 14) (size 15 to 20)
#    0.000    2.500    1.250    1.125    0.000    3.500 
#    0.000    0.000    0.000    0.750    0.000    0.000 
#    0.000    0.000    0.000    0.000    0.000    0.000 
#
# Total GULP energy -396841.924024 kJ/mol
# GULP energy per Si atom -12401.310126 kJ/mol
# Density = 1.709343 g / cm^3
# Si number density = 17.132422 Si / 1000 Ang^3
#
#
#
# Elastic Constant Matrix: (Units=GPa)
#
#
# Indices 1 2 3 4 5 6 
#
# 1 86.6250 43.9161 63.7751 0.0000 6.9215 0.0000
# 2 43.9161 76.3691 58.9733 0.0000 -2.5407 0.0000
# 3 63.7751 58.9733 121.3792 0.0000 -5.8455 0.0000
# 4 0.0000 0.0000 0.0000 29.8458 0.0000 2.1213
# 5 6.9215 -2.5407 -5.8455 0.0000 21.6111 0.0000
# 6 0.0000 0.0000 0.0000 2.1213 0.0000 24.8525
#
#
#
# Elastic Compliance Matrix: (Units=1/GPa)
#
#
# Indices 1 2 3 4 5 6 
#
# 1 0.022219 -0.005956 -0.009278 0.000000 -0.010326 0.000000
# 2 -0.005956 0.022556 -0.007710 0.000000 0.002474 0.000000
# 3 -0.009278 -0.007710 0.017183 0.000000 0.006713 0.000000
# 4 0.000000 0.000000 0.000000 0.033710 0.000000 -0.002877
# 5 -0.010326 0.002474 0.006713 0.000000 0.051686 0.000000
# 6 0.000000 0.000000 0.000000 -0.002877 0.000000 0.040483
#
#
# Mechanical properties :
#
#
# Convention : Reuss Voigt Hill
#
# Bulk Modulus (GPa) = 62.23130 68.63360 65.43245
# Shear Modulus (GPa) = 20.91333 23.10913 22.01123
#
# Velocity S-wave (km/s) = 3.49762 3.67666 3.58826
# Velocity P-wave (km/s) = 7.26042 7.62702 7.44598
#
# Compressibility (1/GPa) = 0.01606909
#
# Stress axis : x y z
#
# Youngs Moduli (GPa) = 45.00608 44.33464 58.19778
#
# Poissons Ratio (x) = 0.26407 0.53995
# Poissons Ratio (y) = 0.26807 0.44872
# Poissons Ratio (z) = 0.41756 0.34183
#
# Static dielectric constant tensor:
#      x y z
#    x 3.082900 0.000000 -0.277520 
#    y 0.000000 3.220060 0.000000 
#    z -0.277520 0.000000 3.225910 
# 
# 
# High freq. dielectric constant tensor:
#      x y z
#    x 1.639800 0.000000 -0.022290 
#    y 0.000000 1.664210 0.000000 
#    z -0.022290 0.000000 1.659960 
# 
# From -- ./inp_files/40662.got.cif
#   From: 2010.06.25/outbox.cif.g09.slc.cpg/sg11_21_cif.got.tgz:40662.got - 2010.06.27 23:14:04.
