data_PCOD8068754
_publ_section_title
;
Structure prediction by ZEFSAII (Michael W. Deem and Ramdas Pophale) SiO2 
 PCOD8068754
Probable space group: P 21/M
;
_chemical_formula_sum "Si O2"
_cell_formula_units_Z 28
_cell_length_a 14.344253
_cell_length_b 9.234043
_cell_length_c 13.421162
_cell_angle_alpha 90.000000
_cell_angle_beta 57.973744
_cell_angle_gamma 90.000000
_cell_volume 1507.148370
_symmetry_space_group_name_H-M "P 21/M"
_symmetry_group_IT_number 11
_symmetry_cell_setting 'monoclinic'
loop_
_space_group_symop_operation_xyz
x,y,z
-x,1/2+y,-z
-x,-y,-z
x,1/2-y,z
loop_
_atom_site_type_symbol
_atom_site_label
_atom_site_fract_x
_atom_site_fract_y
_atom_site_fract_z
Si Si1 0.096802 0.422610 0.504163
Si Si2 0.309679 0.077874 0.059334
Si Si3 0.681459 0.919879 0.720641
Si Si4 0.878034 0.084164 0.936474
Si Si5 0.558699 0.079658 0.179735
Si Si6 0.112058 0.417288 0.722235
Si Si7 0.753238 0.415330 0.206005
O O1 0.083853 0.250000 0.500146
O O2 0.212703 0.483459 0.396011
O O3 0.091301 0.472292 0.622079
O O4 0.000000 0.500000 0.500000
O O5 0.316612 0.250000 0.044431
O O6 0.327165 0.022639 0.161883
O O7 0.189632 0.024234 0.094708
O O8 0.403970 0.005528 0.939493
O O9 0.697479 0.750000 0.715141
O O10 0.568539 0.959946 0.726289
O O11 0.852073 0.250000 0.919761
O O12 0.005655 0.048378 0.849413
O O13 0.845693 0.058652 0.069356
O O14 0.574549 0.250000 0.148461
O O15 0.634121 0.034328 0.231164
O O16 0.142388 0.250000 0.703076
O O17 0.216621 0.494839 0.712876
O O18 0.748591 0.250000 0.242041
#
# Coordination Sequence:
#
# PCOD8068754 Si02
#       7
#     4   4   4   4   4   4   4
#     4  10  21  37  55  76 100 130 165 202 243 289
#     4  10  18  28  48  78 103 127 161 204 247 289
#     4   9  18  33  52  72  99 134 168 198 241 297
#     4   9  18  32  48  71 102 135 164 195 244 301
#     4   9  18  34  52  71  99 134 165 198 242 297
#     4  10  20  33  51  73  99 130 166 206 246 285
#     4   9  18  31  49  71  96 128 166 203 245 294
#
# _framework density 18.578130000000002
#
# number of rings (size 3 to 8) (size 9 to 14) (size 15 to 20)
#    0.000    2.571    0.000    3.000    0.000    3.429 
#    0.000    2.857    0.000    0.000    0.000    0.000 
#    0.000    0.000    0.000    0.000    0.000    0.000 
#
# Total GULP energy -347144.625668 kJ/mol
# GULP energy per Si atom -12398.022345 kJ/mol
# Density = 1.853585 g / cm^3
# Si number density = 18.578130 Si / 1000 Ang^3
#
#
#
# Elastic Constant Matrix: (Units=GPa)
#
#
# Indices 1 2 3 4 5 6 
#
# 1 147.6625 42.7929 73.0200 0.0000 4.6419 0.0000
# 2 42.7929 43.8789 31.2864 0.0000 4.3628 0.0000
# 3 73.0200 31.2864 79.1444 0.0000 2.9642 0.0000
# 4 0.0000 0.0000 0.0000 20.0232 0.0000 4.2024
# 5 4.6419 4.3628 2.9642 0.0000 31.1441 0.0000
# 6 0.0000 0.0000 0.0000 4.2024 0.0000 31.7670
#
#
#
# Elastic Compliance Matrix: (Units=1/GPa)
#
#
# Indices 1 2 3 4 5 6 
#
# 1 0.013490 -0.005940 -0.010090 0.000000 -0.000218 0.000000
# 2 -0.005940 0.034685 -0.008111 0.000000 -0.003201 0.000000
# 3 -0.010090 -0.008111 0.025141 0.000000 0.000247 0.000000
# 4 0.000000 0.000000 0.000000 0.051368 0.000000 -0.006795
# 5 -0.000218 -0.003201 0.000247 0.000000 0.032566 0.000000
# 6 0.000000 0.000000 0.000000 -0.006795 0.000000 0.032378
#
#
# Mechanical properties :
#
#
# Convention : Reuss Voigt Hill
#
# Bulk Modulus (GPa) = 39.94496 62.76496 51.35496
# Shear Modulus (GPa) = 20.30422 24.82594 22.56508
#
# Velocity S-wave (km/s) = 3.30950 3.65951 3.48890
# Velocity P-wave (km/s) = 6.01261 7.19122 6.62817
#
# Compressibility (1/GPa) = 0.02503445
#
# Stress axis : x y z
#
# Youngs Moduli (GPa) = 74.12912 28.83124 39.77573
#
# Poissons Ratio (x) = 0.17127 0.40132
# Poissons Ratio (y) = 0.44035 0.32260
# Poissons Ratio (z) = 0.74794 0.23384
#
# Static dielectric constant tensor:
#      x y z
#    x 3.505970 0.000000 -0.078590 
#    y 0.000000 3.202710 0.000000 
#    z -0.078590 0.000000 3.409180 
# 
# 
# High freq. dielectric constant tensor:
#      x y z
#    x 1.731860 0.000000 -0.000500 
#    y 0.000000 1.701520 0.000000 
#    z -0.000500 0.000000 1.704330 
# 
# From -- ./inp_files/37884.got.cif
#   From: 2010.06.25/outbox.cif.g09.slc.cpg/sg11_19_cif.got.tgz:37884.got - 2010.06.27 23:14:04.
