data_PCOD8068899
_publ_section_title
;
Structure prediction by ZEFSAII (Michael W. Deem and Ramdas Pophale) SiO2 
 PCOD8068899
Probable space group: P 21/M
;
_chemical_formula_sum "Si O2"
_cell_formula_units_Z 32
_cell_length_a 21.533325
_cell_length_b 8.847119
_cell_length_c 17.227259
_cell_angle_alpha 90.000000
_cell_angle_beta 32.840714
_cell_angle_gamma 90.000000
_cell_volume 1779.807595
_symmetry_space_group_name_H-M "P 21/M"
_symmetry_group_IT_number 11
_symmetry_cell_setting 'monoclinic'
loop_
_space_group_symop_operation_xyz
x,y,z
-x,1/2+y,-z
-x,-y,-z
x,1/2-y,z
loop_
_atom_site_type_symbol
_atom_site_label
_atom_site_fract_x
_atom_site_fract_y
_atom_site_fract_z
Si Si1 0.977275 0.923974 0.942791
Si Si2 0.394904 0.573344 0.863061
Si Si3 0.650023 0.574156 0.637965
Si Si4 0.754990 0.926669 0.847063
Si Si5 0.875715 0.071471 0.357215
Si Si6 0.061027 0.928397 0.256878
Si Si7 0.386802 0.074877 0.150717
Si Si8 0.784610 0.926488 0.035564
O O1 0.003133 0.750000 0.928066
O O2 0.062013 0.986434 0.786853
O O3 0.844219 0.951478 0.056802
O O4 0.000000 0.000000 0.000000
O O5 0.365465 0.750000 0.893004
O O6 0.530235 0.544877 0.720731
O O7 0.344291 0.492257 0.837775
O O8 0.340510 0.501294 0.997318
O O9 0.683597 0.750000 0.601380
O O10 0.744488 0.480010 0.491664
O O11 0.645133 0.510812 0.731070
O O12 0.761064 0.750000 0.860297
O O13 0.719086 0.955440 0.795828
O O14 0.880794 0.001682 0.726597
O O15 0.887131 0.250000 0.352793
O O16 0.935966 0.996657 0.369588
O O17 0.050270 0.750000 0.276979
O O18 0.145305 0.975822 0.099642
O O19 0.415957 0.250000 0.128425
O O20 0.500000 0.000000 0.000000
O O21 0.789171 0.750000 0.008492
#
# Coordination Sequence:
#
# PCOD8068899 Si02
#       8
#     4   4   4   4   4   4   4   4
#     4   9  19  34  55  82 107 130 159 202 248 298
#     4  10  18  29  48  73 102 134 172 215 253 294
#     4  10  21  35  50  73 104 137 174 215 256 303
#     4  10  18  29  48  72  98 131 171 216 263 303
#     4  10  21  37  54  76 104 133 169 207 249 307
#     4  10  18  30  50  72  97 131 168 211 258 301
#     4  10  20  33  49  71 102 135 173 220 262 303
#     4   9  17  30  48  75 107 132 165 207 246 294
#
# _framework density 17.979471
#
# number of rings (size 3 to 8) (size 9 to 14) (size 15 to 20)
#    0.000    2.250    1.250    4.875    0.000    5.000 
#    0.000    0.625    0.000    0.750    0.000    0.000 
#    0.000    0.000    0.000    0.000    0.000    0.000 
#
# Total GULP energy -396640.334256 kJ/mol
# GULP energy per Si atom -12395.010446 kJ/mol
# Density = 1.793855 g / cm^3
# Si number density = 17.979471 Si / 1000 Ang^3
#
#
#
# Elastic Constant Matrix: (Units=GPa)
#
#
# Indices 1 2 3 4 5 6 
#
# 1 140.7428 53.0950 49.3664 0.0000 -9.4605 0.0000
# 2 53.0950 87.5046 35.4950 0.0000 -7.9416 0.0000
# 3 49.3664 35.4950 71.4458 0.0000 -12.1728 0.0000
# 4 0.0000 0.0000 0.0000 25.7377 0.0000 -5.7795
# 5 -9.4605 -7.9416 -12.1728 0.0000 22.9830 0.0000
# 6 0.0000 0.0000 0.0000 -5.7795 0.0000 32.8234
#
#
#
# Elastic Compliance Matrix: (Units=1/GPa)
#
#
# Indices 1 2 3 4 5 6 
#
# 1 0.010532 -0.004303 -0.005116 0.000000 0.000139 0.000000
# 2 -0.004303 0.016105 -0.004816 0.000000 0.001243 0.000000
# 3 -0.005116 -0.004816 0.021195 0.000000 0.007455 0.000000
# 4 0.000000 0.000000 0.000000 0.040453 0.000000 0.007123
# 5 0.000139 0.001243 0.007455 0.000000 0.047946 0.000000
# 6 0.000000 0.000000 0.000000 0.007123 0.000000 0.031720
#
#
# Mechanical properties :
#
#
# Convention : Reuss Voigt Hill
#
# Bulk Modulus (GPa) = 51.64834 63.95623 57.80229
# Shear Modulus (GPa) = 24.64562 27.09126 25.86844
#
# Velocity S-wave (km/s) = 3.70640 3.88595 3.79724
# Velocity P-wave (km/s) = 6.86332 7.46881 7.17246
#
# Compressibility (1/GPa) = 0.01936171
#
# Stress axis : x y z
#
# Youngs Moduli (GPa) = 94.94719 62.09140 47.18156
#
# Poissons Ratio (x) = 0.26716 0.24138
# Poissons Ratio (y) = 0.40853 0.22725
# Poissons Ratio (z) = 0.48575 0.29906
#
# Static dielectric constant tensor:
#      x y z
#    x 3.862660 0.000000 -0.281460 
#    y 0.000000 3.367980 0.000000 
#    z -0.281460 0.000000 3.039650 
# 
# 
# High freq. dielectric constant tensor:
#      x y z
#    x 1.707080 0.000000 -0.026740 
#    y 0.000000 1.704400 0.000000 
#    z -0.026740 0.000000 1.650200 
# 
# From -- ./inp_files/61780.got.cif
#   From: 2010.06.25/outbox.cif.g09.slc.cpg/sg11_31_cif.got.tgz:61780.got - 2010.06.27 23:14:04.
