data_PCOD8068476
_publ_section_title
;
Structure prediction by ZEFSAII (Michael W. Deem and Ramdas Pophale) SiO2 
 PCOD8068476
Probable space group: P 21/M
;
_chemical_formula_sum "Si O2"
_cell_formula_units_Z 26
_cell_length_a 12.926937
_cell_length_b 18.980164
_cell_length_c 8.938111
_cell_angle_alpha 90.000000
_cell_angle_beta 143.600081
_cell_angle_gamma 90.000000
_cell_volume 1301.373228
_symmetry_space_group_name_H-M "P 21/M"
_symmetry_group_IT_number 11
_symmetry_cell_setting 'monoclinic'
loop_
_space_group_symop_operation_xyz
x,y,z
-x,1/2+y,-z
-x,-y,-z
x,1/2-y,z
loop_
_atom_site_type_symbol
_atom_site_label
_atom_site_fract_x
_atom_site_fract_y
_atom_site_fract_z
Si Si1 0.548263 0.605758 0.378555
Si Si2 0.222785 0.250000 0.068290
Si Si3 0.013468 0.010299 0.690156
Si Si4 0.180621 0.600037 0.066600
Si Si5 0.338190 0.394817 0.146721
Si Si6 0.688691 0.459871 0.482041
Si Si7 0.675739 0.750000 0.493316
Si Si8 0.955760 0.250000 0.000671
O O1 0.340736 0.601920 0.138896
O O2 0.631558 0.603090 0.640586
O O3 0.622619 0.539199 0.376402
O O4 0.593476 0.677107 0.338213
O O5 0.025741 0.250000 0.909317
O O6 0.261273 0.318413 0.011502
O O7 0.357420 0.250000 0.364949
O O8 0.842442 0.054845 0.541397
O O9 0.194118 0.048345 0.937285
O O10 0.000000 0.000000 0.500000
O O11 0.019110 0.935293 0.787836
O O12 0.226075 0.548793 0.256270
O O13 0.150968 0.679014 0.093164
O O14 0.520298 0.408495 0.270551
O O15 0.881307 0.750000 0.695131
#
# Coordination Sequence:
#
# PCOD8068476 Si02
#       8
#     4   2   4   4   4   4   2   2
#     4  10  17  34  57  88 116 149 188 243 288 347
#     4   8  18  32  59  85 121 143 185 247 291 348
#     4  12  25  38  57  88 120 158 201 242 288 349
#     4  11  20  36  59  90 118 149 197 238 295 348
#     4  10  19  39  56  89 118 149 193 240 294 350
#     4  11  21  35  65  84 116 154 192 246 295 340
#     4   8  17  27  48  85 122 145 174 228 302 336
#     4  10  19  31  57  90 123 148 181 247 295 352
#
# _framework density 19.978897
#
# number of rings (size 3 to 8) (size 9 to 14) (size 15 to 20)
#    0.462    1.231    3.077    3.692    0.000    2.462 
#    0.000    1.538    0.000    0.000    0.000    0.000 
#    0.000    0.000    0.000    0.000    0.000    0.000 
#
# Total GULP energy -322176.958617 kJ/mol
# GULP energy per Si atom -12391.421485 kJ/mol
# Density = 1.993342 g / cm^3
# Si number density = 19.978897 Si / 1000 Ang^3
#
#
#
# Elastic Constant Matrix: (Units=GPa)
#
#
# Indices 1 2 3 4 5 6 
#
# 1 77.0096 24.3611 44.2983 0.0000 27.7064 0.0000
# 2 24.3611 130.0636 28.7643 0.0000 3.7771 0.0000
# 3 44.2983 28.7643 57.1999 0.0000 20.3178 0.0000
# 4 0.0000 0.0000 0.0000 15.5160 0.0000 13.7399
# 5 27.7064 3.7771 20.3178 0.0000 25.4833 0.0000
# 6 0.0000 0.0000 0.0000 13.7399 0.0000 24.0673
#
#
#
# Elastic Compliance Matrix: (Units=1/GPa)
#
#
# Indices 1 2 3 4 5 6 
#
# 1 0.028980 -0.001612 -0.014684 0.000000 -0.019561 0.000000
# 2 -0.001612 0.008914 -0.004725 0.000000 0.004199 0.000000
# 3 -0.014684 -0.004725 0.035312 0.000000 -0.011488 0.000000
# 4 0.000000 0.000000 0.000000 0.130345 0.000000 -0.074413
# 5 -0.019561 0.004199 -0.011488 0.000000 0.069046 0.000000
# 6 0.000000 0.000000 0.000000 -0.074413 0.000000 0.084032
#
#
# Mechanical properties :
#
#
# Convention : Reuss Voigt Hill
#
# Bulk Modulus (GPa) = 32.09117 51.01340 41.55228
# Shear Modulus (GPa) = 12.22311 24.13660 18.17985
#
# Velocity S-wave (km/s) = 2.47614 3.47955 3.01982
# Velocity P-wave (km/s) = 4.92671 6.46004 5.74476
#
# Compressibility (1/GPa) = 0.03116122
#
# Stress axis : x y z
#
# Youngs Moduli (GPa) = 34.50636 112.18759 28.31912
#
# Poissons Ratio (x) = 0.18089 0.41585
# Poissons Ratio (y) = 0.05564 0.13382
# Poissons Ratio (z) = 0.50671 0.53013
#
# Static dielectric constant tensor:
#      x y z
#    x 3.391570 0.000000 0.446280 
#    y 0.000000 3.939490 0.000000 
#    z 0.446280 0.000000 3.378460 
# 
# 
# High freq. dielectric constant tensor:
#      x y z
#    x 1.749150 0.000000 0.046780 
#    y 0.000000 1.791710 0.000000 
#    z 0.046780 0.000000 1.744770 
# 
# From -- ./inp_files/19498.got.cif
#   From: 2010.06.25/outbox.cif.g09.slc.cpg/sg11_10_cif.got.tgz:19498.got - 2010.06.27 23:14:04.
