data_PCOD8068002
_publ_section_title
;
Structure prediction by ZEFSAII (Michael W. Deem and Ramdas Pophale) SiO2 
 PCOD8068002
Probable space group: P 2/M
;
_chemical_formula_sum "Si O2"
_cell_formula_units_Z 28
_cell_length_a 24.722638
_cell_length_b 9.133330
_cell_length_c 22.255528
_cell_angle_alpha 90.000000
_cell_angle_beta 162.339321
_cell_angle_gamma 90.000000
_cell_volume 1524.571011
_symmetry_space_group_name_H-M "P 2/M"
_symmetry_group_IT_number 10
_symmetry_cell_setting 'monoclinic'
loop_
_space_group_symop_operation_xyz
x,y,z
-x,y,-z
-x,-y,-z
x,-y,z
loop_
_atom_site_type_symbol
_atom_site_label
_atom_site_fract_x
_atom_site_fract_y
_atom_site_fract_z
Si Si1 0.912469 0.325783 0.346318
Si Si2 0.478625 0.325786 0.044776
Si Si3 0.291849 0.164121 0.291853
Si Si4 0.761581 0.672071 0.881905
Si Si5 0.358790 0.327926 0.479121
Si Si6 0.105480 0.326777 0.316419
Si Si7 0.173542 0.674905 0.520625
O O1 0.921704 0.500000 0.357733
O O2 0.000000 0.263400 0.500000
O O3 0.019034 0.266277 0.401363
O O4 0.708642 0.271270 0.125932
O O5 0.485682 0.500000 0.049652
O O6 0.636710 0.266270 0.254379
O O7 0.500000 0.263393 0.000000
O O8 0.500000 0.162391 0.500000
O O9 0.196286 0.247961 0.136222
O O10 0.256373 0.247968 0.316447
O O11 0.214536 0.000000 0.214539
O O12 0.773395 0.500000 0.881725
O O13 0.567870 0.714861 0.703563
O O14 0.911790 0.724763 0.087878
O O15 0.334992 0.500000 0.443329
O O16 0.264355 0.275261 0.440454
O O17 0.107957 0.500000 0.323873
O O18 0.139415 0.258854 0.418244
O O19 0.172759 0.500000 0.518265
#
# Coordination Sequence:
#
# PCOD8068002 Si02
#       7
#     4   4   4   4   4   4   4
#     4   9  14  20  31  46  66  94 128 170 218 258
#     4   9  14  20  31  46  66  94 128 170 218 258
#     4   9  17  30  49  72  93 113 144 187 229 264
#     4   9  17  30  47  64  87 118 150 182 222 268
#     4   9  17  30  47  64  87 118 150 182 222 268
#     4   9  18  29  40  57  80 110 150 190 220 258
#     4   9  16  24  33  48  71  98 136 182 218 251
#
# _framework density 18.365822000000001
#
# number of rings (size 3 to 8) (size 9 to 14) (size 15 to 20)
#    0.000    3.000    1.429    0.429    0.000    3.429 
#    0.000    9.286    0.000    0.000    0.000    0.000 
#    0.000    0.000    0.000    0.000    0.000    5.714 
#
# Total GULP energy -347087.921466 kJ/mol
# GULP energy per Si atom -12395.997195 kJ/mol
# Density = 1.832402 g / cm^3
# Si number density = 18.365822 Si / 1000 Ang^3
#
#
#
# Elastic Constant Matrix: (Units=GPa)
#
#
# Indices 1 2 3 4 5 6 
#
# 1 180.6864 23.1222 99.7289 0.0000 -11.9657 0.0000
# 2 23.1222 24.6072 18.7265 0.0000 -4.1540 0.0000
# 3 99.7289 18.7265 159.1336 0.0000 -8.4475 0.0000
# 4 0.0000 0.0000 0.0000 3.1867 0.0000 1.4931
# 5 -11.9657 -4.1540 -8.4475 0.0000 37.4852 0.0000
# 6 0.0000 0.0000 0.0000 1.4931 0.0000 1.5945
#
#
#
# Elastic Compliance Matrix: (Units=1/GPa)
#
#
# Indices 1 2 3 4 5 6 
#
# 1 0.008953 -0.004375 -0.005030 0.000000 0.001239 0.000000
# 2 -0.004375 0.047318 -0.002654 0.000000 0.003249 0.000000
# 3 -0.005030 -0.002654 0.009765 0.000000 0.000301 0.000000
# 4 0.000000 0.000000 0.000000 0.559126 0.000000 -0.523568
# 5 0.001239 0.003249 0.000301 0.000000 0.027501 0.000000
# 6 0.000000 0.000000 0.000000 -0.523568 0.000000 1.117422
#
#
# Mechanical properties :
#
#
# Convention : Reuss Voigt Hill
#
# Bulk Modulus (GPa) = 23.85674 71.95359 47.90517
# Shear Modulus (GPa) = 2.76522 23.30993 13.03757
#
# Velocity S-wave (km/s) = 1.22837 3.56645 2.66725
# Velocity P-wave (km/s) = 3.87683 7.49816 5.96876
#
# Compressibility (1/GPa) = 0.04191687
#
# Stress axis : x y z
#
# Youngs Moduli (GPa) = 111.69812 21.13375 102.41100
#
# Poissons Ratio (x) = 0.09247 0.51513
# Poissons Ratio (y) = 0.48871 0.27178
# Poissons Ratio (z) = 0.56184 0.05608
#
# Static dielectric constant tensor:
#      x y z
#    x 3.611040 0.000000 -0.034110 
#    y 0.000000 2.771360 0.000000 
#    z -0.034110 0.000000 3.574970 
# 
# 
# High freq. dielectric constant tensor:
#      x y z
#    x 1.716360 0.000000 0.003700 
#    y 0.000000 1.636540 0.000000 
#    z 0.003700 0.000000 1.720270 
# 
# From -- ./inp_files/86520.got.cif
#   From: 2010.06.25/outbox.cif.g09.slc.cpg/sg10_44_cif.got.tgz:86520.got - 2010.06.27 22:07:45.
