data_PCOD8068089
_publ_section_title
;
Structure prediction by ZEFSAII (Michael W. Deem and Ramdas Pophale) SiO2 
 PCOD8068089
Probable space group: P 2/M
;
_chemical_formula_sum "Si O2"
_cell_formula_units_Z 32
_cell_length_a 21.000000
_cell_length_b 9.000000
_cell_length_c 27.000000
_cell_angle_alpha 90.000000
_cell_angle_beta 160.000000
_cell_angle_gamma 90.000000
_cell_volume 1745.328791
_symmetry_space_group_name_H-M "P 2/M"
_symmetry_group_IT_number 10
_symmetry_cell_setting 'monoclinic'
loop_
_space_group_symop_operation_xyz
x,y,z
-x,y,-z
-x,-y,-z
x,-y,z
loop_
_atom_site_type_symbol
_atom_site_label
_atom_site_fract_x
_atom_site_fract_y
_atom_site_fract_z
Si Si1 0.279658 0.675425 0.343632
Si Si2 0.877207 0.326071 0.661903
Si Si3 0.693997 0.672131 0.004956
Si Si4 0.640051 0.321615 0.850809
Si Si5 0.749442 0.179040 0.464246
Si Si6 0.005783 0.178096 0.944187
Si Si7 0.975895 0.824922 0.425650
Si Si8 0.441217 0.824362 0.902705
O O1 0.500000 0.712160 0.500000
O O2 0.240567 0.500000 0.308458
O O3 0.217325 0.724071 0.354353
O O4 0.166649 0.757809 0.215875
O O5 0.835585 0.500000 0.622571
O O6 0.812358 0.236933 0.565024
O O7 0.094818 0.292881 0.826388
O O8 0.646508 0.500000 0.976085
O O9 0.660332 0.722053 0.923536
O O10 0.562340 0.758998 0.946611
O O11 0.640491 0.500000 0.844110
O O12 0.450908 0.250218 0.692295
O O13 0.807451 0.251064 0.941341
O O14 0.882061 0.230443 0.514390
O O15 0.738838 0.000000 0.458882
O O16 0.008699 0.000000 0.939643
O O17 0.000000 0.215997 0.000000
O O18 0.771635 0.775283 0.259507
O O19 0.000000 0.760307 0.500000
O O20 0.998430 0.000000 0.445367
O O21 0.466351 0.000000 0.918324
O O22 0.500000 0.764568 0.000000
#
# Coordination Sequence:
#
# PCOD8068089 Si02
#       8
#     4   4   4   4   4   4   4   4
#     4  10  22  42  67  93 121 163 209 242 289 358
#     4  10  21  40  60  86 123 160 201 248 295 359
#     4  10  21  38  60  85 117 155 201 251 299 354
#     4  11  23  42  64  88 120 162 206 246 296 360
#     4  11  23  38  60  91 122 157 202 253 308 358
#     4  11  25  43  64  95 129 158 197 251 304 353
#     4   9  18  34  54  78 113 154 195 244 297 354
#     4  10  20  34  55  83 114 151 198 245 297 360
#
# _framework density 18.334654
#
# number of rings (size 3 to 8) (size 9 to 14) (size 15 to 20)
#    0.000    1.750    1.250    2.625    1.750    5.500 
#    0.000    1.250    0.000    3.375    0.000    0.000 
#    0.000    0.000    0.000    0.000    0.000    0.000 
#
# Total GULP energy -396505.807440 kJ/mol
# GULP energy per Si atom -12390.806483 kJ/mol
# Density = 1.829292 g / cm^3
# Si number density = 18.334654 Si / 1000 Ang^3
#
#
#
# Elastic Constant Matrix: (Units=GPa)
#
#
# Indices 1 2 3 4 5 6 
#
# 1 215.5058 54.6330 89.8351 0.0000 -9.6374 0.0000
# 2 54.6330 85.5171 49.1668 0.0000 -3.5029 0.0000
# 3 89.8351 49.1668 167.7878 0.0000 -7.8560 0.0000
# 4 0.0000 0.0000 0.0000 32.8423 0.0000 -2.1898
# 5 -9.6374 -3.5029 -7.8560 0.0000 53.6763 0.0000
# 6 0.0000 0.0000 0.0000 -2.1898 0.0000 42.5385
#
#
#
# Elastic Compliance Matrix: (Units=1/GPa)
#
#
# Indices 1 2 3 4 5 6 
#
# 1 0.006424 -0.002547 -0.002665 0.000000 0.000597 0.000000
# 2 -0.002547 0.015078 -0.003051 0.000000 0.000080 0.000000
# 3 -0.002665 -0.003051 0.008306 0.000000 0.000538 0.000000
# 4 0.000000 0.000000 0.000000 0.030553 0.000000 0.001573
# 5 0.000597 0.000080 0.000538 0.000000 0.018821 0.000000
# 6 0.000000 0.000000 0.000000 0.001573 0.000000 0.023589
#
#
# Mechanical properties :
#
#
# Convention : Reuss Voigt Hill
#
# Bulk Modulus (GPa) = 75.29053 95.12004 85.20529
# Shear Modulus (GPa) = 40.41240 44.15647 42.28443
#
# Velocity S-wave (km/s) = 4.69993 4.91283 4.80756
# Velocity P-wave (km/s) = 8.40275 9.17462 8.79716
#
# Compressibility (1/GPa) = 0.01328188
#
# Stress axis : x y z
#
# Youngs Moduli (GPa) = 155.67733 66.32128 120.39646
#
# Poissons Ratio (x) = 0.16893 0.32084
# Poissons Ratio (y) = 0.39653 0.36731
# Poissons Ratio (z) = 0.41486 0.20234
#
# Static dielectric constant tensor:
#      x y z
#    x 4.133920 0.000000 -0.140160 
#    y 0.000000 3.448690 0.000000 
#    z -0.140160 0.000000 3.779670 
# 
# 
# High freq. dielectric constant tensor:
#      x y z
#    x 1.762780 0.000000 -0.007360 
#    y 0.000000 1.710220 0.000000 
#    z -0.007360 0.000000 1.742340 
# 
# From -- ./inp_files/93761.got.cif
#   From: 2010.06.25/outbox.ucp.g09.slc.cvg/sg10_47_cif.got.tgz:93761.got - 2010.06.28 13:37:52.
