data_PCOD8068321
_publ_section_title
;
Structure prediction by ZEFSAII (Michael W. Deem and Ramdas Pophale) SiO2 
 PCOD8068321
Probable space group: P 21/M
;
_chemical_formula_sum "Si O2"
_cell_formula_units_Z 28
_cell_length_a 20.949268
_cell_length_b 8.943224
_cell_length_c 18.194052
_cell_angle_alpha 90.000000
_cell_angle_beta 150.283632
_cell_angle_gamma 90.000000
_cell_volume 1689.729806
_symmetry_space_group_name_H-M "P 21/M"
_symmetry_group_IT_number 11
_symmetry_cell_setting 'monoclinic'
loop_
_space_group_symop_operation_xyz
x,y,z
-x,1/2+y,-z
-x,-y,-z
x,1/2-y,z
loop_
_atom_site_type_symbol
_atom_site_label
_atom_site_fract_x
_atom_site_fract_y
_atom_site_fract_z
Si Si1 0.750800 0.926080 0.583002
Si Si2 0.249189 0.926078 0.081392
Si Si3 0.999995 0.572304 0.579302
Si Si4 0.499996 0.073630 0.579299
Si Si5 0.857646 0.418316 0.556015
Si Si6 0.142344 0.418316 0.840714
Si Si7 0.999999 0.574135 0.921724
O O1 0.750890 0.750000 0.568846
O O2 0.624304 0.979479 0.499556
O O3 0.873176 0.978527 0.752192
O O4 0.755184 0.006126 0.508200
O O5 0.249073 0.750000 0.067024
O O6 0.375692 0.979454 0.250946
O O7 0.126820 0.978533 0.005840
O O8 0.244808 0.006137 0.997829
O O9 0.999992 0.750000 0.573963
O O10 0.128196 0.514610 0.751085
O O11 0.000000 0.500000 0.500000
O O12 0.871795 0.514603 0.494680
O O13 0.499978 0.250000 0.567557
O O14 0.500000 0.000000 0.500000
O O15 0.811744 0.250000 0.491336
O O16 0.999996 0.415874 0.736208
O O17 0.188240 0.250000 0.867829
O O18 0.000001 0.750000 0.932680
O O19 0.000000 0.500000 0.000000
#
# Coordination Sequence:
#
# PCOD8068321 Si02
#       7
#     4   4   4   4   4   4   4
#     4  10  19  33  49  67  93 127 163 206 252 301
#     4  10  19  33  49  67  93 127 163 206 252 301
#     4  10  17  28  47  75 111 141 163 198 245 292
#     4  10  22  36  50  70  97 130 171 214 262 308
#     4   9  18  30  47  73  99 126 163 201 241 289
#     4   9  18  30  47  73  99 126 163 201 241 289
#     4  10  19  28  43  63  85 115 153 196 247 296
#
# _framework density 16.570696000000002
#
# number of rings (size 3 to 8) (size 9 to 14) (size 15 to 20)
#    0.857    1.429    1.429    2.571    0.000    2.286 
#    0.000    0.000    0.000    0.000    0.000    1.000 
#    0.000    0.000    0.000    0.000    0.000    0.000 
#
# Total GULP energy -347045.290142 kJ/mol
# GULP energy per Si atom -12394.474648 kJ/mol
# Density = 1.653298 g / cm^3
# Si number density = 16.570696 Si / 1000 Ang^3
#
#
#
# Elastic Constant Matrix: (Units=GPa)
#
#
# Indices 1 2 3 4 5 6 
#
# 1 129.8520 58.5930 64.9909 0.0000 -16.1193 0.0000
# 2 58.5930 91.0926 41.3258 0.0000 -15.5959 0.0000
# 3 64.9909 41.3258 104.9028 0.0000 -6.3869 0.0000
# 4 0.0000 0.0000 0.0000 18.9759 0.0000 -10.4264
# 5 -16.1193 -15.5959 -6.3869 0.0000 32.2877 0.0000
# 6 0.0000 0.0000 0.0000 -10.4264 0.0000 30.5241
#
#
#
# Elastic Compliance Matrix: (Units=1/GPa)
#
#
# Indices 1 2 3 4 5 6 
#
# 1 0.013576 -0.005474 -0.006076 0.000000 0.002932 0.000000
# 2 -0.005474 0.016606 -0.002863 0.000000 0.004722 0.000000
# 3 -0.006076 -0.002863 0.014328 0.000000 -0.001582 0.000000
# 4 0.000000 0.000000 0.000000 0.064874 0.000000 0.022160
# 5 0.002932 0.004722 -0.001582 0.000000 0.034403 0.000000
# 6 0.000000 0.000000 0.000000 0.022160 0.000000 0.040330
#
#
# Mechanical properties :
#
#
# Convention : Reuss Voigt Hill
#
# Bulk Modulus (GPa) = 63.75634 72.85188 68.30411
# Shear Modulus (GPa) = 22.91763 27.08672 25.00218
#
# Velocity S-wave (km/s) = 3.72293 4.04742 3.88857
# Velocity P-wave (km/s) = 7.55243 8.11800 7.84032
#
# Compressibility (1/GPa) = 0.01568471
#
# Stress axis : x y z
#
# Youngs Moduli (GPa) = 73.65927 60.21834 69.79151
#
# Poissons Ratio (x) = 0.32964 0.42404
# Poissons Ratio (y) = 0.40322 0.19982
# Poissons Ratio (z) = 0.44754 0.17241
#
# Static dielectric constant tensor:
#      x y z
#    x 2.991170 0.000000 0.021970 
#    y 0.000000 3.074430 0.000000 
#    z 0.021970 0.000000 3.015350 
# 
# 
# High freq. dielectric constant tensor:
#      x y z
#    x 1.625860 0.000000 -0.012150 
#    y 0.000000 1.643790 0.000000 
#    z -0.012150 0.000000 1.612400 
# 
# From -- ./inp_files/61308.got.cif
#   From: 2010.06.25/outbox.cif.g09.slc.cpg/sg11_31_cif.got.tgz:61308.got - 2010.06.27 23:14:04.
