data_PCOD8068684
_publ_section_title
;
Structure prediction by ZEFSAII (Michael W. Deem and Ramdas Pophale) SiO2 
 PCOD8068684
Probable space group: P 21/M
;
_chemical_formula_sum "Si O2"
_cell_formula_units_Z 32
_cell_length_a 20.408947
_cell_length_b 8.976478
_cell_length_c 14.166650
_cell_angle_alpha 90.000000
_cell_angle_beta 136.893556
_cell_angle_gamma 90.000000
_cell_volume 1773.538723
_symmetry_space_group_name_H-M "P 21/M"
_symmetry_group_IT_number 11
_symmetry_cell_setting 'monoclinic'
loop_
_space_group_symop_operation_xyz
x,y,z
-x,1/2+y,-z
-x,-y,-z
x,1/2-y,z
loop_
_atom_site_type_symbol
_atom_site_label
_atom_site_fract_x
_atom_site_fract_y
_atom_site_fract_z
Si Si1 0.967025 0.084499 0.365231
Si Si2 0.186376 0.415425 0.693080
Si Si3 0.831395 0.417982 0.040806
Si Si4 0.883624 0.923055 0.629149
Si Si5 0.495429 0.575752 0.894605
Si Si6 0.282306 0.923077 0.628891
Si Si7 0.018758 0.426781 0.919898
Si Si8 0.318477 0.084222 0.012495
O O1 0.962049 0.250000 0.403323
O O2 0.073017 0.049166 0.432010
O O3 0.924869 0.968096 0.400422
O O4 0.898124 0.076479 0.202454
O O5 0.181978 0.250000 0.641790
O O6 0.246072 0.531929 0.694438
O O7 0.241487 0.407097 0.848669
O O8 0.821758 0.250000 0.992706
O O9 0.725059 0.479719 0.951665
O O10 0.877721 0.519544 0.008097
O O11 0.891001 0.750000 0.665794
O O12 0.773915 0.979258 0.508495
O O13 0.936408 0.021173 0.761909
O O14 0.510380 0.750000 0.928566
O O15 0.394847 0.541225 0.737786
O O16 0.580801 0.515295 0.917686
O O17 0.500000 0.500000 0.000000
O O18 0.260893 0.750000 0.589940
O O19 0.017630 0.250000 0.927273
O O20 0.000000 0.500000 0.000000
O O21 0.335441 0.250000 0.071383
#
# Coordination Sequence:
#
# PCOD8068684 Si02
#       8
#     4   4   4   4   4   4   4   4
#     4   8  16  30  46  64  91 126 165 207 249 295
#     4  10  18  28  45  66  91 128 172 215 257 299
#     4   9  17  30  49  76 105 133 167 206 251 302
#     4  10  21  37  53  72 100 132 168 209 252 302
#     4  10  20  33  49  70  97 133 181 229 268 306
#     4  11  22  33  47  68  97 134 174 217 264 307
#     4  11  21  36  59  85 111 136 163 198 245 303
#     4   9  17  30  47  69  98 133 175 222 265 302
#
# _framework density 18.043022000000001
#
# number of rings (size 3 to 8) (size 9 to 14) (size 15 to 20)
#    0.000    2.250    1.250    3.375    0.000    5.500 
#    0.000    0.000    0.000    0.000    0.000    0.875 
#    0.000    0.000    0.000    0.000    0.000    0.000 
#
# Total GULP energy -396807.069878 kJ/mol
# GULP energy per Si atom -12400.220934 kJ/mol
# Density = 1.800196 g / cm^3
# Si number density = 18.043022 Si / 1000 Ang^3
#
#
#
# Elastic Constant Matrix: (Units=GPa)
#
#
# Indices 1 2 3 4 5 6 
#
# 1 119.2577 62.4924 52.9084 0.0000 20.5022 0.0000
# 2 62.4924 118.9740 37.8959 0.0000 7.1666 0.0000
# 3 52.9084 37.8959 55.4743 0.0000 18.4911 0.0000
# 4 0.0000 0.0000 0.0000 24.0920 0.0000 -0.3355
# 5 20.5022 7.1666 18.4911 0.0000 35.2186 0.0000
# 6 0.0000 0.0000 0.0000 -0.3355 0.0000 29.9845
#
#
#
# Elastic Compliance Matrix: (Units=1/GPa)
#
#
# Indices 1 2 3 4 5 6 
#
# 1 0.016485 -0.004815 -0.011590 0.000000 -0.002532 0.000000
# 2 -0.004815 0.012269 -0.004717 0.000000 0.002783 0.000000
# 3 -0.011590 -0.004717 0.036040 0.000000 -0.011216 0.000000
# 4 0.000000 0.000000 0.000000 0.041514 0.000000 0.000464
# 5 -0.002532 0.002783 -0.011216 0.000000 0.035191 0.000000
# 6 0.000000 0.000000 0.000000 0.000464 0.000000 0.033356
#
#
# Mechanical properties :
#
#
# Convention : Reuss Voigt Hill
#
# Bulk Modulus (GPa) = 44.34081 66.69993 55.52037
# Shear Modulus (GPa) = 22.26030 27.21964 24.73997
#
# Velocity S-wave (km/s) = 3.51627 3.88828 3.70694
# Velocity P-wave (km/s) = 6.41201 7.56345 7.01141
#
# Compressibility (1/GPa) = 0.02255259
#
# Stress axis : x y z
#
# Youngs Moduli (GPa) = 60.66011 81.50583 27.74657
#
# Poissons Ratio (x) = 0.39245 0.32157
# Poissons Ratio (y) = 0.29208 0.13087
# Poissons Ratio (z) = 0.70302 0.38443
#
# Static dielectric constant tensor:
#      x y z
#    x 3.427920 0.000000 0.307240 
#    y 0.000000 3.524450 0.000000 
#    z 0.307240 0.000000 3.293850 
# 
# 
# High freq. dielectric constant tensor:
#      x y z
#    x 1.682210 0.000000 0.023950 
#    y 0.000000 1.709520 0.000000 
#    z 0.023950 0.000000 1.679090 
# 
# From -- ./inp_files/54335.got.cif
#   From: 2010.06.25/outbox.cif.g09.slc.cpg/sg11_28_cif.got.tgz:54335.got - 2010.06.27 23:14:04.
