data_PCOD8068065
_publ_section_title
;
Structure prediction by ZEFSAII (Michael W. Deem and Ramdas Pophale) SiO2 
 PCOD8068065
Probable space group: P 2/M
;
_chemical_formula_sum "Si O2"
_cell_formula_units_Z 32
_cell_length_a 21.000000
_cell_length_b 9.000000
_cell_length_c 27.000000
_cell_angle_alpha 90.000000
_cell_angle_beta 160.000000
_cell_angle_gamma 90.000000
_cell_volume 1745.328791
_symmetry_space_group_name_H-M "P 2/M"
_symmetry_group_IT_number 10
_symmetry_cell_setting 'monoclinic'
loop_
_space_group_symop_operation_xyz
x,y,z
-x,y,-z
-x,-y,-z
x,-y,z
loop_
_atom_site_type_symbol
_atom_site_label
_atom_site_fract_x
_atom_site_fract_y
_atom_site_fract_z
Si Si1 0.066754 0.673395 0.868229
Si Si2 0.849773 0.676258 0.429174
Si Si3 0.500419 0.329792 0.434386
Si Si4 0.223034 0.175974 0.286233
Si Si5 0.358758 0.829451 0.939144
Si Si6 0.048823 0.829152 0.397075
Si Si7 0.450504 0.674668 0.106447
Si Si8 0.191327 0.668004 0.412381
O O1 0.038670 0.500000 0.859220
O O2 0.986662 0.768816 0.855868
O O3 0.958107 0.716406 0.738483
O O4 0.283176 0.718385 0.021354
O O5 0.844898 0.500000 0.424414
O O6 0.645613 0.743257 0.267669
O O7 0.000000 0.738977 0.500000
O O8 0.910599 0.727697 0.526970
O O9 0.466735 0.500000 0.425519
O O10 0.303991 0.238879 0.292938
O O11 0.646221 0.252750 0.577745
O O12 0.594922 0.321880 0.449758
O O13 0.235066 0.000000 0.296965
O O14 0.156770 0.793175 0.771186
O O15 0.380268 0.000000 0.970812
O O16 0.500000 0.783657 0.000000
O O17 0.402790 0.728902 0.017495
O O18 0.186494 0.782521 0.453835
O O19 0.078967 0.000000 0.433086
O O20 0.468016 0.500000 0.115927
O O21 0.145722 0.500000 0.396417
#
# Coordination Sequence:
#
# PCOD8068065 Si02
#       8
#     4   4   4   4   4   4   4   4
#     4   9  17  30  47  69  99 133 169 211 257 304
#     4  10  22  39  57  77 102 133 173 220 264 310
#     4   9  16  27  42  63  96 137 172 205 250 298
#     4  10  17  24  39  66  99 134 169 206 249 300
#     4  10  21  35  51  75 105 134 166 207 259 316
#     4  11  22  34  52  77 104 137 171 209 260 314
#     4  10  20  35  55  77  99 132 176 217 260 307
#     4   9  17  30  49  71  99 134 169 213 255 297
#
# _framework density 18.334654
#
# number of rings (size 3 to 8) (size 9 to 14) (size 15 to 20)
#    0.000    2.250    1.250    4.125    0.000    4.500 
#    0.000    0.000    0.000    0.000    0.000    0.875 
#    0.000    7.000    0.000    0.000    0.000    0.000 
#
# Total GULP energy -396631.251825 kJ/mol
# GULP energy per Si atom -12394.726620 kJ/mol
# Density = 1.829292 g / cm^3
# Si number density = 18.334654 Si / 1000 Ang^3
#
#
#
# Elastic Constant Matrix: (Units=GPa)
#
#
# Indices 1 2 3 4 5 6 
#
# 1 87.5960 29.6651 51.7581 0.0000 32.5466 0.0000
# 2 29.6651 54.5726 14.9973 0.0000 28.3477 0.0000
# 3 51.7581 14.9973 106.9065 0.0000 25.5584 0.0000
# 4 0.0000 0.0000 0.0000 10.0257 0.0000 47.3976
# 5 32.5466 28.3477 25.5584 0.0000 24.1555 0.0000
# 6 0.0000 0.0000 0.0000 47.3976 0.0000 -522.7969
#
#
#
# Elastic Compliance Matrix: (Units=1/GPa)
#
#
# Indices 1 2 3 4 5 6 
#
# 1 0.025987 0.007418 -0.004243 0.000000 -0.039230 0.000000
# 2 0.007418 0.056204 0.008945 0.000000 -0.085418 0.000000
# 3 -0.004243 0.008945 0.015121 0.000000 -0.020780 0.000000
# 4 0.000000 0.000000 0.000000 0.069819 0.000000 0.006330
# 5 -0.039230 -0.085418 -0.020780 0.000000 0.216486 0.000000
# 6 0.000000 0.000000 0.000000 0.006330 0.000000 -0.001339
#
#
# Mechanical properties :
#
#
# Convention : Reuss Voigt Hill
#
# Bulk Modulus (GPa) = 8.22692 49.10179 28.66435
# Shear Modulus (GPa) = 12.54529 -87.54617 -37.50044
#
# Velocity S-wave (km/s) = 2.61863 -6.91756 -4.52744
# Velocity P-wave (km/s) = 3.69321 6.07985 3.41502
#
# Compressibility (1/GPa) = 0.12155214
#
# Stress axis : x y z
#
# Youngs Moduli (GPa) = 38.48031 17.79236 66.13144
#
# Poissons Ratio (x) = -0.13198 0.28062
# Poissons Ratio (y) = -0.28544 -0.59156
# Poissons Ratio (z) = 0.16328 -0.15916
#
# Static dielectric constant tensor:
#      x y z
#    x 3.711580 0.000000 0.691920 
#    y 0.000000 3.264050 0.000000 
#    z 0.691920 0.000000 3.487770 
# 
# 
# High freq. dielectric constant tensor:
#      x y z
#    x 1.704060 0.000000 0.039620 
#    y 0.000000 1.706290 0.000000 
#    z 0.039620 0.000000 1.678530 
# 
# From -- ./inp_files/93769.got.cif
#   From: 2010.06.25/outbox.ucp.g09.slc.cvg/sg10_47_cif.got.tgz:93769.got - 2010.06.28 13:37:52.
