data_PCOD8068764
_publ_section_title
;
Structure prediction by ZEFSAII (Michael W. Deem and Ramdas Pophale) SiO2 
 PCOD8068764
Probable space group: P 21/M
;
_chemical_formula_sum "Si O2"
_cell_formula_units_Z 32
_cell_length_a 16.084130
_cell_length_b 8.891540
_cell_length_c 16.192405
_cell_angle_alpha 90.000000
_cell_angle_beta 109.688673
_cell_angle_gamma 90.000000
_cell_volume 2180.335810
_symmetry_space_group_name_H-M "P 21/M"
_symmetry_group_IT_number 11
_symmetry_cell_setting 'monoclinic'
loop_
_space_group_symop_operation_xyz
x,y,z
-x,1/2+y,-z
-x,-y,-z
x,1/2-y,z
loop_
_atom_site_type_symbol
_atom_site_label
_atom_site_fract_x
_atom_site_fract_y
_atom_site_fract_z
Si Si1 0.590221 0.927032 0.501079
Si Si2 0.187800 0.928358 0.976247
Si Si3 0.667662 0.428917 0.672614
Si Si4 0.821103 0.425280 0.839151
Si Si5 0.013930 0.425985 0.916942
Si Si6 0.486010 0.426452 0.871734
Si Si7 0.637579 0.574129 0.020869
Si Si8 0.514676 0.573885 0.311384
O O1 0.588823 0.750000 0.516895
O O2 0.593705 0.962884 0.403257
O O3 0.500000 0.000000 0.500000
O O4 0.669699 0.001942 0.580100
O O5 0.183999 0.750000 0.970491
O O6 0.098564 0.994366 0.903253
O O7 0.270087 0.988136 0.951937
O O8 0.193194 0.989336 0.072743
O O9 0.670473 0.250000 0.665278
O O10 0.751340 0.494932 0.751174
O O11 0.579878 0.489814 0.689525
O O12 0.801337 0.250000 0.839150
O O13 0.920787 0.454453 0.838145
O O14 0.032870 0.250000 0.932733
O O15 0.000000 0.500000 0.000000
O O16 0.508927 0.250000 0.881751
O O17 0.403957 0.463127 0.903644
O O18 0.460895 0.486075 0.771660
O O19 0.573133 0.515022 0.928047
O O20 0.653280 0.750000 0.013406
O O21 0.501181 0.750000 0.300610
#
# Coordination Sequence:
#
# PCOD8068764 Si02
#       8
#     4   4   4   4   4   4   4   4
#     4   9  16  26  38  54  75  99 128 160 192 224
#     4  10  18  29  43  56  76 109 140 163 194 233
#     4   9  15  25  40  57  77 102 131 157 186 226
#     4   8  15  26  41  58  77 105 134 157 186 230
#     4   9  16  27  41  59  81 104 133 165 195 229
#     4   9  17  30  44  56  75 105 136 163 195 235
#     4  10  19  28  40  60  81 100 129 170 204 229
#     4   8  14  25  41  55  72 104 137 158 182 228
#
# _framework density 14.676639
#
# number of rings (size 3 to 8) (size 9 to 14) (size 15 to 20)
#    0.000    3.000    0.000    3.750    0.000    2.500 
#    0.000    9.375    0.000    0.000    0.000    0.000 
#    0.000    1.000    0.000    2.000    0.000    2.750 
#
# Total GULP energy -396460.261846 kJ/mol
# GULP energy per Si atom -12389.383183 kJ/mol
# Density = 1.464323 g / cm^3
# Si number density = 14.676639 Si / 1000 Ang^3
#
#
#
# Elastic Constant Matrix: (Units=GPa)
#
#
# Indices 1 2 3 4 5 6 
#
# 1 88.9755 30.7063 44.7327 0.0000 10.3839 0.0000
# 2 30.7063 50.5765 24.8819 0.0000 3.8956 0.0000
# 3 44.7327 24.8819 107.9014 0.0000 4.4522 0.0000
# 4 0.0000 0.0000 0.0000 19.1445 0.0000 2.9766
# 5 10.3839 3.8956 4.4522 0.0000 20.0176 0.0000
# 6 0.0000 0.0000 0.0000 2.9766 0.0000 21.3134
#
#
#
# Elastic Compliance Matrix: (Units=1/GPa)
#
#
# Indices 1 2 3 4 5 6 
#
# 1 0.017096 -0.007372 -0.005128 0.000000 -0.006293 0.000000
# 2 -0.007372 0.025689 -0.002845 0.000000 -0.000542 0.000000
# 3 -0.005128 -0.002845 0.012027 0.000000 0.000539 0.000000
# 4 0.000000 0.000000 0.000000 0.053394 0.000000 -0.007457
# 5 -0.006293 -0.000542 0.000539 0.000000 0.053206 0.000000
# 6 0.000000 0.000000 0.000000 -0.007457 0.000000 0.047960
#
#
# Mechanical properties :
#
#
# Convention : Reuss Voigt Hill
#
# Bulk Modulus (GPa) = 41.45517 49.78835 45.62176
# Shear Modulus (GPa) = 20.15293 21.90394 21.02843
#
# Velocity S-wave (km/s) = 3.70960 3.86740 3.78932
# Velocity P-wave (km/s) = 6.83046 7.34435 7.09206
#
# Compressibility (1/GPa) = 0.02412245
#
# Stress axis : x y z
#
# Youngs Moduli (GPa) = 58.49483 38.92677 83.14323
#
# Poissons Ratio (x) = 0.28696 0.42633
# Poissons Ratio (y) = 0.43121 0.23658
# Poissons Ratio (z) = 0.29994 0.11076
#
# Static dielectric constant tensor:
#      x y z
#    x 2.900220 0.000000 0.161820 
#    y 0.000000 2.840970 0.000000 
#    z 0.161820 0.000000 3.217960 
# 
# 
# High freq. dielectric constant tensor:
#      x y z
#    x 1.534480 0.000000 0.012980 
#    y 0.000000 1.555570 0.000000 
#    z 0.012980 0.000000 1.546810 
# 
# From -- ./inp_files/59876.got.cif
#   From: 2010.06.25/outbox.cif.g09.slc.cpg/sg11_30_cif.got.tgz:59876.got - 2010.06.27 23:14:04.
