data_PCOD8068622
_publ_section_title
;
Structure prediction by ZEFSAII (Michael W. Deem and Ramdas Pophale) SiO2 
 PCOD8068622
Probable space group: P 21/M
;
_chemical_formula_sum "Si O2"
_cell_formula_units_Z 32
_cell_length_a 26.803680
_cell_length_b 8.863702
_cell_length_c 18.651490
_cell_angle_alpha 90.000000
_cell_angle_beta 28.246902
_cell_angle_gamma 90.000000
_cell_volume 2097.171501
_symmetry_space_group_name_H-M "P 21/M"
_symmetry_group_IT_number 11
_symmetry_cell_setting 'monoclinic'
loop_
_space_group_symop_operation_xyz
x,y,z
-x,1/2+y,-z
-x,-y,-z
x,1/2-y,z
loop_
_atom_site_type_symbol
_atom_site_label
_atom_site_fract_x
_atom_site_fract_y
_atom_site_fract_z
Si Si1 0.931177 0.922009 0.981395
Si Si2 0.839771 0.072792 0.693399
Si Si3 0.583596 0.925592 0.800913
Si Si4 0.000262 0.927522 0.239007
Si Si5 0.128541 0.076281 0.795000
Si Si6 0.774976 0.924343 0.468412
Si Si7 0.969896 0.927432 0.647757
Si Si8 0.630201 0.575920 0.906154
O O1 0.929939 0.750000 0.956488
O O2 0.842796 0.948876 0.156642
O O3 0.917573 0.026522 0.928519
O O4 0.040275 0.957594 0.883397
O O5 0.842342 0.250000 0.703355
O O6 0.919643 0.025249 0.528732
O O7 0.873035 0.992099 0.724688
O O8 0.723623 0.022021 0.820092
O O9 0.558737 0.750000 0.818203
O O10 0.671267 0.996052 0.635907
O O11 0.627538 0.951312 0.824768
O O12 0.478058 0.020142 0.920990
O O13 0.002883 0.750000 0.245823
O O14 0.883982 0.988614 0.364046
O O15 0.037025 0.004162 0.264914
O O16 0.088303 0.250000 0.834883
O O17 0.226893 0.049981 0.615838
O O18 0.771202 0.750000 0.493992
O O19 0.957339 0.750000 0.668850
O O20 0.648160 0.750000 0.902563
#
# Coordination Sequence:
#
# PCOD8068622 Si02
#       8
#     4   4   4   4   4   4   4   4
#     4   9  15  23  36  55  80 109 141 174 208 248
#     4  10  20  33  48  64  84 111 140 171 210 253
#     4   9  17  29  44  61  82 110 144 178 212 250
#     4  10  18  28  42  60  85 115 145 175 209 249
#     4   8  14  24  37  54  78 109 142 174 210 251
#     4   8  14  25  41  59  80 110 145 177 209 247
#     4  10  20  32  46  65  86 108 139 176 210 246
#     4  10  19  30  44  62  85 112 142 176 212 248
#
# _framework density 15.258648000000001
#
# number of rings (size 3 to 8) (size 9 to 14) (size 15 to 20)
#    0.000    2.750    0.000    3.375    0.000    3.500 
#    0.000    3.125    0.000    0.000    0.000    0.000 
#    0.000    1.000    0.000    2.750    0.000    4.250 
#
# Total GULP energy -396569.369385 kJ/mol
# GULP energy per Si atom -12392.792793 kJ/mol
# Density = 1.522392 g / cm^3
# Si number density = 15.258648 Si / 1000 Ang^3
#
#
#
# Elastic Constant Matrix: (Units=GPa)
#
#
# Indices 1 2 3 4 5 6 
#
# 1 88.0903 30.9020 46.6089 0.0000 17.6454 0.0000
# 2 30.9020 50.2013 22.3475 0.0000 5.5878 0.0000
# 3 46.6089 22.3475 83.0820 0.0000 18.5306 0.0000
# 4 0.0000 0.0000 0.0000 18.6008 0.0000 1.2179
# 5 17.6454 5.5878 18.5306 0.0000 24.8222 0.0000
# 6 0.0000 0.0000 0.0000 1.2179 0.0000 24.5063
#
#
#
# Elastic Compliance Matrix: (Units=1/GPa)
#
#
# Indices 1 2 3 4 5 6 
#
# 1 0.019252 -0.007912 -0.007219 0.000000 -0.006516 0.000000
# 2 -0.007912 0.025890 -0.002975 0.000000 0.002017 0.000000
# 3 -0.007219 -0.002975 0.018707 0.000000 -0.008164 0.000000
# 4 0.000000 0.000000 0.000000 0.053937 0.000000 -0.002680
# 5 -0.006516 0.002017 -0.008164 0.000000 0.050559 0.000000
# 6 0.000000 0.000000 0.000000 -0.002680 0.000000 0.040939
#
#
# Mechanical properties :
#
#
# Convention : Reuss Voigt Hill
#
# Bulk Modulus (GPa) = 36.18343 46.78781 41.48562
# Shear Modulus (GPa) = 19.63018 21.68685 20.65852
#
# Velocity S-wave (km/s) = 3.59067 3.77408 3.68352
# Velocity P-wave (km/s) = 6.39964 7.05133 6.73337
#
# Compressibility (1/GPa) = 0.02763696
#
# Stress axis : x y z
#
# Youngs Moduli (GPa) = 51.94172 38.62482 53.45475
#
# Poissons Ratio (x) = 0.30560 0.38590
# Poissons Ratio (y) = 0.41097 0.15904
# Poissons Ratio (z) = 0.37497 0.11492
#
# Static dielectric constant tensor:
#      x y z
#    x 2.860610 0.000000 0.347820 
#    y 0.000000 2.926100 0.000000 
#    z 0.347820 0.000000 3.032330 
# 
# 
# High freq. dielectric constant tensor:
#      x y z
#    x 1.561990 0.000000 0.031440 
#    y 0.000000 1.588950 0.000000 
#    z 0.031440 0.000000 1.563760 
# 
# From -- ./inp_files/61752.got.cif
#   From: 2010.06.25/outbox.cif.g09.slc.cpg/sg11_31_cif.got.tgz:61752.got - 2010.06.27 23:14:04.
