data_PCOD8068333
_publ_section_title
;
Structure prediction by ZEFSAII (Michael W. Deem and Ramdas Pophale) SiO2 
 PCOD8068333
Probable space group: P 21/M
;
_chemical_formula_sum "Si O2"
_cell_formula_units_Z 32
_cell_length_a 9.007178
_cell_length_b 16.484254
_cell_length_c 25.327322
_cell_angle_alpha 90.000000
_cell_angle_beta 26.524403
_cell_angle_gamma 90.000000
_cell_volume 1679.366749
_symmetry_space_group_name_H-M "P 21/M"
_symmetry_group_IT_number 11
_symmetry_cell_setting 'monoclinic'
loop_
_space_group_symop_operation_xyz
x,y,z
-x,1/2+y,-z
-x,-y,-z
x,1/2-y,z
loop_
_atom_site_type_symbol
_atom_site_label
_atom_site_fract_x
_atom_site_fract_y
_atom_site_fract_z
Si Si1 0.692552 0.919239 0.422468
Si Si2 0.280223 0.469995 0.781446
Si Si3 0.292972 0.484355 0.262582
Si Si4 0.119288 0.841340 0.651972
Si Si5 0.779060 0.656825 0.283721
Si Si6 0.433202 0.161267 0.968997
Si Si7 0.688229 0.500222 0.039134
Si Si8 0.103917 0.087367 0.169864
O O1 0.514374 0.848711 0.513392
O O2 0.652318 0.894419 0.374276
O O3 0.500000 0.000000 0.500000
O O4 0.078815 0.936244 0.313071
O O5 0.604616 0.502808 0.709246
O O6 0.363836 0.387310 0.723313
O O7 0.174152 0.539644 0.774467
O O8 0.992983 0.451133 0.916368
O O9 0.631292 0.480037 0.119050
O O10 0.091339 0.400576 0.319595
O O11 0.998690 0.750000 0.679726
O O12 0.072101 0.862707 0.728066
O O13 0.649533 0.750000 0.326870
O O14 0.173215 0.654274 0.156645
O O15 0.321420 0.250000 0.984872
O O16 0.258340 0.096565 0.986016
O O17 0.308272 0.149025 0.068548
O O18 0.349862 0.479429 0.115674
#
# Coordination Sequence:
#
# PCOD8068333 Si02
#       8
#     4   4   4   4   4   4   4   4
#     4  10  20  39  60  78 104 145 198 229 271 336
#     4  11  19  34  55  84 118 150 178 226 288 349
#     4  10  21  35  56  83 114 148 183 231 284 345
#     4  10  21  39  60  81 104 146 197 242 276 328
#     4  11  20  34  56  84 112 147 191 240 283 329
#     4  10  17  28  52  81 107 139 184 241 279 315
#     4  10  17  34  52  79 110 153 193 217 267 348
#     4  10  18  34  56  82 108 148 194 230 269 343
#
# _framework density 19.054801000000001
#
# number of rings (size 3 to 8) (size 9 to 14) (size 15 to 20)
#    0.000    1.750    3.750    3.375    0.000    0.000 
#    0.000   10.625    0.000    0.000    0.000    0.000 
#    0.000    0.000    0.000    0.000    0.000    0.000 
#
# Total GULP energy -396651.294941 kJ/mol
# GULP energy per Si atom -12395.352967 kJ/mol
# Density = 1.901143 g / cm^3
# Si number density = 19.054801 Si / 1000 Ang^3
#
#
#
# Elastic Constant Matrix: (Units=GPa)
#
#
# Indices 1 2 3 4 5 6 
#
# 1 97.3350 50.1880 24.0031 0.0000 15.0710 0.0000
# 2 50.1880 125.6797 37.9935 0.0000 13.0974 0.0000
# 3 24.0031 37.9935 92.5772 0.0000 23.2117 0.0000
# 4 0.0000 0.0000 0.0000 20.0767 0.0000 -0.1067
# 5 15.0710 13.0974 23.2117 0.0000 16.4645 0.0000
# 6 0.0000 0.0000 0.0000 -0.1067 0.0000 16.3881
#
#
#
# Elastic Compliance Matrix: (Units=1/GPa)
#
#
# Indices 1 2 3 4 5 6 
#
# 1 0.014157 -0.004850 0.000930 0.000000 -0.010413 0.000000
# 2 -0.004850 0.010845 -0.003315 0.000000 0.000486 0.000000
# 3 0.000930 -0.003315 0.017746 0.000000 -0.023233 0.000000
# 4 0.000000 0.000000 0.000000 0.049811 0.000000 0.000324
# 5 -0.010413 0.000486 -0.023233 0.000000 0.102636 0.000000
# 6 0.000000 0.000000 0.000000 0.000324 0.000000 0.061022
#
#
# Mechanical properties :
#
#
# Convention : Reuss Voigt Hill
#
# Bulk Modulus (GPa) = 35.36081 59.99567 47.67824
# Shear Modulus (GPa) = 17.84996 24.14634 20.99815
#
# Velocity S-wave (km/s) = 3.06399 3.56364 3.32322
# Velocity P-wave (km/s) = 5.57809 6.96326 6.30881
#
# Compressibility (1/GPa) = 0.02827990
#
# Stress axis : x y z
#
# Youngs Moduli (GPa) = 70.63554 92.20948 56.34972
#
# Poissons Ratio (x) = 0.44717 -0.05243
# Poissons Ratio (y) = 0.34255 0.18681
# Poissons Ratio (z) = -0.06572 0.30569
#
# Static dielectric constant tensor:
#      x y z
#    x 3.272200 0.000000 0.178810 
#    y 0.000000 3.621940 0.000000 
#    z 0.178810 0.000000 3.808550 
# 
# 
# High freq. dielectric constant tensor:
#      x y z
#    x 1.712620 0.000000 0.020950 
#    y 0.000000 1.732510 0.000000 
#    z 0.020950 0.000000 1.748250 
# 
# From -- ./inp_files/68184.got.cif
#   From: 2010.06.25/outbox.cif.g09.slc.cpg/sg11_35_cif.got.tgz:68184.got - 2010.06.27 23:14:04.
