data_PCOD8068723
_publ_section_title
;
Structure prediction by ZEFSAII (Michael W. Deem and Ramdas Pophale) SiO2 
 PCOD8068723
Probable space group: P 21/M
;
_chemical_formula_sum "Si O2"
_cell_formula_units_Z 32
_cell_length_a 11.648478
_cell_length_b 9.186573
_cell_length_c 21.242483
_cell_angle_alpha 90.000000
_cell_angle_beta 51.755564
_cell_angle_gamma 90.000000
_cell_volume 1785.279420
_symmetry_space_group_name_H-M "P 21/M"
_symmetry_group_IT_number 11
_symmetry_cell_setting 'monoclinic'
loop_
_space_group_symop_operation_xyz
x,y,z
-x,1/2+y,-z
-x,-y,-z
x,1/2-y,z
loop_
_atom_site_type_symbol
_atom_site_label
_atom_site_fract_x
_atom_site_fract_y
_atom_site_fract_z
Si Si1 0.147657 0.416973 0.463670
Si Si2 0.856403 0.581498 0.392083
Si Si3 0.623082 0.918939 0.717050
Si Si4 0.260373 0.913986 0.679613
Si Si5 0.645846 0.919139 0.236104
Si Si6 0.855706 0.918654 0.740155
Si Si7 0.062629 0.088904 0.155094
Si Si8 0.966895 0.917810 0.074904
O O1 0.114731 0.250000 0.458839
O O2 0.200015 0.437823 0.517616
O O3 0.275745 0.473904 0.374788
O O4 0.000000 0.500000 0.500000
O O5 0.861582 0.750000 0.369872
O O6 0.741623 0.497237 0.386469
O O7 0.019522 0.518047 0.332547
O O8 0.580866 0.750000 0.723542
O O9 0.704610 0.947680 0.755435
O O10 0.476982 0.014860 0.767859
O O11 0.320616 0.750000 0.650023
O O12 0.097785 0.912515 0.761172
O O13 0.363295 0.998720 0.693783
O O14 0.617382 0.750000 0.257761
O O15 0.799748 0.945920 0.149925
O O16 0.905109 0.750000 0.716276
O O17 0.831133 0.955621 0.822812
O O18 0.100943 0.250000 0.116410
O O19 0.073993 0.976921 0.093578
O O20 0.003429 0.750000 0.052948
O O21 0.000000 0.000000 0.000000
#
# Coordination Sequence:
#
# PCOD8068723 Si02
#       8
#     4   4   4   4   4   4   4   4
#     4  10  20  32  48  71 101 135 175 220 261 302
#     4  10  18  28  46  73 100 128 168 221 267 298
#     4  10  20  34  51  72 102 140 177 211 252 307
#     4   9  17  31  51  71  95 132 170 208 255 307
#     4  10  21  36  53  77 105 131 165 209 254 302
#     4   9  17  30  49  72 100 136 175 211 249 297
#     4   8  15  28  48  75 102 128 162 203 245 290
#     4  10  20  34  55  81 106 130 158 199 247 298
#
# _framework density 17.924365000000002
#
# number of rings (size 3 to 8) (size 9 to 14) (size 15 to 20)
#    0.000    2.500    1.250    2.250    0.000    6.000 
#    0.000    0.625    0.000    0.750    0.000    0.000 
#    0.000    0.000    0.000    0.000    0.000    0.000 
#
# Total GULP energy -396779.766616 kJ/mol
# GULP energy per Si atom -12399.367707 kJ/mol
# Density = 1.788357 g / cm^3
# Si number density = 17.924365 Si / 1000 Ang^3
#
#
#
# Elastic Constant Matrix: (Units=GPa)
#
#
# Indices 1 2 3 4 5 6 
#
# 1 122.8486 64.2804 43.6655 0.0000 24.6791 0.0000
# 2 64.2804 117.0324 47.5744 0.0000 15.7048 0.0000
# 3 43.6655 47.5744 57.9677 0.0000 24.9803 0.0000
# 4 0.0000 0.0000 0.0000 24.8505 0.0000 4.2409
# 5 24.6791 15.7048 24.9803 0.0000 27.8367 0.0000
# 6 0.0000 0.0000 0.0000 4.2409 0.0000 34.6486
#
#
#
# Elastic Compliance Matrix: (Units=1/GPa)
#
#
# Indices 1 2 3 4 5 6 
#
# 1 0.013136 -0.005157 -0.003094 0.000000 -0.005959 0.000000
# 2 -0.005157 0.015073 -0.011074 0.000000 0.006006 0.000000
# 3 -0.003094 -0.011074 0.040430 0.000000 -0.027291 0.000000
# 4 0.000000 0.000000 0.000000 0.041099 0.000000 -0.005030
# 5 -0.005959 0.006006 -0.027291 0.000000 0.062310 0.000000
# 6 0.000000 0.000000 0.000000 -0.005030 0.000000 0.029477
#
#
# Mechanical properties :
#
#
# Convention : Reuss Voigt Hill
#
# Bulk Modulus (GPa) = 33.34532 67.65436 50.49984
# Shear Modulus (GPa) = 19.98635 26.95574 23.47105
#
# Velocity S-wave (km/s) = 3.34284 3.88217 3.62256
# Velocity P-wave (km/s) = 5.79165 7.61060 6.76256
#
# Compressibility (1/GPa) = 0.02998921
#
# Stress axis : x y z
#
# Youngs Moduli (GPa) = 76.12914 66.34422 24.73382
#
# Poissons Ratio (x) = 0.34216 0.07652
# Poissons Ratio (y) = 0.39263 0.27389
# Poissons Ratio (z) = 0.23553 0.73467
#
# Static dielectric constant tensor:
#      x y z
#    x 3.486000 0.000000 0.341920 
#    y 0.000000 3.440520 0.000000 
#    z 0.341920 0.000000 3.073190 
# 
# 
# High freq. dielectric constant tensor:
#      x y z
#    x 1.694580 0.000000 0.029970 
#    y 0.000000 1.701360 0.000000 
#    z 0.029970 0.000000 1.656550 
# 
# From -- ./inp_files/42738.got.cif
#   From: 2010.06.25/outbox.cif.g09.slc.cpg/sg11_22_cif.got.tgz:42738.got - 2010.06.27 23:14:04.
