data_PCOD8068837
_publ_section_title
;
Structure prediction by ZEFSAII (Michael W. Deem and Ramdas Pophale) SiO2 
 PCOD8068837
Probable space group: P 21/M
;
_chemical_formula_sum "Si O2"
_cell_formula_units_Z 32
_cell_length_a 17.505284
_cell_length_b 8.746375
_cell_length_c 23.675134
_cell_angle_alpha 90.000000
_cell_angle_beta 30.768927
_cell_angle_gamma 90.000000
_cell_volume 1854.388270
_symmetry_space_group_name_H-M "P 21/M"
_symmetry_group_IT_number 11
_symmetry_cell_setting 'monoclinic'
loop_
_space_group_symop_operation_xyz
x,y,z
-x,1/2+y,-z
-x,-y,-z
x,1/2-y,z
loop_
_atom_site_type_symbol
_atom_site_label
_atom_site_fract_x
_atom_site_fract_y
_atom_site_fract_z
Si Si1 0.821469 0.429162 0.833683
Si Si2 0.443123 0.571283 0.478349
Si Si3 0.617610 0.568186 0.881335
Si Si4 0.943826 0.929618 0.138557
Si Si5 0.592083 0.930174 0.066394
Si Si6 0.673622 0.425892 0.249903
Si Si7 0.718090 0.426307 0.092656
Si Si8 0.135722 0.073178 0.683826
O O1 0.784422 0.250000 0.857427
O O2 0.777710 0.503628 0.800756
O O3 0.995955 0.460628 0.732069
O O4 0.730197 0.504660 0.942776
O O5 0.500000 0.500000 0.500000
O O6 0.455130 0.750000 0.477714
O O7 0.545472 0.521940 0.361390
O O8 0.273610 0.524060 0.572991
O O9 0.618890 0.750000 0.880770
O O10 0.566030 0.504953 0.853086
O O11 0.500000 0.500000 0.000000
O O12 0.923719 0.750000 0.141259
O O13 0.903098 0.976833 0.228042
O O14 0.837471 0.019164 0.163515
O O15 0.111386 0.983281 0.018957
O O16 0.583205 0.750000 0.063739
O O17 0.615620 0.972730 0.116656
O O18 0.655709 0.250000 0.278472
O O19 0.654191 0.449943 0.195624
O O20 0.710052 0.250000 0.078420
O O21 0.180895 0.250000 0.653502
#
# Coordination Sequence:
#
# PCOD8068837 Si02
#       8
#     4   4   4   4   4   4   4   4
#     4  10  18  32  51  73 105 137 169 211 258 308
#     4  12  24  38  56  74 100 133 175 222 263 307
#     4  10  18  29  46  70 103 138 172 208 250 305
#     4  10  19  34  54  75 104 138 172 211 259 307
#     4  11  20  30  48  74 104 139 175 209 251 306
#     4  11  23  37  55  76 101 135 177 218 261 309
#     4  10  21  37  53  74 105 140 174 212 258 309
#     4  10  20  34  55  78 103 136 172 214 261 308
#
# _framework density 17.256364999999999
#
# number of rings (size 3 to 8) (size 9 to 14) (size 15 to 20)
#    0.000    1.500    2.500    6.000    0.000    2.500 
#    0.000    0.000    0.000    0.000    0.000    0.875 
#    0.000    0.000    0.000    0.000    0.000    0.000 
#
# Total GULP energy -396866.800569 kJ/mol
# GULP energy per Si atom -12402.087518 kJ/mol
# Density = 1.721709 g / cm^3
# Si number density = 17.256365 Si / 1000 Ang^3
#
#
#
# Elastic Constant Matrix: (Units=GPa)
#
#
# Indices 1 2 3 4 5 6 
#
# 1 123.6447 64.8142 41.6952 0.0000 -12.9372 0.0000
# 2 64.8142 125.4158 34.8694 0.0000 -7.4093 0.0000
# 3 41.6952 34.8694 66.4487 0.0000 -1.1305 0.0000
# 4 0.0000 0.0000 0.0000 23.3540 0.0000 -3.8086
# 5 -12.9372 -7.4093 -1.1305 0.0000 18.8597 0.0000
# 6 0.0000 0.0000 0.0000 -3.8086 0.0000 32.5073
#
#
#
# Elastic Compliance Matrix: (Units=1/GPa)
#
#
# Indices 1 2 3 4 5 6 
#
# 1 0.013267 -0.004882 -0.005646 0.000000 0.006844 0.000000
# 2 -0.004882 0.011352 -0.002878 0.000000 0.000938 0.000000
# 3 -0.005646 -0.002878 0.020038 0.000000 -0.003803 0.000000
# 4 0.000000 0.000000 0.000000 0.043653 0.000000 0.005114
# 5 0.006844 0.000938 -0.003803 0.000000 0.057859 0.000000
# 6 0.000000 0.000000 0.000000 0.005114 0.000000 0.031362
#
#
# Mechanical properties :
#
#
# Convention : Reuss Voigt Hill
#
# Bulk Modulus (GPa) = 56.04042 66.47408 61.25725
# Shear Modulus (GPa) = 23.77656 26.55289 25.16472
#
# Velocity S-wave (km/s) = 3.71596 3.92692 3.82289
# Velocity P-wave (km/s) = 7.13841 7.69195 7.42034
#
# Compressibility (1/GPa) = 0.01784426
#
# Stress axis : x y z
#
# Youngs Moduli (GPa) = 75.37427 88.08982 49.90612
#
# Poissons Ratio (x) = 0.43007 0.28179
# Poissons Ratio (y) = 0.36799 0.14361
# Poissons Ratio (z) = 0.42560 0.25349
#
# Static dielectric constant tensor:
#      x y z
#    x 3.614520 0.000000 -0.220480 
#    y 0.000000 3.289050 0.000000 
#    z -0.220480 0.000000 3.008890 
# 
# 
# High freq. dielectric constant tensor:
#      x y z
#    x 1.674200 0.000000 -0.014060 
#    y 0.000000 1.677800 0.000000 
#    z -0.014060 0.000000 1.628220 
# 
# From -- ./inp_files/69437.got.cif
#   From: 2010.06.25/outbox.cif.g09.slc.cpg/sg11_35_cif.got.tgz:69437.got - 2010.06.27 23:14:04.
