data_PCOD8068367
_publ_section_title
;
Structure prediction by ZEFSAII (Michael W. Deem and Ramdas Pophale) SiO2 
 PCOD8068367
Probable space group: P 21/M
;
_chemical_formula_sum "Si O2"
_cell_formula_units_Z 32
_cell_length_a 9.086252
_cell_length_b 19.850326
_cell_length_c 15.857023
_cell_angle_alpha 90.000000
_cell_angle_beta 38.287764
_cell_angle_gamma 90.000000
_cell_volume 1772.121490
_symmetry_space_group_name_H-M "P 21/M"
_symmetry_group_IT_number 11
_symmetry_cell_setting 'monoclinic'
loop_
_space_group_symop_operation_xyz
x,y,z
-x,1/2+y,-z
-x,-y,-z
x,1/2-y,z
loop_
_atom_site_type_symbol
_atom_site_label
_atom_site_fract_x
_atom_site_fract_y
_atom_site_fract_z
Si Si1 0.892922 0.676047 0.038508
Si Si2 0.862011 0.672955 0.708736
Si Si3 0.653950 0.368256 0.087658
Si Si4 0.047414 0.888250 0.795053
Si Si5 0.688911 0.500360 0.987206
Si Si6 0.487343 0.431270 0.765184
Si Si7 0.499763 0.434070 0.330357
Si Si8 0.004021 0.419884 0.507168
O O1 0.778210 0.750000 0.085639
O O2 0.704423 0.626485 0.167265
O O3 0.129004 0.681598 0.990128
O O4 0.958528 0.653847 0.914780
O O5 0.927582 0.750000 0.654691
O O6 0.575913 0.668756 0.848097
O O7 0.992173 0.654777 0.737256
O O8 0.953662 0.619868 0.598882
O O9 0.586464 0.404734 0.203679
O O10 0.757032 0.423567 0.976551
O O11 0.329130 0.905981 0.672956
O O12 0.919755 0.960536 0.851355
O O13 0.500000 0.500000 0.000000
O O14 0.571355 0.533849 0.121047
O O15 0.486977 0.484431 0.687206
O O16 0.749121 0.397243 0.657953
O O17 0.229768 0.407014 0.468106
O O18 0.000000 0.500000 0.500000
#
# Coordination Sequence:
#
# PCOD8068367 Si02
#       8
#     4   4   4   4   4   4   4   4
#     4  10  19  31  49  73 104 138 167 207 254 312
#     4  11  21  33  52  77 105 138 172 217 265 310
#     4   9  17  31  50  76 102 131 174 207 257 311
#     4  10  19  31  51  79 108 131 167 214 268 313
#     4  10  17  29  53  79 105 132 163 215 269 310
#     4   9  18  32  52  75  98 134 174 212 253 313
#     4   8  16  32  53  75  98 130 170 222 254 299
#     4   9  19  36  56  73 101 135 181 221 255 308
#
# _framework density 18.057452000000001
#
# number of rings (size 3 to 8) (size 9 to 14) (size 15 to 20)
#    0.000    2.500    1.250    2.250    0.000    3.500 
#    0.000    3.125    2.750    0.000    0.000    0.000 
#    0.000    0.000    0.000    0.000    0.000    0.000 
#
# Total GULP energy -396508.634367 kJ/mol
# GULP energy per Si atom -12390.894824 kJ/mol
# Density = 1.801635 g / cm^3
# Si number density = 18.057452 Si / 1000 Ang^3
#
#
#
# Elastic Constant Matrix: (Units=GPa)
#
#
# Indices 1 2 3 4 5 6 
#
# 1 124.4553 38.7109 29.7161 0.0000 -25.8309 0.0000
# 2 38.7109 104.2447 25.1782 0.0000 -3.7757 0.0000
# 3 29.7161 25.1782 54.8049 0.0000 -26.3906 0.0000
# 4 0.0000 0.0000 0.0000 16.4326 0.0000 2.4316
# 5 -25.8309 -3.7757 -26.3906 0.0000 29.4978 0.0000
# 6 0.0000 0.0000 0.0000 2.4316 0.0000 20.4335
#
#
#
# Elastic Compliance Matrix: (Units=1/GPa)
#
#
# Indices 1 2 3 4 5 6 
#
# 1 0.011145 -0.003876 0.000349 0.000000 0.009575 0.000000
# 2 -0.003876 0.012644 -0.008016 0.000000 -0.008947 0.000000
# 3 0.000349 -0.008016 0.037585 0.000000 0.032905 0.000000
# 4 0.000000 0.000000 0.000000 0.061946 0.000000 -0.007371
# 5 0.009575 -0.008947 0.032905 0.000000 0.070579 0.000000
# 6 0.000000 0.000000 0.000000 -0.007371 0.000000 0.049816
#
#
# Mechanical properties :
#
#
# Convention : Reuss Voigt Hill
#
# Bulk Modulus (GPa) = 26.11782 52.30170 39.20976
# Shear Modulus (GPa) = 17.88501 25.93277 21.90889
#
# Velocity S-wave (km/s) = 3.15056 3.79374 3.48701
# Velocity P-wave (km/s) = 5.26591 6.94383 6.16225
#
# Compressibility (1/GPa) = 0.03828803
#
# Stress axis : x y z
#
# Youngs Moduli (GPa) = 89.72906 79.08860 26.60628
#
# Poissons Ratio (x) = 0.30654 -0.00927
# Poissons Ratio (y) = 0.34778 0.21326
# Poissons Ratio (z) = -0.03127 0.63394
#
# Static dielectric constant tensor:
#      x y z
#    x 3.524040 0.000000 -0.360820 
#    y 0.000000 3.317440 0.000000 
#    z -0.360820 0.000000 3.202920 
# 
# 
# High freq. dielectric constant tensor:
#      x y z
#    x 1.704280 0.000000 -0.026310 
#    y 0.000000 1.692770 0.000000 
#    z -0.026310 0.000000 1.666700 
# 
# From -- ./inp_files/19442.got.cif
#   From: 2010.06.25/outbox.cif.g09.slc.cpg/sg11_10_cif.got.tgz:19442.got - 2010.06.27 23:14:04.
