data_PCOD8068357
_publ_section_title
;
Structure prediction by ZEFSAII (Michael W. Deem and Ramdas Pophale) SiO2 
 PCOD8068357
Probable space group: P 21/M
;
_chemical_formula_sum "Si O2"
_cell_formula_units_Z 24
_cell_length_a 8.546454
_cell_length_b 25.033696
_cell_length_c 5.333735
_cell_angle_alpha 90.000000
_cell_angle_beta 89.417212
_cell_angle_gamma 90.000000
_cell_volume 1141.090005
_symmetry_space_group_name_H-M "P 21/M"
_symmetry_group_IT_number 11
_symmetry_cell_setting 'monoclinic'
loop_
_space_group_symop_operation_xyz
x,y,z
-x,1/2+y,-z
-x,-y,-z
x,1/2-y,z
loop_
_atom_site_type_symbol
_atom_site_label
_atom_site_fract_x
_atom_site_fract_y
_atom_site_fract_z
Si Si1 0.079981 0.810289 0.503788
Si Si2 0.749895 0.635660 0.504794
Si Si3 0.747485 0.687251 0.004700
Si Si4 0.318577 0.489145 0.479996
Si Si5 0.108838 0.653625 0.003226
Si Si6 0.838147 0.029574 0.017635
O O1 0.014457 0.750000 0.509867
O O2 0.186384 0.822722 0.747456
O O3 0.935488 0.851882 0.502076
O O4 0.185022 0.820846 0.253483
O O5 0.671204 0.660763 0.756641
O O6 0.724152 0.572771 0.500064
O O7 0.671607 0.661421 0.256724
O O8 0.715655 0.750000 0.003651
O O9 0.930726 0.674312 0.000396
O O10 0.500000 0.500000 0.500000
O O11 0.236498 0.519961 0.709382
O O12 0.269990 0.510784 0.208818
O O13 0.125059 0.591114 0.014052
O O14 0.000000 0.000000 0.000000
#
# Coordination Sequence:
#
# PCOD8068357 Si02
#       6
#     4   4   4   4   4   4
#     4  10  17  29  50  84 117 146 188 253 312 359
#     4  10  18  32  52  77 112 152 195 241 291 355
#     4  10  18  31  53  88 119 146 189 256 313 355
#     4  12  26  43  61  89 129 174 212 254 313 376
#     4  10  18  29  48  79 113 144 182 240 305 351
#     4  12  23  40  64  91 122 160 210 262 304 362
#
# _framework density 21.032523999999999
#
# number of rings (size 3 to 8) (size 9 to 14) (size 15 to 20)
#    0.000    1.333    0.000   12.000    0.000    0.000 
#    0.000    0.000    0.000    0.000    0.000   39.667 
#    0.000    0.000    0.000    0.000    0.000    0.000 
#
# Total GULP energy -297435.954537 kJ/mol
# GULP energy per Si atom -12393.164772 kJ/mol
# Density = 2.098465 g / cm^3
# Si number density = 21.032524 Si / 1000 Ang^3
#
#
#
# Elastic Constant Matrix: (Units=GPa)
#
#
# Indices 1 2 3 4 5 6 
#
# 1 36.8082 -0.5759 4.5133 0.0000 3.1796 0.0000
# 2 -0.5759 140.8207 48.9561 0.0000 3.7549 0.0000
# 3 4.5133 48.9561 217.4344 0.0000 8.4762 0.0000
# 4 0.0000 0.0000 0.0000 44.8338 0.0000 -0.4531
# 5 3.1796 3.7549 8.4762 0.0000 17.6387 0.0000
# 6 0.0000 0.0000 0.0000 -0.4531 0.0000 7.6027
#
#
#
# Elastic Compliance Matrix: (Units=1/GPa)
#
#
# Indices 1 2 3 4 5 6 
#
# 1 0.027651 0.000408 -0.000477 0.000000 -0.004842 0.000000
# 2 0.000408 0.007722 -0.001712 0.000000 -0.000895 0.000000
# 3 -0.000477 -0.001712 0.005072 0.000000 -0.001987 0.000000
# 4 0.000000 0.000000 0.000000 0.022318 0.000000 0.001330
# 5 -0.004842 -0.000895 -0.001987 0.000000 0.058712 0.000000
# 6 0.000000 0.000000 0.000000 0.001330 0.000000 0.131612
#
#
# Mechanical properties :
#
#
# Convention : Reuss Voigt Hill
#
# Bulk Modulus (GPa) = 27.11315 55.65001 41.38158
# Shear Modulus (GPa) = 18.59128 36.82635 27.70882
#
# Velocity S-wave (km/s) = 2.97632 4.18894 3.63358
# Velocity P-wave (km/s) = 4.97296 7.06490 6.10914
#
# Compressibility (1/GPa) = 0.03688247
#
# Stress axis : x y z
#
# Youngs Moduli (GPa) = 36.16506 129.50004 197.16255
#
# Poissons Ratio (x) = -0.05284 0.09406
# Poissons Ratio (y) = -0.01476 0.33759
# Poissons Ratio (z) = 0.01725 0.22173
#
# Static dielectric constant tensor:
#      x y z
#    x 3.104700 0.000000 0.022600 
#    y 0.000000 3.890220 0.000000 
#    z 0.022600 0.000000 6.424840 
# 
# 
# High freq. dielectric constant tensor:
#      x y z
#    x 1.738890 0.000000 0.001390 
#    y 0.000000 1.843400 0.000000 
#    z 0.001390 0.000000 1.876500 
# 
# From -- ./inp_files/2733.got.cif
#   From: 2010.06.25/outbox.cif.g09.slc.cpg/sg11_2_cif.got.tgz:2733.got - 2010.06.27 23:14:04.
