data_PCOD8068349
_publ_section_title
;
Structure prediction by ZEFSAII (Michael W. Deem and Ramdas Pophale) SiO2 
 PCOD8068349
Probable space group: P 21/M
;
_chemical_formula_sum "Si O2"
_cell_formula_units_Z 28
_cell_length_a 14.482103
_cell_length_b 9.131133
_cell_length_c 14.290705
_cell_angle_alpha 90.000000
_cell_angle_beta 60.123057
_cell_angle_gamma 90.000000
_cell_volume 1638.618218
_symmetry_space_group_name_H-M "P 21/M"
_symmetry_group_IT_number 11
_symmetry_cell_setting 'monoclinic'
loop_
_space_group_symop_operation_xyz
x,y,z
-x,1/2+y,-z
-x,-y,-z
x,1/2-y,z
loop_
_atom_site_type_symbol
_atom_site_label
_atom_site_fract_x
_atom_site_fract_y
_atom_site_fract_z
Si Si1 0.900416 0.075142 0.602453
Si Si2 0.711186 0.081297 0.241806
Si Si3 0.731974 0.585665 0.574084
Si Si4 0.058810 0.577635 0.211380
Si Si5 0.516431 0.579149 0.590386
Si Si6 0.172690 0.412554 0.670502
Si Si7 0.105649 0.923378 0.985866
O O1 0.910990 0.250000 0.586396
O O2 0.894743 0.020882 0.713710
O O3 0.786255 0.022431 0.621012
O O4 0.000000 0.000000 0.500000
O O5 0.736728 0.250000 0.240662
O O6 0.585316 0.054340 0.289345
O O7 0.788077 0.019103 0.121096
O O8 0.735927 0.007311 0.328262
O O9 0.717776 0.750000 0.623211
O O10 0.618432 0.520612 0.596691
O O11 0.812816 0.592658 0.447274
O O12 0.045056 0.750000 0.229024
O O13 0.941116 0.512090 0.252525
O O14 0.126894 0.535778 0.084742
O O15 0.500000 0.500000 0.500000
O O16 0.534201 0.750000 0.558168
O O17 0.179047 0.250000 0.710657
O O18 0.089167 0.750000 0.983255
O O19 0.000000 0.000000 0.000000
#
# Coordination Sequence:
#
# PCOD8068349 Si02
#       7
#     4   4   4   4   4   4   4
#     4  11  21  34  52  74  99 130 167 206 248 298
#     4  10  20  31  47  76 104 128 166 209 244 287
#     4  10  20  34  49  70 101 136 166 200 248 298
#     4   9  18  32  48  68  98 132 162 192 241 300
#     4  10  20  33  50  73 103 134 167 205 250 298
#     4  10  17  29  49  71 100 135 164 194 241 301
#     4  10  19  32  50  72 100 131 164 201 245 296
#
# _framework density 17.087568000000001
#
# number of rings (size 3 to 8) (size 9 to 14) (size 15 to 20)
#    0.000    2.000    4.286    0.429    0.000    1.143 
#    0.000    1.429    0.000    0.857    0.000    0.000 
#    0.000    0.000    0.000    0.000    0.000    0.143 
#
# Total GULP energy -346976.313741 kJ/mol
# GULP energy per Si atom -12392.011205 kJ/mol
# Density = 1.704868 g / cm^3
# Si number density = 17.087568 Si / 1000 Ang^3
#
#
#
# Elastic Constant Matrix: (Units=GPa)
#
#
# Indices 1 2 3 4 5 6 
#
# 1 122.9234 36.8586 52.1392 0.0000 1.5424 0.0000
# 2 36.8586 40.8740 28.3340 0.0000 2.3424 0.0000
# 3 52.1392 28.3340 98.4164 0.0000 1.6235 0.0000
# 4 0.0000 0.0000 0.0000 15.9254 0.0000 1.6010
# 5 1.5424 2.3424 1.6235 0.0000 28.9040 0.0000
# 6 0.0000 0.0000 0.0000 1.6010 0.0000 27.6759
#
#
#
# Elastic Compliance Matrix: (Units=1/GPa)
#
#
# Indices 1 2 3 4 5 6 
#
# 1 0.012392 -0.008289 -0.004182 0.000000 0.000245 0.000000
# 2 -0.008289 0.036224 -0.006002 0.000000 -0.002156 0.000000
# 3 -0.004182 -0.006002 0.014106 0.000000 -0.000083 0.000000
# 4 0.000000 0.000000 0.000000 0.063160 0.000000 -0.003654
# 5 0.000245 -0.002156 -0.000083 0.000000 0.034764 0.000000
# 6 0.000000 0.000000 0.000000 -0.003654 0.000000 0.036344
#
#
# Mechanical properties :
#
#
# Convention : Reuss Voigt Hill
#
# Bulk Modulus (GPa) = 38.79739 55.20861 47.00300
# Shear Modulus (GPa) = 20.61617 24.15986 22.38802
#
# Velocity S-wave (km/s) = 3.47724 3.76425 3.62359
# Velocity P-wave (km/s) = 6.23506 7.16045 6.71372
#
# Compressibility (1/GPa) = 0.02577493
#
# Stress axis : x y z
#
# Youngs Moduli (GPa) = 80.70011 27.60579 70.89163
#
# Poissons Ratio (x) = 0.22882 0.29650
# Poissons Ratio (y) = 0.66892 0.42549
# Poissons Ratio (z) = 0.33753 0.16569
#
# Static dielectric constant tensor:
#      x y z
#    x 3.241720 0.000000 -0.072110 
#    y 0.000000 3.479180 0.000000 
#    z -0.072110 0.000000 3.366690 
# 
# 
# High freq. dielectric constant tensor:
#      x y z
#    x 1.651240 0.000000 -0.005750 
#    y 0.000000 1.643840 0.000000 
#    z -0.005750 0.000000 1.650680 
# 
# From -- ./inp_files/51100.got.cif
#   From: 2010.06.25/outbox.cif.g09.slc.cpg/sg11_26_cif.got.tgz:51100.got - 2010.06.27 23:14:04.
