data_PCOD8068316
_publ_section_title
;
Structure prediction by ZEFSAII (Michael W. Deem and Ramdas Pophale) SiO2 
 PCOD8068316
Probable space group: P 21/M
;
_chemical_formula_sum "Si O2"
_cell_formula_units_Z 32
_cell_length_a 21.952191
_cell_length_b 13.569045
_cell_length_c 23.023591
_cell_angle_alpha 90.000000
_cell_angle_beta 17.547739
_cell_angle_gamma 90.000000
_cell_volume 2067.702323
_symmetry_space_group_name_H-M "P 21/M"
_symmetry_group_IT_number 11
_symmetry_cell_setting 'monoclinic'
loop_
_space_group_symop_operation_xyz
x,y,z
-x,1/2+y,-z
-x,-y,-z
x,1/2-y,z
loop_
_atom_site_type_symbol
_atom_site_label
_atom_site_fract_x
_atom_site_fract_y
_atom_site_fract_z
Si Si1 0.844728 0.862071 0.566081
Si Si2 0.476889 0.362071 0.433919
Si Si3 0.255880 0.547678 0.160178
Si Si4 0.374274 0.138360 0.115345
Si Si5 0.576454 0.364831 0.103557
Si Si6 0.283570 0.864831 0.896442
Si Si7 0.076237 0.047677 0.839821
Si Si8 0.104963 0.861640 0.884657
O O1 0.916039 0.750000 0.491211
O O2 0.777748 0.878827 0.693115
O O3 0.659134 0.887816 0.692193
O O4 0.024869 0.935477 0.387518
O O5 0.398459 0.250000 0.508792
O O6 0.543516 0.387814 0.307810
O O7 0.299904 0.435477 0.612482
O O8 0.663979 0.378827 0.306881
O O9 0.310024 0.433067 0.121336
O O10 0.397936 0.616292 0.070949
O O11 0.285834 0.571818 0.065239
O O12 0.364694 0.250000 0.100983
O O13 0.620709 0.250000 0.051292
O O14 0.632378 0.396368 0.117622
O O15 0.223292 0.750000 0.948709
O O16 0.083691 0.928183 0.065236
O O17 0.052698 0.933066 0.878662
O O18 0.039840 0.116290 0.929047
O O19 0.066659 0.750000 0.899019
#
# Coordination Sequence:
#
# PCOD8068316 Si02
#       8
#     4   4   4   4   4   4   4   4
#     4   9  16  27  43  63  88 115 141 171 210 255
#     4   9  16  27  43  63  88 115 141 171 210 255
#     4  10  17  28  47  65  86 117 144 169 211 259
#     4   9  18  29  42  66  93 112 139 177 210 249
#     4   9  18  30  43  64  90 111 140 181 215 249
#     4   9  18  30  43  64  90 111 140 181 215 249
#     4  10  17  28  47  65  86 117 144 169 211 259
#     4   9  18  29  42  66  93 112 139 177 210 249
#
# _framework density 15.476115999999999
#
# number of rings (size 3 to 8) (size 9 to 14) (size 15 to 20)
#    0.000    2.750    0.000    4.500    0.000    1.000 
#    0.000    2.500    0.000    0.750    0.000    0.000 
#    0.000    0.000    0.000    0.000    0.000    0.000 
#
# Total GULP energy -396843.256106 kJ/mol
# GULP energy per Si atom -12401.351753 kJ/mol
# Density = 1.544089 g / cm^3
# Si number density = 15.476116 Si / 1000 Ang^3
#
#
#
# Elastic Constant Matrix: (Units=GPa)
#
#
# Indices 1 2 3 4 5 6 
#
# 1 83.3653 47.1447 35.9887 0.0000 2.3959 0.0000
# 2 47.1447 92.5450 40.9162 0.0000 0.5762 0.0000
# 3 35.9887 40.9162 87.9416 0.0000 -2.8165 0.0000
# 4 0.0000 0.0000 0.0000 18.0170 0.0000 0.5596
# 5 2.3959 0.5762 -2.8165 0.0000 11.2110 0.0000
# 6 0.0000 0.0000 0.0000 0.5596 0.0000 24.0712
#
#
#
# Elastic Compliance Matrix: (Units=1/GPa)
#
#
# Indices 1 2 3 4 5 6 
#
# 1 0.018059 -0.007353 -0.004114 0.000000 -0.004515 0.000000
# 2 -0.007353 0.016657 -0.004756 0.000000 -0.000480 0.000000
# 3 -0.004114 -0.004756 0.015428 0.000000 0.005000 0.000000
# 4 0.000000 0.000000 0.000000 0.055543 0.000000 -0.001291
# 5 -0.004515 -0.000480 0.005000 0.000000 0.091444 0.000000
# 6 0.000000 0.000000 0.000000 -0.001291 0.000000 0.041573
#
#
# Mechanical properties :
#
#
# Convention : Reuss Voigt Hill
#
# Bulk Modulus (GPa) = 56.50393 56.88345 56.69369
# Shear Modulus (GPa) = 18.04723 19.97999 19.01361
#
# Velocity S-wave (km/s) = 3.41858 3.59698 3.50891
# Velocity P-wave (km/s) = 7.22301 7.35435 7.28897
#
# Compressibility (1/GPa) = 0.01769788
#
# Stress axis : x y z
#
# Youngs Moduli (GPa) = 55.37294 60.03435 64.81773
#
# Poissons Ratio (x) = 0.44142 0.26666
# Poissons Ratio (y) = 0.40715 0.30829
# Poissons Ratio (z) = 0.22781 0.28554
#
# Static dielectric constant tensor:
#      x y z
#    x 2.850560 0.000000 -0.004690 
#    y 0.000000 2.870810 0.000000 
#    z -0.004690 0.000000 2.901360 
# 
# 
# High freq. dielectric constant tensor:
#      x y z
#    x 1.571960 0.000000 -0.002560 
#    y 0.000000 1.576270 0.000000 
#    z -0.002560 0.000000 1.599660 
# 
# From -- ./inp_files/7057.got.cif
#   From: 2010.06.25/outbox.cif.g09.slc.cpg/sg11_4_cif.got.tgz:7057.got - 2010.06.27 23:14:04.
