data_PCOD8068915
_publ_section_title
;
Structure prediction by ZEFSAII (Michael W. Deem and Ramdas Pophale) SiO2 
 PCOD8068915
Probable space group: P 21/M
;
_chemical_formula_sum "Si O2"
_cell_formula_units_Z 32
_cell_length_a 20.135069
_cell_length_b 8.692995
_cell_length_c 14.833998
_cell_angle_alpha 90.000000
_cell_angle_beta 44.167765
_cell_angle_gamma 90.000000
_cell_volume 1809.110147
_symmetry_space_group_name_H-M "P 21/M"
_symmetry_group_IT_number 11
_symmetry_cell_setting 'monoclinic'
loop_
_space_group_symop_operation_xyz
x,y,z
-x,1/2+y,-z
-x,-y,-z
x,1/2-y,z
loop_
_atom_site_type_symbol
_atom_site_label
_atom_site_fract_x
_atom_site_fract_y
_atom_site_fract_z
Si Si1 0.507320 0.929765 0.092156
Si Si2 0.330392 0.077099 0.355398
Si Si3 0.883828 0.429251 0.862079
Si Si4 0.702027 0.429074 0.947543
Si Si5 0.800062 0.920724 0.692991
Si Si6 0.824300 0.071051 0.385478
Si Si7 0.022340 0.067148 0.881703
Si Si8 0.053179 0.428358 0.583605
O O1 0.502231 0.750000 0.083161
O O2 0.424496 0.982785 0.239049
O O3 0.500000 0.000000 0.000000
O O4 0.606217 0.973357 0.044154
O O5 0.360953 0.250000 0.350628
O O6 0.259187 0.076130 0.341211
O O7 0.279781 0.001038 0.491980
O O8 0.875068 0.250000 0.886883
O O9 0.775533 0.490668 0.953699
O O10 0.940612 0.498141 0.892388
O O11 0.941234 0.461898 0.711577
O O12 0.677076 0.250000 0.982467
O O13 0.757237 0.450584 0.799257
O O14 0.792600 0.750000 0.744621
O O15 0.910371 0.955992 0.554918
O O16 0.811954 0.250000 0.376937
O O17 0.891125 0.044752 0.406179
O O18 0.873462 0.990440 0.251111
O O19 0.022409 0.250000 0.884464
O O20 0.000000 0.000000 0.000000
O O21 0.075866 0.250000 0.589522
#
# Coordination Sequence:
#
# PCOD8068915 Si02
#       8
#     4   4   4   4   4   4   4   4
#     4  12  23  35  50  70  95 130 177 225 264 300
#     4  10  19  33  51  70  98 133 170 216 263 298
#     4   8  17  33  50  69  97 133 166 203 249 301
#     4  11  21  32  47  67  95 132 173 212 255 301
#     4   9  17  28  44  65  92 127 169 212 255 291
#     4  10  18  29  48  77 106 132 166 204 248 302
#     4  10  19  35  57  81 108 135 166 204 249 302
#     4   8  15  30  47  62  91 132 171 207 246 289
#
# _framework density 17.688255000000002
#
# number of rings (size 3 to 8) (size 9 to 14) (size 15 to 20)
#    0.000    2.250    1.250    4.875    0.000    2.500 
#    0.000    6.250    0.000    0.000    0.000    0.875 
#    0.000    0.000    0.000    0.000    0.000    0.000 
#
# Total GULP energy -396516.146745 kJ/mol
# GULP energy per Si atom -12391.129586 kJ/mol
# Density = 1.764800 g / cm^3
# Si number density = 17.688255 Si / 1000 Ang^3
#
#
#
# Elastic Constant Matrix: (Units=GPa)
#
#
# Indices 1 2 3 4 5 6 
#
# 1 56.6172 23.2906 47.5965 0.0000 -15.6281 0.0000
# 2 23.2906 99.1627 45.5364 0.0000 -6.7385 0.0000
# 3 47.5965 45.5364 129.0883 0.0000 -12.9041 0.0000
# 4 0.0000 0.0000 0.0000 32.2332 0.0000 -1.3070
# 5 -15.6281 -6.7385 -12.9041 0.0000 28.0545 0.0000
# 6 0.0000 0.0000 0.0000 -1.3070 0.0000 13.1705
#
#
#
# Elastic Compliance Matrix: (Units=1/GPa)
#
#
# Indices 1 2 3 4 5 6 
#
# 1 0.029177 -0.001975 -0.008893 0.000000 0.011689 0.000000
# 2 -0.001975 0.012193 -0.003554 0.000000 0.000194 0.000000
# 3 -0.008893 -0.003554 0.012262 0.000000 -0.000167 0.000000
# 4 0.000000 0.000000 0.000000 0.031149 0.000000 0.003091
# 5 0.011689 0.000194 -0.000167 0.000000 0.042126 0.000000
# 6 0.000000 0.000000 0.000000 0.003091 0.000000 0.076234
#
#
# Mechanical properties :
#
#
# Convention : Reuss Voigt Hill
#
# Bulk Modulus (GPa) = 40.33871 57.52390 48.93131
# Shear Modulus (GPa) = 20.81175 25.92130 23.36653
#
# Velocity S-wave (km/s) = 3.43386 3.83228 3.63853
# Velocity P-wave (km/s) = 6.21102 7.22311 6.73610
#
# Compressibility (1/GPa) = 0.02479008
#
# Stress axis : x y z
#
# Youngs Moduli (GPa) = 34.27306 82.01190 81.54990
#
# Poissons Ratio (x) = 0.16197 0.72522
# Poissons Ratio (y) = 0.06769 0.28980
# Poissons Ratio (z) = 0.30479 0.29144
#
# Static dielectric constant tensor:
#      x y z
#    x 3.335950 0.000000 -0.221440 
#    y 0.000000 3.248860 0.000000 
#    z -0.221440 0.000000 3.524420 
# 
# 
# High freq. dielectric constant tensor:
#      x y z
#    x 1.639180 0.000000 -0.024310 
#    y 0.000000 1.684450 0.000000 
#    z -0.024310 0.000000 1.682630 
# 
# From -- ./inp_files/54263.got.cif
#   From: 2010.06.25/outbox.cif.g09.slc.cpg/sg11_28_cif.got.tgz:54263.got - 2010.06.27 23:14:04.
