data_PCOD8068166
_publ_section_title
;
Structure prediction by ZEFSAII (Michael W. Deem and Ramdas Pophale) SiO2 
 PCOD8068166
Probable space group: P 21/M
;
_chemical_formula_sum "Si O2"
_cell_formula_units_Z 24
_cell_length_a 9.812770
_cell_length_b 19.048396
_cell_length_c 13.138461
_cell_angle_alpha 90.000000
_cell_angle_beta 33.549408
_cell_angle_gamma 90.000000
_cell_volume 1357.217065
_symmetry_space_group_name_H-M "P 21/M"
_symmetry_group_IT_number 11
_symmetry_cell_setting 'monoclinic'
loop_
_space_group_symop_operation_xyz
x,y,z
-x,1/2+y,-z
-x,-y,-z
x,1/2-y,z
loop_
_atom_site_type_symbol
_atom_site_label
_atom_site_fract_x
_atom_site_fract_y
_atom_site_fract_z
Si Si1 0.412288 0.396240 0.098948
Si Si2 0.222935 0.432770 0.641008
Si Si3 0.117023 0.670120 0.253162
Si Si4 0.950795 0.418446 0.506134
Si Si5 0.509100 0.039900 0.655481
Si Si6 0.742520 0.517127 0.982780
O O1 0.187690 0.377574 0.314257
O O2 0.298231 0.412573 0.058467
O O3 0.612975 0.333616 0.968069
O O4 0.542476 0.463117 0.066595
O O5 0.391314 0.463889 0.445064
O O6 0.389521 0.417645 0.636078
O O7 0.097670 0.359634 0.686308
O O8 0.019923 0.491299 0.794398
O O9 0.053721 0.750000 0.319932
O O10 0.135071 0.620538 0.339523
O O11 0.000000 0.500000 0.500000
O O12 0.731079 0.413379 0.561457
O O13 0.301051 0.029636 0.870805
#
# Coordination Sequence:
#
# PCOD8068166 Si02
#       6
#     4   4   4   4   4   4
#     4  10  18  30  54  80 108 135 177 229 272 316
#     4  10  21  33  51  84 114 143 180 231 281 331
#     4  11  23  38  55  77 111 152 189 226 284 349
#     4  12  18  35  60  87 109 139 187 242 278 322
#     4  11  19  31  55  87 112 135 183 235 282 324
#     4  10  16  30  52  81 109 136 171 225 272 318
#
# _framework density 17.683243000000001
#
# number of rings (size 3 to 8) (size 9 to 14) (size 15 to 20)
#    0.000    1.333    6.667    1.500    0.000    0.667 
#    0.000    0.833    0.000    0.000    0.000    0.000 
#    0.000    0.000    0.000    0.000    0.000    0.000 
#
# Total GULP energy -297557.613012 kJ/mol
# GULP energy per Si atom -12398.233875 kJ/mol
# Density = 1.764299 g / cm^3
# Si number density = 17.683243 Si / 1000 Ang^3
#
#
#
# Elastic Constant Matrix: (Units=GPa)
#
#
# Indices 1 2 3 4 5 6 
#
# 1 119.6077 31.8005 22.7745 0.0000 -3.0290 0.0000
# 2 31.8005 75.5895 13.5514 0.0000 -0.8875 0.0000
# 3 22.7745 13.5514 81.0493 0.0000 7.5854 0.0000
# 4 0.0000 0.0000 0.0000 13.0435 0.0000 2.2545
# 5 -3.0290 -0.8875 7.5854 0.0000 29.8677 0.0000
# 6 0.0000 0.0000 0.0000 2.2545 0.0000 10.5625
#
#
#
# Elastic Compliance Matrix: (Units=1/GPa)
#
#
# Indices 1 2 3 4 5 6 
#
# 1 0.009816 -0.003704 -0.002276 0.000000 0.001463 0.000000
# 2 -0.003704 0.015066 -0.001521 0.000000 0.000458 0.000000
# 3 -0.002276 -0.001521 0.013581 0.000000 -0.003725 0.000000
# 4 0.000000 0.000000 0.000000 0.079603 0.000000 -0.016991
# 5 0.001463 0.000458 -0.003725 0.000000 0.034589 0.000000
# 6 0.000000 0.000000 0.000000 -0.016991 0.000000 0.098302
#
#
# Mechanical properties :
#
#
# Convention : Reuss Voigt Hill
#
# Bulk Modulus (GPa) = 42.62571 45.83325 44.22948
# Shear Modulus (GPa) = 18.26292 24.56941 21.41617
#
# Velocity S-wave (km/s) = 3.21718 3.73153 3.48386
# Velocity P-wave (km/s) = 6.16099 6.67391 6.42257
#
# Compressibility (1/GPa) = 0.02346002
#
# Stress axis : x y z
#
# Youngs Moduli (GPa) = 101.87490 66.37536 73.63448
#
# Poissons Ratio (x) = 0.24588 0.16758
# Poissons Ratio (y) = 0.37738 0.11200
# Poissons Ratio (z) = 0.23185 0.10095
#
# Static dielectric constant tensor:
#      x y z
#    x 3.458100 0.000000 -0.045570 
#    y 0.000000 2.924320 0.000000 
#    z -0.045570 0.000000 3.628740 
# 
# 
# High freq. dielectric constant tensor:
#      x y z
#    x 1.693090 0.000000 -0.000320 
#    y 0.000000 1.616500 0.000000 
#    z -0.000320 0.000000 1.705930 
# 
# From -- ./inp_files/13786.got.cif
#   From: 2010.06.25/outbox.cif.g09.slc.cpg/sg11_7_cif.got.tgz:13786.got - 2010.06.27 23:14:04.
