data_PCOD8068102
_publ_section_title
;
Structure prediction by ZEFSAII (Michael W. Deem and Ramdas Pophale) SiO2 
 PCOD8068102
Probable space group: P 2/M
;
_chemical_formula_sum "Si O2"
_cell_formula_units_Z 28
_cell_length_a 30.000000
_cell_length_b 9.000000
_cell_length_c 30.000000
_cell_angle_alpha 90.000000
_cell_angle_beta 10.000000
_cell_angle_gamma 90.000000
_cell_volume 1406.550239
_symmetry_space_group_name_H-M "P 2/M"
_symmetry_group_IT_number 10
_symmetry_cell_setting 'monoclinic'
loop_
_space_group_symop_operation_xyz
x,y,z
-x,y,-z
-x,-y,-z
x,-y,z
loop_
_atom_site_type_symbol
_atom_site_label
_atom_site_fract_x
_atom_site_fract_y
_atom_site_fract_z
Si Si1 0.407531 0.175778 0.391344
Si Si2 0.643294 0.832431 0.742633
Si Si3 0.887520 0.324572 0.871579
Si Si4 0.978987 0.177483 0.970489
Si Si5 0.116189 0.831207 0.214449
Si Si6 0.544565 0.825481 0.553078
Si Si7 0.738142 0.324530 0.738144
O O1 0.424849 0.213159 0.425893
O O2 0.135673 0.235338 0.643029
O O3 0.429062 0.000000 0.360080
O O4 0.636984 0.263244 0.142513
O O5 0.839121 0.804952 0.509313
O O6 0.716276 0.716383 0.708375
O O7 0.675662 0.000000 0.728825
O O8 0.349692 0.802884 0.018283
O O9 0.917846 0.500000 0.850082
O O10 0.852497 0.291911 0.854144
O O11 0.217314 0.244405 0.708262
O O12 0.978408 0.000000 0.968538
O O13 0.719662 0.244129 0.204756
O O14 0.000000 0.234688 0.000000
O O15 0.133781 0.000000 0.178120
O O16 0.540019 0.000000 0.549073
O O17 0.739903 0.500000 0.741107
O O18 0.000000 0.256112 0.500000
O O19 0.500000 0.255454 0.000000
#
# Coordination Sequence:
#
# PCOD8068102 Si02
#       7
#     4   4   4   4   4   4   4
#     4  11  22  39  61  83 115 158 197 236 288 351
#     4  10  21  36  57  83 109 141 184 230 273 328
#     4  12  25  40  60  89 119 149 194 246 294 345
#     4   9  15  24  40  67 106 143 174 221 283 336
#     4  10  21  38  58  82 112 147 186 227 282 345
#     4   9  17  28  45  71 102 142 187 223 271 342
#     4  10  21  36  54  78 109 145 182 221 271 329
#
# _framework density 19.906860999999999
#
# number of rings (size 3 to 8) (size 9 to 14) (size 15 to 20)
#    0.000    1.857    0.000    4.714    0.000    6.857 
#    0.000    0.000    0.000    0.000    0.000    0.000 
#    0.000   40.000    0.000    0.000    0.000    0.000 
#
# Total GULP energy -347234.500878 kJ/mol
# GULP energy per Si atom -12401.232174 kJ/mol
# Density = 1.986155 g / cm^3
# Si number density = 19.906861 Si / 1000 Ang^3
#
#
#
# Elastic Constant Matrix: (Units=GPa)
#
#
# Indices 1 2 3 4 5 6 
#
# 1 89.0114 25.6966 42.1836 0.0000 -3.9249 0.0000
# 2 25.6966 41.0388 10.3085 0.0000 3.5301 0.0000
# 3 42.1836 10.3085 137.4075 0.0000 -2.2130 0.0000
# 4 0.0000 0.0000 0.0000 18.1717 0.0000 0.4554
# 5 -3.9249 3.5301 -2.2130 0.0000 34.7221 0.0000
# 6 0.0000 0.0000 0.0000 0.4554 0.0000 0.1224
#
#
#
# Elastic Compliance Matrix: (Units=1/GPa)
#
#
# Indices 1 2 3 4 5 6 
#
# 1 0.015967 -0.009161 -0.004175 0.000000 0.002470 0.000000
# 2 -0.009161 0.030337 0.000471 0.000000 -0.004090 0.000000
# 3 -0.004175 0.000471 0.008524 0.000000 0.000024 0.000000
# 4 0.000000 0.000000 0.000000 0.060692 0.000000 -0.225885
# 5 0.002470 -0.004090 0.000024 0.000000 0.029497 0.000000
# 6 0.000000 0.000000 0.000000 -0.225885 0.000000 9.012865
#
#
# Mechanical properties :
#
#
# Convention : Reuss Voigt Hill
#
# Bulk Modulus (GPa) = 34.36722 47.09280 40.73001
# Shear Modulus (GPa) = 0.54387 23.22116 11.88252
#
# Velocity S-wave (km/s) = 0.52326 3.41910 2.44582
# Velocity P-wave (km/s) = 4.20316 6.26856 5.33673
#
# Compressibility (1/GPa) = 0.02909750
#
# Stress axis : x y z
#
# Youngs Moduli (GPa) = 62.63055 32.96276 117.31196
#
# Poissons Ratio (x) = 0.30199 0.48973
# Poissons Ratio (y) = 0.57379 -0.05522
# Poissons Ratio (z) = 0.26146 -0.01552
#
# Static dielectric constant tensor:
#      x y z
#    x 3.541550 0.000000 -0.033870 
#    y 0.000000 3.291140 0.000000 
#    z -0.033870 0.000000 4.103330 
# 
# 
# High freq. dielectric constant tensor:
#      x y z
#    x 1.777390 0.000000 -0.002810 
#    y 0.000000 1.736170 0.000000 
#    z -0.002810 0.000000 1.805210 
# 
# From -- ./inp_files/13592.got.cif
#   From: 2010.06.25/outbox.ucp.g09.slc.cvg/sg10_7_cif.got.tgz:13592.got - 2010.06.28 13:37:52.
