data_PCOD8068970
_publ_section_title
;
Structure prediction by ZEFSAII (Michael W. Deem and Ramdas Pophale) SiO2 
 PCOD8068970
Probable space group: P 21/M
;
_chemical_formula_sum "Si O2"
_cell_formula_units_Z 32
_cell_length_a 21.395320
_cell_length_b 8.707519
_cell_length_c 12.003761
_cell_angle_alpha 90.000000
_cell_angle_beta 51.119877
_cell_angle_gamma 90.000000
_cell_volume 1740.874209
_symmetry_space_group_name_H-M "P 21/M"
_symmetry_group_IT_number 11
_symmetry_cell_setting 'monoclinic'
loop_
_space_group_symop_operation_xyz
x,y,z
-x,1/2+y,-z
-x,-y,-z
x,1/2-y,z
loop_
_atom_site_type_symbol
_atom_site_label
_atom_site_fract_x
_atom_site_fract_y
_atom_site_fract_z
Si Si1 0.632552 0.570843 0.042159
Si Si2 0.328490 0.428304 0.587195
Si Si3 0.899320 0.072538 0.026342
Si Si4 0.218913 0.926447 0.531256
Si Si5 0.534436 0.928974 0.736531
Si Si6 0.726515 0.428144 0.130979
Si Si7 0.353153 0.927933 0.211933
Si Si8 0.927644 0.926372 0.227531
O O1 0.635040 0.750000 0.013174
O O2 0.546391 0.524833 0.188020
O O3 0.700318 0.528656 0.055387
O O4 0.651439 0.478214 0.909558
O O5 0.322510 0.250000 0.624182
O O6 0.254621 0.472176 0.590945
O O7 0.411107 0.467783 0.431313
O O8 0.325724 0.526083 0.702891
O O9 0.900414 0.250000 0.064658
O O10 0.820423 0.035676 0.043445
O O11 0.900597 0.965624 0.132525
O O12 0.977752 0.036743 0.862734
O O13 0.226717 0.750000 0.557778
O O14 0.265733 0.958779 0.364071
O O15 0.125344 0.975032 0.625077
O O16 0.513634 0.750000 0.767301
O O17 0.578861 0.975934 0.800588
O O18 0.710914 0.250000 0.123163
O O19 0.377094 0.750000 0.193273
O O20 0.909384 0.750000 0.271811
#
# Coordination Sequence:
#
# PCOD8068970 Si02
#       8
#     4   4   4   4   4   4   4   4
#     4  12  25  39  56  78 105 140 184 225 268 321
#     4  10  20  34  54  81 109 140 178 219 265 316
#     4   9  19  33  50  77 110 145 178 214 263 317
#     4  10  19  32  53  81 111 142 175 217 268 320
#     4  10  21  38  59  82 109 138 175 224 273 318
#     4  11  22  37  56  76 109 148 181 218 265 322
#     4  10  21  38  59  81 107 139 179 225 272 316
#     4  10  18  29  51  81 112 141 175 218 262 313
#
# _framework density 18.381568999999999
#
# number of rings (size 3 to 8) (size 9 to 14) (size 15 to 20)
#    0.000    1.750    1.250    3.750    0.000    4.500 
#    0.000    0.000    0.000    0.750    0.000    0.000 
#    0.000    0.000    0.000    0.000    0.000    0.000 
#
# Total GULP energy -396890.967080 kJ/mol
# GULP energy per Si atom -12402.842721 kJ/mol
# Density = 1.833973 g / cm^3
# Si number density = 18.381569 Si / 1000 Ang^3
#
#
#
# Elastic Constant Matrix: (Units=GPa)
#
#
# Indices 1 2 3 4 5 6 
#
# 1 80.8333 15.5222 41.8386 0.0000 -9.9590 0.0000
# 2 15.5222 52.5069 18.2383 0.0000 -11.7061 0.0000
# 3 41.8386 18.2383 64.3865 0.0000 -21.4996 0.0000
# 4 0.0000 0.0000 0.0000 31.2942 0.0000 -0.3508
# 5 -9.9590 -11.7061 -21.4996 0.0000 26.0095 0.0000
# 6 0.0000 0.0000 0.0000 -0.3508 0.0000 26.8832
#
#
#
# Elastic Compliance Matrix: (Units=1/GPa)
#
#
# Indices 1 2 3 4 5 6 
#
# 1 0.019130 -0.002039 -0.013417 0.000000 -0.004684 0.000000
# 2 -0.002039 0.022116 -0.002592 0.000000 0.007030 0.000000
# 3 -0.013417 -0.002592 0.031602 0.000000 0.019818 0.000000
# 4 0.000000 0.000000 0.000000 0.031959 0.000000 0.000417
# 5 -0.004684 0.007030 0.019818 0.000000 0.056200 0.000000
# 6 0.000000 0.000000 0.000000 0.000417 0.000000 0.037203
#
#
# Mechanical properties :
#
#
# Convention : Reuss Voigt Hill
#
# Bulk Modulus (GPa) = 27.21037 38.76944 32.98990
# Shear Modulus (GPa) = 20.27926 24.97921 22.62924
#
# Velocity S-wave (km/s) = 3.32511 3.69036 3.51249
# Velocity P-wave (km/s) = 5.43847 6.26862 5.86825
#
# Compressibility (1/GPa) = 0.03675069
#
# Stress axis : x y z
#
# Youngs Moduli (GPa) = 52.27302 45.21700 31.64399
#
# Poissons Ratio (x) = 0.09220 0.42458
# Poissons Ratio (y) = 0.10658 0.08202
# Poissons Ratio (z) = 0.70136 0.11721
#
# Static dielectric constant tensor:
#      x y z
#    x 3.200420 0.000000 -0.281230 
#    y 0.000000 3.479770 0.000000 
#    z -0.281230 0.000000 3.573930 
# 
# 
# High freq. dielectric constant tensor:
#      x y z
#    x 1.684150 0.000000 -0.021460 
#    y 0.000000 1.726880 0.000000 
#    z -0.021460 0.000000 1.717670 
# 
# From -- ./inp_files/42770.got.cif
#   From: 2010.06.25/outbox.cif.g09.slc.cpg/sg11_22_cif.got.tgz:42770.got - 2010.06.27 23:14:04.
