data_PCOD8068269
_publ_section_title
;
Structure prediction by ZEFSAII (Michael W. Deem and Ramdas Pophale) SiO2 
 PCOD8068269
Probable space group: P 21/M
;
_chemical_formula_sum "Si O2"
_cell_formula_units_Z 32
_cell_length_a 12.037445
_cell_length_b 8.550630
_cell_length_c 20.583482
_cell_angle_alpha 90.000000
_cell_angle_beta 114.875765
_cell_angle_gamma 90.000000
_cell_volume 1922.050784
_symmetry_space_group_name_H-M "P 21/M"
_symmetry_group_IT_number 11
_symmetry_cell_setting 'monoclinic'
loop_
_space_group_symop_operation_xyz
x,y,z
-x,1/2+y,-z
-x,-y,-z
x,1/2-y,z
loop_
_atom_site_type_symbol
_atom_site_label
_atom_site_fract_x
_atom_site_fract_y
_atom_site_fract_z
Si Si1 0.086879 0.930761 0.607404
Si Si2 0.817867 0.569017 0.493654
Si Si3 0.056397 0.433512 0.733648
Si Si4 0.208074 0.432972 0.304148
Si Si5 0.088866 0.066130 0.880265
Si Si6 0.814402 0.066180 0.832541
Si Si7 0.136118 0.434588 0.027976
Si Si8 0.633059 0.066709 0.544800
O O1 0.113051 0.750000 0.601264
O O2 0.945622 0.973446 0.559753
O O3 0.173713 0.028712 0.580635
O O4 0.117908 0.975118 0.689121
O O5 0.784418 0.750000 0.494453
O O6 0.714015 0.464213 0.500777
O O7 0.069731 0.250000 0.723721
O O8 0.129773 0.487787 0.817804
O O9 0.913234 0.471484 0.706542
O O10 0.178816 0.250000 0.300697
O O11 0.257237 0.481865 0.244213
O O12 0.313775 0.475460 0.380411
O O13 0.073348 0.250000 0.874299
O O14 0.952696 0.001871 0.859697
O O15 0.177449 0.020679 0.963163
O O16 0.795685 0.250000 0.821386
O O17 0.774107 0.011543 0.895644
O O18 0.136070 0.250000 0.038017
O O19 0.000000 0.500000 0.000000
O O20 0.628260 0.250000 0.558376
O O21 0.500000 0.000000 0.500000
#
# Coordination Sequence:
#
# PCOD8068269 Si02
#       8
#     4   4   4   4   4   4   4   4
#     4  10  19  30  47  69  94 120 151 190 231 274
#     4  10  20  34  50  69  92 117 151 189 231 277
#     4  10  17  27  43  63  88 119 150 186 228 268
#     4  11  20  31  45  64  86 112 149 188 227 273
#     4   7  13  22  33  51  77 108 143 177 214 259
#     4   9  16  26  38  54  76 106 143 183 223 262
#     4   9  14  22  34  50  74 106 143 181 217 259
#     4  12  24  38  54  70  92 120 151 190 234 278
#
# _framework density 16.648883999999999
#
# number of rings (size 3 to 8) (size 9 to 14) (size 15 to 20)
#    0.000    2.250    1.250    5.625    0.000    1.000 
#    0.000    1.875    0.000    0.000    0.000    0.000 
#    0.000    0.000    0.000    1.125    0.000   14.375 
#
# Total GULP energy -396486.624477 kJ/mol
# GULP energy per Si atom -12390.207015 kJ/mol
# Density = 1.661099 g / cm^3
# Si number density = 16.648884 Si / 1000 Ang^3
#
#
#
# Elastic Constant Matrix: (Units=GPa)
#
#
# Indices 1 2 3 4 5 6 
#
# 1 39.7776 15.9109 37.4667 0.0000 -11.3850 0.0000
# 2 15.9109 63.9743 19.2121 0.0000 -6.9350 0.0000
# 3 37.4667 19.2121 123.4007 0.0000 -36.9801 0.0000
# 4 0.0000 0.0000 0.0000 27.9460 0.0000 -6.7352
# 5 -11.3850 -6.9350 -36.9801 0.0000 22.0223 0.0000
# 6 0.0000 0.0000 0.0000 -6.7352 0.0000 17.9470
#
#
#
# Elastic Compliance Matrix: (Units=1/GPa)
#
#
# Indices 1 2 3 4 5 6 
#
# 1 0.037402 -0.006183 -0.010432 0.000000 -0.000128 0.000000
# 2 -0.006183 0.017454 -0.000304 0.000000 0.001790 0.000000
# 3 -0.010432 -0.000304 0.019472 0.000000 0.027209 0.000000
# 4 0.000000 0.000000 0.000000 0.039342 0.000000 0.014764
# 5 -0.000128 0.001790 0.027209 0.000000 0.091596 0.000000
# 6 0.000000 0.000000 0.000000 0.014764 0.000000 0.061261
#
#
# Mechanical properties :
#
#
# Convention : Reuss Voigt Hill
#
# Bulk Modulus (GPa) = 24.69676 41.37022 33.03349
# Shear Modulus (GPa) = 15.93059 23.88724 19.90891
#
# Velocity S-wave (km/s) = 3.09667 3.79194 3.46180
# Velocity P-wave (km/s) = 5.25850 6.63885 5.98858
#
# Compressibility (1/GPa) = 0.04049115
#
# Stress axis : x y z
#
# Youngs Moduli (GPa) = 26.73649 57.29229 51.35520
#
# Poissons Ratio (x) = 0.35426 0.53573
# Poissons Ratio (y) = 0.16532 0.01559
# Poissons Ratio (z) = 0.27891 0.01740
#
# Static dielectric constant tensor:
#      x y z
#    x 2.655590 0.000000 -0.525680 
#    y 0.000000 3.135570 0.000000 
#    z -0.525680 0.000000 3.718320 
# 
# 
# High freq. dielectric constant tensor:
#      x y z
#    x 1.563630 0.000000 -0.047270 
#    y 0.000000 1.651150 0.000000 
#    z -0.047270 0.000000 1.654430 
# 
# From -- ./inp_files/64213.got.cif
#   From: 2010.06.25/outbox.cif.g09.slc.cpg/sg11_33_cif.got.tgz:64213.got - 2010.06.27 23:14:04.
