data_PCOD8068032
_publ_section_title
;
Structure prediction by ZEFSAII (Michael W. Deem and Ramdas Pophale) SiO2 
 PCOD8068032
Probable space group: P 2/M
;
_chemical_formula_sum "Si O2"
_cell_formula_units_Z 28
_cell_length_a 14.207523
_cell_length_b 9.363344
_cell_length_c 28.525614
_cell_angle_alpha 90.000000
_cell_angle_beta 28.896699
_cell_angle_gamma 90.000000
_cell_volume 1833.749396
_symmetry_space_group_name_H-M "P 2/M"
_symmetry_group_IT_number 10
_symmetry_cell_setting 'monoclinic'
loop_
_space_group_symop_operation_xyz
x,y,z
-x,y,-z
-x,-y,-z
x,-y,z
loop_
_atom_site_type_symbol
_atom_site_label
_atom_site_fract_x
_atom_site_fract_y
_atom_site_fract_z
Si Si1 0.769712 0.161593 0.593870
Si Si2 0.439335 0.663918 0.129061
Si Si3 0.701570 0.330097 0.432810
Si Si4 0.085917 0.666097 0.214398
Si Si5 0.678967 0.161593 0.957451
Si Si6 0.184971 0.333903 0.514713
Si Si7 0.734149 0.336082 0.697456
O O1 0.712835 0.244940 0.571343
O O2 0.669865 0.237854 0.681949
O O3 0.000000 0.167519 0.500000
O O4 0.692537 0.000000 0.624264
O O5 0.501945 0.500000 0.094994
O O6 0.239775 0.693709 0.188564
O O7 0.405889 0.701072 0.198037
O O8 0.614423 0.762146 0.033763
O O9 0.500000 0.269327 0.500000
O O10 0.705289 0.500000 0.431570
O O11 0.726157 0.276201 0.475339
O O12 0.878330 0.276200 0.323166
O O13 0.078852 0.500000 0.203598
O O14 0.139700 0.755060 0.144478
O O15 0.742135 0.000000 0.941064
O O16 0.500000 0.167519 0.000000
O O17 0.231503 0.500000 0.486047
O O18 0.954759 0.306290 0.616903
O O19 0.711131 0.500000 0.691931
#
# Coordination Sequence:
#
# PCOD8068032 Si02
#       7
#     4   4   4   4   4   4   4
#     4   9  17  26  36  54  78 105 135 165 200 240
#     4   9  15  24  39  58  79 105 136 165 196 239
#     4   9  16  26  43  65  83 103 139 181 210 233
#     4   9  15  26  41  56  77 106 137 168 202 237
#     4   9  17  26  36  54  78 105 135 165 200 240
#     4   9  15  26  41  56  77 106 137 168 202 237
#     4   9  15  24  39  58  79 105 136 165 196 239
#
# _framework density 15.269261999999999
#
# number of rings (size 3 to 8) (size 9 to 14) (size 15 to 20)
#    0.000    3.000    1.429    0.857    0.000    4.000 
#    0.000    0.714    0.000    1.714    0.000    0.000 
#    0.000    1.143    0.000   13.143    0.000    3.714 
#
# Total GULP energy -347139.186335 kJ/mol
# GULP energy per Si atom -12397.828083 kJ/mol
# Density = 1.523451 g / cm^3
# Si number density = 15.269262 Si / 1000 Ang^3
#
#
#
# Elastic Constant Matrix: (Units=GPa)
#
#
# Indices 1 2 3 4 5 6 
#
# 1 73.3986 43.3291 54.6290 0.0000 21.8210 0.0000
# 2 43.3291 84.6615 55.3626 0.0000 21.6749 0.0000
# 3 54.6290 55.3626 100.5626 0.0000 27.1091 0.0000
# 4 0.0000 0.0000 0.0000 10.7108 0.0000 2.8058
# 5 21.8210 21.6749 27.1091 0.0000 24.9668 0.0000
# 6 0.0000 0.0000 0.0000 2.8058 0.0000 9.1529
#
#
#
# Elastic Compliance Matrix: (Units=1/GPa)
#
#
# Indices 1 2 3 4 5 6 
#
# 1 0.025827 -0.005277 -0.008872 0.000000 -0.008359 0.000000
# 2 -0.005277 0.020457 -0.006859 0.000000 -0.005700 0.000000
# 3 -0.008872 -0.006859 0.020987 0.000000 -0.009079 0.000000
# 4 0.000000 0.000000 0.000000 0.101516 0.000000 -0.031120
# 5 -0.008359 -0.005700 -0.009079 0.000000 0.062166 0.000000
# 6 0.000000 0.000000 0.000000 -0.031120 0.000000 0.118795
#
#
# Mechanical properties :
#
#
# Convention : Reuss Voigt Hill
#
# Bulk Modulus (GPa) = 39.59401 62.80713 51.20057
# Shear Modulus (GPa) = 12.49429 15.98624 14.24027
#
# Velocity S-wave (km/s) = 2.86363 3.23918 3.05718
# Velocity P-wave (km/s) = 6.07624 7.43048 6.78722
#
# Compressibility (1/GPa) = 0.02525635
#
# Stress axis : x y z
#
# Youngs Moduli (GPa) = 38.71842 48.88302 47.64775
#
# Poissons Ratio (x) = 0.25793 0.42274
# Poissons Ratio (y) = 0.20430 0.32682
# Poissons Ratio (z) = 0.34351 0.33529
#
# Static dielectric constant tensor:
#      x y z
#    x 2.733770 0.000000 0.282760 
#    y 0.000000 2.889690 0.000000 
#    z 0.282760 0.000000 2.890750 
# 
# 
# High freq. dielectric constant tensor:
#      x y z
#    x 1.546740 0.000000 0.038350 
#    y 0.000000 1.575220 0.000000 
#    z 0.038350 0.000000 1.568030 
# 
# From -- ./inp_files/54966.got.cif
#   From: 2010.06.25/outbox.cif.g09.slc.cpg/sg10_28_cif.got.tgz:54966.got - 2010.06.27 22:07:45.
