data_PCOD8068251
_publ_section_title
;
Structure prediction by ZEFSAII (Michael W. Deem and Ramdas Pophale) SiO2 
 PCOD8068251
Probable space group: P 21/M
;
_chemical_formula_sum "Si O2"
_cell_formula_units_Z 32
_cell_length_a 31.203539
_cell_length_b 8.935276
_cell_length_c 20.391605
_cell_angle_alpha 90.000000
_cell_angle_beta 158.581392
_cell_angle_gamma 90.000000
_cell_volume 2076.200074
_symmetry_space_group_name_H-M "P 21/M"
_symmetry_group_IT_number 11
_symmetry_cell_setting 'monoclinic'
loop_
_space_group_symop_operation_xyz
x,y,z
-x,1/2+y,-z
-x,-y,-z
x,1/2-y,z
loop_
_atom_site_type_symbol
_atom_site_label
_atom_site_fract_x
_atom_site_fract_y
_atom_site_fract_z
Si Si1 0.062970 0.927244 0.240657
Si Si2 0.807170 0.924492 0.835291
Si Si3 0.883014 0.925536 0.806952
Si Si4 0.374221 0.073509 0.318783
Si Si5 0.947006 0.577014 0.640325
Si Si6 0.782346 0.080348 0.005799
Si Si7 0.096316 0.579750 0.547180
Si Si8 0.867645 0.079035 0.262123
O O1 0.073075 0.750000 0.252136
O O2 0.931784 0.989159 0.038256
O O3 0.150627 0.996559 0.310030
O O4 0.101019 0.985732 0.365902
O O5 0.812638 0.750000 0.857873
O O6 0.787535 0.954674 0.729241
O O7 0.700281 0.991764 0.725462
O O8 0.902527 0.750000 0.823776
O O9 0.000000 0.000000 0.000000
O O10 0.390070 0.250000 0.344905
O O11 0.500000 0.000000 0.500000
O O12 0.306927 0.031719 0.156208
O O13 0.922755 0.750000 0.618070
O O14 0.872130 0.524567 0.469872
O O15 0.083969 0.541582 0.823697
O O16 0.751531 0.250000 0.941223
O O17 0.767606 0.058575 0.063763
O O18 0.100663 0.750000 0.528587
O O19 0.180628 0.555932 0.731743
O O20 0.966957 0.542963 0.389503
O O21 0.918056 0.250000 0.326913
#
# Coordination Sequence:
#
# PCOD8068251 Si02
#       8
#     4   4   4   4   4   4   4   4
#     4  10  17  27  41  60  81 106 136 168 201 243
#     4   8  16  29  43  56  76 101 131 167 206 246
#     4   9  16  27  41  59  78 102 131 165 203 243
#     4  11  21  33  45  60  79 104 137 176 214 249
#     4  10  18  26  38  57  82 109 137 169 200 238
#     4   9  17  29  42  57  75 101 135 172 209 243
#     4   9  15  23  36  54  76 104 133 164 198 235
#     4   8  15  26  38  53  75 100 132 167 200 239
#
# _framework density 15.412773
#
# number of rings (size 3 to 8) (size 9 to 14) (size 15 to 20)
#    0.000    2.750    1.250    3.375    0.000    2.500 
#    0.000    1.875    0.000    0.000    0.000    0.000 
#    0.000    0.000    0.000    1.125    0.000   12.500 
#
# Total GULP energy -396442.299175 kJ/mol
# GULP energy per Si atom -12388.821849 kJ/mol
# Density = 1.537769 g / cm^3
# Si number density = 15.412773 Si / 1000 Ang^3
#
#
#
# Elastic Constant Matrix: (Units=GPa)
#
#
# Indices 1 2 3 4 5 6 
#
# 1 139.2735 45.9002 37.3382 0.0000 -23.4214 0.0000
# 2 45.9002 71.6189 19.7409 0.0000 -8.3701 0.0000
# 3 37.3382 19.7409 33.5674 0.0000 -5.3311 0.0000
# 4 0.0000 0.0000 0.0000 14.4974 0.0000 -5.3970
# 5 -23.4214 -8.3701 -5.3311 0.0000 16.9649 0.0000
# 6 0.0000 0.0000 0.0000 -5.3970 0.0000 27.9191
#
#
#
# Elastic Compliance Matrix: (Units=1/GPa)
#
#
# Indices 1 2 3 4 5 6 
#
# 1 0.013691 -0.004288 -0.010569 0.000000 0.013465 0.000000
# 2 -0.004288 0.018493 -0.005891 0.000000 0.001353 0.000000
# 3 -0.010569 -0.005891 0.044451 0.000000 -0.003530 0.000000
# 4 0.000000 0.000000 0.000000 0.074327 0.000000 0.014368
# 5 0.013465 0.001353 -0.003530 0.000000 0.077093 0.000000
# 6 0.000000 0.000000 0.000000 0.014368 0.000000 0.038595
#
#
# Mechanical properties :
#
#
# Convention : Reuss Voigt Hill
#
# Bulk Modulus (GPa) = 28.45842 50.04649 39.25246
# Shear Modulus (GPa) = 15.63188 21.30832 18.47010
#
# Velocity S-wave (km/s) = 3.18813 3.72225 3.46549
# Velocity P-wave (km/s) = 5.66185 7.14246 6.44481
#
# Compressibility (1/GPa) = 0.03513899
#
# Stress axis : x y z
#
# Youngs Moduli (GPa) = 73.04053 54.07528 22.49658
#
# Poissons Ratio (x) = 0.23186 0.23777
# Poissons Ratio (y) = 0.31317 0.13254
# Poissons Ratio (z) = 0.77196 0.31858
#
# Static dielectric constant tensor:
#      x y z
#    x 3.492220 0.000000 -0.243830 
#    y 0.000000 2.985360 0.000000 
#    z -0.243830 0.000000 2.479430 
# 
# 
# High freq. dielectric constant tensor:
#      x y z
#    x 1.607430 0.000000 -0.031820 
#    y 0.000000 1.598390 0.000000 
#    z -0.031820 0.000000 1.507070 
# 
# From -- ./inp_files/64257.got.cif
#   From: 2010.06.25/outbox.cif.g09.slc.cpg/sg11_33_cif.got.tgz:64257.got - 2010.06.27 23:14:04.
