data_PCOD8068279
_publ_section_title
;
Structure prediction by ZEFSAII (Michael W. Deem and Ramdas Pophale) SiO2 
 PCOD8068279
Probable space group: P 21/M
;
_chemical_formula_sum "Si O2"
_cell_formula_units_Z 24
_cell_length_a 12.012294
_cell_length_b 8.762275
_cell_length_c 21.732012
_cell_angle_alpha 90.000000
_cell_angle_beta 38.506155
_cell_angle_gamma 90.000000
_cell_volume 1424.134414
_symmetry_space_group_name_H-M "P 21/M"
_symmetry_group_IT_number 11
_symmetry_cell_setting 'monoclinic'
loop_
_space_group_symop_operation_xyz
x,y,z
-x,1/2+y,-z
-x,-y,-z
x,1/2-y,z
loop_
_atom_site_type_symbol
_atom_site_label
_atom_site_fract_x
_atom_site_fract_y
_atom_site_fract_z
Si Si1 0.066346 0.069853 0.180631
Si Si2 0.701643 0.573137 0.348436
Si Si3 0.229061 0.930301 0.233934
Si Si4 0.335640 0.426670 0.491858
Si Si5 0.987121 0.069759 0.438675
Si Si6 0.578464 0.574037 0.025451
O O1 0.037882 0.250000 0.201712
O O2 0.132540 0.000406 0.216314
O O3 0.209874 0.031732 0.063195
O O4 0.881498 0.992466 0.240044
O O5 0.680087 0.750000 0.341734
O O6 0.535598 0.483015 0.390973
O O7 0.712009 0.544036 0.416682
O O8 0.189016 0.750000 0.252030
O O9 0.445099 0.966769 0.139880
O O10 0.153001 0.005498 0.328024
O O11 0.317928 0.250000 0.481756
O O12 0.200963 0.524671 0.509688
O O13 0.002119 0.250000 0.435859
O O14 0.000000 0.000000 0.500000
O O15 0.562650 0.750000 0.018864
O O16 0.500000 0.500000 0.000000
#
# Coordination Sequence:
#
# PCOD8068279 Si02
#       6
#     4   4   4   4   4   4
#     4  10  17  27  45  71 100 132 164 196 241 293
#     4  10  19  30  48  72 101 133 163 199 246 294
#     4  10  18  31  47  67  97 130 164 204 245 287
#     4  10  20  34  50  70  98 129 165 204 246 292
#     4  12  24  37  53  72  97 130 169 207 246 291
#     4   8  16  27  42  65  95 128 161 196 238 289
#
# _framework density 16.852342
#
# number of rings (size 3 to 8) (size 9 to 14) (size 15 to 20)
#    0.000    2.000    1.667    3.500    0.000    2.667 
#    0.000    0.000    0.000    0.000    0.000    1.167 
#    0.000    0.000    0.000    0.000    0.000    0.000 
#
# Total GULP energy -297418.591583 kJ/mol
# GULP energy per Si atom -12392.441316 kJ/mol
# Density = 1.681399 g / cm^3
# Si number density = 16.852342 Si / 1000 Ang^3
#
#
#
# Elastic Constant Matrix: (Units=GPa)
#
#
# Indices 1 2 3 4 5 6 
#
# 1 39.0930 14.3425 43.3774 0.0000 -10.2425 0.0000
# 2 14.3425 56.1684 33.3802 0.0000 -10.0035 0.0000
# 3 43.3774 33.3802 138.5472 0.0000 -30.1382 0.0000
# 4 0.0000 0.0000 0.0000 25.3505 0.0000 -4.9527
# 5 -10.2425 -10.0035 -30.1382 0.0000 27.0879 0.0000
# 6 0.0000 0.0000 0.0000 -4.9527 0.0000 24.9327
#
#
#
# Elastic Compliance Matrix: (Units=1/GPa)
#
#
# Indices 1 2 3 4 5 6 
#
# 1 0.039713 -0.003146 -0.011428 0.000000 0.001140 0.000000
# 2 -0.003146 0.021187 -0.003531 0.000000 0.002706 0.000000
# 3 -0.011428 -0.003531 0.013751 0.000000 0.009674 0.000000
# 4 0.000000 0.000000 0.000000 0.041040 0.000000 0.008152
# 5 0.001140 0.002706 0.009674 0.000000 0.049111 0.000000
# 6 0.000000 0.000000 0.000000 0.008152 0.000000 0.041727
#
#
# Mechanical properties :
#
#
# Convention : Reuss Voigt Hill
#
# Bulk Modulus (GPa) = 26.01361 46.22318 36.11840
# Shear Modulus (GPa) = 19.56544 24.98811 22.27678
#
# Velocity S-wave (km/s) = 3.41103 3.85485 3.63971
# Velocity P-wave (km/s) = 5.56626 6.87758 6.25637
#
# Compressibility (1/GPa) = 0.03844141
#
# Stress axis : x y z
#
# Youngs Moduli (GPa) = 25.18064 47.19791 72.72332
#
# Poissons Ratio (x) = 0.14850 0.83106
# Poissons Ratio (y) = 0.07923 0.25678
# Poissons Ratio (z) = 0.28776 0.16665
#
# Static dielectric constant tensor:
#      x y z
#    x 2.805440 0.000000 -0.397950 
#    y 0.000000 3.275940 0.000000 
#    z -0.397950 0.000000 3.802260 
# 
# 
# High freq. dielectric constant tensor:
#      x y z
#    x 1.596840 0.000000 -0.036610 
#    y 0.000000 1.669660 0.000000 
#    z -0.036610 0.000000 1.660230 
# 
# From -- ./inp_files/33817.got.cif
#   From: 2010.06.25/outbox.cif.g09.slc.cpg/sg11_17_cif.got.tgz:33817.got - 2010.06.27 23:14:04.
