data_PCOD8068305
_publ_section_title
;
Structure prediction by ZEFSAII (Michael W. Deem and Ramdas Pophale) SiO2 
 PCOD8068305
Probable space group: P 21/M
;
_chemical_formula_sum "Si O2"
_cell_formula_units_Z 28
_cell_length_a 5.333129
_cell_length_b 30.382889
_cell_length_c 8.379855
_cell_angle_alpha 90.000000
_cell_angle_beta 90.683283
_cell_angle_gamma 90.000000
_cell_volume 1357.740512
_symmetry_space_group_name_H-M "P 21/M"
_symmetry_group_IT_number 11
_symmetry_cell_setting 'monoclinic'
loop_
_space_group_symop_operation_xyz
x,y,z
-x,1/2+y,-z
-x,-y,-z
x,1/2-y,z
loop_
_atom_site_type_symbol
_atom_site_label
_atom_site_fract_x
_atom_site_fract_y
_atom_site_fract_z
Si Si1 0.483058 0.473274 0.341759
Si Si2 0.020272 0.493364 0.813818
Si Si3 0.026005 0.750000 0.472146
Si Si4 0.990806 0.890501 0.260365
Si Si5 0.504005 0.372754 0.392240
Si Si6 0.523828 0.750000 0.278677
Si Si7 0.509442 0.152853 0.759344
Si Si8 0.995639 0.656119 0.603710
O O1 0.500000 0.500000 0.500000
O O2 0.712251 0.485880 0.229052
O O3 0.511386 0.424399 0.405377
O O4 0.212060 0.479999 0.261201
O O5 0.007251 0.443077 0.754169
O O6 0.000000 0.500000 0.000000
O O7 0.812461 0.750000 0.336183
O O8 0.309183 0.750000 0.411427
O O9 0.984018 0.707685 0.578691
O O10 0.239204 0.871235 0.174511
O O11 0.996233 0.874426 0.443718
O O12 0.738274 0.871692 0.174411
O O13 0.503164 0.349106 0.566097
O O14 0.750145 0.355857 0.298784
O O15 0.252072 0.357235 0.298083
O O16 0.487503 0.704044 0.182143
#
# Coordination Sequence:
#
# PCOD8068305 Si02
#       8
#     4   4   2   4   4   2   4   4
#     4  12  23  40  64  89 115 157 206 257 300 361
#     4  12  26  43  61  86 123 162 208 259 314 366
#     4  12  16  26  44  72 120 150 180 216 310 354
#     4  10  18  32  49  70 102 148 187 227 288 342
#     4  10  18  29  46  72 106 139 183 224 287 335
#     4  12  16  28  42  76 116 154 176 220 304 362
#     4  10  18  29  48  77 115 145 181 235 293 353
#     4  10  17  28  45  76 113 147 177 236 289 357
#
# _framework density 20.622498
#
# number of rings (size 3 to 8) (size 9 to 14) (size 15 to 20)
#    0.000    1.143    5.714    6.000    0.000    0.000 
#    0.000    0.000    0.000    0.000    0.000    0.000 
#    0.000   38.857    0.000    0.000    0.000    0.000 
#
# Total GULP energy -346919.370471 kJ/mol
# GULP energy per Si atom -12389.977517 kJ/mol
# Density = 2.057556 g / cm^3
# Si number density = 20.622498 Si / 1000 Ang^3
#
#
#
# Elastic Constant Matrix: (Units=GPa)
#
#
# Indices 1 2 3 4 5 6 
#
# 1 193.8667 44.0712 1.5612 0.0000 -21.5666 0.0000
# 2 44.0712 145.3229 1.0475 0.0000 -4.9343 0.0000
# 3 1.5612 1.0475 34.1532 0.0000 -4.6481 0.0000
# 4 0.0000 0.0000 0.0000 4.6250 0.0000 -3.3305
# 5 -21.5666 -4.9343 -4.6481 0.0000 16.8120 0.0000
# 6 0.0000 0.0000 0.0000 -3.3305 0.0000 36.4457
#
#
#
# Elastic Compliance Matrix: (Units=1/GPa)
#
#
# Indices 1 2 3 4 5 6 
#
# 1 0.006421 -0.001683 0.000844 0.000000 0.007977 0.000000
# 2 -0.001683 0.007392 -0.000154 0.000000 -0.000032 0.000000
# 3 0.000844 -0.000154 0.030536 0.000000 0.009479 0.000000
# 4 0.000000 0.000000 0.000000 0.231448 0.000000 0.021150
# 5 0.007977 -0.000032 0.009479 0.000000 0.072325 0.000000
# 6 0.000000 0.000000 0.000000 0.021150 0.000000 0.029371
#
#
# Mechanical properties :
#
#
# Convention : Reuss Voigt Hill
#
# Bulk Modulus (GPa) = 23.60558 51.85585 37.73072
# Shear Modulus (GPa) = 12.70324 33.35406 23.02865
#
# Velocity S-wave (km/s) = 2.48461 4.02601 3.34530
# Velocity P-wave (km/s) = 4.43874 6.84189 5.76688
#
# Compressibility (1/GPa) = 0.04236286
#
# Stress axis : x y z
#
# Youngs Moduli (GPa) = 155.73314 135.29001 32.74814
#
# Poissons Ratio (x) = 0.22764 -0.02763
# Poissons Ratio (y) = 0.26203 0.00505
# Poissons Ratio (z) = -0.13139 0.02085
#
# Static dielectric constant tensor:
#      x y z
#    x 5.326190 0.000000 -0.265800 
#    y 0.000000 4.028690 0.000000 
#    z -0.265800 0.000000 2.897320 
# 
# 
# High freq. dielectric constant tensor:
#      x y z
#    x 1.855260 0.000000 -0.015170 
#    y 0.000000 1.830440 0.000000 
#    z -0.015170 0.000000 1.707320 
# 
# From -- ./inp_files/10596.got.cif
#   From: 2010.06.25/outbox.cif.g09.slc.cpg/sg11_6_cif.got.tgz:10596.got - 2010.06.27 23:14:04.
