data_PCOD8068095
_publ_section_title
;
Structure prediction by ZEFSAII (Michael W. Deem and Ramdas Pophale) SiO2 
 PCOD8068095
Probable space group: P 2/M
;
_chemical_formula_sum "Si O2"
_cell_formula_units_Z 28
_cell_length_a 15.000000
_cell_length_b 9.000000
_cell_length_c 21.000000
_cell_angle_alpha 90.000000
_cell_angle_beta 150.000000
_cell_angle_gamma 90.000000
_cell_volume 1417.500000
_symmetry_space_group_name_H-M "P 2/M"
_symmetry_group_IT_number 10
_symmetry_cell_setting 'monoclinic'
loop_
_space_group_symop_operation_xyz
x,y,z
-x,y,-z
-x,-y,-z
x,-y,z
loop_
_atom_site_type_symbol
_atom_site_label
_atom_site_fract_x
_atom_site_fract_y
_atom_site_fract_z
Si Si1 0.129883 0.175052 0.271753
Si Si2 0.808245 0.322416 0.564006
Si Si3 0.259382 0.826901 0.019437
Si Si4 0.558182 0.823530 0.106304
Si Si5 0.415143 0.665854 0.360845
Si Si6 0.956880 0.175970 0.399232
Si Si7 0.186065 0.665724 0.094826
O O1 0.084281 0.256618 0.309852
O O2 0.309959 0.237549 0.349101
O O3 0.948371 0.209479 0.121614
O O4 0.157080 0.000000 0.299114
O O5 0.821845 0.500000 0.567560
O O6 0.605688 0.269231 0.455411
O O7 0.891618 0.253844 0.550861
O O8 0.293538 0.000000 0.045298
O O9 0.403174 0.762361 0.057835
O O10 0.297828 0.755788 0.111685
O O11 0.756581 0.770801 0.252984
O O12 0.557884 0.000000 0.105020
O O13 0.500000 0.763846 0.000000
O O14 0.438471 0.500000 0.403904
O O15 0.302244 0.659691 0.228436
O O16 0.000000 0.218191 0.500000
O O17 0.974242 0.000000 0.400511
O O18 0.147276 0.500000 0.044177
O O19 0.000000 0.743947 0.000000
#
# Coordination Sequence:
#
# PCOD8068095 Si02
#       7
#     4   4   4   4   4   4   4
#     4  11  22  37  59  89 119 149 190 240 286 338
#     4  11  24  40  60  83 115 157 195 235 288 348
#     4  10  21  35  58  88 115 148 189 236 289 344
#     4   9  18  36  60  84 115 152 188 235 297 352
#     4  10  22  39  57  82 117 157 195 231 284 347
#     4  10  22  40  62  88 116 150 197 250 297 345
#     4  10  20  36  57  80 113 155 191 232 283 340
#
# _framework density 19.753086
#
# number of rings (size 3 to 8) (size 9 to 14) (size 15 to 20)
#    0.000    1.857    1.429    2.143    2.000    6.857 
#    0.000    0.714    0.000    1.714    0.000    0.000 
#    0.000    0.000    0.000    0.000    0.000    0.000 
#
# Total GULP energy -346995.301273 kJ/mol
# GULP energy per Si atom -12392.689331 kJ/mol
# Density = 1.970813 g / cm^3
# Si number density = 19.753086 Si / 1000 Ang^3
#
#
#
# Elastic Constant Matrix: (Units=GPa)
#
#
# Indices 1 2 3 4 5 6 
#
# 1 193.2621 47.5619 52.8889 0.0000 6.6618 0.0000
# 2 47.5619 55.5429 22.4730 0.0000 2.8586 0.0000
# 3 52.8889 22.4730 96.8963 0.0000 4.8878 0.0000
# 4 0.0000 0.0000 0.0000 31.0349 0.0000 -5.9148
# 5 6.6618 2.8586 4.8878 0.0000 43.3622 0.0000
# 6 0.0000 0.0000 0.0000 -5.9148 0.0000 42.2826
#
#
#
# Elastic Compliance Matrix: (Units=1/GPa)
#
#
# Indices 1 2 3 4 5 6 
#
# 1 0.007170 -0.005013 -0.002728 0.000000 -0.000464 0.000000
# 2 -0.005013 0.023400 -0.002667 0.000000 -0.000472 0.000000
# 3 -0.002728 -0.002667 0.012469 0.000000 -0.000811 0.000000
# 4 0.000000 0.000000 0.000000 0.033104 0.000000 0.004631
# 5 -0.000464 -0.000472 -0.000811 0.000000 0.023255 0.000000
# 6 0.000000 0.000000 0.000000 0.004631 0.000000 0.024298
#
#
# Mechanical properties :
#
#
# Convention : Reuss Voigt Hill
#
# Bulk Modulus (GPa) = 44.99716 65.72767 55.36241
# Shear Modulus (GPa) = 32.91204 38.18777 35.54990
#
# Velocity S-wave (km/s) = 4.08631 4.40165 4.24691
# Velocity P-wave (km/s) = 6.71514 7.69283 7.22055
#
# Compressibility (1/GPa) = 0.02222363
#
# Stress axis : x y z
#
# Youngs Moduli (GPa) = 139.46196 42.73535 80.20024
#
# Poissons Ratio (x) = 0.21421 0.21878
# Poissons Ratio (y) = 0.69905 0.21392
# Poissons Ratio (z) = 0.38044 0.11399
#
# Static dielectric constant tensor:
#      x y z
#    x 3.975900 0.000000 0.201870 
#    y 0.000000 3.557410 0.000000 
#    z 0.201870 0.000000 4.011760 
# 
# 
# High freq. dielectric constant tensor:
#      x y z
#    x 1.798540 0.000000 0.004900 
#    y 0.000000 1.747860 0.000000 
#    z 0.004900 0.000000 1.787670 
# 
# From -- ./inp_files/49064.got.cif
#   From: 2010.06.25/outbox.ucp.g09.slc.cvg/sg10_25_cif.got.tgz:49064.got - 2010.06.28 13:37:52.
