data_PCOD8068278
_publ_section_title
;
Structure prediction by ZEFSAII (Michael W. Deem and Ramdas Pophale) SiO2 
 PCOD8068278
Probable space group: P 21/M
;
_chemical_formula_sum "Si O2"
_cell_formula_units_Z 20
_cell_length_a 28.021885
_cell_length_b 8.879674
_cell_length_c 14.123753
_cell_angle_alpha 90.000000
_cell_angle_beta 21.325092
_cell_angle_gamma 90.000000
_cell_volume 1278.024217
_symmetry_space_group_name_H-M "P 21/M"
_symmetry_group_IT_number 11
_symmetry_cell_setting 'monoclinic'
loop_
_space_group_symop_operation_xyz
x,y,z
-x,1/2+y,-z
-x,-y,-z
x,1/2-y,z
loop_
_atom_site_type_symbol
_atom_site_label
_atom_site_fract_x
_atom_site_fract_y
_atom_site_fract_z
Si Si1 0.300994 0.417385 0.637328
Si Si2 0.415181 0.581805 0.929671
Si Si3 0.517998 0.072600 0.568044
Si Si4 0.138080 0.071947 0.766737
Si Si5 0.368454 0.071629 0.203216
O O1 0.267852 0.250000 0.738139
O O2 0.429549 0.406096 0.331293
O O3 0.336732 0.527616 0.659268
O O4 0.183835 0.479795 0.787775
O O5 0.354383 0.750000 0.033001
O O6 0.405690 0.494684 0.845878
O O7 0.341110 0.488640 0.147589
O O8 0.504215 0.250000 0.586154
O O9 0.500000 0.000000 0.500000
O O10 0.124757 0.250000 0.788664
O O11 0.243825 0.017617 0.494356
O O12 0.000000 0.000000 0.000000
O O13 0.384681 0.250000 0.171151
O O14 0.500000 0.000000 0.000000
#
# Coordination Sequence:
#
# PCOD8068278 Si02
#       5
#     4   4   4   4   4
#     4   8  16  31  45  64  95 124 157 199 236 277
#     4   9  17  29  44  66  94 120 154 195 237 281
#     4  10  17  27  45  70  97 125 155 195 246 290
#     4  10  21  34  47  68  99 132 166 200 237 283
#     4  11  19  30  48  69  94 126 162 202 243 286
#
# _framework density 15.649156
#
# number of rings (size 3 to 8) (size 9 to 14) (size 15 to 20)
#    1.200    1.200    2.000    2.400    0.000    2.400 
#    0.000    0.000    0.000    0.000    0.000    1.400 
#    0.000    0.000    0.000    0.000    0.000    0.000 
#
# Total GULP energy -247766.943284 kJ/mol
# GULP energy per Si atom -12388.347164 kJ/mol
# Density = 1.561354 g / cm^3
# Si number density = 15.649156 Si / 1000 Ang^3
#
#
#
# Elastic Constant Matrix: (Units=GPa)
#
#
# Indices 1 2 3 4 5 6 
#
# 1 130.1703 58.9673 49.9218 0.0000 9.9647 0.0000
# 2 58.9673 107.8687 34.5278 0.0000 8.6292 0.0000
# 3 49.9218 34.5278 70.6494 0.0000 1.0700 0.0000
# 4 0.0000 0.0000 0.0000 21.7899 0.0000 1.8723
# 5 9.9647 8.6292 1.0700 0.0000 20.7774 0.0000
# 6 0.0000 0.0000 0.0000 1.8723 0.0000 31.5378
#
#
#
# Elastic Compliance Matrix: (Units=1/GPa)
#
#
# Indices 1 2 3 4 5 6 
#
# 1 0.012518 -0.004414 -0.006630 0.000000 -0.003829 0.000000
# 2 -0.004414 0.012943 -0.003159 0.000000 -0.003095 0.000000
# 3 -0.006630 -0.003159 0.020331 0.000000 0.003445 0.000000
# 4 0.000000 0.000000 0.000000 0.046128 0.000000 -0.002739
# 5 -0.003829 -0.003095 0.003445 0.000000 0.051073 0.000000
# 6 0.000000 0.000000 0.000000 -0.002739 0.000000 0.031871
#
#
# Mechanical properties :
#
#
# Convention : Reuss Voigt Hill
#
# Bulk Modulus (GPa) = 57.52270 66.16916 61.84593
# Shear Modulus (GPa) = 23.91606 25.83913 24.87760
#
# Velocity S-wave (km/s) = 3.91354 4.06785 3.99144
# Velocity P-wave (km/s) = 7.56694 8.02732 7.80053
#
# Compressibility (1/GPa) = 0.01738444
#
# Stress axis : x y z
#
# Youngs Moduli (GPa) = 79.88712 77.26443 49.18648
#
# Poissons Ratio (x) = 0.34108 0.32609
# Poissons Ratio (y) = 0.35266 0.15538
# Poissons Ratio (z) = 0.52963 0.24408
#
# Static dielectric constant tensor:
#      x y z
#    x 3.018380 0.000000 -0.046090 
#    y 0.000000 3.041770 0.000000 
#    z -0.046090 0.000000 2.995640 
# 
# 
# High freq. dielectric constant tensor:
#      x y z
#    x 1.595590 0.000000 0.013430 
#    y 0.000000 1.610510 0.000000 
#    z 0.013430 0.000000 1.551460 
# 
# From -- ./inp_files/56394.got.cif
#   From: 2010.06.25/outbox.cif.g09.slc.cpg/sg11_29_cif.got.tgz:56394.got - 2010.06.27 23:14:04.
