data_PCOD8068535
_publ_section_title
;
Structure prediction by ZEFSAII (Michael W. Deem and Ramdas Pophale) SiO2 
 PCOD8068535
Probable space group: P 21/M
;
_chemical_formula_sum "Si O2"
_cell_formula_units_Z 32
_cell_length_a 20.643246
_cell_length_b 9.089209
_cell_length_c 31.069006
_cell_angle_alpha 90.000000
_cell_angle_beta 21.056237
_cell_angle_gamma 90.000000
_cell_volume 2094.447320
_symmetry_space_group_name_H-M "P 21/M"
_symmetry_group_IT_number 11
_symmetry_cell_setting 'monoclinic'
loop_
_space_group_symop_operation_xyz
x,y,z
-x,1/2+y,-z
-x,-y,-z
x,1/2-y,z
loop_
_atom_site_type_symbol
_atom_site_label
_atom_site_fract_x
_atom_site_fract_y
_atom_site_fract_z
Si Si1 0.860395 0.424247 0.491455
Si Si2 0.786504 0.417781 0.322635
Si Si3 0.816477 0.922442 0.601100
Si Si4 0.512824 0.917591 0.550299
Si Si5 0.264015 0.420906 0.256769
Si Si6 0.443967 0.574204 0.990758
Si Si7 0.765838 0.582705 0.465506
Si Si8 0.045377 0.578821 0.217043
O O1 0.847371 0.250000 0.504808
O O2 0.745075 0.499876 0.601785
O O3 0.774066 0.472077 0.500085
O O4 0.066722 0.484173 0.366245
O O5 0.838518 0.250000 0.298355
O O6 0.701618 0.441956 0.326921
O O7 0.626262 0.463111 0.453907
O O8 0.966410 0.509577 0.221748
O O9 0.846988 0.750000 0.573901
O O10 0.687346 0.948161 0.722842
O O11 0.000000 0.000000 0.500000
O O12 0.566886 0.750000 0.502516
O O13 0.567138 0.935291 0.566887
O O14 0.254123 0.250000 0.252917
O O15 0.420817 0.487981 0.129796
O O16 0.449468 0.750000 0.992179
O O17 0.244873 0.517616 0.101980
O O18 0.500000 0.500000 0.000000
O O19 0.796429 0.750000 0.462434
O O20 0.919023 0.538719 0.335875
O O21 0.052160 0.750000 0.204353
#
# Coordination Sequence:
#
# PCOD8068535 Si02
#       8
#     4   4   4   4   4   4   4   4
#     4  10  18  27  40  60  82 104 132 165 201 241
#     4   9  15  24  40  57  75 103 137 170 200 235
#     4   9  16  28  44  60  77 100 130 165 204 242
#     4   8  15  26  38  55  79 105 133 165 202 241
#     4   8  16  29  43  57  76 103 135 168 197 230
#     4  10  19  31  44  59  81 109 140 172 202 231
#     4   9  16  26  38  55  81 109 134 160 194 237
#     4   9  18  29  40  56  81 111 140 170 203 237
#
# _framework density 15.278492999999999
#
# number of rings (size 3 to 8) (size 9 to 14) (size 15 to 20)
#    0.000    3.000    0.000    3.375    0.000    3.000 
#    0.000    3.125    0.000    0.000    0.000    0.000 
#    0.000    1.000    0.000    2.000    0.000    3.000 
#
# Total GULP energy -396418.228722 kJ/mol
# GULP energy per Si atom -12388.069648 kJ/mol
# Density = 1.524372 g / cm^3
# Si number density = 15.278493 Si / 1000 Ang^3
#
#
#
# Elastic Constant Matrix: (Units=GPa)
#
#
# Indices 1 2 3 4 5 6 
#
# 1 129.1558 44.3000 56.4890 0.0000 -8.6983 0.0000
# 2 44.3000 52.6192 24.1544 0.0000 1.4951 0.0000
# 3 56.4890 24.1544 59.1456 0.0000 -0.3061 0.0000
# 4 0.0000 0.0000 0.0000 12.8407 0.0000 -0.8258
# 5 -8.6983 1.4951 -0.3061 0.0000 25.3984 0.0000
# 6 0.0000 0.0000 0.0000 -0.8258 0.0000 28.8529
#
#
#
# Elastic Compliance Matrix: (Units=1/GPa)
#
#
# Indices 1 2 3 4 5 6 
#
# 1 0.016310 -0.008323 -0.012147 0.000000 0.005929 0.000000
# 2 -0.008323 0.027694 -0.003384 0.000000 -0.004522 0.000000
# 3 -0.012147 -0.003384 0.029872 0.000000 -0.003601 0.000000
# 4 0.000000 0.000000 0.000000 0.078021 0.000000 0.002233
# 5 0.005929 -0.004522 -0.003601 0.000000 0.041626 0.000000
# 6 0.000000 0.000000 0.000000 0.002233 0.000000 0.034722
#
#
# Mechanical properties :
#
#
# Convention : Reuss Voigt Hill
#
# Bulk Modulus (GPa) = 38.21607 54.53416 46.37511
# Shear Modulus (GPa) = 17.56386 21.15022 19.35704
#
# Velocity S-wave (km/s) = 3.39423 3.72467 3.56328
# Velocity P-wave (km/s) = 6.35833 7.36671 6.88102
#
# Compressibility (1/GPa) = 0.02616700
#
# Stress axis : x y z
#
# Youngs Moduli (GPa) = 61.31353 36.10939 33.47599
#
# Poissons Ratio (x) = 0.30055 0.40664
# Poissons Ratio (y) = 0.51034 0.11327
# Poissons Ratio (z) = 0.74478 0.12218
#
# Static dielectric constant tensor:
#      x y z
#    x 2.866420 0.000000 -0.241230 
#    y 0.000000 2.930870 0.000000 
#    z -0.241230 0.000000 2.825290 
# 
# 
# High freq. dielectric constant tensor:
#      x y z
#    x 1.591740 0.000000 -0.007540 
#    y 0.000000 1.585720 0.000000 
#    z -0.007540 0.000000 1.531480 
# 
# From -- ./inp_files/73621.got.cif
#   From: 2010.06.25/outbox.cif.g09.slc.cpg/sg11_37_cif.got.tgz:73621.got - 2010.06.27 23:14:04.
