data_PCOD8068888
_publ_section_title
;
Structure prediction by ZEFSAII (Michael W. Deem and Ramdas Pophale) SiO2 
 PCOD8068888
Probable space group: P 21/M
;
_chemical_formula_sum "Si O2"
_cell_formula_units_Z 32
_cell_length_a 25.059068
_cell_length_b 9.173002
_cell_length_c 16.039009
_cell_angle_alpha 90.000000
_cell_angle_beta 26.752919
_cell_angle_gamma 90.000000
_cell_volume 1659.607299
_symmetry_space_group_name_H-M "P 21/M"
_symmetry_group_IT_number 11
_symmetry_cell_setting 'monoclinic'
loop_
_space_group_symop_operation_xyz
x,y,z
-x,1/2+y,-z
-x,-y,-z
x,1/2-y,z
loop_
_atom_site_type_symbol
_atom_site_label
_atom_site_fract_x
_atom_site_fract_y
_atom_site_fract_z
Si Si1 0.395888 0.925018 0.093276
Si Si2 0.210219 0.077061 0.460396
Si Si3 0.392198 0.093163 0.623895
Si Si4 0.752521 0.591143 0.008760
Si Si5 0.565354 0.919115 0.131301
Si Si6 0.706753 0.414180 0.497258
Si Si7 0.788595 0.084571 0.209455
Si Si8 0.938803 0.079503 0.844123
O O1 0.402955 0.750000 0.091512
O O2 0.271912 0.986141 0.300988
O O3 0.500000 0.000000 0.000000
O O4 0.405707 0.973308 0.984527
O O5 0.227524 0.250000 0.423649
O O6 0.073702 0.028508 0.649031
O O7 0.266822 0.033263 0.469733
O O8 0.436173 0.250000 0.530303
O O9 0.500000 0.000000 0.500000
O O10 0.325889 0.014415 0.642042
O O11 0.305749 0.111020 0.821204
O O12 0.797417 0.750000 0.914761
O O13 0.865514 0.487797 0.868435
O O14 0.654137 0.529457 0.081541
O O15 0.589602 0.750000 0.073745
O O16 0.427520 0.938128 0.349768
O O17 0.716199 0.250000 0.521560
O O18 0.806595 0.430746 0.284292
O O19 0.755104 0.250000 0.233304
O O20 0.894926 0.034151 0.999404
O O21 0.927122 0.250000 0.848586
#
# Coordination Sequence:
#
# PCOD8068888 Si02
#       8
#     4   4   4   4   4   4   4   4
#     4  12  24  40  62  88 114 145 183 230 288 346
#     4  11  23  39  59  84 114 150 191 237 285 337
#     4  10  18  29  47  74 107 147 190 233 279 330
#     4   9  19  35  56  81 111 149 190 231 279 335
#     4  10  20  36  58  86 118 148 183 234 288 339
#     4  10  20  34  56  84 116 153 190 231 287 341
#     4   9  18  34  53  77 111 152 191 231 279 331
#     4   9  20  38  58  81 115 155 195 237 278 325
#
# _framework density 19.281670999999999
#
# number of rings (size 3 to 8) (size 9 to 14) (size 15 to 20)
#    0.000    2.000    1.250    2.625    0.000    5.000 
#    0.000    1.875    0.000    0.000    0.000    0.000 
#    0.000    0.000    0.000    0.000    0.000    0.000 
#
# Total GULP energy -396521.618842 kJ/mol
# GULP energy per Si atom -12391.300589 kJ/mol
# Density = 1.923779 g / cm^3
# Si number density = 19.281671 Si / 1000 Ang^3
#
#
#
# Elastic Constant Matrix: (Units=GPa)
#
#
# Indices 1 2 3 4 5 6 
#
# 1 85.3971 24.0945 30.9468 0.0000 -5.5579 0.0000
# 2 24.0945 86.7977 38.0733 0.0000 -5.1974 0.0000
# 3 30.9468 38.0733 95.6358 0.0000 -9.5875 0.0000
# 4 0.0000 0.0000 0.0000 26.5215 0.0000 -0.3210
# 5 -5.5579 -5.1974 -9.5875 0.0000 30.3795 0.0000
# 6 0.0000 0.0000 0.0000 -0.3210 0.0000 33.3465
#
#
#
# Elastic Compliance Matrix: (Units=1/GPa)
#
#
# Indices 1 2 3 4 5 6 
#
# 1 0.013646 -0.002223 -0.003427 0.000000 0.001035 0.000000
# 2 -0.002223 0.014333 -0.004938 0.000000 0.000487 0.000000
# 3 -0.003427 -0.004938 0.013821 0.000000 0.002890 0.000000
# 4 0.000000 0.000000 0.000000 0.037710 0.000000 0.000363
# 5 0.001035 0.000487 0.002890 0.000000 0.034102 0.000000
# 6 0.000000 0.000000 0.000000 0.000363 0.000000 0.029992
#
#
# Mechanical properties :
#
#
# Convention : Reuss Voigt Hill
#
# Bulk Modulus (GPa) = 48.48615 50.45109 49.46862
# Shear Modulus (GPa) = 29.12824 29.69724 29.41274
#
# Velocity S-wave (km/s) = 3.89095 3.92877 3.90991
# Velocity P-wave (km/s) = 6.73697 6.84123 6.78930
#
# Compressibility (1/GPa) = 0.02062445
#
# Stress axis : x y z
#
# Youngs Moduli (GPa) = 73.27893 69.76752 72.35401
#
# Poissons Ratio (x) = 0.15509 0.24797
# Poissons Ratio (y) = 0.16289 0.35729
# Poissons Ratio (z) = 0.25114 0.34452
#
# Static dielectric constant tensor:
#      x y z
#    x 3.433580 0.000000 0.064470 
#    y 0.000000 3.866780 0.000000 
#    z 0.064470 0.000000 3.509080 
# 
# 
# High freq. dielectric constant tensor:
#      x y z
#    x 1.738850 0.000000 0.001900 
#    y 0.000000 1.753840 0.000000 
#    z 0.001900 0.000000 1.742150 
# 
# From -- ./inp_files/55623.got.cif
#   From: 2010.06.25/outbox.cif.g09.slc.cpg/sg11_28_cif.got.tgz:55623.got - 2010.06.27 23:14:04.
