data_PCOD8068407
_publ_section_title
;
Structure prediction by ZEFSAII (Michael W. Deem and Ramdas Pophale) SiO2 
 PCOD8068407
Probable space group: P 21/M
;
_chemical_formula_sum "Si O2"
_cell_formula_units_Z 32
_cell_length_a 20.710043
_cell_length_b 12.538264
_cell_length_c 12.049218
_cell_angle_alpha 90.000000
_cell_angle_beta 37.506148
_cell_angle_gamma 90.000000
_cell_volume 1904.956773
_symmetry_space_group_name_H-M "P 21/M"
_symmetry_group_IT_number 11
_symmetry_cell_setting 'monoclinic'
loop_
_space_group_symop_operation_xyz
x,y,z
-x,1/2+y,-z
-x,-y,-z
x,1/2-y,z
loop_
_atom_site_type_symbol
_atom_site_label
_atom_site_fract_x
_atom_site_fract_y
_atom_site_fract_z
Si Si1 0.803763 0.370990 0.152002
Si Si2 0.265628 0.124237 0.507989
Si Si3 0.031064 0.991792 0.230747
Si Si4 0.585535 0.626327 0.291517
Si Si5 0.092525 0.966372 0.798149
Si Si6 0.798511 0.874554 0.878014
Si Si7 0.169642 0.373761 0.412908
Si Si8 0.609602 0.987656 0.478362
O O1 0.777384 0.250000 0.154064
O O2 0.843836 0.372372 0.226361
O O3 0.697646 0.440944 0.295869
O O4 0.891062 0.416650 0.947761
O O5 0.273446 0.250000 0.520443
O O6 0.258299 0.096105 0.385990
O O7 0.360579 0.063491 0.442896
O O8 0.158003 0.076954 0.704238
O O9 0.946923 0.924399 0.416050
O O10 0.097761 0.065086 0.221097
O O11 0.957305 0.067388 0.252155
O O12 0.564371 0.750000 0.296659
O O13 0.493377 0.558976 0.357781
O O14 0.585161 0.606797 0.424419
O O15 0.696058 0.588983 0.086481
O O16 0.000000 0.000000 0.000000
O O17 0.820095 0.750000 0.864666
O O18 0.780606 0.904879 0.773548
O O19 0.146363 0.250000 0.454187
#
# Coordination Sequence:
#
# PCOD8068407 Si02
#       8
#     4   4   4   4   4   4   4   4
#     4  10  18  29  45  69  99 127 156 194 243 291
#     4   9  17  31  51  71  94 126 161 200 239 283
#     4  10  17  31  47  71  96 131 164 199 233 282
#     4  10  20  34  51  71  98 127 158 199 245 293
#     4   8  17  27  40  67  98 124 157 191 232 285
#     4  10  20  33  49  71  97 130 167 202 239 283
#     4   9  18  32  51  73  98 128 165 200 236 281
#     4  10  19  33  50  73  97 122 162 197 245 293
#
# _framework density 16.798279999999998
#
# number of rings (size 3 to 8) (size 9 to 14) (size 15 to 20)
#    0.000    2.500    1.250    1.500    0.000    3.500 
#    0.000    0.625    0.000    0.000    0.000    0.000 
#    0.000    0.000    0.000    0.000    0.000    0.000 
#
# Total GULP energy -396456.314262 kJ/mol
# GULP energy per Si atom -12389.259821 kJ/mol
# Density = 1.676005 g / cm^3
# Si number density = 16.798280 Si / 1000 Ang^3
#
#
#
# Elastic Constant Matrix: (Units=GPa)
#
#
# Indices 1 2 3 4 5 6 
#
# 1 127.0143 45.5426 39.1577 0.0000 1.0903 0.0000
# 2 45.5426 64.3251 24.4403 0.0000 1.2552 0.0000
# 3 39.1577 24.4403 56.9920 0.0000 1.7508 0.0000
# 4 0.0000 0.0000 0.0000 21.7117 0.0000 -1.9987
# 5 1.0903 1.2552 1.7508 0.0000 23.3650 0.0000
# 6 0.0000 0.0000 0.0000 -1.9987 0.0000 23.0486
#
#
#
# Elastic Compliance Matrix: (Units=1/GPa)
#
#
# Indices 1 2 3 4 5 6 
#
# 1 0.011799 -0.006302 -0.005410 0.000000 0.000193 0.000000
# 2 -0.006302 0.021942 -0.005064 0.000000 -0.000505 0.000000
# 3 -0.005410 -0.005064 0.023473 0.000000 -0.001234 0.000000
# 4 0.000000 0.000000 0.000000 0.046429 0.000000 0.004026
# 5 0.000193 -0.000505 -0.001234 0.000000 0.042910 0.000000
# 6 0.000000 0.000000 0.000000 0.004026 0.000000 0.043736
#
#
# Mechanical properties :
#
#
# Convention : Reuss Voigt Hill
#
# Bulk Modulus (GPa) = 42.26272 51.84582 47.05427
# Shear Modulus (GPa) = 21.57704 22.90445 22.24075
#
# Velocity S-wave (km/s) = 3.58785 3.69657 3.64261
# Velocity P-wave (km/s) = 6.50977 7.01072 6.76489
#
# Compressibility (1/GPa) = 0.02366152
#
# Stress axis : x y z
#
# Youngs Moduli (GPa) = 84.75249 45.57508 42.60191
#
# Poissons Ratio (x) = 0.28721 0.23049
# Poissons Ratio (y) = 0.53411 0.21574
# Poissons Ratio (z) = 0.45853 0.23079
#
# Static dielectric constant tensor:
#      x y z
#    x 3.098060 0.000000 0.012200 
#    y 0.000000 2.898310 0.000000 
#    z 0.012200 0.000000 3.061090 
# 
# 
# High freq. dielectric constant tensor:
#      x y z
#    x 1.657730 0.000000 -0.001050 
#    y 0.000000 1.634100 0.000000 
#    z -0.001050 0.000000 1.631030 
# 
# From -- ./inp_files/41218.got.cif
#   From: 2010.06.25/outbox.cif.g09.slc.cpg/sg11_21_cif.got.tgz:41218.got - 2010.06.27 23:14:04.
