data_PCOD8068592
_publ_section_title
;
Structure prediction by ZEFSAII (Michael W. Deem and Ramdas Pophale) SiO2 
 PCOD8068592
Probable space group: P 21/M
;
_chemical_formula_sum "Si O2"
_cell_formula_units_Z 32
_cell_length_a 23.502630
_cell_length_b 9.069615
_cell_length_c 29.653779
_cell_angle_alpha 90.000000
_cell_angle_beta 16.282844
_cell_angle_gamma 90.000000
_cell_volume 1772.275827
_symmetry_space_group_name_H-M "P 21/M"
_symmetry_group_IT_number 11
_symmetry_cell_setting 'monoclinic'
loop_
_space_group_symop_operation_xyz
x,y,z
-x,1/2+y,-z
-x,-y,-z
x,1/2-y,z
loop_
_atom_site_type_symbol
_atom_site_label
_atom_site_fract_x
_atom_site_fract_y
_atom_site_fract_z
Si Si1 0.079444 0.579705 0.580578
Si Si2 0.115532 0.420761 0.872189
Si Si3 0.142274 0.583216 0.636417
Si Si4 0.512676 0.422420 0.774142
Si Si5 0.315523 0.421769 0.016131
Si Si6 0.527852 0.077196 0.364960
Si Si7 0.726307 0.418486 0.119477
Si Si8 0.333130 0.925402 0.096141
O O1 0.017513 0.750000 0.619425
O O2 0.162051 0.557568 0.568007
O O3 0.258288 0.525979 0.411141
O O4 0.885826 0.477197 0.719107
O O5 0.145370 0.250000 0.861532
O O6 0.335992 0.498007 0.699753
O O7 0.000000 0.500000 0.000000
O O8 0.971122 0.438732 0.938081
O O9 0.200795 0.750000 0.604431
O O10 0.295578 0.475461 0.545920
O O11 0.913864 0.546103 0.825720
O O12 0.493598 0.250000 0.780917
O O13 0.345833 0.491221 0.868477
O O14 0.466148 0.465371 0.861130
O O15 0.335023 0.250000 0.015470
O O16 0.372047 0.522405 0.015469
O O17 0.540910 0.250000 0.363245
O O18 0.612857 0.029044 0.251337
O O19 0.668901 0.250000 0.154230
O O20 0.348439 0.750000 0.087293
O O21 0.500000 0.000000 0.000000
#
# Coordination Sequence:
#
# PCOD8068592 Si02
#       8
#     4   4   4   4   4   4   4   4
#     4   9  18  33  54  82 109 137 174 212 254 305
#     4   9  17  28  41  63  95 131 169 216 267 312
#     4   9  16  29  49  72 101 134 169 214 261 307
#     4  10  19  33  55  79 107 141 172 210 259 310
#     4   9  20  37  55  80 110 138 173 212 254 307
#     4  10  18  27  43  69  98 130 172 221 264 309
#     4   9  18  29  43  68 102 134 167 214 264 312
#     4  11  22  38  61  84 108 141 174 210 252 297
#
# _framework density 18.055880999999999
#
# number of rings (size 3 to 8) (size 9 to 14) (size 15 to 20)
#    0.000    2.500    1.250    3.375    0.000    5.500 
#    0.000    0.625    0.000    0.750    0.000    0.000 
#    0.000    0.000    0.000    0.000    0.000    0.000 
#
# Total GULP energy -396716.865401 kJ/mol
# GULP energy per Si atom -12397.402044 kJ/mol
# Density = 1.801479 g / cm^3
# Si number density = 18.055881 Si / 1000 Ang^3
#
#
#
# Elastic Constant Matrix: (Units=GPa)
#
#
# Indices 1 2 3 4 5 6 
#
# 1 74.7472 51.1481 59.1312 0.0000 -12.8156 0.0000
# 2 51.1481 103.0926 51.0421 0.0000 -15.8310 0.0000
# 3 59.1312 51.0421 110.3649 0.0000 -3.2458 0.0000
# 4 0.0000 0.0000 0.0000 27.7242 0.0000 -8.9627
# 5 -12.8156 -15.8310 -3.2458 0.0000 31.1876 0.0000
# 6 0.0000 0.0000 0.0000 -8.9627 0.0000 28.0707
#
#
#
# Elastic Compliance Matrix: (Units=1/GPa)
#
#
# Indices 1 2 3 4 5 6 
#
# 1 0.029134 -0.007474 -0.011949 0.000000 0.006935 0.000000
# 2 -0.007474 0.015638 -0.003094 0.000000 0.004545 0.000000
# 3 -0.011949 -0.003094 0.016755 0.000000 -0.004737 0.000000
# 4 0.000000 0.000000 0.000000 0.040221 0.000000 0.012842
# 5 0.006935 0.004545 -0.004737 0.000000 0.036728 0.000000
# 6 0.000000 0.000000 0.000000 0.012842 0.000000 0.039725
#
#
# Mechanical properties :
#
#
# Convention : Reuss Voigt Hill
#
# Bulk Modulus (GPa) = 60.63338 67.87195 64.25267
# Shear Modulus (GPa) = 21.85961 25.85538 23.85750
#
# Velocity S-wave (km/s) = 3.48323 3.78824 3.63893
# Velocity P-wave (km/s) = 7.05911 7.53697 7.30195
#
# Compressibility (1/GPa) = 0.01649256
#
# Stress axis : x y z
#
# Youngs Moduli (GPa) = 34.32398 63.94712 59.68442
#
# Poissons Ratio (x) = 0.47791 0.71318
# Poissons Ratio (y) = 0.25652 0.18469
# Poissons Ratio (z) = 0.41014 0.19788
#
# Static dielectric constant tensor:
#      x y z
#    x 3.250740 0.000000 -0.299490 
#    y 0.000000 3.346700 0.000000 
#    z -0.299490 0.000000 3.769350 
# 
# 
# High freq. dielectric constant tensor:
#      x y z
#    x 1.668580 0.000000 -0.020140 
#    y 0.000000 1.700380 0.000000 
#    z -0.020140 0.000000 1.695830 
# 
# From -- ./inp_files/67033.got.cif
#   From: 2010.06.25/outbox.cif.g09.slc.cpg/sg11_34_cif.got.tgz:67033.got - 2010.06.27 23:14:04.
