data_PCOD8068619
_publ_section_title
;
Structure prediction by ZEFSAII (Michael W. Deem and Ramdas Pophale) SiO2 
 PCOD8068619
Probable space group: P 21/M
;
_chemical_formula_sum "Si O2"
_cell_formula_units_Z 32
_cell_length_a 12.161370
_cell_length_b 9.198052
_cell_length_c 23.411932
_cell_angle_alpha 90.000000
_cell_angle_beta 50.403878
_cell_angle_gamma 90.000000
_cell_volume 2017.994784
_symmetry_space_group_name_H-M "P 21/M"
_symmetry_group_IT_number 11
_symmetry_cell_setting 'monoclinic'
loop_
_space_group_symop_operation_xyz
x,y,z
-x,1/2+y,-z
-x,-y,-z
x,1/2-y,z
loop_
_atom_site_type_symbol
_atom_site_label
_atom_site_fract_x
_atom_site_fract_y
_atom_site_fract_z
Si Si1 0.845763 0.580705 0.611712
Si Si2 0.453334 0.920546 0.458618
Si Si3 0.830248 0.588561 0.173873
Si Si4 0.838467 0.417433 0.498307
Si Si5 0.668667 0.585937 0.107438
Si Si6 0.911678 0.420148 0.980879
Si Si7 0.400069 0.582619 0.693310
Si Si8 0.562277 0.583675 0.757718
O O1 0.830699 0.750000 0.603614
O O2 0.805469 0.504696 0.566184
O O3 0.729658 0.537834 0.698544
O O4 0.006068 0.539114 0.579130
O O5 0.486999 0.750000 0.451864
O O6 0.283854 0.949825 0.507462
O O7 0.500000 0.000000 0.500000
O O8 0.538810 0.985447 0.377363
O O9 0.807755 0.750000 0.206972
O O10 0.755419 0.579610 0.137250
O O11 0.761167 0.471545 0.239505
O O12 0.999960 0.558832 0.107772
O O13 0.837863 0.250000 0.516611
O O14 0.648175 0.750000 0.092177
O O15 0.513254 0.515479 0.169629
O O16 0.754919 0.494380 0.030485
O O17 0.896282 0.250000 0.001198
O O18 0.000000 0.500000 0.000000
O O19 0.393227 0.750000 0.676298
O O20 0.497076 0.559455 0.716563
O O21 0.542804 0.750000 0.783347
#
# Coordination Sequence:
#
# PCOD8068619 Si02
#       8
#     4   4   4   4   4   4   4   4
#     4   9  16  28  45  64  85 107 135 172 213 255
#     4  11  22  34  47  62  83 111 142 178 217 257
#     4   8  15  25  36  51  72 101 133 169 206 241
#     4   9  18  30  45  64  83 106 136 173 215 256
#     4   9  16  23  33  50  75 105 137 169 200 239
#     4   9  15  23  34  49  71 100 135 170 203 240
#     4  10  18  28  42  60  79 103 137 174 210 250
#     4   9  16  25  39  58  81 108 135 168 206 247
#
# _framework density 15.857326
#
# number of rings (size 3 to 8) (size 9 to 14) (size 15 to 20)
#    0.000    2.750    1.250    2.250    0.000    5.000 
#    0.000    0.000    0.000    0.000    0.000    0.000 
#    0.000    0.000    0.000    1.125    0.000   12.375 
#
# Total GULP energy -396561.342530 kJ/mol
# GULP energy per Si atom -12392.541954 kJ/mol
# Density = 1.582123 g / cm^3
# Si number density = 15.857326 Si / 1000 Ang^3
#
#
#
# Elastic Constant Matrix: (Units=GPa)
#
#
# Indices 1 2 3 4 5 6 
#
# 1 45.4279 31.6567 35.5765 0.0000 -15.9131 0.0000
# 2 31.6567 98.0586 57.0457 0.0000 -17.6495 0.0000
# 3 35.5765 57.0457 103.7749 0.0000 -36.8651 0.0000
# 4 0.0000 0.0000 0.0000 31.1405 0.0000 -3.1185
# 5 -15.9131 -17.6495 -36.8651 0.0000 21.1440 0.0000
# 6 0.0000 0.0000 0.0000 -3.1185 0.0000 12.8042
#
#
#
# Elastic Compliance Matrix: (Units=1/GPa)
#
#
# Indices 1 2 3 4 5 6 
#
# 1 0.034168 -0.006831 -0.002231 0.000000 0.016123 0.000000
# 2 -0.006831 0.016552 -0.009655 0.000000 -0.008158 0.000000
# 3 -0.002231 -0.009655 0.032181 0.000000 0.046370 0.000000
# 4 0.000000 0.000000 0.000000 0.032915 0.000000 0.008017
# 5 0.016123 -0.008158 0.046370 0.000000 0.133467 0.000000
# 6 0.000000 0.000000 0.000000 0.008017 0.000000 0.080052
#
#
# Mechanical properties :
#
#
# Convention : Reuss Voigt Hill
#
# Bulk Modulus (GPa) = 21.99389 55.09102 38.54246
# Shear Modulus (GPa) = 13.09162 21.21657 17.15409
#
# Velocity S-wave (km/s) = 2.87642 3.66179 3.29261
# Velocity P-wave (km/s) = 4.99317 7.25916 6.23005
#
# Compressibility (1/GPa) = 0.04546718
#
# Stress axis : x y z
#
# Youngs Moduli (GPa) = 29.26713 60.41748 31.07413
#
# Poissons Ratio (x) = 0.41269 0.06933
# Poissons Ratio (y) = 0.19991 0.30002
# Poissons Ratio (z) = 0.06530 0.58333
#
# Static dielectric constant tensor:
#      x y z
#    x 2.691300 0.000000 -0.506080 
#    y 0.000000 3.175070 0.000000 
#    z -0.506080 0.000000 3.409800 
# 
# 
# High freq. dielectric constant tensor:
#      x y z
#    x 1.538250 0.000000 -0.043540 
#    y 0.000000 1.622900 0.000000 
#    z -0.043540 0.000000 1.613260 
# 
# From -- ./inp_files/68301.got.cif
#   From: 2010.06.25/outbox.cif.g09.slc.cpg/sg11_35_cif.got.tgz:68301.got - 2010.06.27 23:14:04.
