data_PCOD8068745
_publ_section_title
;
Structure prediction by ZEFSAII (Michael W. Deem and Ramdas Pophale) SiO2 
 PCOD8068745
Probable space group: P 21/M
;
_chemical_formula_sum "Si O2"
_cell_formula_units_Z 28
_cell_length_a 13.281922
_cell_length_b 9.002079
_cell_length_c 13.593866
_cell_angle_alpha 90.000000
_cell_angle_beta 119.531332
_cell_angle_gamma 90.000000
_cell_volume 1414.194205
_symmetry_space_group_name_H-M "P 21/M"
_symmetry_group_IT_number 11
_symmetry_cell_setting 'monoclinic'
loop_
_space_group_symop_operation_xyz
x,y,z
-x,1/2+y,-z
-x,-y,-z
x,1/2-y,z
loop_
_atom_site_type_symbol
_atom_site_label
_atom_site_fract_x
_atom_site_fract_y
_atom_site_fract_z
Si Si1 0.323529 0.577732 0.463037
Si Si2 0.055708 0.425683 0.120816
Si Si3 0.678052 0.576379 0.729167
Si Si4 0.053551 0.423408 0.743481
Si Si5 0.260616 0.079041 0.719429
Si Si6 0.875672 0.925398 0.535761
Si Si7 0.458329 0.581936 0.726155
O O1 0.287344 0.750000 0.439305
O O2 0.375960 0.522130 0.385087
O O3 0.210667 0.472862 0.418339
O O4 0.410625 0.548712 0.594063
O O5 0.040113 0.250000 0.108280
O O6 0.987464 0.483786 0.183067
O O7 0.190649 0.470570 0.184645
O O8 0.000000 0.500000 0.000000
O O9 0.667503 0.750000 0.696262
O O10 0.595621 0.543468 0.785055
O O11 0.026054 0.250000 0.746078
O O12 0.191739 0.447245 0.788977
O O13 0.992500 0.482832 0.614151
O O14 0.281785 0.250000 0.709411
O O15 0.180603 0.016725 0.592488
O O16 0.388376 0.006770 0.776982
O O17 0.900495 0.750000 0.550493
O O18 0.438849 0.750000 0.747965
#
# Coordination Sequence:
#
# PCOD8068745 Si02
#       7
#     4   4   4   4   4   4   4
#     4  10  18  28  47  76 109 146 184 220 260 316
#     4  11  24  41  61  83 107 138 179 231 286 331
#     4  10  20  35  54  76 107 142 178 224 277 324
#     4  11  21  35  55  79 109 142 182 228 274 323
#     4   9  20  34  50  77 113 150 183 220 263 316
#     4  10  18  30  48  74 110 150 186 220 264 318
#     4   9  19  33  50  77 111 147 183 218 259 319
#
# _framework density 19.799261000000001
#
# number of rings (size 3 to 8) (size 9 to 14) (size 15 to 20)
#    0.000    2.000    1.429    2.571    0.000    3.429 
#    0.000    0.000    0.000    0.857    0.000    0.000 
#    0.000    0.000    0.000    0.000    0.000    0.000 
#
# Total GULP energy -347017.046117 kJ/mol
# GULP energy per Si atom -12393.465933 kJ/mol
# Density = 1.975420 g / cm^3
# Si number density = 19.799261 Si / 1000 Ang^3
#
#
#
# Elastic Constant Matrix: (Units=GPa)
#
#
# Indices 1 2 3 4 5 6 
#
# 1 158.8126 49.5341 31.8837 0.0000 4.7839 0.0000
# 2 49.5341 68.2624 22.6713 0.0000 1.1841 0.0000
# 3 31.8837 22.6713 41.9566 0.0000 -0.1163 0.0000
# 4 0.0000 0.0000 0.0000 20.1687 0.0000 -2.0258
# 5 4.7839 1.1841 -0.1163 0.0000 11.6119 0.0000
# 6 0.0000 0.0000 0.0000 -2.0258 0.0000 33.8510
#
#
#
# Elastic Compliance Matrix: (Units=1/GPa)
#
#
# Indices 1 2 3 4 5 6 
#
# 1 0.008737 -0.004969 -0.003963 0.000000 -0.003132 0.000000
# 2 -0.004969 0.020723 -0.007422 0.000000 -0.000140 0.000000
# 3 -0.003963 -0.007422 0.030863 0.000000 0.002698 0.000000
# 4 0.000000 0.000000 0.000000 0.049882 0.000000 0.002985
# 5 -0.003132 -0.000140 0.002698 0.000000 0.087451 0.000000
# 6 0.000000 0.000000 0.000000 0.002985 0.000000 0.029720
#
#
# Mechanical properties :
#
#
# Convention : Reuss Voigt Hill
#
# Bulk Modulus (GPa) = 36.21178 53.02332 44.61755
# Shear Modulus (GPa) = 18.56759 24.12248 21.34503
#
# Velocity S-wave (km/s) = 3.06566 3.49428 3.28696
# Velocity P-wave (km/s) = 5.55520 6.56647 6.08189
#
# Compressibility (1/GPa) = 0.02761532
#
# Stress axis : x y z
#
# Youngs Moduli (GPa) = 114.46183 48.25668 32.40099
#
# Poissons Ratio (x) = 0.23980 0.12839
# Poissons Ratio (y) = 0.56878 0.24047
# Poissons Ratio (z) = 0.45357 0.35814
#
# Static dielectric constant tensor:
#      x y z
#    x 3.976680 0.000000 0.111920 
#    y 0.000000 3.544260 0.000000 
#    z 0.111920 0.000000 3.241160 
# 
# 
# High freq. dielectric constant tensor:
#      x y z
#    x 1.794090 0.000000 0.003460 
#    y 0.000000 1.772560 0.000000 
#    z 0.003460 0.000000 1.714140 
# 
# From -- ./inp_files/49502.got.cif
#   From: 2010.06.25/outbox.cif.g09.slc.cpg/sg11_25_cif.got.tgz:49502.got - 2010.06.27 23:14:04.
