data_PCOD8068229
_publ_section_title
;
Structure prediction by ZEFSAII (Michael W. Deem and Ramdas Pophale) SiO2 
 PCOD8068229
Probable space group: P 21/M
;
_chemical_formula_sum "Si O2"
_cell_formula_units_Z 24
_cell_length_a 16.624383
_cell_length_b 8.774765
_cell_length_c 12.037915
_cell_angle_alpha 90.000000
_cell_angle_beta 63.828160
_cell_angle_gamma 90.000000
_cell_volume 1575.994819
_symmetry_space_group_name_H-M "P 21/M"
_symmetry_group_IT_number 11
_symmetry_cell_setting 'monoclinic'
loop_
_space_group_symop_operation_xyz
x,y,z
-x,1/2+y,-z
-x,-y,-z
x,1/2-y,z
loop_
_atom_site_type_symbol
_atom_site_label
_atom_site_fract_x
_atom_site_fract_y
_atom_site_fract_z
Si Si1 0.998197 0.426765 0.176388
Si Si2 0.411637 0.076483 0.008571
Si Si3 0.725010 0.069885 0.050630
Si Si4 0.774880 0.925019 0.806476
Si Si5 0.059470 0.570017 0.367978
Si Si6 0.136463 0.073448 0.894026
O O1 0.987966 0.250000 0.212659
O O2 0.022816 0.518517 0.271574
O O3 0.903082 0.489932 0.190062
O O4 0.071607 0.455220 0.037383
O O5 0.433398 0.250000 0.965062
O O6 0.332772 0.065929 0.151761
O O7 0.500000 0.000000 0.000000
O O8 0.374958 0.994200 0.918338
O O9 0.721383 0.250000 0.061128
O O10 0.765642 0.999630 0.139018
O O11 0.792344 0.013319 0.912056
O O12 0.805820 0.750000 0.802218
O O13 0.838076 0.007241 0.677594
O O14 0.059144 0.750000 0.378577
O O15 0.000000 0.500000 0.500000
O O16 0.149006 0.250000 0.858981
#
# Coordination Sequence:
#
# PCOD8068229 Si02
#       6
#     4   4   4   4   4   4
#     4  10  19  30  44  63  87 114 152 191 227 270
#     4   9  17  27  43  64  91 120 149 184 226 277
#     4  10  17  26  42  62  88 118 147 178 223 270
#     4   9  18  31  44  62  89 118 151 188 226 268
#     4  12  23  34  49  65  89 124 161 196 231 270
#     4  10  18  28  44  63  89 118 148 186 229 273
#
# _framework density 15.228476000000001
#
# number of rings (size 3 to 8) (size 9 to 14) (size 15 to 20)
#    1.000    1.000    1.667    4.500    0.000    1.333 
#    0.000    0.000    0.000    0.000    0.000    0.000 
#    0.000    1.333    0.000    5.000    0.000    7.667 
#
# Total GULP energy -297318.012361 kJ/mol
# GULP energy per Si atom -12388.250515 kJ/mol
# Density = 1.519382 g / cm^3
# Si number density = 15.228476 Si / 1000 Ang^3
#
#
#
# Elastic Constant Matrix: (Units=GPa)
#
#
# Indices 1 2 3 4 5 6 
#
# 1 117.8429 54.8356 18.8768 0.0000 -5.6923 0.0000
# 2 54.8356 130.4634 23.9237 0.0000 -3.3576 0.0000
# 3 18.8768 23.9237 35.4738 0.0000 -4.6912 0.0000
# 4 0.0000 0.0000 0.0000 19.4682 0.0000 1.1794
# 5 -5.6923 -3.3576 -4.6912 0.0000 11.8020 0.0000
# 6 0.0000 0.0000 0.0000 1.1794 0.0000 31.7969
#
#
#
# Elastic Compliance Matrix: (Units=1/GPa)
#
#
# Indices 1 2 3 4 5 6 
#
# 1 0.010939 -0.004023 -0.002703 0.000000 0.003057 0.000000
# 2 -0.004023 0.010227 -0.004885 0.000000 -0.000973 0.000000
# 3 -0.002703 -0.004885 0.034373 0.000000 0.010970 0.000000
# 4 0.000000 0.000000 0.000000 0.051481 0.000000 -0.001909
# 5 0.003057 -0.000973 0.010970 0.000000 0.090289 0.000000
# 6 0.000000 0.000000 0.000000 -0.001909 0.000000 0.031520
#
#
# Mechanical properties :
#
#
# Convention : Reuss Voigt Hill
#
# Bulk Modulus (GPa) = 30.94421 53.22802 42.08612
# Shear Modulus (GPa) = 19.02414 25.02305 22.02359
#
# Velocity S-wave (km/s) = 3.53830 4.05801 3.80703
# Velocity P-wave (km/s) = 6.08744 7.54887 6.85720
#
# Compressibility (1/GPa) = 0.03231622
#
# Stress axis : x y z
#
# Youngs Moduli (GPa) = 91.41848 97.78304 29.09241
#
# Poissons Ratio (x) = 0.39341 0.07864
# Poissons Ratio (y) = 0.36780 0.14211
# Poissons Ratio (z) = 0.24713 0.47763
#
# Static dielectric constant tensor:
#      x y z
#    x 3.484400 0.000000 0.057460 
#    y 0.000000 3.063010 0.000000 
#    z 0.057460 0.000000 2.524060 
# 
# 
# High freq. dielectric constant tensor:
#      x y z
#    x 1.585630 0.000000 0.002340 
#    y 0.000000 1.607380 0.000000 
#    z 0.002340 0.000000 1.515960 
# 
# From -- ./inp_files/40332.got.cif
#   From: 2010.06.25/outbox.cif.g09.slc.cpg/sg11_21_cif.got.tgz:40332.got - 2010.06.27 23:14:04.
