data_PCOD8068401
_publ_section_title
;
Structure prediction by ZEFSAII (Michael W. Deem and Ramdas Pophale) SiO2 
 PCOD8068401
Probable space group: P 21/M
;
_chemical_formula_sum "Si O2"
_cell_formula_units_Z 32
_cell_length_a 22.374227
_cell_length_b 13.506137
_cell_length_c 11.347918
_cell_angle_alpha 90.000000
_cell_angle_beta 152.198040
_cell_angle_gamma 90.000000
_cell_volume 1599.446279
_symmetry_space_group_name_H-M "P 21/M"
_symmetry_group_IT_number 11
_symmetry_cell_setting 'monoclinic'
loop_
_space_group_symop_operation_xyz
x,y,z
-x,1/2+y,-z
-x,-y,-z
x,1/2-y,z
loop_
_atom_site_type_symbol
_atom_site_label
_atom_site_fract_x
_atom_site_fract_y
_atom_site_fract_z
Si Si1 0.174105 0.137620 0.757674
Si Si2 0.475410 0.866067 0.892750
Si Si3 0.292270 0.470563 0.603539
Si Si4 0.443585 0.448389 0.217298
Si Si5 0.539535 0.636429 0.502734
Si Si6 0.893784 0.005378 0.912995
Si Si7 0.840172 0.638649 0.011875
Si Si8 0.063645 0.361244 0.324978
O O1 0.230492 0.250000 0.865125
O O2 0.064009 0.131844 0.467071
O O3 0.292374 0.066626 0.932788
O O4 0.109657 0.109905 0.769955
O O5 0.445651 0.750000 0.835519
O O6 0.488375 0.911104 0.783567
O O7 0.358267 0.924233 0.753563
O O8 0.602102 0.884287 0.193772
O O9 0.246512 0.487905 0.387713
O O10 0.169103 0.440099 0.464334
O O11 0.466178 0.565188 0.282376
O O12 0.495767 0.388170 0.422417
O O13 0.501178 0.750000 0.408912
O O14 0.689400 0.617120 0.745303
O O15 0.918956 0.923100 0.055009
O O16 0.921690 0.110017 0.028682
O O17 0.000000 0.000000 0.000000
O O18 0.872434 0.750000 0.035100
O O19 0.097357 0.250000 0.341139
#
# Coordination Sequence:
#
# PCOD8068401 Si02
#       8
#     4   4   4   4   4   4   4   4
#     4   9  17  32  58  84 105 139 190 235 283 344
#     4  11  21  35  58  84 115 155 194 236 282 342
#     4  10  22  37  54  84 118 147 193 239 284 334
#     4  10  17  30  54  82 115 150 194 236 278 338
#     4   9  18  31  52  84 117 151 188 230 288 347
#     4  10  22  37  54  80 111 145 190 232 278 340
#     4   9  18  34  55  80 109 142 182 234 286 337
#     4  10  20  38  62  81 107 148 194 241 284 343
#
# _framework density 20.006924000000001
#
# number of rings (size 3 to 8) (size 9 to 14) (size 15 to 20)
#    0.000    2.250    1.250    3.000    0.000    3.500 
#    0.000    6.250    0.000    3.750    0.000    0.000 
#    0.000    0.000    0.000    0.000    0.000    0.000 
#
# Total GULP energy -396440.413400 kJ/mol
# GULP energy per Si atom -12388.762919 kJ/mol
# Density = 1.996139 g / cm^3
# Si number density = 20.006924 Si / 1000 Ang^3
#
#
#
# Elastic Constant Matrix: (Units=GPa)
#
#
# Indices 1 2 3 4 5 6 
#
# 1 84.4825 52.2414 36.8857 0.0000 -9.9802 0.0000
# 2 52.2414 134.1494 44.9715 0.0000 -12.0491 0.0000
# 3 36.8857 44.9715 87.0080 0.0000 -28.0002 0.0000
# 4 0.0000 0.0000 0.0000 34.0238 0.0000 -0.8274
# 5 -9.9802 -12.0491 -28.0002 0.0000 20.0085 0.0000
# 6 0.0000 0.0000 0.0000 -0.8274 0.0000 31.2157
#
#
#
# Elastic Compliance Matrix: (Units=1/GPa)
#
#
# Indices 1 2 3 4 5 6 
#
# 1 0.017008 -0.005048 -0.005184 0.000000 -0.001811 0.000000
# 2 -0.005048 0.010559 -0.003787 0.000000 -0.001459 0.000000
# 3 -0.005184 -0.003787 0.025620 0.000000 0.030987 0.000000
# 4 0.000000 0.000000 0.000000 0.029410 0.000000 0.000780
# 5 -0.001811 -0.001459 0.030987 0.000000 0.091561 0.000000
# 6 0.000000 0.000000 0.000000 0.000780 0.000000 0.032056
#
#
# Mechanical properties :
#
#
# Convention : Reuss Voigt Hill
#
# Bulk Modulus (GPa) = 39.76278 63.75968 51.76123
# Shear Modulus (GPa) = 20.60722 28.48569 24.54646
#
# Velocity S-wave (km/s) = 3.21285 3.77741 3.50651
# Velocity P-wave (km/s) = 5.80352 7.13884 6.50553
#
# Compressibility (1/GPa) = 0.02514915
#
# Stress axis : x y z
#
# Youngs Moduli (GPa) = 58.79689 94.70865 39.03205
#
# Poissons Ratio (x) = 0.47810 0.20233
# Poissons Ratio (y) = 0.29682 0.14781
# Poissons Ratio (z) = 0.30478 0.35865
#
# Static dielectric constant tensor:
#      x y z
#    x 3.540210 0.000000 -0.389180 
#    y 0.000000 3.706400 0.000000 
#    z -0.389180 0.000000 4.026790 
# 
# 
# High freq. dielectric constant tensor:
#      x y z
#    x 1.768590 0.000000 -0.027400 
#    y 0.000000 1.773680 0.000000 
#    z -0.027400 0.000000 1.771940 
# 
# From -- ./inp_files/44250.got.cif
#   From: 2010.06.25/outbox.cif.g09.slc.cpg/sg11_23_cif.got.tgz:44250.got - 2010.06.27 23:14:04.
