data_PCOD8068423
_publ_section_title
;
Structure prediction by ZEFSAII (Michael W. Deem and Ramdas Pophale) SiO2 
 PCOD8068423
Probable space group: P 21/M
;
_chemical_formula_sum "Si O2"
_cell_formula_units_Z 32
_cell_length_a 21.410444
_cell_length_b 13.850431
_cell_length_c 13.068574
_cell_angle_alpha 90.000000
_cell_angle_beta 153.151305
_cell_angle_gamma 90.000000
_cell_volume 1750.272592
_symmetry_space_group_name_H-M "P 21/M"
_symmetry_group_IT_number 11
_symmetry_cell_setting 'monoclinic'
loop_
_space_group_symop_operation_xyz
x,y,z
-x,1/2+y,-z
-x,-y,-z
x,1/2-y,z
loop_
_atom_site_type_symbol
_atom_site_label
_atom_site_fract_x
_atom_site_fract_y
_atom_site_fract_z
Si Si1 0.308704 0.140756 0.117694
Si Si2 0.997238 0.641097 0.322540
Si Si3 0.523069 0.502805 0.778831
Si Si4 0.985484 0.640611 0.971330
Si Si5 0.385089 0.945267 0.770631
Si Si6 0.289411 0.643823 0.824619
Si Si7 0.312571 0.359340 0.362578
Si Si8 0.094963 0.509686 0.292354
O O1 0.360939 0.250000 0.175739
O O2 0.309575 0.115111 0.238679
O O3 0.410036 0.067477 0.210280
O O4 0.152906 0.129003 0.844355
O O5 0.005386 0.750000 0.285673
O O6 0.122916 0.627904 0.586747
O O7 0.004178 0.559015 0.246975
O O8 0.451303 0.576352 0.755844
O O9 0.411247 0.432307 0.566139
O O10 0.639366 0.437905 0.003904
O O11 0.033373 0.750000 0.025523
O O12 0.840971 0.630136 0.818703
O O13 0.973645 0.591432 0.841940
O O14 0.101632 0.583662 0.205566
O O15 0.336177 0.857107 0.771968
O O16 0.250449 0.012429 0.556795
O O17 0.500000 0.000000 0.000000
O O18 0.327439 0.750000 0.922714
O O19 0.366087 0.250000 0.458289
#
# Coordination Sequence:
#
# PCOD8068423 Si02
#       8
#     4   4   4   4   4   4   4   4
#     4  10  21  35  53  75 102 139 179 217 258 308
#     4   9  17  33  55  77 101 133 177 218 256 309
#     4  11  20  34  53  77 108 138 173 214 264 317
#     4  10  19  30  51  79 104 135 177 220 261 308
#     4   9  19  33  50  78 108 133 165 211 264 319
#     4   9  19  34  55  79 101 132 175 220 262 312
#     4  10  19  34  53  76 106 139 178 213 253 315
#     4  10  17  31  54  75 104 136 174 216 260 309
#
# _framework density 18.282865999999999
#
# number of rings (size 3 to 8) (size 9 to 14) (size 15 to 20)
#    0.000    2.250    2.500    1.125    0.000    1.500 
#    0.000    0.000    0.000    6.000    0.000    0.000 
#    0.000    0.000    0.000    0.000    0.000    0.000 
#
# Total GULP energy -396505.521848 kJ/mol
# GULP energy per Si atom -12390.797558 kJ/mol
# Density = 1.824125 g / cm^3
# Si number density = 18.282866 Si / 1000 Ang^3
#
#
#
# Elastic Constant Matrix: (Units=GPa)
#
#
# Indices 1 2 3 4 5 6 
#
# 1 59.8328 21.7861 9.5411 0.0000 1.2319 0.0000
# 2 21.7861 76.1104 22.1678 0.0000 -5.8016 0.0000
# 3 9.5411 22.1678 89.3238 0.0000 -4.5263 0.0000
# 4 0.0000 0.0000 0.0000 22.6977 0.0000 0.1989
# 5 1.2319 -5.8016 -4.5263 0.0000 19.1478 0.0000
# 6 0.0000 0.0000 0.0000 0.1989 0.0000 24.6808
#
#
#
# Elastic Compliance Matrix: (Units=1/GPa)
#
#
# Indices 1 2 3 4 5 6 
#
# 1 0.018872 -0.005392 -0.000832 0.000000 -0.003044 0.000000
# 2 -0.005392 0.015939 -0.003155 0.000000 0.004430 0.000000
# 3 -0.000832 -0.003155 0.012167 0.000000 0.001974 0.000000
# 4 0.000000 0.000000 0.000000 0.044060 0.000000 -0.000355
# 5 -0.003044 0.004430 0.001974 0.000000 0.054230 0.000000
# 6 0.000000 0.000000 0.000000 -0.000355 0.000000 0.040520
#
#
# Mechanical properties :
#
#
# Convention : Reuss Voigt Hill
#
# Bulk Modulus (GPa) = 35.43577 36.91744 36.17660
# Shear Modulus (GPa) = 23.36964 24.75673 24.06318
#
# Velocity S-wave (km/s) = 3.57911 3.68379 3.63183
# Velocity P-wave (km/s) = 6.04186 6.19112 6.11695
#
# Compressibility (1/GPa) = 0.02822007
#
# Stress axis : x y z
#
# Youngs Moduli (GPa) = 52.98910 62.73994 82.18860
#
# Poissons Ratio (x) = 0.33827 0.06838
# Poissons Ratio (y) = 0.28570 0.25932
# Poissons Ratio (z) = 0.04409 0.19796
#
# Static dielectric constant tensor:
#      x y z
#    x 3.284950 0.000000 0.020460 
#    y 0.000000 3.785170 0.000000 
#    z 0.020460 0.000000 3.598090 
# 
# 
# High freq. dielectric constant tensor:
#      x y z
#    x 1.680960 0.000000 -0.003630 
#    y 0.000000 1.694610 0.000000 
#    z -0.003630 0.000000 1.725750 
# 
# From -- ./inp_files/41688.got.cif
#   From: 2010.06.25/outbox.cif.g09.slc.cpg/sg11_21_cif.got.tgz:41688.got - 2010.06.27 23:14:04.
