data_PCOD8068680
_publ_section_title
;
Structure prediction by ZEFSAII (Michael W. Deem and Ramdas Pophale) SiO2 
 PCOD8068680
Probable space group: P 21/M
;
_chemical_formula_sum "Si O2"
_cell_formula_units_Z 32
_cell_length_a 15.824502
_cell_length_b 8.533228
_cell_length_c 14.785617
_cell_angle_alpha 90.000000
_cell_angle_beta 62.413210
_cell_angle_gamma 90.000000
_cell_volume 1769.573823
_symmetry_space_group_name_H-M "P 21/M"
_symmetry_group_IT_number 11
_symmetry_cell_setting 'monoclinic'
loop_
_space_group_symop_operation_xyz
x,y,z
-x,1/2+y,-z
-x,-y,-z
x,1/2-y,z
loop_
_atom_site_type_symbol
_atom_site_label
_atom_site_fract_x
_atom_site_fract_y
_atom_site_fract_z
Si Si1 0.607545 0.435538 0.849511
Si Si2 0.228969 0.565412 0.357312
Si Si3 0.145201 0.564900 0.779867
Si Si4 0.061777 0.565973 0.309629
Si Si5 0.764958 0.433202 0.084590
Si Si6 0.069541 0.433681 0.114239
Si Si7 0.142307 0.564007 0.581202
Si Si8 0.606480 0.566151 0.040745
O O1 0.611213 0.250000 0.845792
O O2 0.677139 0.507383 0.737595
O O3 0.500164 0.496888 0.884835
O O4 0.644839 0.489120 0.929415
O O5 0.239531 0.750000 0.347972
O O6 0.133519 0.513730 0.352937
O O7 0.219708 0.512090 0.467033
O O8 0.141353 0.750000 0.786146
O O9 0.217662 0.504306 0.821165
O O10 0.179154 0.511088 0.662697
O O11 0.037754 0.505369 0.852642
O O12 0.068469 0.750000 0.284925
O O13 0.093259 0.467780 0.206565
O O14 0.956103 0.521353 0.393710
O O15 0.742137 0.250000 0.093480
O O16 0.674444 0.523977 0.090233
O O17 0.860587 0.465780 0.981969
O O18 0.083773 0.250000 0.087383
O O19 0.123600 0.750000 0.587935
O O20 0.605556 0.750000 0.026512
#
# Coordination Sequence:
#
# PCOD8068680 Si02
#       8
#     4   4   4   4   4   4   4   4
#     4   9  18  34  53  73  97 123 154 193 237 283
#     4   9  17  29  49  71  91 121 158 194 231 276
#     4   8  17  31  47  67  92 124 160 196 232 273
#     4  10  18  28  44  71 102 128 154 185 230 283
#     4  11  20  31  48  69  94 125 159 194 236 283
#     4  10  19  32  48  69  96 125 160 198 234 275
#     4   9  17  32  49  66  92 125 161 196 229 269
#     4  10  20  33  50  73  98 124 154 191 237 285
#
# _framework density 18.083449000000002
#
# number of rings (size 3 to 8) (size 9 to 14) (size 15 to 20)
#    0.000    2.500    0.000    3.750    0.000    1.500 
#    0.000    7.500    0.000    0.750    0.000    0.000 
#    0.000    0.000    0.000    0.000    0.000    0.500 
#
# Total GULP energy -396669.901994 kJ/mol
# GULP energy per Si atom -12395.934437 kJ/mol
# Density = 1.804229 g / cm^3
# Si number density = 18.083449 Si / 1000 Ang^3
#
#
#
# Elastic Constant Matrix: (Units=GPa)
#
#
# Indices 1 2 3 4 5 6 
#
# 1 111.3913 7.0071 71.0354 0.0000 12.7545 0.0000
# 2 7.0071 16.2089 4.2895 0.0000 -2.8762 0.0000
# 3 71.0354 4.2895 141.9762 0.0000 1.6403 0.0000
# 4 0.0000 0.0000 0.0000 18.6367 0.0000 -0.1741
# 5 12.7545 -2.8762 1.6403 0.0000 21.0935 0.0000
# 6 0.0000 0.0000 0.0000 -0.1741 0.0000 21.8174
#
#
#
# Elastic Compliance Matrix: (Units=1/GPa)
#
#
# Indices 1 2 3 4 5 6 
#
# 1 0.015064 -0.006264 -0.007239 0.000000 -0.009400 0.000000
# 2 -0.006264 0.066409 0.000980 0.000000 0.012767 0.000000
# 3 -0.007239 0.000980 0.010593 0.000000 0.003687 0.000000
# 4 0.000000 0.000000 0.000000 0.053662 0.000000 0.000428
# 5 -0.009400 0.012767 0.003687 0.000000 0.054546 0.000000
# 6 0.000000 0.000000 0.000000 0.000428 0.000000 0.045838
#
#
# Mechanical properties :
#
#
# Convention : Reuss Voigt Hill
#
# Bulk Modulus (GPa) = 14.92103 48.24895 31.58499
# Shear Modulus (GPa) = 17.03584 24.79247 20.91416
#
# Velocity S-wave (km/s) = 3.07264 3.70672 3.40448
# Velocity P-wave (km/s) = 4.56698 6.71259 5.74092
#
# Compressibility (1/GPa) = 0.06701949
#
# Stress axis : x y z
#
# Youngs Moduli (GPa) = 66.38183 15.05828 94.39934
#
# Poissons Ratio (x) = 0.09433 0.68339
# Poissons Ratio (y) = 0.41585 -0.09255
# Poissons Ratio (z) = 0.48056 -0.01476
#
# Static dielectric constant tensor:
#      x y z
#    x 3.462900 0.000000 0.103620 
#    y 0.000000 3.136010 0.000000 
#    z 0.103620 0.000000 3.703970 
# 
# 
# High freq. dielectric constant tensor:
#      x y z
#    x 1.684930 0.000000 0.009610 
#    y 0.000000 1.682640 0.000000 
#    z 0.009610 0.000000 1.698740 
# 
# From -- ./inp_files/51670.got.cif
#   From: 2010.06.25/outbox.cif.g09.slc.cpg/sg11_26_cif.got.tgz:51670.got - 2010.06.27 23:14:04.
