data_PCOD8068556
_publ_section_title
;
Structure prediction by ZEFSAII (Michael W. Deem and Ramdas Pophale) SiO2 
 PCOD8068556
Probable space group: P 21/M
;
_chemical_formula_sum "Si O2"
_cell_formula_units_Z 28
_cell_length_a 13.676219
_cell_length_b 9.221851
_cell_length_c 25.004275
_cell_angle_alpha 90.000000
_cell_angle_beta 144.286583
_cell_angle_gamma 90.000000
_cell_volume 1840.820496
_symmetry_space_group_name_H-M "P 21/M"
_symmetry_group_IT_number 11
_symmetry_cell_setting 'monoclinic'
loop_
_space_group_symop_operation_xyz
x,y,z
-x,1/2+y,-z
-x,-y,-z
x,1/2-y,z
loop_
_atom_site_type_symbol
_atom_site_label
_atom_site_fract_x
_atom_site_fract_y
_atom_site_fract_z
Si Si1 0.905549 0.914330 0.502311
Si Si2 0.607403 0.919467 0.303792
Si Si3 0.704248 0.082205 0.044547
Si Si4 0.229381 0.919536 0.135834
Si Si5 0.680230 0.581510 0.140823
Si Si6 0.931587 0.080691 0.047075
Si Si7 0.806809 0.079420 0.299031
O O1 0.944256 0.750000 0.505462
O O2 0.706756 0.944558 0.404794
O O3 0.994202 0.949093 0.598667
O O4 0.000000 0.000000 0.500000
O O5 0.609512 0.750000 0.287588
O O6 0.418671 0.972541 0.229852
O O7 0.688088 0.011427 0.291759
O O8 0.728712 0.250000 0.071385
O O9 0.831512 0.032209 0.055139
O O10 0.742240 0.982609 0.112185
O O11 0.517511 0.056426 0.939551
O O12 0.209859 0.750000 0.137258
O O13 0.179597 0.963227 0.053462
O O14 0.109425 0.999488 0.124828
O O15 0.727670 0.750000 0.164214
O O16 0.777337 0.497532 0.230006
O O17 0.968715 0.250000 0.064087
O O18 0.766685 0.250000 0.276365
#
# Coordination Sequence:
#
# PCOD8068556 Si02
#       7
#     4   4   4   4   4   4   4
#     4   8  15  26  40  59  83 111 140 170 206 247
#     4   9  16  28  44  61  85 115 144 174 208 245
#     4   9  18  32  46  61  84 112 142 175 208 244
#     4   9  17  28  43  63  85 111 142 171 202 244
#     4  10  19  30  45  64  85 111 142 172 207 250
#     4   9  17  29  43  60  85 113 139 170 206 243
#     4  10  18  27  41  63  89 114 141 172 207 249
#
# _framework density 15.210608000000001
#
# number of rings (size 3 to 8) (size 9 to 14) (size 15 to 20)
#    0.000    2.857    0.000    1.714    0.000    4.571 
#    0.000    2.857    0.000    0.000    0.000    1.000 
#    0.000    0.000    0.000    0.000    0.000    0.000 
#
# Total GULP energy -346982.596358 kJ/mol
# GULP energy per Si atom -12392.235584 kJ/mol
# Density = 1.517599 g / cm^3
# Si number density = 15.210608 Si / 1000 Ang^3
#
#
#
# Elastic Constant Matrix: (Units=GPa)
#
#
# Indices 1 2 3 4 5 6 
#
# 1 100.4175 44.0341 60.0564 0.0000 4.8145 0.0000
# 2 44.0341 62.6482 51.8820 0.0000 -3.7807 0.0000
# 3 60.0564 51.8820 129.2359 0.0000 3.2121 0.0000
# 4 0.0000 0.0000 0.0000 22.3165 0.0000 -1.4273
# 5 4.8145 -3.7807 3.2121 0.0000 21.2992 0.0000
# 6 0.0000 0.0000 0.0000 -1.4273 0.0000 25.5441
#
#
#
# Elastic Compliance Matrix: (Units=1/GPa)
#
#
# Indices 1 2 3 4 5 6 
#
# 1 0.016282 -0.008307 -0.004119 0.000000 -0.004534 0.000000
# 2 -0.008307 0.028863 -0.007931 0.000000 0.008197 0.000000
# 3 -0.004119 -0.007931 0.012896 0.000000 -0.002422 0.000000
# 4 0.000000 0.000000 0.000000 0.044971 0.000000 0.002513
# 5 -0.004534 0.008197 -0.002422 0.000000 0.049795 0.000000
# 6 0.000000 0.000000 0.000000 0.002513 0.000000 0.039288
#
#
# Mechanical properties :
#
#
# Convention : Reuss Voigt Hill
#
# Bulk Modulus (GPa) = 57.70910 67.13852 62.42381
# Shear Modulus (GPa) = 20.95703 22.92056 21.93879
#
# Velocity S-wave (km/s) = 3.71589 3.88607 3.80193
# Velocity P-wave (km/s) = 7.51218 8.02312 7.77185
#
# Compressibility (1/GPa) = 0.01732829
#
# Stress axis : x y z
#
# Youngs Moduli (GPa) = 61.41894 34.64606 77.54459
#
# Poissons Ratio (x) = 0.28779 0.31938
# Poissons Ratio (y) = 0.51019 0.61499
# Poissons Ratio (z) = 0.25297 0.27477
#
# Static dielectric constant tensor:
#      x y z
#    x 2.689010 0.000000 0.056800 
#    y 0.000000 2.983800 0.000000 
#    z 0.056800 0.000000 3.410710 
# 
# 
# High freq. dielectric constant tensor:
#      x y z
#    x 1.548180 0.000000 0.000280 
#    y 0.000000 1.590970 0.000000 
#    z 0.000280 0.000000 1.585940 
# 
# From -- ./inp_files/68355.got.cif
#   From: 2010.06.25/outbox.cif.g09.slc.cpg/sg11_35_cif.got.tgz:68355.got - 2010.06.27 23:14:04.
