data_PCOD8068826
_publ_section_title
;
Structure prediction by ZEFSAII (Michael W. Deem and Ramdas Pophale) SiO2 
 PCOD8068826
Probable space group: P 21/M
;
_chemical_formula_sum "Si O2"
_cell_formula_units_Z 28
_cell_length_a 21.609981
_cell_length_b 8.768162
_cell_length_c 16.691604
_cell_angle_alpha 90.000000
_cell_angle_beta 149.229687
_cell_angle_gamma 90.000000
_cell_volume 1618.041435
_symmetry_space_group_name_H-M "P 21/M"
_symmetry_group_IT_number 11
_symmetry_cell_setting 'monoclinic'
loop_
_space_group_symop_operation_xyz
x,y,z
-x,1/2+y,-z
-x,-y,-z
x,1/2-y,z
loop_
_atom_site_type_symbol
_atom_site_label
_atom_site_fract_x
_atom_site_fract_y
_atom_site_fract_z
Si Si1 0.495642 0.573212 0.762525
Si Si2 0.590716 0.068971 0.164759
Si Si3 0.826365 0.927136 0.360914
Si Si4 0.904830 0.072654 0.289742
Si Si5 0.675096 0.423689 0.752284
Si Si6 0.430105 0.926412 0.521462
Si Si7 0.756424 0.571286 0.992461
O O1 0.510362 0.750000 0.796177
O O2 0.445578 0.499247 0.788511
O O3 0.401385 0.543372 0.583821
O O4 0.628740 0.511338 0.886540
O O5 0.581896 0.250000 0.152212
O O6 0.727102 0.019926 0.299247
O O7 0.500000 0.000000 0.000000
O O8 0.792630 0.750000 0.324306
O O9 0.953378 0.962546 0.544716
O O10 0.829009 0.980955 0.271851
O O11 0.877625 0.250000 0.271318
O O12 0.863918 0.016122 0.157056
O O13 0.706663 0.250000 0.808568
O O14 0.685447 0.453166 0.666676
O O15 0.535189 0.456682 0.615074
O O16 0.761501 0.529219 0.903157
O O17 0.475812 0.750000 0.563294
O O18 0.775454 0.750000 0.023699
#
# Coordination Sequence:
#
# PCOD8068826 Si02
#       7
#     4   4   4   4   4   4   4
#     4   8  16  29  44  64  90 123 157 188 226 271
#     4  11  21  33  50  70  95 126 161 197 232 275
#     4  10  21  36  51  69  95 123 153 192 238 282
#     4  10  20  34  52  71  91 119 157 196 232 276
#     4   9  15  23  39  63  90 119 152 189 229 277
#     4   8  14  26  41  58  86 122 156 190 230 273
#     4  10  18  29  46  68  97 126 152 188 234 279
#
# _framework density 17.304872
#
# number of rings (size 3 to 8) (size 9 to 14) (size 15 to 20)
#    0.000    2.571    0.000    3.857    0.000    3.429 
#    0.000    6.429    0.000    0.000    0.000    1.000 
#    0.000    0.000    0.000    0.000    0.000    0.000 
#
# Total GULP energy -346985.535629 kJ/mol
# GULP energy per Si atom -12392.340558 kJ/mol
# Density = 1.726549 g / cm^3
# Si number density = 17.304872 Si / 1000 Ang^3
#
#
#
# Elastic Constant Matrix: (Units=GPa)
#
#
# Indices 1 2 3 4 5 6 
#
# 1 82.3567 27.1569 52.3772 0.0000 -23.7108 0.0000
# 2 27.1569 53.2517 32.0465 0.0000 -5.4343 0.0000
# 3 52.3772 32.0465 104.5859 0.0000 -32.0589 0.0000
# 4 0.0000 0.0000 0.0000 28.9194 0.0000 -3.4544
# 5 -23.7108 -5.4343 -32.0589 0.0000 32.1292 0.0000
# 6 0.0000 0.0000 0.0000 -3.4544 0.0000 20.2107
#
#
#
# Elastic Compliance Matrix: (Units=1/GPa)
#
#
# Indices 1 2 3 4 5 6 
#
# 1 0.020096 -0.005955 -0.005766 0.000000 0.008070 0.000000
# 2 -0.005955 0.025256 -0.006907 0.000000 -0.007015 0.000000
# 3 -0.005766 -0.006907 0.018588 0.000000 0.013125 0.000000
# 4 0.000000 0.000000 0.000000 0.035300 0.000000 0.006033
# 5 0.008070 -0.007015 0.013125 0.000000 0.048989 0.000000
# 6 0.000000 0.000000 0.000000 0.006033 0.000000 0.050510
#
#
# Mechanical properties :
#
#
# Convention : Reuss Voigt Hill
#
# Bulk Modulus (GPa) = 37.47315 51.48394 44.47855
# Shear Modulus (GPa) = 20.41725 24.82609 22.62167
#
# Velocity S-wave (km/s) = 3.43863 3.79176 3.61950
# Velocity P-wave (km/s) = 6.12105 6.99897 6.57468
#
# Compressibility (1/GPa) = 0.02668577
#
# Stress axis : x y z
#
# Youngs Moduli (GPa) = 49.76000 39.59411 53.79683
#
# Poissons Ratio (x) = 0.23579 0.31018
# Poissons Ratio (y) = 0.29633 0.37156
# Poissons Ratio (z) = 0.28691 0.27346
#
# Static dielectric constant tensor:
#      x y z
#    x 3.321350 0.000000 -0.440250 
#    y 0.000000 3.179260 0.000000 
#    z -0.440250 0.000000 3.320470 
# 
# 
# High freq. dielectric constant tensor:
#      x y z
#    x 1.635300 0.000000 -0.042360 
#    y 0.000000 1.669560 0.000000 
#    z -0.042360 0.000000 1.662860 
# 
# From -- ./inp_files/61703.got.cif
#   From: 2010.06.25/outbox.cif.g09.slc.cpg/sg11_31_cif.got.tgz:61703.got - 2010.06.27 23:14:04.
