data_PCOD8068999
_publ_section_title
;
Structure prediction by ZEFSAII (Michael W. Deem and Ramdas Pophale) SiO2 
 PCOD8068999
Probable space group: P 21/M
;
_chemical_formula_sum "Si O2"
_cell_formula_units_Z 24
_cell_length_a 11.421008
_cell_length_b 8.889799
_cell_length_c 20.780862
_cell_angle_alpha 90.000000
_cell_angle_beta 133.642734
_cell_angle_gamma 90.000000
_cell_volume 1526.837746
_symmetry_space_group_name_H-M "P 21/M"
_symmetry_group_IT_number 11
_symmetry_cell_setting 'monoclinic'
loop_
_space_group_symop_operation_xyz
x,y,z
-x,1/2+y,-z
-x,-y,-z
x,1/2-y,z
loop_
_atom_site_type_symbol
_atom_site_label
_atom_site_fract_x
_atom_site_fract_y
_atom_site_fract_z
Si Si1 0.759469 0.920152 0.244968
Si Si2 0.227666 0.423781 0.132464
Si Si3 0.136999 0.571557 0.595328
Si Si4 0.669640 0.425911 0.080474
Si Si5 0.129404 0.576955 0.968385
Si Si6 0.545716 0.581032 0.277321
O O1 0.821325 0.750000 0.256490
O O2 0.584504 0.916996 0.214865
O O3 0.884432 0.008442 0.339615
O O4 0.746609 0.006133 0.173481
O O5 0.273466 0.250000 0.150390
O O6 0.370040 0.511325 0.223199
O O7 0.061864 0.458613 0.107326
O O8 0.214984 0.474369 0.053789
O O9 0.124037 0.750000 0.589507
O O10 0.312904 0.517587 0.634723
O O11 0.000000 0.500000 0.500000
O O12 0.641452 0.250000 0.079400
O O13 0.796360 0.461385 0.072301
O O14 0.500000 0.500000 0.000000
O O15 0.158097 0.750000 0.999067
O O16 0.549365 0.750000 0.306877
#
# Coordination Sequence:
#
# PCOD8068999 Si02
#       6
#     4   4   4   4   4   4
#     4   9  19  32  46  68  97 125 156 194 236 283
#     4  10  18  30  47  66  88 122 165 203 239 282
#     4  10  18  31  50  74 100 126 156 192 240 289
#     4  11  21  32  46  65  94 130 165 201 240 285
#     4   9  20  33  44  62  92 126 162 203 242 279
#     4   9  18  30  46  68  96 123 150 192 239 279
#
# _framework density 15.718762999999999
#
# number of rings (size 3 to 8) (size 9 to 14) (size 15 to 20)
#    1.000    1.333    0.000    4.000    0.000    6.000 
#    0.000    0.000    0.000    0.000    0.000    1.167 
#    0.000    0.000    0.000    0.000    0.000    0.000 
#
# Total GULP energy -297463.336300 kJ/mol
# GULP energy per Si atom -12394.305679 kJ/mol
# Density = 1.568299 g / cm^3
# Si number density = 15.718763 Si / 1000 Ang^3
#
#
#
# Elastic Constant Matrix: (Units=GPa)
#
#
# Indices 1 2 3 4 5 6 
#
# 1 65.6625 42.8774 47.8171 0.0000 2.8206 0.0000
# 2 42.8774 134.4647 68.5126 0.0000 3.6111 0.0000
# 3 47.8171 68.5126 124.2025 0.0000 4.9541 0.0000
# 4 0.0000 0.0000 0.0000 33.2213 0.0000 1.0906
# 5 2.8206 3.6111 4.9541 0.0000 22.2895 0.0000
# 6 0.0000 0.0000 0.0000 1.0906 0.0000 21.7807
#
#
#
# Elastic Compliance Matrix: (Units=1/GPa)
#
#
# Indices 1 2 3 4 5 6 
#
# 1 0.022517 -0.003836 -0.006522 0.000000 -0.000778 0.000000
# 2 -0.003836 0.011002 -0.004581 0.000000 -0.000279 0.000000
# 3 -0.006522 -0.004581 0.013143 0.000000 -0.001354 0.000000
# 4 0.000000 0.000000 0.000000 0.030151 0.000000 -0.001510
# 5 -0.000778 -0.000279 -0.001354 0.000000 0.045309 0.000000
# 6 0.000000 0.000000 0.000000 -0.001510 0.000000 0.045988
#
#
# Mechanical properties :
#
#
# Convention : Reuss Voigt Hill
#
# Bulk Modulus (GPa) = 59.57905 71.41600 65.49753
# Shear Modulus (GPa) = 24.56020 26.46646 25.51333
#
# Velocity S-wave (km/s) = 3.95711 4.10780 4.03316
# Velocity P-wave (km/s) = 7.67227 8.24809 7.96538
#
# Compressibility (1/GPa) = 0.01678442
#
# Stress axis : x y z
#
# Youngs Moduli (GPa) = 44.41043 90.89567 76.08629
#
# Poissons Ratio (x) = 0.34870 0.49622
# Poissons Ratio (y) = 0.17037 0.34852
# Poissons Ratio (z) = 0.28963 0.41636
#
# Static dielectric constant tensor:
#      x y z
#    x 2.877040 0.000000 0.086390 
#    y 0.000000 1.167720 0.000000 
#    z 0.086390 0.000000 2.841260 
# 
# 
# High freq. dielectric constant tensor:
#      x y z
#    x 1.572950 0.000000 0.012310 
#    y 0.000000 1.624540 0.000000 
#    z 0.012310 0.000000 1.588350 
# 
# From -- ./inp_files/68261.got.cif
#   From: 2010.06.25/outbox.cif.g09.slc.cpg/sg11_35_cif.got.tgz:68261.got - 2010.06.27 23:14:04.
