data_PCOD8068906
_publ_section_title
;
Structure prediction by ZEFSAII (Michael W. Deem and Ramdas Pophale) SiO2 
 PCOD8068906
Probable space group: P 21/M
;
_chemical_formula_sum "Si O2"
_cell_formula_units_Z 32
_cell_length_a 22.038932
_cell_length_b 9.044714
_cell_length_c 11.235880
_cell_angle_alpha 90.000000
_cell_angle_beta 48.571677
_cell_angle_gamma 90.000000
_cell_volume 1679.301540
_symmetry_space_group_name_H-M "P 21/M"
_symmetry_group_IT_number 11
_symmetry_cell_setting 'monoclinic'
loop_
_space_group_symop_operation_xyz
x,y,z
-x,1/2+y,-z
-x,-y,-z
x,1/2-y,z
loop_
_atom_site_type_symbol
_atom_site_label
_atom_site_fract_x
_atom_site_fract_y
_atom_site_fract_z
Si Si1 0.746670 0.580159 0.691973
Si Si2 0.330000 0.578118 0.003227
Si Si3 0.194585 0.576275 0.006850
Si Si4 0.660352 0.081836 0.606810
Si Si5 0.485394 0.420121 0.893461
Si Si6 0.035104 0.575623 0.336765
Si Si7 0.101754 0.419325 0.662434
Si Si8 0.193288 0.922981 0.744533
O O1 0.733708 0.750000 0.745475
O O2 0.737631 0.473756 0.815700
O O3 0.677496 0.534100 0.688913
O O4 0.833945 0.549503 0.524709
O O5 0.349559 0.750000 0.994948
O O6 0.285864 0.544535 0.934841
O O7 0.412836 0.489029 0.910988
O O8 0.179899 0.750000 0.016770
O O9 0.186897 0.506563 0.884706
O O10 0.125017 0.515630 0.187127
O O11 0.680461 0.250000 0.622318
O O12 0.564608 0.066876 0.705612
O O13 0.716222 0.040574 0.421334
O O14 0.464790 0.250000 0.947706
O O15 0.500000 0.500000 0.000000
O O16 0.032102 0.750000 0.365139
O O17 0.000000 0.500000 0.500000
O O18 0.983194 0.535506 0.285821
O O19 0.103640 0.250000 0.700548
O O20 0.122665 0.512608 0.752542
O O21 0.178102 0.750000 0.769120
#
# Coordination Sequence:
#
# PCOD8068906 Si02
#       8
#     4   4   4   4   4   4   4   4
#     4  10  18  29  48  74 105 137 169 211 264 318
#     4  11  21  33  50  74 105 139 177 217 263 316
#     4   9  20  37  56  76 103 143 183 219 260 311
#     4   9  18  32  52  75 101 132 170 215 258 309
#     4  11  21  33  51  79 109 136 169 216 269 319
#     4  10  20  36  56  80 112 143 175 217 266 319
#     4   9  19  33  51  79 110 138 171 220 273 310
#     4   9  18  36  58  77 100 138 186 222 253 308
#
# _framework density 19.055540000000001
#
# number of rings (size 3 to 8) (size 9 to 14) (size 15 to 20)
#    0.000    2.250    1.250    1.875    0.000    2.000 
#    0.000    3.125    0.000    0.000    0.000    0.000 
#    0.000    0.000    0.000    0.000    0.000    0.000 
#
# Total GULP energy -396629.375884 kJ/mol
# GULP energy per Si atom -12394.667996 kJ/mol
# Density = 1.901217 g / cm^3
# Si number density = 19.055540 Si / 1000 Ang^3
#
#
#
# Elastic Constant Matrix: (Units=GPa)
#
#
# Indices 1 2 3 4 5 6 
#
# 1 112.6498 40.0302 48.4563 0.0000 -3.1226 0.0000
# 2 40.0302 63.4002 24.8327 0.0000 0.3661 0.0000
# 3 48.4563 24.8327 78.1858 0.0000 5.6736 0.0000
# 4 0.0000 0.0000 0.0000 19.9713 0.0000 -1.5686
# 5 -3.1226 0.3661 5.6736 0.0000 32.3225 0.0000
# 6 0.0000 0.0000 0.0000 -1.5686 0.0000 27.8974
#
#
#
# Elastic Compliance Matrix: (Units=1/GPa)
#
#
# Indices 1 2 3 4 5 6 
#
# 1 0.014174 -0.006222 -0.007002 0.000000 0.002669 0.000000
# 2 -0.006222 0.020766 -0.002713 0.000000 -0.000360 0.000000
# 3 -0.007002 -0.002713 0.018271 0.000000 -0.003853 0.000000
# 4 0.000000 0.000000 0.000000 0.050294 0.000000 0.002828
# 5 0.002669 -0.000360 -0.003853 0.000000 0.031876 0.000000
# 6 0.000000 0.000000 0.000000 0.002828 0.000000 0.036005
#
#
# Mechanical properties :
#
#
# Convention : Reuss Voigt Hill
#
# Bulk Modulus (GPa) = 46.86798 53.43046 50.14922
# Shear Modulus (GPa) = 23.76733 25.43267 24.60000
#
# Velocity S-wave (km/s) = 3.53550 3.65726 3.59690
# Velocity P-wave (km/s) = 6.42769 6.77749 6.60490
#
# Compressibility (1/GPa) = 0.02133653
#
# Stress axis : x y z
#
# Youngs Moduli (GPa) = 70.55195 48.15505 54.73209
#
# Poissons Ratio (x) = 0.29963 0.38323
# Poissons Ratio (y) = 0.43899 0.14850
# Poissons Ratio (z) = 0.49399 0.13065
#
# Static dielectric constant tensor:
#      x y z
#    x 3.498870 0.000000 -0.107840 
#    y 0.000000 3.405010 0.000000 
#    z -0.107840 0.000000 3.663940 
# 
# 
# High freq. dielectric constant tensor:
#      x y z
#    x 1.737950 0.000000 -0.014040 
#    y 0.000000 1.728010 0.000000 
#    z -0.014040 0.000000 1.734780 
# 
# From -- ./inp_files/42733.got.cif
#   From: 2010.06.25/outbox.cif.g09.slc.cpg/sg11_22_cif.got.tgz:42733.got - 2010.06.27 23:14:04.
