data_PCOD8068380
_publ_section_title
;
Structure prediction by ZEFSAII (Michael W. Deem and Ramdas Pophale) SiO2 
 PCOD8068380
Probable space group: P 21/M
;
_chemical_formula_sum "Si O2"
_cell_formula_units_Z 32
_cell_length_a 14.850516
_cell_length_b 9.418196
_cell_length_c 30.389521
_cell_angle_alpha 90.000000
_cell_angle_beta 151.061267
_cell_angle_gamma 90.000000
_cell_volume 2056.674210
_symmetry_space_group_name_H-M "P 21/M"
_symmetry_group_IT_number 11
_symmetry_cell_setting 'monoclinic'
loop_
_space_group_symop_operation_xyz
x,y,z
-x,1/2+y,-z
-x,-y,-z
x,1/2-y,z
loop_
_atom_site_type_symbol
_atom_site_label
_atom_site_fract_x
_atom_site_fract_y
_atom_site_fract_z
Si Si1 0.728931 0.583039 0.738169
Si Si2 0.978288 0.585972 0.925652
Si Si3 0.657031 0.081864 0.385990
Si Si4 0.649543 0.414678 0.622829
Si Si5 0.978802 0.413863 0.589138
Si Si6 0.267703 0.414551 0.096721
Si Si7 0.290260 0.911249 0.449710
Si Si8 0.320133 0.582439 0.703381
O O1 0.717645 0.750000 0.723103
O O2 0.896978 0.548319 0.843151
O O3 0.535793 0.525050 0.676143
O O4 0.769682 0.497147 0.710822
O O5 0.030379 0.750000 0.951449
O O6 0.822529 0.545076 0.894996
O O7 0.167406 0.498995 0.014504
O O8 0.642194 0.250000 0.377866
O O9 0.828398 0.030956 0.489223
O O10 0.685338 0.022775 0.348851
O O11 0.632409 0.250000 0.628130
O O12 0.752487 0.435881 0.620043
O O13 0.443924 0.480458 0.532898
O O14 0.027718 0.250000 0.601144
O O15 0.898415 0.436250 0.603801
O O16 0.163411 0.506447 0.664970
O O17 0.241933 0.250000 0.075472
O O18 0.483445 0.456945 0.190581
O O19 0.363527 0.750000 0.489167
O O20 0.284919 0.750000 0.688998
#
# Coordination Sequence:
#
# PCOD8068380 Si02
#       8
#     4   4   4   4   4   4   4   4
#     4  10  17  30  49  67  92 128 155 178 225 282
#     4   9  17  29  48  68  88 119 156 186 221 275
#     4   9  16  29  46  62  89 127 160 181 213 268
#     4  10  19  29  46  71  93 115 151 195 231 268
#     4  10  19  31  47  64  87 125 162 189 220 262
#     4   9  17  30  46  65  91 121 150 188 233 268
#     4   9  18  33  48  63  90 125 154 185 232 279
#     4  10  19  31  46  65  91 124 158 191 225 263
#
# _framework density 15.559100000000001
#
# number of rings (size 3 to 8) (size 9 to 14) (size 15 to 20)
#    0.000    2.500    2.500    0.750    0.000    2.000 
#    0.000    0.625    0.000    0.000    0.000    0.875 
#    0.000    0.000    0.000    0.000    0.000    0.000 
#
# Total GULP energy -396800.557352 kJ/mol
# GULP energy per Si atom -12400.017417 kJ/mol
# Density = 1.552369 g / cm^3
# Si number density = 15.559100 Si / 1000 Ang^3
#
#
#
# Elastic Constant Matrix: (Units=GPa)
#
#
# Indices 1 2 3 4 5 6 
#
# 1 92.1068 43.8480 59.3430 0.0000 -6.1224 0.0000
# 2 43.8480 60.3714 56.1891 0.0000 -5.9426 0.0000
# 3 59.3430 56.1891 116.2801 0.0000 -4.4109 0.0000
# 4 0.0000 0.0000 0.0000 28.5583 0.0000 -0.7442
# 5 -6.1224 -5.9426 -4.4109 0.0000 22.8018 0.0000
# 6 0.0000 0.0000 0.0000 -0.7442 0.0000 24.3572
#
#
#
# Elastic Compliance Matrix: (Units=1/GPa)
#
#
# Indices 1 2 3 4 5 6 
#
# 1 0.018286 -0.008150 -0.005327 0.000000 0.001755 0.000000
# 2 -0.008150 0.034328 -0.012262 0.000000 0.004386 0.000000
# 3 -0.005327 -0.012262 0.017195 0.000000 -0.001300 0.000000
# 4 0.000000 0.000000 0.000000 0.035044 0.000000 0.001071
# 5 0.001755 0.004386 -0.001300 0.000000 0.045219 0.000000
# 6 0.000000 0.000000 0.000000 0.001071 0.000000 0.041088
#
#
# Mechanical properties :
#
#
# Convention : Reuss Voigt Hill
#
# Bulk Modulus (GPa) = 54.55714 65.27983 59.91849
# Shear Modulus (GPa) = 20.10054 22.43533 21.26794
#
# Velocity S-wave (km/s) = 3.59818 3.80141 3.70119
# Velocity P-wave (km/s) = 7.23900 7.83037 7.54049
#
# Compressibility (1/GPa) = 0.01832941
#
# Stress axis : x y z
#
# Youngs Moduli (GPa) = 54.68731 29.13047 58.15727
#
# Poissons Ratio (x) = 0.23742 0.30981
# Poissons Ratio (y) = 0.44571 0.71315
# Poissons Ratio (z) = 0.29133 0.35721
#
# Static dielectric constant tensor:
#      x y z
#    x 2.936960 0.000000 -0.150060 
#    y 0.000000 2.866400 0.000000 
#    z -0.150060 0.000000 2.933460 
# 
# 
# High freq. dielectric constant tensor:
#      x y z
#    x 1.580260 0.000000 -0.011910 
#    y 0.000000 1.588190 0.000000 
#    z -0.011910 0.000000 1.583710 
# 
# From -- ./inp_files/51225.got.cif
#   From: 2010.06.25/outbox.cif.g09.slc.cpg/sg11_26_cif.got.tgz:51225.got - 2010.06.27 23:14:04.
