data_PCOD8068998
_publ_section_title
;
Structure prediction by ZEFSAII (Michael W. Deem and Ramdas Pophale) SiO2 
 PCOD8068998
Probable space group: P 21/M
;
_chemical_formula_sum "Si O2"
_cell_formula_units_Z 28
_cell_length_a 12.199040
_cell_length_b 9.077107
_cell_length_c 23.258378
_cell_angle_alpha 90.000000
_cell_angle_beta 43.017943
_cell_angle_gamma 90.000000
_cell_volume 1757.040076
_symmetry_space_group_name_H-M "P 21/M"
_symmetry_group_IT_number 11
_symmetry_cell_setting 'monoclinic'
loop_
_space_group_symop_operation_xyz
x,y,z
-x,1/2+y,-z
-x,-y,-z
x,1/2-y,z
loop_
_atom_site_type_symbol
_atom_site_label
_atom_site_fract_x
_atom_site_fract_y
_atom_site_fract_z
Si Si1 0.498280 0.925228 0.724791
Si Si2 0.140657 0.420247 0.016041
Si Si3 0.766529 0.414647 0.559901
Si Si4 0.343387 0.577117 0.228763
Si Si5 0.180656 0.079237 0.867313
Si Si6 0.974082 0.412920 0.595522
Si Si7 0.461751 0.421981 0.955779
O O1 0.497711 0.750000 0.724006
O O2 0.610908 0.984122 0.629969
O O3 0.559666 0.981320 0.762675
O O4 0.320028 0.987351 0.782456
O O5 0.094553 0.250000 0.042909
O O6 0.989358 0.520384 0.090810
O O7 0.194659 0.447346 0.929988
O O8 0.287066 0.470663 0.000179
O O9 0.711226 0.250000 0.564861
O O10 0.873511 0.414419 0.575587
O O11 0.874412 0.477480 0.465954
O O12 0.376826 0.750000 0.229723
O O13 0.152063 0.541895 0.305916
O O14 0.402832 0.533859 0.142676
O O15 0.197839 0.250000 0.844596
O O16 0.043261 0.250000 0.580335
O O17 0.465051 0.250000 0.965904
O O18 0.500000 0.500000 0.000000
#
# Coordination Sequence:
#
# PCOD8068998 Si02
#       7
#     4   4   4   4   4   4   4
#     4  11  19  26  41  64  89 116 151 184 217 267
#     4   9  18  32  47  64  88 116 149 188 229 267
#     4   9  16  25  37  55  84 116 144 176 218 261
#     4   9  17  31  45  59  84 118 151 187 228 265
#     4  10  18  30  47  65  89 117 149 185 227 273
#     4   8  14  24  39  56  78 110 147 181 217 261
#     4  10  20  34  49  66  91 120 153 192 230 267
#
# _framework density 15.935891
#
# number of rings (size 3 to 8) (size 9 to 14) (size 15 to 20)
#    0.000    2.571    1.429    3.000    0.000    5.143 
#    0.000    0.000    0.000    0.000    0.000    0.000 
#    0.000    1.143    0.000    3.429    0.000    5.571 
#
# Total GULP energy -347129.140156 kJ/mol
# GULP energy per Si atom -12397.469291 kJ/mol
# Density = 1.589962 g / cm^3
# Si number density = 15.935891 Si / 1000 Ang^3
#
#
#
# Elastic Constant Matrix: (Units=GPa)
#
#
# Indices 1 2 3 4 5 6 
#
# 1 67.1351 37.5952 51.2930 0.0000 -10.1123 0.0000
# 2 37.5952 105.8537 67.1847 0.0000 -20.2534 0.0000
# 3 51.2930 67.1847 125.1817 0.0000 -27.6174 0.0000
# 4 0.0000 0.0000 0.0000 28.4831 0.0000 -6.3819
# 5 -10.1123 -20.2534 -27.6174 0.0000 20.7107 0.0000
# 6 0.0000 0.0000 0.0000 -6.3819 0.0000 21.7114
#
#
#
# Elastic Compliance Matrix: (Units=1/GPa)
#
#
# Indices 1 2 3 4 5 6 
#
# 1 0.022529 -0.003495 -0.008051 0.000000 -0.003154 0.000000
# 2 -0.003495 0.015296 -0.005460 0.000000 0.005971 0.000000
# 3 -0.008051 -0.005460 0.017246 0.000000 0.013727 0.000000
# 4 0.000000 0.000000 0.000000 0.037584 0.000000 0.011048
# 5 -0.003154 0.005971 0.013727 0.000000 0.070888 0.000000
# 6 0.000000 0.000000 0.000000 0.011048 0.000000 0.049306
#
#
# Mechanical properties :
#
#
# Convention : Reuss Voigt Hill
#
# Bulk Modulus (GPa) = 47.48590 67.81291 57.64940
# Shear Modulus (GPa) = 19.69427 23.65421 21.67424
#
# Velocity S-wave (km/s) = 3.51927 3.85689 3.69194
# Velocity P-wave (km/s) = 6.81003 7.90443 7.37755
#
# Compressibility (1/GPa) = 0.02105888
#
# Stress axis : x y z
#
# Youngs Moduli (GPa) = 44.38784 65.37586 57.98371
#
# Poissons Ratio (x) = 0.22846 0.46684
# Poissons Ratio (y) = 0.15512 0.31660
# Poissons Ratio (z) = 0.35738 0.35696
#
# Static dielectric constant tensor:
#      x y z
#    x 2.618380 0.000000 -0.326930 
#    y 0.000000 3.099120 0.000000 
#    z -0.326930 0.000000 3.241500 
# 
# 
# High freq. dielectric constant tensor:
#      x y z
#    x 1.553740 0.000000 -0.037410 
#    y 0.000000 1.619220 0.000000 
#    z -0.037410 0.000000 1.613380 
# 
# From -- ./inp_files/60667.got.cif
#   From: 2010.06.25/outbox.cif.g09.slc.cpg/sg11_31_cif.got.tgz:60667.got - 2010.06.27 23:14:04.
