data_PCOD8068017
_publ_section_title
;
Structure prediction by ZEFSAII (Michael W. Deem and Ramdas Pophale) SiO2 
 PCOD8068017
Probable space group: P 2/M
;
_chemical_formula_sum "Si O2"
_cell_formula_units_Z 28
_cell_length_a 18.700101
_cell_length_b 9.484117
_cell_length_c 9.874785
_cell_angle_alpha 90.000000
_cell_angle_beta 67.908385
_cell_angle_gamma 90.000000
_cell_volume 1622.755727
_symmetry_space_group_name_H-M "P 2/M"
_symmetry_group_IT_number 10
_symmetry_cell_setting 'monoclinic'
loop_
_space_group_symop_operation_xyz
x,y,z
-x,y,-z
-x,-y,-z
x,-y,z
loop_
_atom_site_type_symbol
_atom_site_label
_atom_site_fract_x
_atom_site_fract_y
_atom_site_fract_z
Si Si1 0.996115 0.667275 0.157763
Si Si2 0.553890 0.831895 0.078340
Si Si3 0.283186 0.840185 0.128748
Si Si4 0.707103 0.160020 0.560998
Si Si5 0.856548 0.665789 0.445158
Si Si6 0.459702 0.831881 0.396077
Si Si7 0.134573 0.665817 0.249988
O O1 0.997621 0.500000 0.151491
O O2 0.067184 0.721318 0.199016
O O3 0.919333 0.718235 0.290865
O O4 0.000000 0.727183 0.000000
O O5 0.515754 0.772813 0.240886
O O6 0.554891 0.000000 0.069070
O O7 0.500000 0.768704 0.000000
O O8 0.642385 0.779973 0.003977
O O9 0.304315 0.834683 0.270877
O O10 0.211546 0.741582 0.143850
O O11 0.262824 0.000000 0.099715
O O12 0.777744 0.256113 0.462434
O O13 0.628404 0.222044 0.552226
O O14 0.723208 0.000000 0.501332
O O15 0.842085 0.500000 0.443516
O O16 0.883826 0.703837 0.579395
O O17 0.500000 0.772053 0.500000
O O18 0.457300 0.000000 0.391866
O O19 0.146768 0.500000 0.225615
#
# Coordination Sequence:
#
# PCOD8068017 Si02
#       7
#     4   4   4   4   4   4   4
#     4   9  17  31  50  69  89 117 151 182 216 265
#     4   9  14  24  43  63  84 116 154 184 212 254
#     4   9  16  27  46  70  92 116 149 186 223 262
#     4   9  16  28  46  68  93 118 147 184 225 265
#     4   9  17  30  50  71  88 113 150 187 220 259
#     4   9  16  26  41  63  89 117 151 187 218 253
#     4   9  17  30  49  70  91 114 147 187 221 259
#
# _framework density 17.254598000000001
#
# number of rings (size 3 to 8) (size 9 to 14) (size 15 to 20)
#    0.000    3.000    1.429    0.429    0.000    1.714 
#    2.571    0.714    0.000    6.000    0.000    0.000 
#    0.000    0.000    0.000    0.000    0.000    0.000 
#
# Total GULP energy -347037.902576 kJ/mol
# GULP energy per Si atom -12394.210806 kJ/mol
# Density = 1.721533 g / cm^3
# Si number density = 17.254598 Si / 1000 Ang^3
#
#
#
# Elastic Constant Matrix: (Units=GPa)
#
#
# Indices 1 2 3 4 5 6 
#
# 1 155.1824 34.2448 92.2289 0.0000 -18.6947 0.0000
# 2 34.2448 25.9489 27.1507 0.0000 -8.7010 0.0000
# 3 92.2289 27.1507 140.6285 0.0000 -15.2814 0.0000
# 4 0.0000 0.0000 0.0000 7.2590 0.0000 2.1615
# 5 -18.6947 -8.7010 -15.2814 0.0000 29.5496 0.0000
# 6 0.0000 0.0000 0.0000 2.1615 0.0000 5.7301
#
#
#
# Elastic Compliance Matrix: (Units=1/GPa)
#
#
# Indices 1 2 3 4 5 6 
#
# 1 0.012345 -0.009265 -0.006098 0.000000 0.001929 0.000000
# 2 -0.009265 0.058179 -0.004166 0.000000 0.009115 0.000000
# 3 -0.006098 -0.004166 0.012039 0.000000 0.001141 0.000000
# 4 0.000000 0.000000 0.000000 0.155192 0.000000 -0.058543
# 5 0.001929 0.009115 0.001141 0.000000 0.038336 0.000000
# 6 0.000000 0.000000 0.000000 -0.058543 0.000000 0.196601
#
#
# Mechanical properties :
#
#
# Convention : Reuss Voigt Hill
#
# Bulk Modulus (GPa) = 22.98547 69.88986 46.43767
# Shear Modulus (GPa) = 9.50116 19.71676 14.60896
#
# Velocity S-wave (km/s) = 2.34913 3.38405 2.91292
# Velocity P-wave (km/s) = 4.55062 7.47409 6.18749
#
# Compressibility (1/GPa) = 0.04350574
#
# Stress axis : x y z
#
# Youngs Moduli (GPa) = 81.00400 17.18823 83.06668
#
# Poissons Ratio (x) = 0.15924 0.50654
# Poissons Ratio (y) = 0.75048 0.34604
# Poissons Ratio (z) = 0.49397 0.07160
#
# Static dielectric constant tensor:
#      x y z
#    x 3.334360 0.000000 -0.048590 
#    y 0.000000 2.771070 0.000000 
#    z -0.048590 0.000000 3.350490 
# 
# 
# High freq. dielectric constant tensor:
#      x y z
#    x 1.672720 0.000000 -0.011900 
#    y 0.000000 1.612270 0.000000 
#    z -0.011900 0.000000 1.664780 
# 
# From -- ./inp_files/28487.got.cif
#   From: 2010.06.25/outbox.cif.g09.slc.cpg/sg10_15_cif.got.tgz:28487.got - 2010.06.27 22:07:45.
