data_PCOD8068350
_publ_section_title
;
Structure prediction by ZEFSAII (Michael W. Deem and Ramdas Pophale) SiO2 
 PCOD8068350
Probable space group: P 21/M
;
_chemical_formula_sum "Si O2"
_cell_formula_units_Z 32
_cell_length_a 29.989176
_cell_length_b 9.047451
_cell_length_c 23.868547
_cell_angle_alpha 90.000000
_cell_angle_beta 163.785734
_cell_angle_gamma 90.000000
_cell_volume 1808.336056
_symmetry_space_group_name_H-M "P 21/M"
_symmetry_group_IT_number 11
_symmetry_cell_setting 'monoclinic'
loop_
_space_group_symop_operation_xyz
x,y,z
-x,1/2+y,-z
-x,-y,-z
x,1/2-y,z
loop_
_atom_site_type_symbol
_atom_site_label
_atom_site_fract_x
_atom_site_fract_y
_atom_site_fract_z
Si Si1 0.279858 0.920189 0.999334
Si Si2 0.585863 0.919649 0.153678
Si Si3 0.402751 0.074712 0.255080
Si Si4 0.145299 0.422332 0.033130
Si Si5 0.071568 0.419460 0.396572
Si Si6 0.473935 0.078046 0.794767
Si Si7 0.162055 0.924203 0.394753
Si Si8 0.391578 0.075728 0.415615
O O1 0.308239 0.750000 0.050628
O O2 0.091527 0.955982 0.766981
O O3 0.358463 0.954169 0.033662
O O4 0.366577 0.023016 0.148901
O O5 0.539063 0.750000 0.091608
O O6 0.777089 0.944786 0.379933
O O7 0.521774 0.982173 0.136227
O O8 0.500000 0.000000 0.000000
O O9 0.422762 0.250000 0.280311
O O10 0.263316 0.011977 0.127659
O O11 0.570207 0.001523 0.478709
O O12 0.147317 0.250000 0.023092
O O13 0.209530 0.454933 0.173806
O O14 0.963399 0.478042 0.804831
O O15 0.072608 0.250000 0.376087
O O16 0.084407 0.528843 0.359917
O O17 0.431014 0.250000 0.744633
O O18 0.331680 0.000622 0.588449
O O19 0.188971 0.750000 0.426870
O O20 0.426336 0.250000 0.460866
O O21 0.500000 0.000000 0.500000
#
# Coordination Sequence:
#
# PCOD8068350 Si02
#       8
#     4   4   4   4   4   4   4   4
#     4  10  19  33  53  73  98 133 168 203 251 298
#     4   9  18  34  54  75 102 131 163 199 237 286
#     4  10  18  29  44  68 101 130 162 207 256 301
#     4   8  15  26  42  66  96 125 158 206 252 290
#     4   9  18  32  51  76 100 128 165 204 242 289
#     4   9  20  36  51  73 103 132 164 204 245 294
#     4  10  17  29  49  73  99 130 164 205 253 296
#     4   9  16  27  41  63  95 130 167 208 256 303
#
# _framework density 17.695824999999999
#
# number of rings (size 3 to 8) (size 9 to 14) (size 15 to 20)
#    0.000    2.750    1.250    2.625    0.000    2.500 
#    0.000    2.500    0.000    0.750    0.000    0.000 
#    0.000    0.000    0.000    0.000    0.000    0.000 
#
# Total GULP energy -396533.001968 kJ/mol
# GULP energy per Si atom -12391.656312 kJ/mol
# Density = 1.765555 g / cm^3
# Si number density = 17.695825 Si / 1000 Ang^3
#
#
#
# Elastic Constant Matrix: (Units=GPa)
#
#
# Indices 1 2 3 4 5 6 
#
# 1 73.4523 24.1698 54.8739 0.0000 2.7734 0.0000
# 2 24.1698 59.3897 37.6267 0.0000 -6.6505 0.0000
# 3 54.8739 37.6267 121.3778 0.0000 -9.8419 0.0000
# 4 0.0000 0.0000 0.0000 27.5036 0.0000 -5.8982
# 5 2.7734 -6.6505 -9.8419 0.0000 31.1171 0.0000
# 6 0.0000 0.0000 0.0000 -5.8982 0.0000 20.7815
#
#
#
# Elastic Compliance Matrix: (Units=1/GPa)
#
#
# Indices 1 2 3 4 5 6 
#
# 1 0.021947 -0.003720 -0.009229 0.000000 -0.005670 0.000000
# 2 -0.003720 0.021773 -0.004786 0.000000 0.003471 0.000000
# 3 -0.009229 -0.004786 0.014244 0.000000 0.004305 0.000000
# 4 0.000000 0.000000 0.000000 0.038715 0.000000 0.010988
# 5 -0.005670 0.003471 0.004305 0.000000 0.034745 0.000000
# 6 0.000000 0.000000 0.000000 0.010988 0.000000 0.051238
#
#
# Mechanical properties :
#
#
# Convention : Reuss Voigt Hill
#
# Bulk Modulus (GPa) = 44.45652 54.17339 49.31496
# Shear Modulus (GPa) = 22.16018 25.05038 23.60528
#
# Velocity S-wave (km/s) = 3.54260 3.76654 3.65629
# Velocity P-wave (km/s) = 6.47383 7.04243 6.76411
#
# Compressibility (1/GPa) = 0.02249389
#
# Stress axis : x y z
#
# Youngs Moduli (GPa) = 45.56494 45.92866 70.20645
#
# Poissons Ratio (x) = 0.17084 0.64790
# Poissons Ratio (y) = 0.16949 0.33604
# Poissons Ratio (z) = 0.42050 0.21983
#
# Static dielectric constant tensor:
#      x y z
#    x 3.059210 0.000000 -0.066470 
#    y 0.000000 3.216790 0.000000 
#    z -0.066470 0.000000 3.635190 
# 
# 
# High freq. dielectric constant tensor:
#      x y z
#    x 1.644320 0.000000 -0.007320 
#    y 0.000000 1.678440 0.000000 
#    z -0.007320 0.000000 1.690300 
# 
# From -- ./inp_files/67193.got.cif
#   From: 2010.06.25/outbox.cif.g09.slc.cpg/sg11_34_cif.got.tgz:67193.got - 2010.06.27 23:14:04.
