data_PCOD8068122
_publ_section_title
;
Structure prediction by ZEFSAII (Michael W. Deem and Ramdas Pophale) SiO2 
 PCOD8068122
Probable space group: P 21/M
;
_chemical_formula_sum "Si O2"
_cell_formula_units_Z 20
_cell_length_a 9.464496
_cell_length_b 9.761874
_cell_length_c 25.315234
_cell_angle_alpha 90.000000
_cell_angle_beta 151.368185
_cell_angle_gamma 90.000000
_cell_volume 1120.755016
_symmetry_space_group_name_H-M "P 21/M"
_symmetry_group_IT_number 11
_symmetry_cell_setting 'monoclinic'
loop_
_space_group_symop_operation_xyz
x,y,z
-x,1/2+y,-z
-x,-y,-z
x,1/2-y,z
loop_
_atom_site_type_symbol
_atom_site_label
_atom_site_fract_x
_atom_site_fract_y
_atom_site_fract_z
Si Si1 0.577305 0.750000 0.905505
Si Si2 0.233709 0.750000 0.099654
Si Si3 0.077226 0.750000 0.821222
Si Si4 0.151490 0.091285 0.434656
Si Si5 0.502831 0.460973 0.210562
Si Si6 0.064088 0.250000 0.107590
Si Si7 0.353604 0.100060 0.385801
O O1 0.404803 0.750000 0.904174
O O2 0.487335 0.884268 0.842646
O O3 0.926292 0.750000 0.031060
O O4 0.420593 0.618226 0.176517
O O5 0.173966 0.750000 0.017375
O O6 0.111695 0.750000 0.895292
O O7 0.896051 0.614906 0.741838
O O8 0.202531 0.250000 0.463429
O O9 0.193673 0.051953 0.387029
O O10 0.822041 0.047775 0.343028
O O11 0.391457 0.006247 0.547587
O O12 0.266095 0.385612 0.170324
O O13 0.500191 0.250000 0.443820
#
# Coordination Sequence:
#
# PCOD8068122 Si02
#       7
#     2   2   2   4   4   2   4
#     4  10  16  36  54  72 105 141 172 206 270 302
#     4  10  22  33  56  81 101 133 184 232 242 307
#     4  10  18  35  56  76 108 142 169 210 270 316
#     4  10  15  30  54  77 101 138 170 209 257 301
#     4  10  18  35  55  79 101 137 182 216 259 302
#     4  10  20  36  56  73 104 142 179 210 270 317
#     4   8  17  29  49  81 101 134 171 210 250 309
#
# _framework density 17.845112
#
# number of rings (size 3 to 8) (size 9 to 14) (size 15 to 20)
#    0.600    2.000    4.000    2.400    1.400    0.000 
#    0.000    5.000    2.200    0.000    0.000    0.000 
#    0.000    0.000    0.000    0.000    0.000    0.000 
#
# Total GULP energy -247867.803711 kJ/mol
# GULP energy per Si atom -12393.390186 kJ/mol
# Density = 1.780450 g / cm^3
# Si number density = 17.845112 Si / 1000 Ang^3
#
#
#
# Elastic Constant Matrix: (Units=GPa)
#
#
# Indices 1 2 3 4 5 6 
#
# 1 99.1626 25.0884 19.3411 0.0000 7.2239 0.0000
# 2 25.0884 121.4622 41.0067 0.0000 13.1207 0.0000
# 3 19.3411 41.0067 61.9176 0.0000 15.0205 0.0000
# 4 0.0000 0.0000 0.0000 34.0457 0.0000 6.2947
# 5 7.2239 13.1207 15.0205 0.0000 18.9218 0.0000
# 6 0.0000 0.0000 0.0000 6.2947 0.0000 8.6851
#
#
#
# Elastic Compliance Matrix: (Units=1/GPa)
#
#
# Indices 1 2 3 4 5 6 
#
# 1 0.010962 -0.001376 -0.002142 0.000000 -0.001531 0.000000
# 2 -0.001376 0.010851 -0.006265 0.000000 -0.002026 0.000000
# 3 -0.002142 -0.006265 0.024419 0.000000 -0.014222 0.000000
# 4 0.000000 0.000000 0.000000 0.033917 0.000000 -0.024582
# 5 -0.001531 -0.002026 -0.014222 0.000000 0.066128 0.000000
# 6 0.000000 0.000000 0.000000 -0.024582 0.000000 0.132957
#
#
# Mechanical properties :
#
#
# Convention : Reuss Voigt Hill
#
# Bulk Modulus (GPa) = 37.50016 50.37942 43.93979
# Shear Modulus (GPa) = 16.25021 25.47093 20.86057
#
# Velocity S-wave (km/s) = 3.02093 3.78211 3.42274
# Velocity P-wave (km/s) = 5.76436 6.88224 6.34796
#
# Compressibility (1/GPa) = 0.02666655
#
# Stress axis : x y z
#
# Youngs Moduli (GPa) = 91.22627 92.15518 40.95158
#
# Poissons Ratio (x) = 0.12679 0.08770
# Poissons Ratio (y) = 0.12551 0.25658
# Poissons Ratio (z) = 0.19537 0.57739
#
# Static dielectric constant tensor:
#      x y z
#    x 2.930970 0.000000 0.255910 
#    y 0.000000 3.253020 0.000000 
#    z 0.255910 0.000000 3.208440 
# 
# 
# High freq. dielectric constant tensor:
#      x y z
#    x 1.652270 0.000000 0.025330 
#    y 0.000000 1.684460 0.000000 
#    z 0.025330 0.000000 1.678880 
# 
# From -- ./inp_files/20298.got.cif
#   From: 2010.06.25/outbox.cif.g09.slc.cpg/sg11_11_cif.got.tgz:20298.got - 2010.06.27 23:14:04.
