data_PCOD8068425
_publ_section_title
;
Structure prediction by ZEFSAII (Michael W. Deem and Ramdas Pophale) SiO2 
 PCOD8068425
Probable space group: P 21/M
;
_chemical_formula_sum "Si O2"
_cell_formula_units_Z 32
_cell_length_a 8.914236
_cell_length_b 21.809262
_cell_length_c 12.054749
_cell_angle_alpha 90.000000
_cell_angle_beta 130.392814
_cell_angle_gamma 90.000000
_cell_volume 1784.930764
_symmetry_space_group_name_H-M "P 21/M"
_symmetry_group_IT_number 11
_symmetry_cell_setting 'monoclinic'
loop_
_space_group_symop_operation_xyz
x,y,z
-x,1/2+y,-z
-x,-y,-z
x,1/2-y,z
loop_
_atom_site_type_symbol
_atom_site_label
_atom_site_fract_x
_atom_site_fract_y
_atom_site_fract_z
Si Si1 0.283936 0.396846 0.164251
Si Si2 0.683859 0.071625 0.265839
Si Si3 0.907241 0.947094 0.140171
Si Si4 0.111821 0.390452 0.443747
Si Si5 0.677426 0.567433 0.253926
Si Si6 0.274020 0.922751 0.961836
Si Si7 0.275303 0.011248 0.356262
Si Si8 0.950165 0.679883 0.792144
O O1 0.514902 0.390309 0.247186
O O2 0.264149 0.455388 0.233466
O O3 0.217286 0.335674 0.197332
O O4 0.148398 0.403469 0.989405
O O5 0.622103 0.071112 0.107604
O O6 0.890062 0.105005 0.383805
O O7 0.699239 0.001222 0.313457
O O8 0.796486 0.923611 0.197032
O O9 0.849372 0.015960 0.075704
O O10 0.144503 0.948806 0.278370
O O11 0.248060 0.384903 0.616988
O O12 0.161716 0.450451 0.395842
O O13 0.132596 0.331792 0.372454
O O14 0.447921 0.583315 0.133326
O O15 0.137540 0.863223 0.904882
O O16 0.500000 0.000000 0.500000
O O17 0.014380 0.750000 0.835066
#
# Coordination Sequence:
#
# PCOD8068425 Si02
#       8
#     4   4   4   4   4   4   4   4
#     4  11  20  33  56  79 114 148 182 225 282 330
#     4  10  17  31  54  85 119 146 176 216 273 343
#     4  11  19  33  52  88 123 145 166 228 284 343
#     4  10  21  35  53  81 113 151 186 217 275 328
#     4  11  18  30  57  87 119 143 169 224 280 337
#     4  10  18  35  56  84 110 147 184 219 282 326
#     4  11  22  30  46  82 121 156 178 206 267 346
#     4  10  23  42  57  73 105 147 197 237 269 328
#
# _framework density 17.927866000000002
#
# number of rings (size 3 to 8) (size 9 to 14) (size 15 to 20)
#    0.000    1.500    7.500    2.250    1.750    0.000 
#    0.000    3.125    0.000    0.750    0.000    0.000 
#    0.000    0.000    0.000    0.000    0.000    0.000 
#
# Total GULP energy -396670.838618 kJ/mol
# GULP energy per Si atom -12395.963707 kJ/mol
# Density = 1.788706 g / cm^3
# Si number density = 17.927866 Si / 1000 Ang^3
#
#
#
# Elastic Constant Matrix: (Units=GPa)
#
#
# Indices 1 2 3 4 5 6 
#
# 1 101.2180 25.4342 38.5435 0.0000 10.5333 0.0000
# 2 25.4342 66.3633 16.8627 0.0000 -5.2845 0.0000
# 3 38.5435 16.8627 114.5027 0.0000 5.5027 0.0000
# 4 0.0000 0.0000 0.0000 10.6307 0.0000 0.5721
# 5 10.5333 -5.2845 5.5027 0.0000 28.1942 0.0000
# 6 0.0000 0.0000 0.0000 0.5721 0.0000 13.1852
#
#
#
# Elastic Compliance Matrix: (Units=1/GPa)
#
#
# Indices 1 2 3 4 5 6 
#
# 1 0.012812 -0.004435 -0.003422 0.000000 -0.004950 0.000000
# 2 -0.004435 0.017522 -0.001338 0.000000 0.005202 0.000000
# 3 -0.003422 -0.001338 0.010128 0.000000 -0.000949 0.000000
# 4 0.000000 0.000000 0.000000 0.094287 0.000000 -0.004091
# 5 -0.004950 0.005202 -0.000949 0.000000 0.038478 0.000000
# 6 0.000000 0.000000 0.000000 -0.004091 0.000000 0.076020
#
#
# Mechanical properties :
#
#
# Convention : Reuss Voigt Hill
#
# Bulk Modulus (GPa) = 45.30293 49.30722 47.30507
# Shear Modulus (GPa) = 18.18215 23.81825 21.00020
#
# Velocity S-wave (km/s) = 3.18808 3.64890 3.42624
# Velocity P-wave (km/s) = 6.23508 6.73167 6.48813
#
# Compressibility (1/GPa) = 0.02207363
#
# Stress axis : x y z
#
# Youngs Moduli (GPa) = 78.05030 57.06949 98.73774
#
# Poissons Ratio (x) = 0.25311 0.33786
# Poissons Ratio (y) = 0.34616 0.13207
# Poissons Ratio (z) = 0.26707 0.07634
#
# Static dielectric constant tensor:
#      x y z
#    x 3.560780 0.000000 -0.025300 
#    y 0.000000 2.731110 0.000000 
#    z -0.025300 0.000000 3.512000 
# 
# 
# High freq. dielectric constant tensor:
#      x y z
#    x 1.713510 0.000000 0.000410 
#    y 0.000000 1.616020 0.000000 
#    z 0.000410 0.000000 1.703710 
# 
# From -- ./inp_files/33012.got.cif
#   From: 2010.06.25/outbox.cif.g09.slc.cpg/sg11_17_cif.got.tgz:33012.got - 2010.06.27 23:14:04.
