data_PCOD8068571
_publ_section_title
;
Structure prediction by ZEFSAII (Michael W. Deem and Ramdas Pophale) SiO2 
 PCOD8068571
Probable space group: P 21/M
;
_chemical_formula_sum "Si O2"
_cell_formula_units_Z 28
_cell_length_a 14.557842
_cell_length_b 8.907949
_cell_length_c 13.752681
_cell_angle_alpha 90.000000
_cell_angle_beta 104.450482
_cell_angle_gamma 90.000000
_cell_volume 1727.032780
_symmetry_space_group_name_H-M "P 21/M"
_symmetry_group_IT_number 11
_symmetry_cell_setting 'monoclinic'
loop_
_space_group_symop_operation_xyz
x,y,z
-x,1/2+y,-z
-x,-y,-z
x,1/2-y,z
loop_
_atom_site_type_symbol
_atom_site_label
_atom_site_fract_x
_atom_site_fract_y
_atom_site_fract_z
Si Si1 0.114130 0.075221 0.132526
Si Si2 0.536254 0.928597 0.607836
Si Si3 0.099142 0.925123 0.922836
Si Si4 0.601254 0.078487 0.917286
Si Si5 0.564527 0.073146 0.227330
Si Si6 0.282056 0.927492 0.870501
Si Si7 0.290298 0.578457 0.252662
O O1 0.139325 0.250000 0.140413
O O2 0.007242 0.043704 0.142475
O O3 0.184497 0.990372 0.225058
O O4 0.123518 0.017957 0.025166
O O5 0.536719 0.750000 0.599626
O O6 0.464818 0.988498 0.674136
O O7 0.500000 0.000000 0.500000
O O8 0.642577 0.985473 0.656725
O O9 0.112897 0.750000 0.952977
O O10 0.172246 0.976792 0.856303
O O11 0.570066 0.250000 0.924630
O O12 0.672693 0.064098 0.846522
O O13 0.507628 0.981838 0.874310
O O14 0.654994 0.008919 0.024107
O O15 0.557264 0.250000 0.229514
O O16 0.670470 0.020362 0.220008
O O17 0.287559 0.750000 0.877789
O O18 0.286668 0.750000 0.287855
#
# Coordination Sequence:
#
# PCOD8068571 Si02
#       7
#     4   4   4   4   4   4   4
#     4  10  18  27  42  65  91 121 158 194 221 255
#     4  10  20  34  50  71  93 114 146 187 231 275
#     4   9  17  29  43  60  89 127 160 187 221 261
#     4   9  16  26  41  60  87 121 152 176 212 262
#     4   9  18  29  44  64  87 113 148 187 219 261
#     4   9  15  27  43  61  87 122 154 181 216 259
#     4  10  18  30  48  67  91 123 153 185 226 269
#
# _framework density 16.212778
#
# number of rings (size 3 to 8) (size 9 to 14) (size 15 to 20)
#    0.000    2.571    1.429    1.714    0.000    1.714 
#    0.000    0.714    0.000    0.000    0.000    1.000 
#    0.000    0.000    0.000    0.000    0.000    0.000 
#
# Total GULP energy -347002.436452 kJ/mol
# GULP energy per Si atom -12392.944159 kJ/mol
# Density = 1.617588 g / cm^3
# Si number density = 16.212778 Si / 1000 Ang^3
#
#
#
# Elastic Constant Matrix: (Units=GPa)
#
#
# Indices 1 2 3 4 5 6 
#
# 1 134.4464 30.7734 51.9492 0.0000 8.2527 0.0000
# 2 30.7734 49.2310 29.4424 0.0000 5.4126 0.0000
# 3 51.9492 29.4424 81.9411 0.0000 7.4694 0.0000
# 4 0.0000 0.0000 0.0000 22.4316 0.0000 6.0398
# 5 8.2527 5.4126 7.4694 0.0000 15.5149 0.0000
# 6 0.0000 0.0000 0.0000 6.0398 0.0000 18.8182
#
#
#
# Elastic Compliance Matrix: (Units=1/GPa)
#
#
# Indices 1 2 3 4 5 6 
#
# 1 0.010284 -0.003089 -0.005240 0.000000 -0.001870 0.000000
# 2 -0.003089 0.027140 -0.007405 0.000000 -0.004260 0.000000
# 3 -0.005240 -0.007405 0.018509 0.000000 -0.003541 0.000000
# 4 0.000000 0.000000 0.000000 0.048797 0.000000 -0.015662
# 5 -0.001870 -0.004260 -0.003541 0.000000 0.068639 0.000000
# 6 0.000000 0.000000 0.000000 -0.015662 0.000000 0.058167
#
#
# Mechanical properties :
#
#
# Convention : Reuss Voigt Hill
#
# Bulk Modulus (GPa) = 40.87298 54.43875 47.65587
# Shear Modulus (GPa) = 18.43928 21.58318 20.01123
#
# Velocity S-wave (km/s) = 3.37609 3.65258 3.51705
# Velocity P-wave (km/s) = 6.36101 7.17210 6.77870
#
# Compressibility (1/GPa) = 0.02446604
#
# Stress axis : x y z
#
# Youngs Moduli (GPa) = 97.23479 36.84548 54.02756
#
# Poissons Ratio (x) = 0.11383 0.28308
# Poissons Ratio (y) = 0.30040 0.40007
# Poissons Ratio (z) = 0.50947 0.27284
#
# Static dielectric constant tensor:
#      x y z
#    x 3.523160 0.000000 -0.008400 
#    y 0.000000 3.024900 0.000000 
#    z -0.008400 0.000000 2.805520 
# 
# 
# High freq. dielectric constant tensor:
#      x y z
#    x 1.629260 0.000000 0.007950 
#    y 0.000000 1.618420 0.000000 
#    z 0.007950 0.000000 1.578540 
# 
# From -- ./inp_files/42590.got.cif
#   From: 2010.06.25/outbox.cif.g09.slc.cpg/sg11_22_cif.got.tgz:42590.got - 2010.06.27 23:14:04.
