data_PCOD8068625
_publ_section_title
;
Structure prediction by ZEFSAII (Michael W. Deem and Ramdas Pophale) SiO2 
 PCOD8068625
Probable space group: P 21/M
;
_chemical_formula_sum "Si O2"
_cell_formula_units_Z 32
_cell_length_a 16.037501
_cell_length_b 8.984219
_cell_length_c 30.775710
_cell_angle_alpha 90.000000
_cell_angle_beta 151.006830
_cell_angle_gamma 90.000000
_cell_volume 2149.329140
_symmetry_space_group_name_H-M "P 21/M"
_symmetry_group_IT_number 11
_symmetry_cell_setting 'monoclinic'
loop_
_space_group_symop_operation_xyz
x,y,z
-x,1/2+y,-z
-x,-y,-z
x,1/2-y,z
loop_
_atom_site_type_symbol
_atom_site_label
_atom_site_fract_x
_atom_site_fract_y
_atom_site_fract_z
Si Si1 0.158609 0.923915 0.167150
Si Si2 0.907475 0.421701 0.997239
Si Si3 0.323517 0.080143 0.415702
Si Si4 0.070308 0.923256 0.466019
Si Si5 0.759671 0.077526 0.365824
Si Si6 0.340838 0.425370 0.329423
Si Si7 0.407943 0.918843 0.200456
Si Si8 0.712069 0.575095 0.506597
O O1 0.131701 0.750000 0.162031
O O2 0.294038 0.958211 0.190658
O O3 0.222302 0.997284 0.240201
O O4 0.972398 0.996499 0.070594
O O5 0.963051 0.250000 0.024409
O O6 0.703147 0.436201 0.894683
O O7 0.000000 0.500000 0.000000
O O8 0.375231 0.250000 0.439128
O O9 0.244587 0.041497 0.332198
O O10 0.217488 0.044635 0.411647
O O11 0.500000 0.000000 0.500000
O O12 0.061308 0.750000 0.450649
O O13 0.193943 0.956162 0.563116
O O14 0.141344 0.011873 0.457408
O O15 0.879165 0.981389 0.388576
O O16 0.786193 0.250000 0.366767
O O17 0.563612 0.033110 0.268501
O O18 0.355283 0.250000 0.326270
O O19 0.532054 0.493225 0.415417
O O20 0.477269 0.750000 0.236264
O O21 0.685752 0.750000 0.485634
#
# Coordination Sequence:
#
# PCOD8068625 Si02
#       8
#     4   4   4   4   4   4   4   4
#     4  10  19  29  42  62  86 113 144 176 210 246
#     4   9  17  29  43  60  83 111 141 173 209 248
#     4   8  16  28  41  58  81 109 139 172 207 245
#     4  10  20  32  44  60  83 110 141 176 211 246
#     4  10  20  31  44  61  81 108 141 176 211 245
#     4  10  18  28  42  61  85 113 144 174 208 249
#     4   9  18  30  43  59  82 111 140 171 208 248
#     4  10  18  29  44  61  83 111 143 176 210 248
#
# _framework density 14.888367000000001
#
# number of rings (size 3 to 8) (size 9 to 14) (size 15 to 20)
#    0.000    2.500    0.000    3.750    0.000    7.500 
#    0.000    0.000    0.000    0.000    0.000    0.000 
#    0.000    1.000    0.000    3.000    0.000    4.000 
#
# Total GULP energy -396532.319455 kJ/mol
# GULP energy per Si atom -12391.634983 kJ/mol
# Density = 1.485448 g / cm^3
# Si number density = 14.888367 Si / 1000 Ang^3
#
#
#
# Elastic Constant Matrix: (Units=GPa)
#
#
# Indices 1 2 3 4 5 6 
#
# 1 86.2741 45.1014 42.6401 0.0000 -15.8340 0.0000
# 2 45.1014 88.3627 45.4553 0.0000 -10.4127 0.0000
# 3 42.6401 45.4553 83.1160 0.0000 -13.9274 0.0000
# 4 0.0000 0.0000 0.0000 26.8333 0.0000 -0.0489
# 5 -15.8340 -10.4127 -13.9274 0.0000 20.3944 0.0000
# 6 0.0000 0.0000 0.0000 -0.0489 0.0000 21.9913
#
#
#
# Elastic Compliance Matrix: (Units=1/GPa)
#
#
# Indices 1 2 3 4 5 6 
#
# 1 0.018658 -0.006046 -0.004918 0.000000 0.008040 0.000000
# 2 -0.006046 0.017814 -0.006666 0.000000 -0.000151 0.000000
# 3 -0.004918 -0.006666 0.019185 0.000000 0.005880 0.000000
# 4 0.000000 0.000000 0.000000 0.037267 0.000000 0.000083
# 5 0.008040 -0.000151 0.005880 0.000000 0.059214 0.000000
# 6 0.000000 0.000000 0.000000 0.000083 0.000000 0.045473
#
#
# Mechanical properties :
#
#
# Convention : Reuss Voigt Hill
#
# Bulk Modulus (GPa) = 49.02576 58.23847 53.63212
# Shear Modulus (GPa) = 20.86195 22.14753 21.50474
#
# Velocity S-wave (km/s) = 3.74736 3.86109 3.80465
# Velocity P-wave (km/s) = 7.19194 7.68629 7.44322
#
# Compressibility (1/GPa) = 0.02039744
#
# Stress axis : x y z
#
# Youngs Moduli (GPa) = 53.59655 56.13507 52.12295
#
# Poissons Ratio (x) = 0.33938 0.25635
# Poissons Ratio (y) = 0.32403 0.34746
# Poissons Ratio (z) = 0.26360 0.37420
#
# Static dielectric constant tensor:
#      x y z
#    x 3.387690 0.000000 -0.441580 
#    y 0.000000 3.080550 0.000000 
#    z -0.441580 0.000000 2.982210 
# 
# 
# High freq. dielectric constant tensor:
#      x y z
#    x 1.546260 0.000000 -0.018550 
#    y 0.000000 1.591080 0.000000 
#    z -0.018550 0.000000 1.548260 
# 
# From -- ./inp_files/51403.got.cif
#   From: 2010.06.25/outbox.cif.g09.slc.cpg/sg11_26_cif.got.tgz:51403.got - 2010.06.27 23:14:04.
