data_PCOD8068318
_publ_section_title
;
Structure prediction by ZEFSAII (Michael W. Deem and Ramdas Pophale) SiO2 
 PCOD8068318
Probable space group: P 21/M
;
_chemical_formula_sum "Si O2"
_cell_formula_units_Z 32
_cell_length_a 19.690244
_cell_length_b 8.923900
_cell_length_c 29.171540
_cell_angle_alpha 90.000000
_cell_angle_beta 156.656950
_cell_angle_gamma 90.000000
_cell_volume 2031.040151
_symmetry_space_group_name_H-M "P 21/M"
_symmetry_group_IT_number 11
_symmetry_cell_setting 'monoclinic'
loop_
_space_group_symop_operation_xyz
x,y,z
-x,1/2+y,-z
-x,-y,-z
x,1/2-y,z
loop_
_atom_site_type_symbol
_atom_site_label
_atom_site_fract_x
_atom_site_fract_y
_atom_site_fract_z
Si Si1 0.286463 0.919502 0.189524
Si Si2 0.756378 0.077390 0.942190
Si Si3 0.905815 0.420356 0.840653
Si Si4 0.593820 0.072298 0.256525
Si Si5 0.809713 0.424957 0.476635
Si Si6 0.406346 0.574720 0.575680
Si Si7 0.882790 0.926219 0.389254
Si Si8 0.455750 0.573413 0.424812
O O1 0.361553 0.750000 0.241097
O O2 0.225367 0.951876 0.100545
O O3 0.126571 0.937172 0.124914
O O4 0.428591 0.040817 0.290884
O O5 0.727709 0.250000 0.936545
O O6 0.600106 0.984115 0.866284
O O7 0.933570 0.021900 0.074798
O O8 0.950291 0.250000 0.855368
O O9 0.736699 0.473918 0.708525
O O10 0.597609 0.250000 0.255447
O O11 0.686045 0.008109 0.359862
O O12 0.696709 0.004837 0.276158
O O13 0.772183 0.250000 0.451300
O O14 0.756348 0.481120 0.494377
O O15 0.012127 0.458018 0.593066
O O16 0.398641 0.750000 0.559340
O O17 0.410660 0.484766 0.530739
O O18 0.863121 0.750000 0.385849
O O19 0.000000 0.000000 0.500000
O O20 0.500000 0.500000 0.500000
O O21 0.475279 0.750000 0.440528
#
# Coordination Sequence:
#
# PCOD8068318 Si02
#       8
#     4   4   4   4   4   4   4   4
#     4   9  18  30  41  60  89 119 152 189 223 259
#     4  11  20  28  42  64  89 119 156 191 223 262
#     4   9  19  33  46  62  87 115 146 184 226 270
#     4  10  18  29  41  58  86 123 160 191 227 265
#     4   8  15  26  41  61  86 116 152 188 223 263
#     4  10  17  28  47  69  90 119 152 185 226 271
#     4   9  16  27  40  58  84 117 156 193 226 263
#     4  10  21  37  53  70  90 115 146 186 232 276
#
# _framework density 15.755473
#
# number of rings (size 3 to 8) (size 9 to 14) (size 15 to 20)
#    0.000    2.500    1.250    3.750    0.000    3.000 
#    0.000    1.875    0.000    0.000    0.000    0.000 
#    0.000    1.000    0.000    3.000    0.000    4.000 
#
# Total GULP energy -396583.669192 kJ/mol
# GULP energy per Si atom -12393.239662 kJ/mol
# Density = 1.571961 g / cm^3
# Si number density = 15.755473 Si / 1000 Ang^3
#
#
#
# Elastic Constant Matrix: (Units=GPa)
#
#
# Indices 1 2 3 4 5 6 
#
# 1 106.8141 46.2445 55.7643 0.0000 20.3829 0.0000
# 2 46.2445 76.0654 35.6354 0.0000 11.1798 0.0000
# 3 55.7643 35.6354 63.5854 0.0000 16.6552 0.0000
# 4 0.0000 0.0000 0.0000 23.9458 0.0000 5.1651
# 5 20.3829 11.1798 16.6552 0.0000 24.5555 0.0000
# 6 0.0000 0.0000 0.0000 5.1651 0.0000 23.4823
#
#
#
# Elastic Compliance Matrix: (Units=1/GPa)
#
#
# Indices 1 2 3 4 5 6 
#
# 1 0.019042 -0.004925 -0.012631 0.000000 -0.004997 0.000000
# 2 -0.004925 0.019155 -0.006326 0.000000 -0.000342 0.000000
# 3 -0.012631 -0.006326 0.032649 0.000000 -0.008780 0.000000
# 4 0.000000 0.000000 0.000000 0.043841 0.000000 -0.009643
# 5 -0.004997 -0.000342 -0.008780 0.000000 0.050983 0.000000
# 6 0.000000 0.000000 0.000000 -0.009643 0.000000 0.044706
#
#
# Mechanical properties :
#
#
# Convention : Reuss Voigt Hill
#
# Bulk Modulus (GPa) = 43.32356 57.97260 50.64808
# Shear Modulus (GPa) = 18.80869 21.65142 20.23005
#
# Velocity S-wave (km/s) = 3.45887 3.71106 3.58718
# Velocity P-wave (km/s) = 6.59613 7.43221 7.02661
#
# Compressibility (1/GPa) = 0.02308213
#
# Stress axis : x y z
#
# Youngs Moduli (GPa) = 52.51549 52.20646 30.62844
#
# Poissons Ratio (x) = 0.25711 0.38686
# Poissons Ratio (y) = 0.25864 0.19376
# Poissons Ratio (z) = 0.66331 0.33027
#
# Static dielectric constant tensor:
#      x y z
#    x 3.255790 0.000000 0.334870 
#    y 0.000000 3.020960 0.000000 
#    z 0.334870 0.000000 2.727680 
# 
# 
# High freq. dielectric constant tensor:
#      x y z
#    x 1.592300 0.000000 0.033510 
#    y 0.000000 1.611170 0.000000 
#    z 0.033510 0.000000 1.561770 
# 
# From -- ./inp_files/60706.got.cif
#   From: 2010.06.25/outbox.cif.g09.slc.cpg/sg11_31_cif.got.tgz:60706.got - 2010.06.27 23:14:04.
