data_PCOD8068488
_publ_section_title
;
Structure prediction by ZEFSAII (Michael W. Deem and Ramdas Pophale) SiO2 
 PCOD8068488
Probable space group: P 21/M
;
_chemical_formula_sum "Si O2"
_cell_formula_units_Z 24
_cell_length_a 9.873688
_cell_length_b 16.582522
_cell_length_c 8.999550
_cell_angle_alpha 90.000000
_cell_angle_beta 60.421256
_cell_angle_gamma 90.000000
_cell_volume 1281.472580
_symmetry_space_group_name_H-M "P 21/M"
_symmetry_group_IT_number 11
_symmetry_cell_setting 'monoclinic'
loop_
_space_group_symop_operation_xyz
x,y,z
-x,1/2+y,-z
-x,-y,-z
x,1/2-y,z
loop_
_atom_site_type_symbol
_atom_site_label
_atom_site_fract_x
_atom_site_fract_y
_atom_site_fract_z
Si Si1 0.361550 0.341404 0.765816
Si Si2 0.356111 0.452726 0.509298
Si Si3 0.019539 0.988284 0.662535
Si Si4 0.471188 0.004196 0.842366
Si Si5 0.962196 0.660382 0.887304
Si Si6 0.129569 0.941466 0.001730
O O1 0.426759 0.250000 0.735101
O O2 0.340232 0.367221 0.603519
O O3 0.482189 0.402281 0.782488
O O4 0.199773 0.348063 0.939433
O O5 0.500000 0.500000 0.500000
O O6 0.197695 0.502203 0.616333
O O7 0.397570 0.448345 0.310226
O O8 0.964227 0.899563 0.745012
O O9 0.000000 0.000000 0.500000
O O10 0.911134 0.056907 0.800165
O O11 0.500000 0.000000 0.000000
O O12 0.304132 0.970750 0.881285
O O13 0.986794 0.750000 0.811105
O O14 0.100525 0.643110 0.933239
O O15 0.000000 0.000000 0.000000
#
# Coordination Sequence:
#
# PCOD8068488 Si02
#       6
#     4   4   4   4   4   4
#     4  10  19  36  58  83 110 147 192 235 274 325
#     4  10  20  35  55  83 107 147 189 224 266 337
#     4  11  20  34  57  83 112 144 186 229 280 331
#     4  11  21  36  58  86 116 150 183 224 287 342
#     4  10  19  35  59  84 108 147 194 237 275 320
#     4  10  17  36  58  78 106 146 194 218 262 339
#
# _framework density 18.728453999999999
#
# number of rings (size 3 to 8) (size 9 to 14) (size 15 to 20)
#    0.000    1.667    5.000    4.000    0.000    0.000 
#    0.000   10.833    0.000    0.000    0.000    0.000 
#    0.000    0.000    0.000    0.000    0.000    0.000 
#
# Total GULP energy -297355.225315 kJ/mol
# GULP energy per Si atom -12389.801055 kJ/mol
# Density = 1.868583 g / cm^3
# Si number density = 18.728454 Si / 1000 Ang^3
#
#
#
# Elastic Constant Matrix: (Units=GPa)
#
#
# Indices 1 2 3 4 5 6 
#
# 1 46.1541 39.4971 17.4501 0.0000 3.4103 0.0000
# 2 39.4971 115.3437 64.9289 0.0000 13.7727 0.0000
# 3 17.4501 64.9289 131.2684 0.0000 17.5551 0.0000
# 4 0.0000 0.0000 0.0000 24.8291 0.0000 -1.4300
# 5 3.4103 13.7727 17.5551 0.0000 43.5745 0.0000
# 6 0.0000 0.0000 0.0000 -1.4300 0.0000 16.3675
#
#
#
# Elastic Compliance Matrix: (Units=1/GPa)
#
#
# Indices 1 2 3 4 5 6 
#
# 1 0.030891 -0.011494 0.001497 0.000000 0.000612 0.000000
# 2 -0.011494 0.016383 -0.006345 0.000000 -0.001722 0.000000
# 3 0.001497 -0.006345 0.010892 0.000000 -0.002500 0.000000
# 4 0.000000 0.000000 0.000000 0.040479 0.000000 0.003537
# 5 0.000612 -0.001722 -0.002500 0.000000 0.024453 0.000000
# 6 0.000000 0.000000 0.000000 0.003537 0.000000 0.061406
#
#
# Mechanical properties :
#
#
# Convention : Reuss Voigt Hill
#
# Bulk Modulus (GPa) = 39.24386 59.61316 49.42851
# Shear Modulus (GPa) = 22.15503 28.34688 25.25095
#
# Velocity S-wave (km/s) = 3.44315 3.89469 3.67586
# Velocity P-wave (km/s) = 6.06685 7.21971 6.66824
#
# Compressibility (1/GPa) = 0.02548169
#
# Stress axis : x y z
#
# Youngs Moduli (GPa) = 32.37147 61.03864 91.81193
#
# Poissons Ratio (x) = 0.70156 -0.13742
# Poissons Ratio (y) = 0.37207 0.58257
# Poissons Ratio (z) = -0.04845 0.38731
#
# Static dielectric constant tensor:
#      x y z
#    x 3.401870 0.000000 0.033740 
#    y 0.000000 3.662680 0.000000 
#    z 0.033740 0.000000 4.237050 
# 
# 
# High freq. dielectric constant tensor:
#      x y z
#    x 1.712820 0.000000 -0.004890 
#    y 0.000000 1.693330 0.000000 
#    z -0.004890 0.000000 1.751520 
# 
# From -- ./inp_files/18530.got.cif
#   From: 2010.06.25/outbox.cif.g09.slc.cpg/sg11_10_cif.got.tgz:18530.got - 2010.06.27 23:14:04.
