data_PCOD8068927
_publ_section_title
;
Structure prediction by ZEFSAII (Michael W. Deem and Ramdas Pophale) SiO2 
 PCOD8068927
Probable space group: P 21/M
;
_chemical_formula_sum "Si O2"
_cell_formula_units_Z 32
_cell_length_a 22.034762
_cell_length_b 8.906309
_cell_length_c 28.398488
_cell_angle_alpha 90.000000
_cell_angle_beta 161.723834
_cell_angle_gamma 90.000000
_cell_volume 1747.728273
_symmetry_space_group_name_H-M "P 21/M"
_symmetry_group_IT_number 11
_symmetry_cell_setting 'monoclinic'
loop_
_space_group_symop_operation_xyz
x,y,z
-x,1/2+y,-z
-x,-y,-z
x,1/2-y,z
loop_
_atom_site_type_symbol
_atom_site_label
_atom_site_fract_x
_atom_site_fract_y
_atom_site_fract_z
Si Si1 0.141442 0.572360 0.066818
Si Si2 0.268336 0.071735 0.555791
Si Si3 0.701759 0.583155 0.275095
Si Si4 0.538258 0.577312 0.829682
Si Si5 0.544605 0.428633 0.389511
Si Si6 0.049263 0.421783 0.903975
Si Si7 0.635008 0.425143 0.561033
Si Si8 0.958341 0.083250 0.398628
O O1 0.150223 0.750000 0.080488
O O2 0.351115 0.501523 0.227128
O O3 0.060888 0.534768 0.956056
O O4 0.000000 0.500000 0.000000
O O5 0.288141 0.250000 0.564759
O O6 0.060378 0.027816 0.425497
O O7 0.443259 0.017559 0.717817
O O8 0.281052 0.989651 0.514763
O O9 0.621019 0.750000 0.207269
O O10 0.529341 0.481476 0.168920
O O11 0.877046 0.583421 0.440634
O O12 0.779268 0.521174 0.282059
O O13 0.474696 0.750000 0.777152
O O14 0.769113 0.557675 0.997014
O O15 0.532100 0.250000 0.376534
O O16 0.579801 0.484238 0.468549
O O17 0.039455 0.250000 0.915425
O O18 0.858547 0.464923 0.734355
O O19 0.500000 0.500000 0.500000
O O20 0.596003 0.250000 0.535547
O O21 0.874470 0.250000 0.330372
#
# Coordination Sequence:
#
# PCOD8068927 Si02
#       8
#     4   4   4   4   4   4   4   4
#     4  12  24  37  56  80 107 136 172 217 264 319
#     4  10  19  31  49  75 106 138 175 220 263 309
#     4   9  16  25  40  65 100 137 174 213 256 309
#     4  10  18  29  49  73 103 139 174 215 265 315
#     4  11  22  37  56  80 108 140 176 216 267 322
#     4  10  21  38  57  79 106 138 177 220 266 317
#     4  10  23  41  59  79 105 137 177 221 266 319
#     4   8  15  26  40  63  98 137 174 210 255 309
#
# _framework density 18.309483
#
# number of rings (size 3 to 8) (size 9 to 14) (size 15 to 20)
#    0.000    2.000    1.250    4.125    0.000    7.500 
#    0.000    0.000    0.000    0.000    0.000    0.875 
#    0.000    0.000    0.000    0.000    0.000    0.000 
#
# Total GULP energy -396787.537802 kJ/mol
# GULP energy per Si atom -12399.610556 kJ/mol
# Density = 1.826781 g / cm^3
# Si number density = 18.309483 Si / 1000 Ang^3
#
#
#
# Elastic Constant Matrix: (Units=GPa)
#
#
# Indices 1 2 3 4 5 6 
#
# 1 138.0741 52.6524 35.5694 0.0000 22.2568 0.0000
# 2 52.6524 94.7259 23.6185 0.0000 10.0928 0.0000
# 3 35.5694 23.6185 50.5841 0.0000 6.4441 0.0000
# 4 0.0000 0.0000 0.0000 13.3984 0.0000 7.2604
# 5 22.2568 10.0928 6.4441 0.0000 27.1800 0.0000
# 6 0.0000 0.0000 0.0000 7.2604 0.0000 36.2918
#
#
#
# Elastic Compliance Matrix: (Units=1/GPa)
#
#
# Indices 1 2 3 4 5 6 
#
# 1 0.011213 -0.004288 -0.005069 0.000000 -0.006388 0.000000
# 2 -0.004288 0.013866 -0.003351 0.000000 -0.000843 0.000000
# 3 -0.005069 -0.003351 0.024965 0.000000 -0.000524 0.000000
# 4 0.000000 0.000000 0.000000 0.083711 0.000000 -0.016747
# 5 -0.006388 -0.000843 -0.000524 0.000000 0.042460 0.000000
# 6 0.000000 0.000000 0.000000 -0.016747 0.000000 0.030905
#
#
# Mechanical properties :
#
#
# Convention : Reuss Voigt Hill
#
# Bulk Modulus (GPa) = 40.60598 56.34050 48.47324
# Shear Modulus (GPa) = 20.76887 26.81029 23.78958
#
# Velocity S-wave (km/s) = 3.37163 3.83075 3.60850
# Velocity P-wave (km/s) = 6.11415 7.09959 6.62522
#
# Compressibility (1/GPa) = 0.02462692
#
# Stress axis : x y z
#
# Youngs Moduli (GPa) = 89.18011 72.11993 40.05641
#
# Poissons Ratio (x) = 0.30927 0.20304
# Poissons Ratio (y) = 0.38243 0.13424
# Poissons Ratio (z) = 0.45203 0.24170
#
# Static dielectric constant tensor:
#      x y z
#    x 3.647220 0.000000 0.257640 
#    y 0.000000 4.828350 0.000000 
#    z 0.257640 0.000000 3.131100 
# 
# 
# High freq. dielectric constant tensor:
#      x y z
#    x 1.719070 0.000000 0.029830 
#    y 0.000000 1.719000 0.000000 
#    z 0.029830 0.000000 1.667290 
# 
# From -- ./inp_files/72166.got.cif
#   From: 2010.06.25/outbox.cif.g09.slc.cpg/sg11_37_cif.got.tgz:72166.got - 2010.06.27 23:14:04.
