data_PCOD8068435
_publ_section_title
;
Structure prediction by ZEFSAII (Michael W. Deem and Ramdas Pophale) SiO2 
 PCOD8068435
Probable space group: P 21/M
;
_chemical_formula_sum "Si O2"
_cell_formula_units_Z 32
_cell_length_a 14.687783
_cell_length_b 16.763703
_cell_length_c 10.814705
_cell_angle_alpha 90.000000
_cell_angle_beta 41.299715
_cell_angle_gamma 90.000000
_cell_volume 1757.451938
_symmetry_space_group_name_H-M "P 21/M"
_symmetry_group_IT_number 11
_symmetry_cell_setting 'monoclinic'
loop_
_space_group_symop_operation_xyz
x,y,z
-x,1/2+y,-z
-x,-y,-z
x,1/2-y,z
loop_
_atom_site_type_symbol
_atom_site_label
_atom_site_fract_x
_atom_site_fract_y
_atom_site_fract_z
Si Si1 0.888762 0.068300 0.342815
Si Si2 0.723036 0.842208 0.537126
Si Si3 0.228075 0.589532 0.148484
Si Si4 0.970390 0.340399 0.476620
Si Si5 0.778043 0.344335 0.239023
Si Si6 0.427705 0.842303 0.758913
Si Si7 0.200232 0.047837 0.348944
Si Si8 0.008047 0.914097 0.157601
O O1 0.771894 0.109316 0.376068
O O2 0.971259 0.139302 0.328850
O O3 0.824623 0.014860 0.516203
O O4 0.985537 0.009676 0.160994
O O5 0.737875 0.750000 0.553440
O O6 0.591280 0.858233 0.582702
O O7 0.696638 0.886990 0.696165
O O8 0.860254 0.872332 0.329346
O O9 0.254497 0.499434 0.173411
O O10 0.105756 0.596530 0.175002
O O11 0.182760 0.648397 0.307172
O O12 0.370486 0.614545 0.939705
O O13 0.023205 0.250000 0.440391
O O14 0.061961 0.405211 0.454565
O O15 0.777350 0.250000 0.262337
O O16 0.647434 0.372578 0.289647
O O17 0.922269 0.370928 0.029756
O O18 0.391840 0.750000 0.812036
#
# Coordination Sequence:
#
# PCOD8068435 Si02
#       8
#     4   4   4   4   4   4   4   4
#     4  10  18  32  47  75 102 130 158 207 248 295
#     4  10  19  32  50  75 100 130 167 205 251 293
#     4  10  17  32  50  73 102 130 165 199 248 294
#     4  11  18  28  50  78 104 129 160 203 248 296
#     4  10  20  33  51  74  96 128 170 209 247 289
#     4   9  20  34  49  72 100 129 168 211 246 288
#     4  10  19  31  50  74 106 130 161 201 250 299
#     4  10  18  32  52  72 100 130 161 207 245 295
#
# _framework density 18.208179999999999
#
# number of rings (size 3 to 8) (size 9 to 14) (size 15 to 20)
#    0.000    2.000    3.750    2.625    0.000    1.500 
#    0.000    2.500    0.000    0.000    3.250    0.000 
#    0.000    0.000    0.000    0.000    0.000    0.000 
#
# Total GULP energy -396449.421515 kJ/mol
# GULP energy per Si atom -12389.044422 kJ/mol
# Density = 1.816674 g / cm^3
# Si number density = 18.208180 Si / 1000 Ang^3
#
#
#
# Elastic Constant Matrix: (Units=GPa)
#
#
# Indices 1 2 3 4 5 6 
#
# 1 106.3801 47.4066 43.1643 0.0000 -0.4421 0.0000
# 2 47.4066 95.9160 28.5735 0.0000 5.2671 0.0000
# 3 43.1643 28.5735 45.2510 0.0000 -9.3696 0.0000
# 4 0.0000 0.0000 0.0000 14.9555 0.0000 3.9878
# 5 -0.4421 5.2671 -9.3696 0.0000 22.5958 0.0000
# 6 0.0000 0.0000 0.0000 3.9878 0.0000 34.5202
#
#
#
# Elastic Compliance Matrix: (Units=1/GPa)
#
#
# Indices 1 2 3 4 5 6 
#
# 1 0.017139 -0.003711 -0.015049 0.000000 -0.005040 0.000000
# 2 -0.003711 0.014728 -0.007095 0.000000 -0.006447 0.000000
# 3 -0.015049 -0.007095 0.045087 0.000000 0.020055 0.000000
# 4 0.000000 0.000000 0.000000 0.068990 0.000000 -0.007970
# 5 -0.005040 -0.006447 0.020055 0.000000 0.053976 0.000000
# 6 0.000000 0.000000 0.000000 -0.007970 0.000000 0.029889
#
#
# Mechanical properties :
#
#
# Convention : Reuss Voigt Hill
#
# Bulk Modulus (GPa) = 39.61400 53.98176 46.79788
# Shear Modulus (GPa) = 17.24530 22.97447 20.10989
#
# Velocity S-wave (km/s) = 3.08087 3.55599 3.32692
# Velocity P-wave (km/s) = 5.87018 6.82433 6.36516
#
# Compressibility (1/GPa) = 0.02524360
#
# Stress axis : x y z
#
# Youngs Moduli (GPa) = 58.34490 67.89961 22.17959
#
# Poissons Ratio (x) = 0.25199 0.33378
# Poissons Ratio (y) = 0.21653 0.15735
# Poissons Ratio (z) = 0.87804 0.48172
#
# Static dielectric constant tensor:
#      x y z
#    x 3.542750 0.000000 0.108800 
#    y 0.000000 3.665370 0.000000 
#    z 0.108800 0.000000 3.060940 
# 
# 
# High freq. dielectric constant tensor:
#      x y z
#    x 1.709090 0.000000 0.010500 
#    y 0.000000 1.715690 0.000000 
#    z 0.010500 0.000000 1.660380 
# 
# From -- ./inp_files/39650.got.cif
#   From: 2010.06.25/outbox.cif.g09.slc.cpg/sg11_20_cif.got.tgz:39650.got - 2010.06.27 23:14:04.
