data_PCOD8068016
_publ_section_title
;
Structure prediction by ZEFSAII (Michael W. Deem and Ramdas Pophale) SiO2 
 PCOD8068016
Probable space group: P 2/M
;
_chemical_formula_sum "Si O2"
_cell_formula_units_Z 32
_cell_length_a 20.087842
_cell_length_b 9.544365
_cell_length_c 9.686515
_cell_angle_alpha 90.000000
_cell_angle_beta 96.365377
_cell_angle_gamma 90.000000
_cell_volume 1845.704658
_symmetry_space_group_name_H-M "P 2/M"
_symmetry_group_IT_number 10
_symmetry_cell_setting 'monoclinic'
loop_
_space_group_symop_operation_xyz
x,y,z
-x,y,-z
-x,-y,-z
x,-y,z
loop_
_atom_site_type_symbol
_atom_site_label
_atom_site_fract_x
_atom_site_fract_y
_atom_site_fract_z
Si Si1 0.538669 0.832991 0.378333
Si Si2 0.060860 0.666361 0.106545
Si Si3 0.454112 0.167107 0.108695
Si Si4 0.184994 0.336313 0.950423
Si Si5 0.312323 0.841104 0.988032
Si Si6 0.061771 0.666465 0.422828
Si Si7 0.187569 0.335873 0.633242
Si Si8 0.316609 0.840608 0.664972
O O1 0.500000 0.774198 0.500000
O O2 0.490251 0.773185 0.250539
O O3 0.615411 0.779437 0.388440
O O4 0.541625 0.000000 0.371912
O O5 0.055871 0.500000 0.112103
O O6 0.059687 0.725436 0.264293
O O7 0.127183 0.714258 0.040805
O O8 0.000000 0.726507 0.000000
O O9 0.452318 0.000000 0.100230
O O10 0.500000 0.230250 0.000000
O O11 0.377396 0.219330 0.082013
O O12 0.198889 0.500000 0.969376
O O13 0.250605 0.255684 0.015253
O O14 0.166476 0.300363 0.786681
O O15 0.328336 0.834252 0.830354
O O16 0.295449 0.000000 0.028665
O O17 0.057609 0.500000 0.416965
O O18 0.129378 0.714444 0.516043
O O19 0.000000 0.725531 0.500000
O O20 0.201798 0.500000 0.620497
O O21 0.254453 0.254431 0.604182
O O22 0.302157 0.000000 0.614058
#
# Coordination Sequence:
#
# PCOD8068016 Si02
#       8
#     4   4   4   4   4   4   4   4
#     4   9  16  26  41  63  87 110 143 188 228 256
#     4   9  16  27  45  68  92 117 146 183 222 256
#     4   9  14  24  43  63  82 109 148 187 219 255
#     4   9  17  29  45  66  93 119 144 178 222 264
#     4   9  16  27  46  68  88 115 150 184 218 262
#     4   9  16  27  45  68  91 116 150 185 215 254
#     4   9  17  29  46  67  90 118 148 179 216 262
#     4   9  16  28  46  66  89 117 148 182 221 264
#
# _framework density 17.337551000000001
#
# number of rings (size 3 to 8) (size 9 to 14) (size 15 to 20)
#    0.000    3.000    1.250    0.750    0.000    3.000 
#    2.250    0.000    0.000    2.250    0.000    0.000 
#    0.000    0.000    0.000    0.000    0.000    0.000 
#
# Total GULP energy -396570.857137 kJ/mol
# GULP energy per Si atom -12392.839286 kJ/mol
# Density = 1.729809 g / cm^3
# Si number density = 17.337551 Si / 1000 Ang^3
#
#
#
# Elastic Constant Matrix: (Units=GPa)
#
#
# Indices 1 2 3 4 5 6 
#
# 1 187.7583 39.8559 92.3952 0.0000 2.0322 0.0000
# 2 39.8559 24.2889 20.3249 0.0000 1.1509 0.0000
# 3 92.3952 20.3249 128.1329 0.0000 2.0188 0.0000
# 4 0.0000 0.0000 0.0000 10.3077 0.0000 -9.6785
# 5 2.0322 1.1509 2.0188 0.0000 34.0277 0.0000
# 6 0.0000 0.0000 0.0000 -9.6785 0.0000 27.7191
#
#
#
# Elastic Compliance Matrix: (Units=1/GPa)
#
#
# Indices 1 2 3 4 5 6 
#
# 1 0.010991 -0.013154 -0.005841 0.000000 0.000135 0.000000
# 2 -0.013154 0.063261 -0.000529 0.000000 -0.001323 0.000000
# 3 -0.005841 -0.000529 0.012106 0.000000 -0.000351 0.000000
# 4 0.000000 0.000000 0.000000 0.144334 0.000000 0.050396
# 5 0.000135 -0.001323 -0.000351 0.000000 0.029445 0.000000
# 6 0.000000 0.000000 0.000000 0.050396 0.000000 0.053673
#
#
# Mechanical properties :
#
#
# Convention : Reuss Voigt Hill
#
# Bulk Modulus (GPa) = 21.13721 71.70359 46.42040
# Shear Modulus (GPa) = 13.56382 26.91784 20.24083
#
# Velocity S-wave (km/s) = 2.80006 3.94455 3.42051
# Velocity P-wave (km/s) = 4.76150 7.88626 6.51402
#
# Compressibility (1/GPa) = 0.04730992
#
# Stress axis : x y z
#
# Youngs Moduli (GPa) = 90.98158 15.80763 82.60491
#
# Poissons Ratio (x) = 0.20793 0.48251
# Poissons Ratio (y) = 1.19678 0.04366
# Poissons Ratio (z) = 0.53144 0.00836
#
# Static dielectric constant tensor:
#      x y z
#    x 3.402480 0.000000 0.024330 
#    y 0.000000 2.708020 0.000000 
#    z 0.024330 0.000000 3.332670 
# 
# 
# High freq. dielectric constant tensor:
#      x y z
#    x 1.685700 0.000000 0.002850 
#    y 0.000000 1.605460 0.000000 
#    z 0.002850 0.000000 1.665890 
# 
# From -- ./inp_files/32196.got.cif
#   From: 2010.06.25/outbox.cif.g09.slc.cpg/sg10_17_cif.got.tgz:32196.got - 2010.06.27 22:07:45.
