data_PCOD8068345
_publ_section_title
;
Structure prediction by ZEFSAII (Michael W. Deem and Ramdas Pophale) SiO2 
 PCOD8068345
Probable space group: P 21/M
;
_chemical_formula_sum "Si O2"
_cell_formula_units_Z 32
_cell_length_a 12.736616
_cell_length_b 17.977070
_cell_length_c 11.062123
_cell_angle_alpha 90.000000
_cell_angle_beta 48.679322
_cell_angle_gamma 90.000000
_cell_volume 1902.244587
_symmetry_space_group_name_H-M "P 21/M"
_symmetry_group_IT_number 11
_symmetry_cell_setting 'monoclinic'
loop_
_space_group_symop_operation_xyz
x,y,z
-x,1/2+y,-z
-x,-y,-z
x,1/2-y,z
loop_
_atom_site_type_symbol
_atom_site_label
_atom_site_fract_x
_atom_site_fract_y
_atom_site_fract_z
Si Si1 0.558034 0.607384 0.935167
Si Si2 0.089594 0.834998 0.197074
Si Si3 0.830133 0.832970 0.668582
Si Si4 0.537460 0.553928 0.580935
Si Si5 0.620635 0.035147 0.745633
Si Si6 0.370102 0.836388 0.857883
Si Si7 0.220939 0.335991 0.568601
Si Si8 0.078653 0.576256 0.447838
O O1 0.695526 0.657329 0.857014
O O2 0.624764 0.528547 0.844681
O O3 0.461262 0.644014 0.906454
O O4 0.474211 0.601008 0.124821
O O5 0.105280 0.750000 0.231763
O O6 0.111862 0.889915 0.291541
O O7 0.934711 0.845914 0.257253
O O8 0.206719 0.852355 0.007583
O O9 0.880878 0.750000 0.624180
O O10 0.784294 0.859399 0.568676
O O11 0.970571 0.873788 0.607105
O O12 0.500000 0.500000 0.500000
O O13 0.554722 0.495150 0.674489
O O14 0.414525 0.611894 0.711005
O O15 0.673932 0.605098 0.448895
O O16 0.774009 0.066422 0.597039
O O17 0.395780 0.750000 0.805406
O O18 0.272359 0.250000 0.544867
O O19 0.000000 0.500000 0.500000
#
# Coordination Sequence:
#
# PCOD8068345 Si02
#       8
#     4   4   4   4   4   4   4   4
#     4  10  17  29  47  76 105 128 159 199 255 314
#     4   9  18  30  49  80 104 124 162 209 254 307
#     4  10  18  29  48  76 103 131 164 201 250 315
#     4  11  22  35  50  74 101 134 181 218 248 293
#     4  10  19  30  46  72 106 134 158 199 255 300
#     4  10  18  32  55  76  99 131 167 214 260 301
#     4   9  16  31  52  73  99 129 169 212 249 293
#     4  11  17  27  45  73 107 134 154 189 253 315
#
# _framework density 16.822233000000001
#
# number of rings (size 3 to 8) (size 9 to 14) (size 15 to 20)
#    0.000    2.000    5.000    2.625    0.000    0.000 
#    0.000    0.625    0.000    6.000    0.000    1.750 
#    0.000    0.000    0.000    0.000    0.000    0.000 
#
# Total GULP energy -396541.026456 kJ/mol
# GULP energy per Si atom -12391.907077 kJ/mol
# Density = 1.678395 g / cm^3
# Si number density = 16.822233 Si / 1000 Ang^3
#
#
#
# Elastic Constant Matrix: (Units=GPa)
#
#
# Indices 1 2 3 4 5 6 
#
# 1 46.4747 39.2074 47.9160 0.0000 -13.3639 0.0000
# 2 39.2074 84.9405 48.8974 0.0000 -5.4826 0.0000
# 3 47.9160 48.8974 111.9259 0.0000 -30.6544 0.0000
# 4 0.0000 0.0000 0.0000 30.6797 0.0000 -4.1737
# 5 -13.3639 -5.4826 -30.6544 0.0000 30.3272 0.0000
# 6 0.0000 0.0000 0.0000 -4.1737 0.0000 28.6221
#
#
#
# Elastic Compliance Matrix: (Units=1/GPa)
#
#
# Indices 1 2 3 4 5 6 
#
# 1 0.049002 -0.014816 -0.012894 0.000000 0.005881 0.000000
# 2 -0.014816 0.020947 -0.004922 0.000000 -0.007717 0.000000
# 3 -0.012894 -0.004922 0.020473 0.000000 0.014122 0.000000
# 4 0.000000 0.000000 0.000000 0.033255 0.000000 0.004849
# 5 0.005881 -0.007717 0.014122 0.000000 0.048444 0.000000
# 6 0.000000 0.000000 0.000000 0.004849 0.000000 0.035645
#
#
# Mechanical properties :
#
#
# Convention : Reuss Voigt Hill
#
# Bulk Modulus (GPa) = 39.75119 57.26476 48.50798
# Shear Modulus (GPa) = 17.76733 25.08049 21.42391
#
# Velocity S-wave (km/s) = 3.25342 3.86542 3.57255
# Velocity P-wave (km/s) = 6.14772 7.35099 6.77611
#
# Compressibility (1/GPa) = 0.02515648
#
# Stress axis : x y z
#
# Youngs Moduli (GPa) = 20.40749 47.73932 48.84575
#
# Poissons Ratio (x) = 0.70730 0.62984
# Poissons Ratio (y) = 0.30236 0.24042
# Poissons Ratio (z) = 0.26314 0.23497
#
# Static dielectric constant tensor:
#      x y z
#    x 2.825310 0.000000 -0.486650 
#    y 0.000000 3.343110 0.000000 
#    z -0.486650 0.000000 3.392490 
# 
# 
# High freq. dielectric constant tensor:
#      x y z
#    x 1.593180 0.000000 -0.050460 
#    y 0.000000 1.659660 0.000000 
#    z -0.050460 0.000000 1.647720 
# 
# From -- ./inp_files/36007.got.cif
#   From: 2010.06.25/outbox.cif.g09.slc.cpg/sg11_19_cif.got.tgz:36007.got - 2010.06.27 23:14:04.
