data_PCOD8068875
_publ_section_title
;
Structure prediction by ZEFSAII (Michael W. Deem and Ramdas Pophale) SiO2 
 PCOD8068875
Probable space group: P 21/M
;
_chemical_formula_sum "Si O2"
_cell_formula_units_Z 32
_cell_length_a 12.523504
_cell_length_b 8.625837
_cell_length_c 24.669610
_cell_angle_alpha 90.000000
_cell_angle_beta 130.810607
_cell_angle_gamma 90.000000
_cell_volume 2017.033079
_symmetry_space_group_name_H-M "P 21/M"
_symmetry_group_IT_number 11
_symmetry_cell_setting 'monoclinic'
loop_
_space_group_symop_operation_xyz
x,y,z
-x,1/2+y,-z
-x,-y,-z
x,1/2-y,z
loop_
_atom_site_type_symbol
_atom_site_label
_atom_site_fract_x
_atom_site_fract_y
_atom_site_fract_z
Si Si1 0.291454 0.425461 0.284645
Si Si2 0.240192 0.071265 0.152659
Si Si3 0.287708 0.571797 0.057072
Si Si4 0.893889 0.071444 0.697523
Si Si5 0.849590 0.431697 0.171761
Si Si6 0.051517 0.430801 0.908162
Si Si7 0.554265 0.569145 0.073873
Si Si8 0.377552 0.425322 0.425034
O O1 0.229345 0.250000 0.266191
O O2 0.339602 0.461107 0.239138
O O3 0.164835 0.542142 0.260396
O O4 0.413534 0.439280 0.371838
O O5 0.248378 0.250000 0.137204
O O6 0.297151 0.962730 0.124164
O O7 0.082056 0.032009 0.118437
O O8 0.243753 0.750000 0.033055
O O9 0.439988 0.537981 0.082415
O O10 0.171665 0.460208 0.992741
O O11 0.920160 0.250000 0.694201
O O12 0.776102 0.005773 0.616136
O O13 0.042550 0.980778 0.744116
O O14 0.854707 0.250000 0.162762
O O15 0.886253 0.520545 0.128835
O O16 0.694845 0.481798 0.139691
O O17 0.012265 0.250000 0.895109
O O18 0.585583 0.750000 0.076224
O O19 0.500000 0.500000 0.000000
O O20 0.500000 0.500000 0.500000
O O21 0.364472 0.250000 0.440165
#
# Coordination Sequence:
#
# PCOD8068875 Si02
#       8
#     4   4   4   4   4   4   4   4
#     4   8  17  30  45  65  96 130 159 191 231 276
#     4  11  21  35  52  69  96 129 163 201 246 296
#     4  11  24  38  50  68  94 122 160 209 255 297
#     4  10  18  29  47  71  97 130 165 195 238 291
#     4  12  22  34  52  72  98 127 164 211 255 301
#     4  12  22  33  51  71  92 122 162 203 252 304
#     4  11  23  38  55  71  92 124 164 211 260 304
#     4   9  16  28  45  70 104 136 165 196 234 283
#
# _framework density 15.864884999999999
#
# number of rings (size 3 to 8) (size 9 to 14) (size 15 to 20)
#    0.750    0.750    2.500    4.875    0.000    2.000 
#    0.000    0.000    0.000    0.000    0.000    0.000 
#    0.000    1.000    0.000    3.000    0.000    4.625 
#
# Total GULP energy -396551.398384 kJ/mol
# GULP energy per Si atom -12392.231200 kJ/mol
# Density = 1.582878 g / cm^3
# Si number density = 15.864885 Si / 1000 Ang^3
#
#
#
# Elastic Constant Matrix: (Units=GPa)
#
#
# Indices 1 2 3 4 5 6 
#
# 1 60.9601 14.7305 30.0830 0.0000 2.0102 0.0000
# 2 14.7305 75.2985 30.8346 0.0000 2.1236 0.0000
# 3 30.0830 30.8346 109.0952 0.0000 9.6977 0.0000
# 4 0.0000 0.0000 0.0000 27.9806 0.0000 2.0961
# 5 2.0102 2.1236 9.6977 0.0000 15.6284 0.0000
# 6 0.0000 0.0000 0.0000 2.0961 0.0000 21.2633
#
#
#
# Elastic Compliance Matrix: (Units=1/GPa)
#
#
# Indices 1 2 3 4 5 6 
#
# 1 0.019210 -0.001789 -0.004861 0.000000 0.000789 0.000000
# 2 -0.001789 0.015191 -0.003850 0.000000 0.000555 0.000000
# 3 -0.004861 -0.003850 0.012164 0.000000 -0.006399 0.000000
# 4 0.000000 0.000000 0.000000 0.036005 0.000000 -0.003549
# 5 0.000789 0.000555 -0.006399 0.000000 0.067780 0.000000
# 6 0.000000 0.000000 0.000000 -0.003549 0.000000 0.047379
#
#
# Mechanical properties :
#
#
# Convention : Reuss Voigt Hill
#
# Bulk Modulus (GPa) = 39.11773 44.07221 41.59497
# Shear Modulus (GPa) = 22.00209 24.28817 23.14513
#
# Velocity S-wave (km/s) = 3.72807 3.91697 3.82369
# Velocity P-wave (km/s) = 6.57584 6.94959 6.76530
#
# Compressibility (1/GPa) = 0.02556385
#
# Stress axis : x y z
#
# Youngs Moduli (GPa) = 52.05736 65.82726 82.21166
#
# Poissons Ratio (x) = 0.11779 0.39966
# Poissons Ratio (y) = 0.09315 0.31648
# Poissons Ratio (z) = 0.25307 0.25340
#
# Static dielectric constant tensor:
#      x y z
#    x 2.853690 0.000000 0.045650 
#    y 0.000000 3.111400 0.000000 
#    z 0.045650 0.000000 3.103950 
# 
# 
# High freq. dielectric constant tensor:
#      x y z
#    x 1.567870 0.000000 0.003920 
#    y 0.000000 1.628690 0.000000 
#    z 0.003920 0.000000 1.599120 
# 
# From -- ./inp_files/71183.got.cif
#   From: 2010.06.25/outbox.cif.g09.slc.cpg/sg11_36_cif.got.tgz:71183.got - 2010.06.27 23:14:04.
