data_PCOD8068369
_publ_section_title
;
Structure prediction by ZEFSAII (Michael W. Deem and Ramdas Pophale) SiO2 
 PCOD8068369
Probable space group: P 21/M
;
_chemical_formula_sum "Si O2"
_cell_formula_units_Z 20
_cell_length_a 8.852236
_cell_length_b 9.501067
_cell_length_c 21.071530
_cell_angle_alpha 90.000000
_cell_angle_beta 40.402523
_cell_angle_gamma 90.000000
_cell_volume 1148.680535
_symmetry_space_group_name_H-M "P 21/M"
_symmetry_group_IT_number 11
_symmetry_cell_setting 'monoclinic'
loop_
_space_group_symop_operation_xyz
x,y,z
-x,1/2+y,-z
-x,-y,-z
x,1/2-y,z
loop_
_atom_site_type_symbol
_atom_site_label
_atom_site_fract_x
_atom_site_fract_y
_atom_site_fract_z
Si Si1 0.748903 0.250000 0.865658
Si Si2 0.760881 0.750000 0.129355
Si Si3 0.274133 0.250000 0.708729
Si Si4 0.543183 0.474728 0.842761
Si Si5 0.697430 0.094019 0.574574
Si Si6 0.853162 0.913428 0.638083
Si Si7 0.710925 0.250000 0.028043
O O1 0.628514 0.388324 0.876295
O O2 0.021484 0.250000 0.758339
O O3 0.718299 0.250000 0.950097
O O4 0.738094 0.750000 0.211603
O O5 0.642698 0.889062 0.139077
O O6 0.032365 0.750000 0.023617
O O7 0.425932 0.110781 0.639105
O O8 0.770520 0.508817 0.727962
O O9 0.423873 0.614538 0.905181
O O10 0.773906 0.250000 0.577385
O O11 0.869900 0.058459 0.460504
O O12 0.714350 0.975057 0.622256
O O13 0.789567 0.750000 0.663698
#
# Coordination Sequence:
#
# PCOD8068369 Si02
#       7
#     2   2   2   4   4   4   2
#     4  10  24  36  54  69 102 149 181 198 259 318
#     4  10  20  34  56  82 101 130 174 212 269 314
#     4   9  16  35  54  72 106 142 170 203 247 314
#     4  11  20  36  55  79 103 133 178 216 255 309
#     4   8  16  30  55  78 110 131 166 201 265 305
#     4  10  17  29  53  86 105 130 165 220 258 298
#     4  11  22  37  56  75 103 133 171 229 267 292
#
# _framework density 17.411280999999999
#
# number of rings (size 3 to 8) (size 9 to 14) (size 15 to 20)
#    0.600    1.600    3.000    1.200    1.400    0.000 
#    0.000    1.000    2.200    0.000    0.000    0.000 
#    0.000    0.000    0.000    0.000    0.000    0.000 
#
# Total GULP energy -247831.070624 kJ/mol
# GULP energy per Si atom -12391.553531 kJ/mol
# Density = 1.737165 g / cm^3
# Si number density = 17.411281 Si / 1000 Ang^3
#
#
#
# Elastic Constant Matrix: (Units=GPa)
#
#
# Indices 1 2 3 4 5 6 
#
# 1 76.3981 34.7650 35.4194 0.0000 -16.5286 0.0000
# 2 34.7650 101.7550 42.6567 0.0000 -3.5634 0.0000
# 3 35.4194 42.6567 109.7592 0.0000 -14.1574 0.0000
# 4 0.0000 0.0000 0.0000 24.2494 0.0000 -7.6909
# 5 -16.5286 -3.5634 -14.1574 0.0000 28.5242 0.0000
# 6 0.0000 0.0000 0.0000 -7.6909 0.0000 -5.2962
#
#
#
# Elastic Compliance Matrix: (Units=1/GPa)
#
#
# Indices 1 2 3 4 5 6 
#
# 1 0.018523 -0.004763 -0.003011 0.000000 0.008644 0.000000
# 2 -0.004763 0.012985 -0.003906 0.000000 -0.003077 0.000000
# 3 -0.003011 -0.003906 0.012086 0.000000 0.003766 0.000000
# 4 0.000000 0.000000 0.000000 0.028234 0.000000 -0.041001
# 5 0.008644 -0.003077 0.003766 0.000000 0.041551 0.000000
# 6 0.000000 0.000000 0.000000 -0.041001 0.000000 -0.129275
#
#
# Mechanical properties :
#
#
# Convention : Reuss Voigt Hill
#
# Bulk Modulus (GPa) = 49.42501 57.06606 53.24554
# Shear Modulus (GPa) = 351.84223 21.16688 186.50455
#
# Velocity S-wave (km/s) = 14.23081 3.49047 10.36097
# Velocity P-wave (km/s) = 17.27627 7.00650 13.18257
#
# Compressibility (1/GPa) = 0.02023267
#
# Stress axis : x y z
#
# Youngs Moduli (GPa) = 53.98684 77.01375 82.73766
#
# Poissons Ratio (x) = 0.36685 0.24914
# Poissons Ratio (y) = 0.25716 0.32318
# Poissons Ratio (z) = 0.16257 0.30082
#
# Static dielectric constant tensor:
#      x y z
#    x 3.049990 0.000000 -0.267970 
#    y 0.000000 3.168760 0.000000 
#    z -0.267970 0.000000 3.478900 
# 
# 
# High freq. dielectric constant tensor:
#      x y z
#    x 1.639630 0.000000 -0.016370 
#    y 0.000000 1.673910 0.000000 
#    z -0.016370 0.000000 1.690630 
# 
# From -- ./inp_files/57457.got.cif
#   From: 2010.06.25/outbox.cif.g09.slc.cpg/sg11_29_cif.got.tgz:57457.got - 2010.06.27 23:14:04.
