data_PCOD8068635
_publ_section_title
;
Structure prediction by ZEFSAII (Michael W. Deem and Ramdas Pophale) SiO2 
 PCOD8068635
Probable space group: P 21/M
;
_chemical_formula_sum "Si O2"
_cell_formula_units_Z 28
_cell_length_a 30.059217
_cell_length_b 9.063668
_cell_length_c 13.930220
_cell_angle_alpha 90.000000
_cell_angle_beta 150.426590
_cell_angle_gamma 90.000000
_cell_volume 1873.097934
_symmetry_space_group_name_H-M "P 21/M"
_symmetry_group_IT_number 11
_symmetry_cell_setting 'monoclinic'
loop_
_space_group_symop_operation_xyz
x,y,z
-x,1/2+y,-z
-x,-y,-z
x,1/2-y,z
loop_
_atom_site_type_symbol
_atom_site_label
_atom_site_fract_x
_atom_site_fract_y
_atom_site_fract_z
Si Si1 0.518032 0.916434 0.263230
Si Si2 0.738175 0.077917 0.971678
Si Si3 0.906414 0.917061 0.326019
Si Si4 0.239534 0.082565 0.804125
Si Si5 0.410012 0.079178 0.799403
Si Si6 0.559270 0.420556 0.532411
Si Si7 0.673311 0.421489 0.195246
O O1 0.519713 0.750000 0.306734
O O2 0.595442 0.936046 0.326550
O O3 0.538384 0.027247 0.386531
O O4 0.420599 0.950836 0.035356
O O5 0.754698 0.250000 0.021585
O O6 0.664824 0.049863 0.751595
O O7 0.833319 0.000699 0.120243
O O8 0.702638 0.003766 0.005008
O O9 0.919514 0.750000 0.313635
O O10 0.865341 0.918561 0.357682
O O11 0.000000 0.000000 0.500000
O O12 0.275599 0.250000 0.862202
O O13 0.247861 0.998005 0.718795
O O14 0.413667 0.250000 0.836761
O O15 0.328339 0.998206 0.702369
O O16 0.500000 0.000000 0.000000
O O17 0.500000 0.500000 0.500000
O O18 0.535736 0.250000 0.495545
O O19 0.694700 0.250000 0.248835
#
# Coordination Sequence:
#
# PCOD8068635 Si02
#       7
#     4   4   4   4   4   4   4
#     4   9  19  31  42  58  82 113 149 185 221 258
#     4   9  18  31  43  60  87 116 148 183 218 257
#     4   9  18  30  47  67  88 116 145 178 223 268
#     4   9  18  28  42  64  86 112 143 174 217 262
#     4   9  17  29  43  59  80 108 143 184 225 263
#     4  11  22  31  43  61  85 119 154 188 220 254
#     4  10  18  28  43  62  84 113 146 183 225 262
#
# _framework density 14.948499
#
# number of rings (size 3 to 8) (size 9 to 14) (size 15 to 20)
#    0.857    1.714    0.000    3.857    0.000    9.143 
#    0.000    0.000    0.000    0.000    0.000    0.000 
#    0.000    1.143    0.000    3.714    0.000    4.571 
#
# Total GULP energy -346937.102073 kJ/mol
# GULP energy per Si atom -12390.610788 kJ/mol
# Density = 1.491448 g / cm^3
# Si number density = 14.948499 Si / 1000 Ang^3
#
#
#
# Elastic Constant Matrix: (Units=GPa)
#
#
# Indices 1 2 3 4 5 6 
#
# 1 78.0333 46.2923 22.8687 0.0000 -0.9308 0.0000
# 2 46.2923 129.3629 39.7083 0.0000 2.6852 0.0000
# 3 22.8687 39.7083 49.7155 0.0000 4.9903 0.0000
# 4 0.0000 0.0000 0.0000 21.1738 0.0000 0.6881
# 5 -0.9308 2.6852 4.9903 0.0000 14.1568 0.0000
# 6 0.0000 0.0000 0.0000 0.6881 0.0000 30.7501
#
#
#
# Elastic Compliance Matrix: (Units=1/GPa)
#
#
# Indices 1 2 3 4 5 6 
#
# 1 0.016986 -0.004828 -0.004314 0.000000 0.003553 0.000000
# 2 -0.004828 0.011626 -0.007062 0.000000 -0.000033 0.000000
# 3 -0.004314 -0.007062 0.028647 0.000000 -0.009042 0.000000
# 4 0.000000 0.000000 0.000000 0.047262 0.000000 -0.001058
# 5 0.003553 -0.000033 -0.009042 0.000000 0.074065 0.000000
# 6 0.000000 0.000000 0.000000 -0.001058 0.000000 0.032544
#
#
# Mechanical properties :
#
#
# Convention : Reuss Voigt Hill
#
# Bulk Modulus (GPa) = 40.23896 52.76114 46.50005
# Shear Modulus (GPa) = 19.85540 23.09898 21.47719
#
# Velocity S-wave (km/s) = 3.64848 3.93522 3.79455
# Velocity P-wave (km/s) = 6.68770 7.48464 7.09736
#
# Compressibility (1/GPa) = 0.02485154
#
# Stress axis : x y z
#
# Youngs Moduli (GPa) = 58.87290 86.01263 34.90799
#
# Poissons Ratio (x) = 0.41526 0.15059
# Poissons Ratio (y) = 0.28423 0.24651
# Poissons Ratio (z) = 0.25397 0.60741
#
# Static dielectric constant tensor:
#      x y z
#    x 2.947100 0.000000 0.010610 
#    y 0.000000 3.096100 0.000000 
#    z 0.010610 0.000000 2.490530 
# 
# 
# High freq. dielectric constant tensor:
#      x y z
#    x 1.566680 0.000000 0.005770 
#    y 0.000000 1.596660 0.000000 
#    z 0.005770 0.000000 1.514700 
# 
# From -- ./inp_files/56415.got.cif
#   From: 2010.06.25/outbox.cif.g09.slc.cpg/sg11_29_cif.got.tgz:56415.got - 2010.06.27 23:14:04.
