data_PCOD8068589
_publ_section_title
;
Structure prediction by ZEFSAII (Michael W. Deem and Ramdas Pophale) SiO2 
 PCOD8068589
Probable space group: P 21/M
;
_chemical_formula_sum "Si O2"
_cell_formula_units_Z 32
_cell_length_a 15.018329
_cell_length_b 9.655215
_cell_length_c 15.018324
_cell_angle_alpha 90.000000
_cell_angle_beta 79.308662
_cell_angle_gamma 90.000000
_cell_volume 2139.931388
_symmetry_space_group_name_H-M "P 21/M"
_symmetry_group_IT_number 11
_symmetry_cell_setting 'monoclinic'
loop_
_space_group_symop_operation_xyz
x,y,z
-x,1/2+y,-z
-x,-y,-z
x,1/2-y,z
loop_
_atom_site_type_symbol
_atom_site_label
_atom_site_fract_x
_atom_site_fract_y
_atom_site_fract_z
Si Si1 0.414357 0.089825 0.197309
Si Si2 0.553649 0.909346 0.611431
Si Si3 0.264885 0.408549 0.764885
Si Si4 0.302691 0.910175 0.085644
Si Si5 0.388273 0.408481 0.588055
Si Si6 0.888569 0.090654 0.946351
Si Si7 0.620371 0.088150 0.120371
Si Si8 0.911945 0.591519 0.111727
O O1 0.396932 0.250000 0.178325
O O2 0.396903 0.057282 0.304940
O O3 0.515741 0.046771 0.151012
O O4 0.342629 0.000000 0.157371
O O5 0.522034 0.750000 0.616924
O O6 0.620841 0.942560 0.515758
O O7 0.463623 0.998916 0.620776
O O8 0.286887 0.250000 0.786887
O O9 0.293622 0.437302 0.656842
O O10 0.320469 0.504970 0.820468
O O11 0.156842 0.437303 0.793622
O O12 0.321676 0.750000 0.103068
O O13 0.195060 0.942718 0.103098
O O14 0.348987 0.953230 0.984259
O O15 0.419032 0.250000 0.594525
O O16 0.883077 0.250000 0.977966
O O17 0.984242 0.057439 0.879159
O O18 0.879223 0.001083 0.036377
O O19 0.636117 0.250000 0.136117
O O20 0.905474 0.750000 0.080968
#
# Coordination Sequence:
#
# PCOD8068589 Si02
#       8
#     4   4   4   4   4   4   4   4
#     4  10  20  31  44  61  84 116 150 182 212 248
#     4   9  17  30  45  62  85 113 144 178 215 254
#     4  10  18  27  43  68  92 115 141 173 212 257
#     4  10  20  31  44  61  84 116 150 182 212 248
#     4   9  17  28  44  65  88 112 140 175 215 257
#     4   9  17  30  45  62  85 113 144 178 215 254
#     4  10  19  31  43  60  88 119 149 175 207 251
#     4   9  17  28  44  65  88 112 140 175 215 257
#
# _framework density 14.953751
#
# number of rings (size 3 to 8) (size 9 to 14) (size 15 to 20)
#    0.000    2.500    2.500    0.375    0.000    2.000 
#    0.000    0.000    0.000    0.000    0.000    0.875 
#    0.000    0.000    0.000    0.000    0.000    0.000 
#
# Total GULP energy -396643.744537 kJ/mol
# GULP energy per Si atom -12395.117017 kJ/mol
# Density = 1.491972 g / cm^3
# Si number density = 14.953751 Si / 1000 Ang^3
#
#
#
# Elastic Constant Matrix: (Units=GPa)
#
#
# Indices 1 2 3 4 5 6 
#
# 1 104.2218 40.4216 68.0960 0.0000 -10.3159 0.0000
# 2 40.4216 44.7325 40.6428 0.0000 -0.6280 0.0000
# 3 68.0960 40.6428 111.6706 0.0000 -10.8130 0.0000
# 4 0.0000 0.0000 0.0000 18.4852 0.0000 4.7225
# 5 -10.3159 -0.6280 -10.8130 0.0000 21.2891 0.0000
# 6 0.0000 0.0000 0.0000 4.7225 0.0000 20.1507
#
#
#
# Elastic Compliance Matrix: (Units=1/GPa)
#
#
# Indices 1 2 3 4 5 6 
#
# 1 0.018855 -0.010419 -0.007205 0.000000 0.005170 0.000000
# 2 -0.010419 0.039771 -0.008936 0.000000 -0.008414 0.000000
# 3 -0.007205 -0.008936 0.017077 0.000000 0.004919 0.000000
# 4 0.000000 0.000000 0.000000 0.057542 0.000000 -0.013486
# 5 0.005170 -0.008414 0.004919 0.000000 0.051727 0.000000
# 6 0.000000 0.000000 0.000000 -0.013486 0.000000 0.052787
#
#
# Mechanical properties :
#
#
# Convention : Reuss Voigt Hill
#
# Bulk Modulus (GPa) = 44.28146 62.10506 53.19326
# Shear Modulus (GPa) = 16.75558 19.41598 18.08578
#
# Velocity S-wave (km/s) = 3.35101 3.60724 3.48148
# Velocity P-wave (km/s) = 6.68198 7.67927 7.19792
#
# Compressibility (1/GPa) = 0.02258282
#
# Stress axis : x y z
#
# Youngs Moduli (GPa) = 53.03555 25.14393 58.55796
#
# Poissons Ratio (x) = 0.26198 0.42192
# Poissons Ratio (y) = 0.55259 0.52327
# Poissons Ratio (z) = 0.38213 0.22469
#
# Static dielectric constant tensor:
#      x y z
#    x 2.923150 0.000000 -0.278740 
#    y 0.000000 2.985430 0.000000 
#    z -0.278740 0.000000 3.021450 
# 
# 
# High freq. dielectric constant tensor:
#      x y z
#    x 1.554150 0.000000 -0.018850 
#    y 0.000000 1.579740 0.000000 
#    z -0.018850 0.000000 1.560800 
# 
# From -- ./inp_files/51272.got.cif
#   From: 2010.06.25/outbox.cif.g09.slc.cpg/sg11_26_cif.got.tgz:51272.got - 2010.06.27 23:14:04.
