data_PCOD8068486
_publ_section_title
;
Structure prediction by ZEFSAII (Michael W. Deem and Ramdas Pophale) SiO2 
 PCOD8068486
Probable space group: P 21/M
;
_chemical_formula_sum "Si O2"
_cell_formula_units_Z 24
_cell_length_a 14.819866
_cell_length_b 16.929427
_cell_length_c 9.925018
_cell_angle_alpha 90.000000
_cell_angle_beta 28.123190
_cell_angle_gamma 90.000000
_cell_volume 1173.758478
_symmetry_space_group_name_H-M "P 21/M"
_symmetry_group_IT_number 11
_symmetry_cell_setting 'monoclinic'
loop_
_space_group_symop_operation_xyz
x,y,z
-x,1/2+y,-z
-x,-y,-z
x,1/2-y,z
loop_
_atom_site_type_symbol
_atom_site_label
_atom_site_fract_x
_atom_site_fract_y
_atom_site_fract_z
Si Si1 0.735888 0.160831 0.890981
Si Si2 0.678052 0.615236 0.471794
Si Si3 0.706891 0.842383 0.124263
Si Si4 0.379467 0.953218 0.547830
Si Si5 0.040947 0.945321 0.571856
Si Si6 0.977553 0.092110 0.815060
O O1 0.777115 0.250000 0.793744
O O2 0.768586 0.105293 0.716335
O O3 0.888416 0.137343 0.805521
O O4 0.520450 0.155141 0.226996
O O5 0.732860 0.642265 0.249260
O O6 0.662753 0.519777 0.508301
O O7 0.847450 0.642084 0.350473
O O8 0.702782 0.750000 0.098192
O O9 0.510023 0.880574 0.325647
O O10 0.875702 0.881996 0.817630
O O11 0.500000 0.000000 0.500000
O O12 0.183837 0.917195 0.859660
O O13 0.059868 0.004619 0.672218
O O14 0.000000 0.000000 0.500000
#
# Coordination Sequence:
#
# PCOD8068486 Si02
#       6
#     4   4   4   4   4   4
#     4  11  23  40  59  87 125 160 195 247 308 361
#     4  11  22  37  65  91 118 154 206 252 296 359
#     4  11  21  37  62  92 124 155 194 251 312 359
#     4  10  17  35  60  90 117 150 196 244 292 356
#     4  10  21  39  62  86 114 162 207 243 288 357
#     4  11  21  38  65  90 117 156 207 247 296 356
#
# _framework density 20.447136
#
# number of rings (size 3 to 8) (size 9 to 14) (size 15 to 20)
#    0.000    1.333    6.667    2.500    0.000    2.000 
#    0.000    0.000    0.000    4.000    0.000    0.000 
#    0.000    0.000    0.000    0.000    0.000    0.000 
#
# Total GULP energy -297427.977867 kJ/mol
# GULP energy per Si atom -12392.832411 kJ/mol
# Density = 2.040060 g / cm^3
# Si number density = 20.447136 Si / 1000 Ang^3
#
#
#
# Elastic Constant Matrix: (Units=GPa)
#
#
# Indices 1 2 3 4 5 6 
#
# 1 41.6062 8.3845 34.8663 0.0000 -21.1204 0.0000
# 2 8.3845 119.9709 36.4411 0.0000 6.6977 0.0000
# 3 34.8663 36.4411 112.3771 0.0000 2.4333 0.0000
# 4 0.0000 0.0000 0.0000 21.5230 0.0000 7.5243
# 5 -21.1204 6.6977 2.4333 0.0000 27.6904 0.0000
# 6 0.0000 0.0000 0.0000 7.5243 0.0000 12.6175
#
#
#
# Elastic Compliance Matrix: (Units=1/GPa)
#
#
# Indices 1 2 3 4 5 6 
#
# 1 0.074376 -0.001221 -0.023961 0.000000 0.059130 0.000000
# 2 -0.001221 0.009375 -0.002597 0.000000 -0.002971 0.000000
# 3 -0.023961 -0.002597 0.017590 0.000000 -0.019193 0.000000
# 4 0.000000 0.000000 0.000000 0.058700 0.000000 -0.035005
# 5 0.059130 -0.002971 -0.019193 0.000000 0.083620 0.000000
# 6 0.000000 0.000000 0.000000 -0.035005 0.000000 0.100130
#
#
# Mechanical properties :
#
#
# Convention : Reuss Voigt Hill
#
# Bulk Modulus (GPa) = 21.84132 48.14866 34.99499
# Shear Modulus (GPa) = 12.05953 25.31699 18.68826
#
# Velocity S-wave (km/s) = 2.43120 3.52258 3.02649
# Velocity P-wave (km/s) = 4.31115 6.33591 5.41894
#
# Compressibility (1/GPa) = 0.04578478
#
# Stress axis : x y z
#
# Youngs Moduli (GPa) = 13.44515 106.66215 56.84921
#
# Poissons Ratio (x) = 0.13024 1.36214
# Poissons Ratio (y) = 0.01642 0.14764
# Poissons Ratio (z) = 0.32215 0.27700
#
# Static dielectric constant tensor:
#      x y z
#    x 3.533150 0.000000 0.026370 
#    y 0.000000 4.140020 0.000000 
#    z 0.026370 0.000000 3.903040 
# 
# 
# High freq. dielectric constant tensor:
#      x y z
#    x 1.764080 0.000000 0.001870 
#    y 0.000000 1.803090 0.000000 
#    z 0.001870 0.000000 1.810240 
# 
# From -- ./inp_files/41895.got.cif
#   From: 2010.06.25/outbox.cif.g09.slc.cpg/sg11_21_cif.got.tgz:41895.got - 2010.06.27 23:14:04.
