data_PCOD8068389
_publ_section_title
;
Structure prediction by ZEFSAII (Michael W. Deem and Ramdas Pophale) SiO2 
 PCOD8068389
Probable space group: P 21/M
;
_chemical_formula_sum "Si O2"
_cell_formula_units_Z 32
_cell_length_a 10.471882
_cell_length_b 17.500992
_cell_length_c 16.547333
_cell_angle_alpha 90.000000
_cell_angle_beta 36.067926
_cell_angle_gamma 90.000000
_cell_volume 1785.426078
_symmetry_space_group_name_H-M "P 21/M"
_symmetry_group_IT_number 11
_symmetry_cell_setting 'monoclinic'
loop_
_space_group_symop_operation_xyz
x,y,z
-x,1/2+y,-z
-x,-y,-z
x,1/2-y,z
loop_
_atom_site_type_symbol
_atom_site_label
_atom_site_fract_x
_atom_site_fract_y
_atom_site_fract_z
Si Si1 0.308315 0.840829 0.421217
Si Si2 0.724845 0.659326 0.300168
Si Si3 0.197661 0.660080 0.018050
Si Si4 0.557907 0.660176 0.718487
Si Si5 0.261809 0.659223 0.262576
Si Si6 0.498790 0.909912 0.998502
Si Si7 0.209601 0.341030 0.554419
Si Si8 0.850234 0.659609 0.715938
O O1 0.317424 0.750000 0.413160
O O2 0.522288 0.875486 0.354584
O O3 0.292144 0.871893 0.338196
O O4 0.100325 0.866187 0.580673
O O5 0.703337 0.750000 0.314201
O O6 0.727088 0.625960 0.390177
O O7 0.946878 0.635410 0.141071
O O8 0.220995 0.750000 0.024032
O O9 0.312340 0.618568 0.033588
O O10 0.315211 0.638399 0.872913
O O11 0.585000 0.750000 0.697432
O O12 0.616622 0.626146 0.600196
O O13 0.730440 0.630924 0.696094
O O14 0.281826 0.750000 0.248598
O O15 0.451033 0.622286 0.112051
O O16 0.029278 0.631092 0.348669
O O17 0.737140 0.880529 0.850302
O O18 0.500000 0.000000 0.000000
O O19 0.212247 0.250000 0.555949
O O20 0.826443 0.750000 0.739098
#
# Coordination Sequence:
#
# PCOD8068389 Si02
#       8
#     4   4   4   4   4   4   4   4
#     4   9  17  29  49  75 101 126 159 200 243 295
#     4   9  16  26  44  74 102 123 153 198 245 288
#     4   9  16  29  49  70  95 125 159 199 250 292
#     4   8  13  22  41  67  90 115 147 187 231 284
#     4  10  17  30  51  74  97 127 163 200 244 294
#     4  11  21  31  47  73 101 128 167 213 246 283
#     4   9  14  23  43  71  96 118 152 196 239 281
#     4   9  16  30  50  71  98 130 159 195 251 298
#
# _framework density 17.922892999999998
#
# number of rings (size 3 to 8) (size 9 to 14) (size 15 to 20)
#    0.000    2.750    2.500    1.875    0.000    0.000 
#    0.000    1.875    0.000    7.500    0.000    0.000 
#    0.000    0.000    0.000    0.000    0.000    0.000 
#
# Total GULP energy -396609.854823 kJ/mol
# GULP energy per Si atom -12394.057963 kJ/mol
# Density = 1.788210 g / cm^3
# Si number density = 17.922893 Si / 1000 Ang^3
#
#
#
# Elastic Constant Matrix: (Units=GPa)
#
#
# Indices 1 2 3 4 5 6 
#
# 1 117.8935 16.0383 82.6657 0.0000 -2.3005 0.0000
# 2 16.0383 30.9421 27.6292 0.0000 0.7125 0.0000
# 3 82.6657 27.6292 188.8658 0.0000 3.8509 0.0000
# 4 0.0000 0.0000 0.0000 5.3338 0.0000 -0.3332
# 5 -2.3005 0.7125 3.8509 0.0000 30.5899 0.0000
# 6 0.0000 0.0000 0.0000 -0.3332 0.0000 4.5627
#
#
#
# Elastic Compliance Matrix: (Units=1/GPa)
#
#
# Indices 1 2 3 4 5 6 
#
# 1 0.012406 -0.001828 -0.005196 0.000000 0.001630 0.000000
# 2 -0.001828 0.037445 -0.004669 0.000000 -0.000422 0.000000
# 3 -0.005196 -0.004669 0.008279 0.000000 -0.001324 0.000000
# 4 0.000000 0.000000 0.000000 0.188344 0.000000 0.013755
# 5 0.001630 -0.000422 -0.001324 0.000000 0.032990 0.000000
# 6 0.000000 0.000000 0.000000 0.013755 0.000000 0.220173
#
#
# Mechanical properties :
#
#
# Convention : Reuss Voigt Hill
#
# Bulk Modulus (GPa) = 28.78233 65.59641 47.18937
# Shear Modulus (GPa) = 9.35272 22.18850 15.77061
#
# Velocity S-wave (km/s) = 2.28684 3.52234 2.96955
# Velocity P-wave (km/s) = 4.80278 7.29528 6.17608
#
# Compressibility (1/GPa) = 0.03474353
#
# Stress axis : x y z
#
# Youngs Moduli (GPa) = 80.60609 26.70591 120.78819
#
# Poissons Ratio (x) = 0.04883 0.62759
# Poissons Ratio (y) = 0.14739 0.56395
# Poissons Ratio (z) = 0.41881 0.12469
#
# Static dielectric constant tensor:
#      x y z
#    x 3.361160 0.000000 0.110860 
#    y 0.000000 2.697190 0.000000 
#    z 0.110860 0.000000 3.784250 
# 
# 
# High freq. dielectric constant tensor:
#      x y z
#    x 1.670310 0.000000 0.008200 
#    y 0.000000 1.628550 0.000000 
#    z 0.008200 0.000000 1.717810 
# 
# From -- ./inp_files/59605.got.cif
#   From: 2010.06.25/outbox.cif.g09.slc.cpg/sg11_30_cif.got.tgz:59605.got - 2010.06.27 23:14:04.
