data_PCOD8068475
_publ_section_title
;
Structure prediction by ZEFSAII (Michael W. Deem and Ramdas Pophale) SiO2 
 PCOD8068475
Probable space group: P 21/M
;
_chemical_formula_sum "Si O2"
_cell_formula_units_Z 28
_cell_length_a 17.304760
_cell_length_b 13.808709
_cell_length_c 9.744008
_cell_angle_alpha 90.000000
_cell_angle_beta 140.516324
_cell_angle_gamma 90.000000
_cell_volume 1480.528154
_symmetry_space_group_name_H-M "P 21/M"
_symmetry_group_IT_number 11
_symmetry_cell_setting 'monoclinic'
loop_
_space_group_symop_operation_xyz
x,y,z
-x,1/2+y,-z
-x,-y,-z
x,1/2-y,z
loop_
_atom_site_type_symbol
_atom_site_label
_atom_site_fract_x
_atom_site_fract_y
_atom_site_fract_z
Si Si1 0.599970 0.547581 0.930650
Si Si2 0.831141 0.455850 0.157317
Si Si3 0.744705 0.640995 0.356213
Si Si4 0.341490 0.483101 0.525290
Si Si5 0.563322 0.639904 0.590424
Si Si6 0.946693 0.640119 0.413270
Si Si7 0.285367 0.862378 0.252750
O O1 0.468941 0.500611 0.777650
O O2 0.602346 0.611686 0.796534
O O3 0.701878 0.463585 0.057913
O O4 0.632133 0.616625 0.101933
O O5 0.892322 0.563388 0.228699
O O6 0.913976 0.385172 0.362856
O O7 0.814218 0.409000 0.984565
O O8 0.726539 0.750000 0.384151
O O9 0.747436 0.571614 0.492581
O O10 0.871966 0.628438 0.452301
O O11 0.362225 0.423412 0.414609
O O12 0.279562 0.584128 0.392849
O O13 0.598659 0.750000 0.612358
O O14 0.419579 0.622223 0.372173
O O15 0.936728 0.750000 0.341980
O O16 0.255860 0.750000 0.236531
#
# Coordination Sequence:
#
# PCOD8068475 Si02
#       7
#     4   4   4   4   4   4   4
#     4  10  18  33  53  78 107 137 175 215 264 306
#     4  10  17  34  57  77 102 133 181 224 258 302
#     4  10  21  35  51  74 108 146 177 207 260 319
#     4  11  19  34  50  81 112 138 173 213 262 314
#     4  10  18  30  52  80 111 137 174 217 258 314
#     4   9  20  35  54  78 105 140 179 216 262 312
#     4  10  19  32  53  78 105 140 177 215 266 311
#
# _framework density 18.912168999999999
#
# number of rings (size 3 to 8) (size 9 to 14) (size 15 to 20)
#    0.000    2.000    2.857    2.571    0.000    1.143 
#    0.000    0.714    0.000   11.143    0.000    0.000 
#    0.000    0.000    0.000    0.000    0.000    0.000 
#
# Total GULP energy -347184.858290 kJ/mol
# GULP energy per Si atom -12399.459225 kJ/mol
# Density = 1.886912 g / cm^3
# Si number density = 18.912169 Si / 1000 Ang^3
#
#
#
# Elastic Constant Matrix: (Units=GPa)
#
#
# Indices 1 2 3 4 5 6 
#
# 1 33.6228 42.4461 24.9760 0.0000 -5.3805 0.0000
# 2 42.4461 144.0501 52.3638 0.0000 -9.5870 0.0000
# 3 24.9760 52.3638 85.3740 0.0000 -2.2886 0.0000
# 4 0.0000 0.0000 0.0000 31.6440 0.0000 -4.8216
# 5 -5.3805 -9.5870 -2.2886 0.0000 23.1704 0.0000
# 6 0.0000 0.0000 0.0000 -4.8216 0.0000 25.6968
#
#
#
# Elastic Compliance Matrix: (Units=1/GPa)
#
#
# Indices 1 2 3 4 5 6 
#
# 1 0.051516 -0.012029 -0.007526 0.000000 0.006243 0.000000
# 2 -0.012029 0.011980 -0.003781 0.000000 0.001790 0.000000
# 3 -0.007526 -0.003781 0.016188 0.000000 -0.001713 0.000000
# 4 0.000000 0.000000 0.000000 0.032532 0.000000 0.006104
# 5 0.006243 0.001790 -0.001713 0.000000 0.045180 0.000000
# 6 0.000000 0.000000 0.000000 0.006104 0.000000 0.040061
#
#
# Mechanical properties :
#
#
# Convention : Reuss Voigt Hill
#
# Bulk Modulus (GPa) = 30.29086 55.84653 43.06869
# Shear Modulus (GPa) = 19.59770 25.65297 22.62534
#
# Velocity S-wave (km/s) = 3.22257 3.68697 3.46256
# Velocity P-wave (km/s) = 5.46791 6.90786 6.22963
#
# Compressibility (1/GPa) = 0.03301326
#
# Stress axis : x y z
#
# Youngs Moduli (GPa) = 19.41126 83.47257 61.77439
#
# Poissons Ratio (x) = 1.00407 0.46491
# Poissons Ratio (y) = 0.23349 0.23356
# Poissons Ratio (z) = 0.14609 0.31560
#
# Static dielectric constant tensor:
#      x y z
#    x 3.091880 0.000000 0.104780 
#    y 0.000000 3.703100 0.000000 
#    z 0.104780 0.000000 3.495090 
# 
# 
# High freq. dielectric constant tensor:
#      x y z
#    x 1.689090 0.000000 0.003930 
#    y 0.000000 1.746020 0.000000 
#    z 0.003930 0.000000 1.737240 
# 
# From -- ./inp_files/17790.got.cif
#   From: 2010.06.25/outbox.cif.g09.slc.cpg/sg11_9_cif.got.tgz:17790.got - 2010.06.27 23:14:04.
