data_PCOD8068191
_publ_section_title
;
Structure prediction by ZEFSAII (Michael W. Deem and Ramdas Pophale) SiO2 
 PCOD8068191
Probable space group: P 21/M
;
_chemical_formula_sum "Si O2"
_cell_formula_units_Z 32
_cell_length_a 16.368915
_cell_length_b 9.145389
_cell_length_c 14.411755
_cell_angle_alpha 90.000000
_cell_angle_beta 98.103639
_cell_angle_gamma 90.000000
_cell_volume 2135.898413
_symmetry_space_group_name_H-M "P 21/M"
_symmetry_group_IT_number 11
_symmetry_cell_setting 'monoclinic'
loop_
_space_group_symop_operation_xyz
x,y,z
-x,1/2+y,-z
-x,-y,-z
x,1/2-y,z
loop_
_atom_site_type_symbol
_atom_site_label
_atom_site_fract_x
_atom_site_fract_y
_atom_site_fract_z
Si Si1 0.389293 0.585249 0.050296
Si Si2 0.758388 0.919160 0.046241
Si Si3 0.032410 0.079580 0.721358
Si Si4 0.822082 0.077994 0.363976
Si Si5 0.946966 0.920946 0.068112
Si Si6 0.312672 0.420709 0.763720
Si Si7 0.930041 0.083653 0.540644
Si Si8 0.536139 0.084594 0.142203
O O1 0.380648 0.750000 0.086650
O O2 0.447120 0.494054 0.129666
O O3 0.299174 0.512332 0.031628
O O4 0.429084 0.584198 0.955609
O O5 0.743347 0.750000 0.020772
O O6 0.851809 0.968381 0.043254
O O7 0.737486 0.950333 0.149992
O O8 0.060469 0.250000 0.721209
O O9 0.019127 0.032236 0.825371
O O10 0.943972 0.054556 0.653337
O O11 0.104129 0.982525 0.687996
O O12 0.810859 0.250000 0.342172
O O13 0.842309 0.045619 0.477386
O O14 0.737592 0.994312 0.328198
O O15 0.956672 0.750000 0.054040
O O16 0.000000 0.000000 0.000000
O O17 0.324564 0.250000 0.746034
O O18 0.402393 0.495247 0.781564
O O19 0.948891 0.250000 0.521104
O O20 0.000000 0.000000 0.500000
O O21 0.526556 0.250000 0.177573
#
# Coordination Sequence:
#
# PCOD8068191 Si02
#       8
#     4   4   4   4   4   4   4   4
#     4   9  16  25  38  55  73  97 129 162 196 234
#     4   9  17  29  41  53  71 100 134 166 201 239
#     4   9  16  30  44  54  73 103 133 163 203 246
#     4  10  17  24  37  60  81 100 130 166 199 234
#     4  10  20  32  44  59  77 102 136 174 213 246
#     4  10  17  26  39  54  77 108 136 162 194 235
#     4   8  15  25  39  56  75  98 127 161 196 237
#     4   9  16  25  36  54  77 101 129 162 194 227
#
# _framework density 14.981985999999999
#
# number of rings (size 3 to 8) (size 9 to 14) (size 15 to 20)
#    0.000    2.750    1.250    1.500    0.000    5.000 
#    0.000    0.000    0.000    0.000    0.000    0.000 
#    0.000    0.000    0.000    1.125    0.000   13.000 
#
# Total GULP energy -396532.018549 kJ/mol
# GULP energy per Si atom -12391.625580 kJ/mol
# Density = 1.494789 g / cm^3
# Si number density = 14.981986 Si / 1000 Ang^3
#
#
#
# Elastic Constant Matrix: (Units=GPa)
#
#
# Indices 1 2 3 4 5 6 
#
# 1 90.7164 51.5213 56.9111 0.0000 32.9488 0.0000
# 2 51.5213 89.0377 41.1716 0.0000 24.6350 0.0000
# 3 56.9111 41.1716 76.6110 0.0000 28.1348 0.0000
# 4 0.0000 0.0000 0.0000 16.3763 0.0000 6.3513
# 5 32.9488 24.6350 28.1348 0.0000 28.6278 0.0000
# 6 0.0000 0.0000 0.0000 6.3513 0.0000 26.3654
#
#
#
# Elastic Compliance Matrix: (Units=1/GPa)
#
#
# Indices 1 2 3 4 5 6 
#
# 1 0.027004 -0.006394 -0.011314 0.000000 -0.014459 0.000000
# 2 -0.006394 0.017652 -0.002912 0.000000 -0.004970 0.000000
# 3 -0.011314 -0.002912 0.027102 0.000000 -0.011107 0.000000
# 4 0.000000 0.000000 0.000000 0.067357 0.000000 -0.016226
# 5 -0.014459 -0.004970 -0.011107 0.000000 0.066765 0.000000
# 6 0.000000 0.000000 0.000000 -0.016226 0.000000 0.041837
#
#
# Mechanical properties :
#
#
# Convention : Reuss Voigt Hill
#
# Bulk Modulus (GPa) = 32.76685 61.73035 47.24860
# Shear Modulus (GPa) = 16.71515 21.39131 19.05323
#
# Velocity S-wave (km/s) = 3.34381 3.78273 3.57002
# Velocity P-wave (km/s) = 6.06847 7.76989 6.97128
#
# Compressibility (1/GPa) = 0.03051865
#
# Stress axis : x y z
#
# Youngs Moduli (GPa) = 37.03145 56.64957 36.89776
#
# Poissons Ratio (x) = 0.36219 0.41748
# Poissons Ratio (y) = 0.23676 0.10744
# Poissons Ratio (z) = 0.41899 0.16496
#
# Static dielectric constant tensor:
#      x y z
#    x 2.814590 0.000000 0.547140 
#    y 0.000000 3.017910 0.000000 
#    z 0.547140 0.000000 2.910660 
# 
# 
# High freq. dielectric constant tensor:
#      x y z
#    x 1.548590 0.000000 0.052600 
#    y 0.000000 1.587550 0.000000 
#    z 0.052600 0.000000 1.533970 
# 
# From -- ./inp_files/51287.got.cif
#   From: 2010.06.25/outbox.cif.g09.slc.cpg/sg11_26_cif.got.tgz:51287.got - 2010.06.27 23:14:04.
