data_PCOD8068909
_publ_section_title
;
Structure prediction by ZEFSAII (Michael W. Deem and Ramdas Pophale) SiO2 
 PCOD8068909
Probable space group: P 21/M
;
_chemical_formula_sum "Si O2"
_cell_formula_units_Z 32
_cell_length_a 17.040395
_cell_length_b 8.844659
_cell_length_c 25.772726
_cell_angle_alpha 90.000000
_cell_angle_beta 154.930974
_cell_angle_gamma 90.000000
_cell_volume 1645.847639
_symmetry_space_group_name_H-M "P 21/M"
_symmetry_group_IT_number 11
_symmetry_cell_setting 'monoclinic'
loop_
_space_group_symop_operation_xyz
x,y,z
-x,1/2+y,-z
-x,-y,-z
x,1/2-y,z
loop_
_atom_site_type_symbol
_atom_site_label
_atom_site_fract_x
_atom_site_fract_y
_atom_site_fract_z
Si Si1 0.791656 0.572187 0.085288
Si Si2 0.346937 0.072946 0.264243
Si Si3 0.749700 0.071287 0.477190
Si Si4 0.124647 0.070206 0.749499
Si Si5 0.403372 0.071342 0.828918
Si Si6 0.963157 0.579492 0.848402
Si Si7 0.269559 0.577433 0.115201
Si Si8 0.629328 0.072496 0.294086
O O1 0.757696 0.750000 0.064983
O O2 0.832836 0.510014 0.167587
O O3 0.968066 0.533280 0.155065
O O4 0.610573 0.491630 0.954884
O O5 0.332876 0.250000 0.241282
O O6 0.562614 0.021475 0.395426
O O7 0.248357 0.041158 0.260797
O O8 0.240469 0.977939 0.156504
O O9 0.766257 0.250000 0.487830
O O10 0.743470 0.017713 0.413235
O O11 0.928914 0.000369 0.612774
O O12 0.113603 0.250000 0.742636
O O13 0.288087 0.013869 0.809536
O O14 0.413463 0.250000 0.832651
O O15 0.299130 0.012107 0.714755
O O16 0.977951 0.750000 0.835393
O O17 0.078133 0.562582 0.970173
O O18 0.342137 0.750000 0.158089
O O19 0.415349 0.469305 0.173982
O O20 0.647907 0.250000 0.296292
#
# Coordination Sequence:
#
# PCOD8068909 Si02
#       8
#     4   4   4   4   4   4   4   4
#     4  11  22  36  56  79 105 139 182 225 263 316
#     4   9  18  32  53  78 106 142 179 214 256 313
#     4   8  16  34  56  77 107 142 177 217 258 310
#     4   9  20  37  56  78 103 140 183 221 268 316
#     4  11  21  35  56  80 109 138 171 222 277 322
#     4  10  20  33  50  77 110 143 175 213 267 315
#     4  10  18  29  48  75 111 146 173 210 262 313
#     4  10  19  32  54  82 110 141 177 214 260 319
#
# _framework density 19.442869000000002
#
# number of rings (size 3 to 8) (size 9 to 14) (size 15 to 20)
#    0.000    2.250    1.250    3.000    0.000    1.500 
#    0.000    2.500    0.000   14.250    0.000    0.000 
#    0.000    0.000    0.000    0.000    0.000    0.000 
#
# Total GULP energy -396729.009375 kJ/mol
# GULP energy per Si atom -12397.781543 kJ/mol
# Density = 1.939862 g / cm^3
# Si number density = 19.442869 Si / 1000 Ang^3
#
#
#
# Elastic Constant Matrix: (Units=GPa)
#
#
# Indices 1 2 3 4 5 6 
#
# 1 127.9994 26.9642 41.9663 0.0000 5.6031 0.0000
# 2 26.9642 48.7638 17.3891 0.0000 -0.4367 0.0000
# 3 41.9663 17.3891 75.3811 0.0000 -4.9128 0.0000
# 4 0.0000 0.0000 0.0000 11.6765 0.0000 -0.7977
# 5 5.6031 -0.4367 -4.9128 0.0000 19.6068 0.0000
# 6 0.0000 0.0000 0.0000 -0.7977 0.0000 26.5517
#
#
#
# Elastic Compliance Matrix: (Units=1/GPa)
#
#
# Indices 1 2 3 4 5 6 
#
# 1 0.010573 -0.004014 -0.005248 0.000000 -0.004426 0.000000
# 2 -0.004014 0.023882 -0.003217 0.000000 0.000873 0.000000
# 3 -0.005248 -0.003217 0.017306 0.000000 0.005764 0.000000
# 4 0.000000 0.000000 0.000000 0.085818 0.000000 0.002578
# 5 -0.004426 0.000873 0.005764 0.000000 0.053731 0.000000
# 6 0.000000 0.000000 0.000000 0.002578 0.000000 0.037740
#
#
# Mechanical properties :
#
#
# Convention : Reuss Voigt Hill
#
# Bulk Modulus (GPa) = 37.31341 47.19817 42.25579
# Shear Modulus (GPa) = 19.01552 22.62199 20.81875
#
# Velocity S-wave (km/s) = 3.13072 3.41473 3.27581
# Velocity P-wave (km/s) = 5.68345 6.31468 6.00736
#
# Compressibility (1/GPa) = 0.02680002
#
# Stress axis : x y z
#
# Youngs Moduli (GPa) = 94.58314 41.87278 57.78426
#
# Poissons Ratio (x) = 0.16809 0.30328
# Poissons Ratio (y) = 0.37968 0.18591
# Poissons Ratio (z) = 0.49642 0.13472
#
# Static dielectric constant tensor:
#      x y z
#    x 3.721380 0.000000 -0.015330 
#    y 0.000000 3.345590 0.000000 
#    z -0.015330 0.000000 3.621340 
# 
# 
# High freq. dielectric constant tensor:
#      x y z
#    x 1.763750 0.000000 0.005500 
#    y 0.000000 1.734750 0.000000 
#    z 0.005500 0.000000 1.739660 
# 
# From -- ./inp_files/69122.got.cif
#   From: 2010.06.25/outbox.cif.g09.slc.cpg/sg11_35_cif.got.tgz:69122.got - 2010.06.27 23:14:04.
