data_PCOD8068329
_publ_section_title
;
Structure prediction by ZEFSAII (Michael W. Deem and Ramdas Pophale) SiO2 
 PCOD8068329
Probable space group: P 21/M
;
_chemical_formula_sum "Si O2"
_cell_formula_units_Z 32
_cell_length_a 12.424523
_cell_length_b 8.633036
_cell_length_c 25.356006
_cell_angle_alpha 90.000000
_cell_angle_beta 36.087208
_cell_angle_gamma 90.000000
_cell_volume 1601.958188
_symmetry_space_group_name_H-M "P 21/M"
_symmetry_group_IT_number 11
_symmetry_cell_setting 'monoclinic'
loop_
_space_group_symop_operation_xyz
x,y,z
-x,1/2+y,-z
-x,-y,-z
x,1/2-y,z
loop_
_atom_site_type_symbol
_atom_site_label
_atom_site_fract_x
_atom_site_fract_y
_atom_site_fract_z
Si Si1 0.480052 0.433935 0.880887
Si Si2 0.738612 0.065966 0.688650
Si Si3 0.749601 0.430231 0.257878
Si Si4 0.862587 0.932112 0.433693
Si Si5 0.887286 0.428623 0.316979
Si Si6 0.144164 0.067892 0.072956
Si Si7 0.248556 0.569958 0.138063
Si Si8 0.374989 0.931466 0.381241
O O1 0.491095 0.250000 0.873284
O O2 0.575719 0.502594 0.790439
O O3 0.588445 0.490374 0.889590
O O4 0.266866 0.486805 0.973709
O O5 0.734620 0.250000 0.692039
O O6 0.704443 0.008367 0.642913
O O7 0.935510 0.006169 0.630480
O O8 0.717557 0.250000 0.256836
O O9 0.755674 0.454153 0.318792
O O10 0.590292 0.534358 0.296989
O O11 0.936968 0.496839 0.156650
O O12 0.861811 0.750000 0.423698
O O13 0.790532 0.019694 0.409705
O O14 0.722618 0.969980 0.535340
O O15 0.947928 0.250000 0.295338
O O16 0.062539 0.538068 0.243197
O O17 0.125366 0.250000 0.080973
O O18 0.255354 0.023180 0.081145
O O19 0.263429 0.750000 0.119299
O O20 0.339147 0.750000 0.403762
#
# Coordination Sequence:
#
# PCOD8068329 Si02
#       8
#     4   4   4   4   4   4   4   4
#     4   9  16  30  53  80 109 143 180 218 272 328
#     4   9  19  36  57  83 112 141 179 223 274 327
#     4   9  20  38  55  76 110 148 185 224 267 317
#     4  11  21  37  61  85 112 140 173 223 280 335
#     4  10  20  35  56  83 114 145 180 222 270 325
#     4   9  18  32  53  78 108 146 184 223 266 320
#     4  10  17  28  50  79 114 148 177 216 270 327
#     4  11  23  38  58  80 105 144 189 230 269 321
#
# _framework density 19.975553000000001
#
# number of rings (size 3 to 8) (size 9 to 14) (size 15 to 20)
#    0.000    2.250    1.250    3.000    0.000    3.000 
#    0.000    3.125    0.000    0.000    0.000    0.000 
#    0.000    0.000    0.000    0.000    0.000    0.000 
#
# Total GULP energy -396655.780792 kJ/mol
# GULP energy per Si atom -12395.493150 kJ/mol
# Density = 1.993009 g / cm^3
# Si number density = 19.975553 Si / 1000 Ang^3
#
#
#
# Elastic Constant Matrix: (Units=GPa)
#
#
# Indices 1 2 3 4 5 6 
#
# 1 38.9193 12.1770 6.8970 0.0000 -13.3268 0.0000
# 2 12.1770 18.0905 4.3652 0.0000 -6.9969 0.0000
# 3 6.8970 4.3652 91.2670 0.0000 1.5712 0.0000
# 4 0.0000 0.0000 0.0000 18.9164 0.0000 -1.6410
# 5 -13.3268 -6.9969 1.5712 0.0000 17.0435 0.0000
# 6 0.0000 0.0000 0.0000 -1.6410 0.0000 21.9703
#
#
#
# Elastic Compliance Matrix: (Units=1/GPa)
#
#
# Indices 1 2 3 4 5 6 
#
# 1 0.039758 -0.016654 -0.002630 0.000000 0.024493 0.000000
# 2 -0.016654 0.073899 -0.002578 0.000000 0.017554 0.000000
# 3 -0.002630 -0.002578 0.011351 0.000000 -0.004161 0.000000
# 4 0.000000 0.000000 0.000000 0.053209 0.000000 0.003974
# 5 0.024493 0.017554 -0.004161 0.000000 0.085415 0.000000
# 6 0.000000 0.000000 0.000000 0.003974 0.000000 0.045813
#
#
# Mechanical properties :
#
#
# Convention : Reuss Voigt Hill
#
# Bulk Modulus (GPa) = 12.30252 21.68390 16.99321
# Shear Modulus (GPa) = 13.14884 19.90855 16.52870
#
# Velocity S-wave (km/s) = 2.56842 3.16039 2.87966
# Velocity P-wave (km/s) = 3.86883 4.91897 4.42516
#
# Compressibility (1/GPa) = 0.08128418
#
# Stress axis : x y z
#
# Youngs Moduli (GPa) = 25.15233 13.53203 88.10160
#
# Poissons Ratio (x) = 0.22536 0.23167
# Poissons Ratio (y) = 0.41888 0.22714
# Poissons Ratio (z) = 0.06614 0.03489
#
# Static dielectric constant tensor:
#      x y z
#    x 3.570790 0.000000 0.069920 
#    y 0.000000 3.280160 0.000000 
#    z 0.069920 0.000000 3.960910 
# 
# 
# High freq. dielectric constant tensor:
#      x y z
#    x 1.759840 0.000000 0.004500 
#    y 0.000000 1.753190 0.000000 
#    z 0.004500 0.000000 1.792340 
# 
# From -- ./inp_files/73296.got.cif
#   From: 2010.06.25/outbox.cif.g09.slc.cpg/sg11_37_cif.got.tgz:73296.got - 2010.06.27 23:14:04.
