data_PCOD8068947
_publ_section_title
;
Structure prediction by ZEFSAII (Michael W. Deem and Ramdas Pophale) SiO2 
 PCOD8068947
Probable space group: P 21/M
;
_chemical_formula_sum "Si O2"
_cell_formula_units_Z 32
_cell_length_a 12.171782
_cell_length_b 9.030055
_cell_length_c 21.359838
_cell_angle_alpha 90.000000
_cell_angle_beta 128.832711
_cell_angle_gamma 90.000000
_cell_volume 1828.811227
_symmetry_space_group_name_H-M "P 21/M"
_symmetry_group_IT_number 11
_symmetry_cell_setting 'monoclinic'
loop_
_space_group_symop_operation_xyz
x,y,z
-x,1/2+y,-z
-x,-y,-z
x,1/2-y,z
loop_
_atom_site_type_symbol
_atom_site_label
_atom_site_fract_x
_atom_site_fract_y
_atom_site_fract_z
Si Si1 0.039151 0.921614 0.794355
Si Si2 0.236634 0.075207 0.452715
Si Si3 0.716655 0.921359 0.058750
Si Si4 0.045965 0.074603 0.664785
Si Si5 0.654924 0.925283 0.275295
Si Si6 0.459869 0.074591 0.634945
Si Si7 0.507865 0.922078 0.098055
Si Si8 0.719414 0.918882 0.673282
O O1 0.076774 0.750000 0.797001
O O2 0.876471 0.939394 0.756660
O O3 0.135936 0.990809 0.883345
O O4 0.068295 0.009516 0.741402
O O5 0.208760 0.250000 0.446651
O O6 0.354440 0.019303 0.543074
O O7 0.285925 0.029038 0.400908
O O8 0.090876 0.993762 0.417744
O O9 0.748340 0.750000 0.058002
O O10 0.630474 0.948376 0.091507
O O11 0.630791 0.985370 0.969214
O O12 0.029501 0.250000 0.664917
O O13 0.181417 0.028763 0.671932
O O14 0.643844 0.750000 0.270790
O O15 0.593049 0.990771 0.317685
O O16 0.563690 0.984993 0.184174
O O17 0.463162 0.250000 0.637857
O O18 0.616550 0.018316 0.677768
O O19 0.466426 0.750000 0.086389
O O20 0.669030 0.750000 0.660348
#
# Coordination Sequence:
#
# PCOD8068947 Si02
#       8
#     4   4   4   4   4   4   4   4
#     4  10  19  32  51  75 103 132 160 203 256 296
#     4   9  19  34  50  73 101 128 162 210 258 295
#     4  10  18  29  49  78 104 129 164 201 239 291
#     4  10  18  31  50  73 100 132 166 202 246 296
#     4   9  18  33  50  71 102 135 165 201 245 294
#     4  10  20  34  53  72  95 132 173 206 244 298
#     4   9  17  31  48  70 104 137 160 194 244 293
#     4   9  19  34  50  71 100 127 162 211 255 291
#
# _framework density 17.497706000000001
#
# number of rings (size 3 to 8) (size 9 to 14) (size 15 to 20)
#    0.000    2.500    1.250    2.250    0.000    4.000 
#    0.000    1.875    0.000    0.750    0.000    0.000 
#    0.000    0.000    0.000    0.000    0.000    0.000 
#
# Total GULP energy -396823.063420 kJ/mol
# GULP energy per Si atom -12400.720732 kJ/mol
# Density = 1.745788 g / cm^3
# Si number density = 17.497706 Si / 1000 Ang^3
#
#
#
# Elastic Constant Matrix: (Units=GPa)
#
#
# Indices 1 2 3 4 5 6 
#
# 1 108.2415 36.1060 55.7520 0.0000 7.0245 0.0000
# 2 36.1060 56.3724 35.1741 0.0000 9.9664 0.0000
# 3 55.7520 35.1741 95.1562 0.0000 18.5212 0.0000
# 4 0.0000 0.0000 0.0000 27.5652 0.0000 8.0726
# 5 7.0245 9.9664 18.5212 0.0000 20.9045 0.0000
# 6 0.0000 0.0000 0.0000 8.0726 0.0000 23.5249
#
#
#
# Elastic Compliance Matrix: (Units=1/GPa)
#
#
# Indices 1 2 3 4 5 6 
#
# 1 0.014575 -0.005512 -0.007324 0.000000 0.004219 0.000000
# 2 -0.005512 0.025445 -0.005046 0.000000 -0.005808 0.000000
# 3 -0.007324 -0.005046 0.018993 0.000000 -0.011961 0.000000
# 4 0.000000 0.000000 0.000000 0.040331 0.000000 -0.013839
# 5 0.004219 -0.005808 -0.011961 0.000000 0.059786 0.000000
# 6 0.000000 0.000000 0.000000 -0.013839 0.000000 0.047257
#
#
# Mechanical properties :
#
#
# Convention : Reuss Voigt Hill
#
# Bulk Modulus (GPa) = 43.00796 57.09270 50.05033
# Shear Modulus (GPa) = 20.00811 23.24813 21.62812
#
# Velocity S-wave (km/s) = 3.38519 3.64900 3.51957
# Velocity P-wave (km/s) = 6.31759 7.10304 6.72180
#
# Compressibility (1/GPa) = 0.02325151
#
# Stress axis : x y z
#
# Youngs Moduli (GPa) = 68.60830 39.30119 52.65066
#
# Poissons Ratio (x) = 0.21662 0.38559
# Poissons Ratio (y) = 0.37815 0.26565
# Poissons Ratio (z) = 0.50245 0.19830
#
# Static dielectric constant tensor:
#      x y z
#    x 3.140920 0.000000 0.085430 
#    y 0.000000 3.132210 0.000000 
#    z 0.085430 0.000000 3.415520 
# 
# 
# High freq. dielectric constant tensor:
#      x y z
#    x 1.652890 0.000000 0.018000 
#    y 0.000000 1.668430 0.000000 
#    z 0.018000 0.000000 1.678790 
# 
# From -- ./inp_files/43793.got.cif
#   From: 2010.06.25/outbox.cif.g09.slc.cpg/sg11_22_cif.got.tgz:43793.got - 2010.06.27 23:14:04.
