data_PCOD8068114
_publ_section_title
;
Structure prediction by ZEFSAII (Michael W. Deem and Ramdas Pophale) SiO2 
 PCOD8068114
Probable space group: P 2/M
;
_chemical_formula_sum "Si O2"
_cell_formula_units_Z 24
_cell_length_a 9.000000
_cell_length_b 9.000000
_cell_length_c 30.000000
_cell_angle_alpha 90.000000
_cell_angle_beta 30.000000
_cell_angle_gamma 90.000000
_cell_volume 1215.000000
_symmetry_space_group_name_H-M "P 2/M"
_symmetry_group_IT_number 10
_symmetry_cell_setting 'monoclinic'
loop_
_space_group_symop_operation_xyz
x,y,z
-x,y,-z
-x,-y,-z
x,-y,z
loop_
_atom_site_type_symbol
_atom_site_label
_atom_site_fract_x
_atom_site_fract_y
_atom_site_fract_z
Si Si1 0.466244 0.674716 0.803144
Si Si2 0.658209 0.828763 0.331179
Si Si3 0.627330 0.325599 0.515260
Si Si4 0.090015 0.836203 0.027983
Si Si5 0.325994 0.171145 0.163012
Si Si6 0.248079 0.824446 0.355632
O O1 0.491507 0.500000 0.792253
O O2 0.625807 0.725662 0.806773
O O3 0.638200 0.747599 0.718105
O O4 0.118683 0.721463 0.891483
O O5 0.611480 0.723993 0.385996
O O6 0.453097 0.776992 0.343776
O O7 0.999452 0.806434 0.227639
O O8 0.593596 0.000000 0.360849
O O9 0.500000 0.283567 0.500000
O O10 0.694388 0.500000 0.501301
O O11 0.919506 0.232600 0.450832
O O12 0.048715 0.000000 0.060208
O O13 0.438027 0.787616 0.937693
O O14 0.000000 0.839430 0.000000
O O15 0.379155 0.000000 0.164146
O O16 0.246680 0.000000 0.349106
#
# Coordination Sequence:
#
# PCOD8068114 Si02
#       6
#     4   4   4   4   4   4
#     4  11  21  33  53  82 113 145 183 226 273 323
#     4  10  22  39  59  83 109 142 183 224 269 320
#     4  11  24  40  59  85 113 141 176 219 269 324
#     4   8  15  30  53  79 107 142 183 226 271 316
#     4   9  18  35  58  82 109 142 183 229 272 318
#     4  11  23  39  58  80 109 145 184 224 268 321
#
# _framework density 19.753086
#
# number of rings (size 3 to 8) (size 9 to 14) (size 15 to 20)
#    0.000    2.000    0.000    5.000    0.000   11.000 
#    0.000    0.833    0.000    5.000    0.000    0.000 
#    0.000    0.000    0.000    0.000    0.000    0.000 
#
# Total GULP energy -297604.645676 kJ/mol
# GULP energy per Si atom -12400.193570 kJ/mol
# Density = 1.970813 g / cm^3
# Si number density = 19.753086 Si / 1000 Ang^3
#
#
#
# Elastic Constant Matrix: (Units=GPa)
#
#
# Indices 1 2 3 4 5 6 
#
# 1 58.6032 17.5162 9.3818 0.0000 -29.6787 0.0000
# 2 17.5162 74.4602 14.0857 -0.0001 -14.0826 0.0000
# 3 9.3818 14.0857 81.9960 -0.0007 -32.3979 0.0001
# 4 0.0000 -0.0001 -0.0007 -8.0400 0.0001 3.5952
# 5 -29.6787 -14.0826 -32.3979 0.0001 26.5541 0.0000
# 6 0.0000 0.0000 0.0001 3.5952 0.0000 14.9303
#
#
#
# Elastic Compliance Matrix: (Units=1/GPa)
#
#
# Indices 1 2 3 4 5 6 
#
# 1 0.117875 0.000317 0.074488 -0.000004 0.222793 0.000001
# 2 0.000317 0.014979 0.001292 0.000000 0.009874 0.000000
# 3 0.074488 0.001292 0.070697 -0.000004 0.170193 0.000001
# 4 -0.000004 0.000000 -0.000004 -0.112287 -0.000010 0.027039
# 5 0.222793 0.009874 0.170193 -0.000010 0.499551 0.000001
# 6 0.000001 0.000000 0.000001 0.027039 0.000001 0.060467
#
#
# Mechanical properties :
#
#
# Convention : Reuss Voigt Hill
#
# Bulk Modulus (GPa) = 2.81102 33.00297 17.90700
# Shear Modulus (GPa) = 8.09494 18.29393 13.19444
#
# Velocity S-wave (km/s) = 2.02656 3.04654 2.58731
# Velocity P-wave (km/s) = 2.62719 5.39622 4.24390
#
# Compressibility (1/GPa) = 0.35574259
#
# Stress axis : x y z
#
# Youngs Moduli (GPa) = 8.48359 66.76224 14.14487
#
# Poissons Ratio (x) = -0.02114 -1.05362
# Poissons Ratio (y) = -0.00269 -0.01827
# Poissons Ratio (z) = -0.63192 -0.08625
#
# Static dielectric constant tensor:
#      x y z
#    x 3.420860 0.000000 -0.263410 
#    y 0.000000 3.553670 0.000000 
#    z -0.263410 0.000000 4.069540 
# 
# 
# High freq. dielectric constant tensor:
#      x y z
#    x 1.747010 0.000000 -0.014000 
#    y 0.000000 1.765580 0.000000 
#    z -0.014000 0.000000 1.788030 
# 
# From -- ./inp_files/38097.got.cif
#   From: 2010.06.25/outbox.ucp.g09.slc.cvg/sg10_20_cif.got.tgz:38097.got - 2010.06.28 13:37:52.
