data_PCOD8068149
_publ_section_title
;
Structure prediction by ZEFSAII (Michael W. Deem and Ramdas Pophale) SiO2 
 PCOD8068149
Probable space group: P 21/M
;
_chemical_formula_sum "Si O2"
_cell_formula_units_Z 32
_cell_length_a 30.107629
_cell_length_b 8.541956
_cell_length_c 23.961434
_cell_angle_alpha 90.000000
_cell_angle_beta 163.567347
_cell_angle_gamma 90.000000
_cell_volume 1743.256970
_symmetry_space_group_name_H-M "P 21/M"
_symmetry_group_IT_number 11
_symmetry_cell_setting 'monoclinic'
loop_
_space_group_symop_operation_xyz
x,y,z
-x,1/2+y,-z
-x,-y,-z
x,1/2-y,z
loop_
_atom_site_type_symbol
_atom_site_label
_atom_site_fract_x
_atom_site_fract_y
_atom_site_fract_z
Si Si1 0.279764 0.936210 0.995799
Si Si2 0.598759 0.935240 0.169584
Si Si3 0.382625 0.433586 0.235805
Si Si4 0.153705 0.566020 0.051994
Si Si5 0.063091 0.435394 0.395735
Si Si6 0.473467 0.064326 0.795053
Si Si7 0.136206 0.064100 0.362352
Si Si8 0.385001 0.065701 0.408334
O O1 0.292319 0.750000 0.019402
O O2 0.098543 0.991374 0.769838
O O3 0.372985 0.994055 0.053074
O O4 0.358593 0.020365 0.143073
O O5 0.590557 0.750000 0.158261
O O6 0.780485 0.993339 0.383068
O O7 0.526566 0.998423 0.141256
O O8 0.500000 0.000000 0.000000
O O9 0.359280 0.250000 0.216690
O O10 0.260443 0.526103 0.127246
O O11 0.560415 0.485054 0.467919
O O12 0.161451 0.750000 0.071801
O O13 0.209696 0.480962 0.176616
O O14 0.975864 0.508052 0.823473
O O15 0.067385 0.250000 0.398888
O O16 0.066787 0.501569 0.337104
O O17 0.470132 0.250000 0.792900
O O18 0.316012 0.005120 0.572789
O O19 0.131716 0.250000 0.359417
O O20 0.398985 0.250000 0.431356
O O21 0.500000 0.000000 0.500000
#
# Coordination Sequence:
#
# PCOD8068149 Si02
#       8
#     4   4   4   4   4   4   4   4
#     4  10  17  30  51  72  92 122 161 199 237 281
#     4   9  17  32  52  73  98 128 159 192 228 274
#     4  11  20  29  42  65  97 127 157 195 245 290
#     4  10  16  26  46  68  92 122 161 202 244 286
#     4   8  14  26  47  71  93 121 158 192 228 277
#     4   8  16  29  49  74  97 122 158 196 231 280
#     4   8  13  24  44  70  94 117 152 198 240 280
#     4  10  18  28  41  62  93 125 161 202 244 286
#
# _framework density 18.356442999999999
#
# number of rings (size 3 to 8) (size 9 to 14) (size 15 to 20)
#    0.000    2.750    1.250    5.625    0.000    0.000 
#    0.000    1.875    0.000    2.250    0.000    0.000 
#    0.000    0.000    0.000    0.000    0.000    0.000 
#
# Total GULP energy -396456.648267 kJ/mol
# GULP energy per Si atom -12389.270258 kJ/mol
# Density = 1.831466 g / cm^3
# Si number density = 18.356443 Si / 1000 Ang^3
#
#
#
# Elastic Constant Matrix: (Units=GPa)
#
#
# Indices 1 2 3 4 5 6 
#
# 1 82.3451 12.5035 74.3597 0.0000 3.2264 0.0000
# 2 12.5035 43.1154 21.5723 0.0000 -5.1455 0.0000
# 3 74.3597 21.5723 172.8010 0.0000 -10.5647 0.0000
# 4 0.0000 0.0000 0.0000 22.2991 0.0000 -9.5606
# 5 3.2264 -5.1455 -10.5647 0.0000 32.8232 0.0000
# 6 0.0000 0.0000 0.0000 -9.5606 0.0000 13.5959
#
#
#
# Elastic Compliance Matrix: (Units=1/GPa)
#
#
# Indices 1 2 3 4 5 6 
#
# 1 0.020816 -0.002159 -0.009011 0.000000 -0.005285 0.000000
# 2 -0.002159 0.025244 -0.002007 0.000000 0.003524 0.000000
# 3 -0.009011 -0.002007 0.010150 0.000000 0.003838 0.000000
# 4 0.000000 0.000000 0.000000 0.064201 0.000000 0.045146
# 5 -0.005285 0.003524 0.003838 0.000000 0.032773 0.000000
# 6 0.000000 0.000000 0.000000 0.045146 0.000000 0.105298
#
#
# Mechanical properties :
#
#
# Convention : Reuss Voigt Hill
#
# Bulk Modulus (GPa) = 33.49375 57.23693 45.36534
# Shear Modulus (GPa) = 16.96126 26.39871 21.67998
#
# Velocity S-wave (km/s) = 3.04303 3.79637 3.44038
# Velocity P-wave (km/s) = 5.53467 7.10388 6.36780
#
# Compressibility (1/GPa) = 0.02985632
#
# Stress axis : x y z
#
# Youngs Moduli (GPa) = 48.03927 39.61279 98.52262
#
# Poissons Ratio (x) = 0.08552 0.88782
# Poissons Ratio (y) = 0.10371 0.19774
# Poissons Ratio (z) = 0.43290 0.07951
#
# Static dielectric constant tensor:
#      x y z
#    x 3.359250 0.000000 -0.204380 
#    y 0.000000 3.025380 0.000000 
#    z -0.204380 0.000000 4.226660 
# 
# 
# High freq. dielectric constant tensor:
#      x y z
#    x 1.670150 0.000000 -0.010350 
#    y 0.000000 1.678960 0.000000 
#    z -0.010350 0.000000 1.725780 
# 
# From -- ./inp_files/67191.got.cif
#   From: 2010.06.25/outbox.cif.g09.slc.cpg/sg11_34_cif.got.tgz:67191.got - 2010.06.27 23:14:04.
