data_PCOD8068557
_publ_section_title
;
Structure prediction by ZEFSAII (Michael W. Deem and Ramdas Pophale) SiO2 
 PCOD8068557
Probable space group: P 21/M
;
_chemical_formula_sum "Si O2"
_cell_formula_units_Z 32
_cell_length_a 28.153124
_cell_length_b 9.156175
_cell_length_c 14.569342
_cell_angle_alpha 90.000000
_cell_angle_beta 28.914789
_cell_angle_gamma 90.000000
_cell_volume 1815.869294
_symmetry_space_group_name_H-M "P 21/M"
_symmetry_group_IT_number 11
_symmetry_cell_setting 'monoclinic'
loop_
_space_group_symop_operation_xyz
x,y,z
-x,1/2+y,-z
-x,-y,-z
x,1/2-y,z
loop_
_atom_site_type_symbol
_atom_site_label
_atom_site_fract_x
_atom_site_fract_y
_atom_site_fract_z
Si Si1 0.716390 0.418969 0.276501
Si Si2 0.915282 0.921386 0.256460
Si Si3 0.792421 0.413833 0.954837
Si Si4 0.186358 0.422961 0.394870
Si Si5 0.884763 0.921721 0.099379
Si Si6 0.311827 0.422812 0.020989
Si Si7 0.990720 0.585360 0.423389
Si Si8 0.502715 0.078350 0.593789
O O1 0.743141 0.250000 0.250117
O O2 0.785075 0.518368 0.223270
O O3 0.601061 0.452233 0.487258
O O4 0.726974 0.459792 0.151680
O O5 0.937612 0.750000 0.230574
O O6 0.828370 0.973925 0.474265
O O7 0.876492 0.958922 0.221219
O O8 0.017261 0.003684 0.106629
O O9 0.766688 0.250000 0.965139
O O10 0.903553 0.422816 0.804365
O O11 0.774065 0.521763 0.901077
O O12 0.186566 0.250000 0.393517
O O13 0.090270 0.485297 0.505642
O O14 0.283776 0.476595 0.173231
O O15 0.891832 0.750000 0.068925
O O16 0.311389 0.250000 0.018933
O O17 0.416075 0.481944 0.807338
O O18 0.960220 0.750000 0.498818
O O19 0.000000 0.500000 0.500000
O O20 0.491423 0.250000 0.592722
O O21 0.500000 0.000000 0.500000
#
# Coordination Sequence:
#
# PCOD8068557 Si02
#       8
#     4   4   4   4   4   4   4   4
#     4  10  20  34  51  70  99 137 167 199 254 309
#     4   9  18  35  56  75 102 135 163 198 252 310
#     4  10  19  30  45  66  95 132 167 195 238 298
#     4   9  17  31  50  69  95 134 167 195 242 300
#     4  10  20  33  53  81 102 124 166 214 251 289
#     4  10  19  31  49  72  96 125 167 209 239 281
#     4  10  18  27  41  63  91 125 161 191 227 280
#     4  10  20  33  51  74  99 131 170 210 252 293
#
# _framework density 17.622412000000001
#
# number of rings (size 3 to 8) (size 9 to 14) (size 15 to 20)
#    0.000    2.250    2.500    1.125    0.000    3.500 
#    0.000    2.500    0.000    0.750    0.000    0.000 
#    0.000    0.000    0.000    0.000    0.000    0.375 
#
# Total GULP energy -396504.697756 kJ/mol
# GULP energy per Si atom -12390.771805 kJ/mol
# Density = 1.758230 g / cm^3
# Si number density = 17.622412 Si / 1000 Ang^3
#
#
#
# Elastic Constant Matrix: (Units=GPa)
#
#
# Indices 1 2 3 4 5 6 
#
# 1 64.9258 23.4689 48.0300 0.0000 6.2346 0.0000
# 2 23.4689 37.4346 26.3965 0.0000 0.0525 0.0000
# 3 48.0300 26.3965 135.8082 0.0000 18.1486 0.0000
# 4 0.0000 0.0000 0.0000 19.2598 0.0000 -1.2300
# 5 6.2346 0.0525 18.1486 0.0000 29.1689 0.0000
# 6 0.0000 0.0000 0.0000 -1.2300 0.0000 24.5955
#
#
#
# Elastic Compliance Matrix: (Units=1/GPa)
#
#
# Indices 1 2 3 4 5 6 
#
# 1 0.023988 -0.010626 -0.006256 0.000000 -0.001216 0.000000
# 2 -0.010626 0.036102 -0.003876 0.000000 0.004618 0.000000
# 3 -0.006256 -0.003876 0.011070 0.000000 -0.005544 0.000000
# 4 0.000000 0.000000 0.000000 0.052088 0.000000 0.002605
# 5 -0.001216 0.004618 -0.005544 0.000000 0.037984 0.000000
# 6 0.000000 0.000000 0.000000 0.002605 0.000000 0.040788
#
#
# Mechanical properties :
#
#
# Convention : Reuss Voigt Hill
#
# Bulk Modulus (GPa) = 33.73369 48.21771 40.97570
# Shear Modulus (GPa) = 19.73043 23.95637 21.84340
#
# Velocity S-wave (km/s) = 3.34970 3.69104 3.52451
# Velocity P-wave (km/s) = 5.84335 6.75174 6.31390
#
# Compressibility (1/GPa) = 0.02964395
#
# Stress axis : x y z
#
# Youngs Moduli (GPa) = 41.68814 27.69963 90.33491
#
# Poissons Ratio (x) = 0.29433 0.56511
# Poissons Ratio (y) = 0.44297 0.35015
# Poissons Ratio (z) = 0.26079 0.10737
#
# Static dielectric constant tensor:
#      x y z
#    x 3.218230 0.000000 0.106340 
#    y 0.000000 3.083530 0.000000 
#    z 0.106340 0.000000 3.914890 
# 
# 
# High freq. dielectric constant tensor:
#      x y z
#    x 1.655370 0.000000 0.009910 
#    y 0.000000 1.663600 0.000000 
#    z 0.009910 0.000000 1.691880 
# 
# From -- ./inp_files/51374.got.cif
#   From: 2010.06.25/outbox.cif.g09.slc.cpg/sg11_26_cif.got.tgz:51374.got - 2010.06.27 23:14:04.
