data_PCOD8068185
_publ_section_title
;
Structure prediction by ZEFSAII (Michael W. Deem and Ramdas Pophale) SiO2 
 PCOD8068185
Probable space group: P 21/M
;
_chemical_formula_sum "Si O2"
_cell_formula_units_Z 20
_cell_length_a 16.693051
_cell_length_b 13.887539
_cell_length_c 8.318137
_cell_angle_alpha 90.000000
_cell_angle_beta 147.923568
_cell_angle_gamma 90.000000
_cell_volume 1024.053295
_symmetry_space_group_name_H-M "P 21/M"
_symmetry_group_IT_number 11
_symmetry_cell_setting 'monoclinic'
loop_
_space_group_symop_operation_xyz
x,y,z
-x,1/2+y,-z
-x,-y,-z
x,1/2-y,z
loop_
_atom_site_type_symbol
_atom_site_label
_atom_site_fract_x
_atom_site_fract_y
_atom_site_fract_z
Si Si1 0.198003 0.096743 0.733934
Si Si2 0.633086 0.438061 0.802052
Si Si3 0.995537 0.750000 0.018478
Si Si4 0.900215 0.141186 0.069907
Si Si5 0.687878 0.750000 0.300218
Si Si6 0.481330 0.250000 0.677419
Si Si7 0.826631 0.750000 0.040319
O O1 0.312380 0.155986 0.814144
O O2 0.037376 0.078005 0.375100
O O3 0.167127 0.153620 0.846086
O O4 0.275727 0.996032 0.907249
O O5 0.500000 0.500000 0.500000
O O6 0.574122 0.343868 0.789313
O O7 0.742715 0.409407 0.841299
O O8 0.835145 0.750000 0.658510
O O9 0.973815 0.750000 0.172496
O O10 0.082969 0.654468 0.096980
O O11 0.910340 0.250000 0.163751
O O12 0.543165 0.750000 0.171055
O O13 0.324719 0.250000 0.318864
#
# Coordination Sequence:
#
# PCOD8068185 Si02
#       7
#     4   4   2   4   2   2   2
#     4  10  19  36  63  85 109 150 201 235 276 341
#     4  12  23  35  61  88 116 154 190 234 286 349
#     4   7  15  32  60  79 113 150 179 239 286 318
#     4   9  18  38  60  80 114 148 187 238 282 328
#     4   8  18  36  60  82 115 155 184 239 288 332
#     4  11  21  37  57  82 126 151 186 236 295 339
#     4  10  16  33  61  87 110 148 195 234 285 333
#
# _framework density 19.530234
#
# number of rings (size 3 to 8) (size 9 to 14) (size 15 to 20)
#    0.600    1.600    5.000    0.600    0.000    0.800 
#    0.000    1.000   13.200    0.000    0.000    0.000 
#    0.000    0.000    0.000    0.000    0.000    0.000 
#
# Total GULP energy -247849.241362 kJ/mol
# GULP energy per Si atom -12392.462068 kJ/mol
# Density = 1.948578 g / cm^3
# Si number density = 19.530234 Si / 1000 Ang^3
#
#
#
# Elastic Constant Matrix: (Units=GPa)
#
#
# Indices 1 2 3 4 5 6 
#
# 1 180.8482 63.3147 39.8355 0.0000 6.9421 0.0000
# 2 63.3147 101.7617 29.1892 0.0000 14.0981 0.0000
# 3 39.8355 29.1892 57.4944 0.0000 15.1703 0.0000
# 4 0.0000 0.0000 0.0000 23.6880 0.0000 11.6047
# 5 6.9421 14.0981 15.1703 0.0000 26.4656 0.0000
# 6 0.0000 0.0000 0.0000 11.6047 0.0000 7.4383
#
#
#
# Elastic Compliance Matrix: (Units=1/GPa)
#
#
# Indices 1 2 3 4 5 6 
#
# 1 0.007703 -0.003991 -0.003933 0.000000 0.002360 0.000000
# 2 -0.003991 0.013816 -0.003044 0.000000 -0.004568 0.000000
# 3 -0.003933 -0.003044 0.024699 0.000000 -0.011505 0.000000
# 4 0.000000 0.000000 0.000000 0.179110 0.000000 -0.279434
# 5 0.002360 -0.004568 -0.011505 0.000000 0.046194 0.000000
# 6 0.000000 0.000000 0.000000 -0.279434 0.000000 0.570391
#
#
# Mechanical properties :
#
#
# Convention : Reuss Voigt Hill
#
# Bulk Modulus (GPa) = 41.18357 67.19811 54.19084
# Shear Modulus (GPa) = 5.73432 25.36938 15.55185
#
# Velocity S-wave (km/s) = 1.71537 3.60805 2.82493
# Velocity P-wave (km/s) = 5.00562 7.19995 6.20062
#
# Compressibility (1/GPa) = 0.02428153
#
# Stress axis : x y z
#
# Youngs Moduli (GPa) = 129.82623 72.37958 40.48754
#
# Poissons Ratio (x) = 0.28888 0.15925
# Poissons Ratio (y) = 0.51817 0.12323
# Poissons Ratio (z) = 0.51064 0.22029
#
# Static dielectric constant tensor:
#      x y z
#    x 4.068030 0.000000 0.123840 
#    y 0.000000 3.409150 0.000000 
#    z 0.123840 0.000000 3.305270 
# 
# 
# High freq. dielectric constant tensor:
#      x y z
#    x 1.766640 0.000000 0.010290 
#    y 0.000000 1.749630 0.000000 
#    z 0.010290 0.000000 1.737710 
# 
# From -- ./inp_files/17303.got.cif
#   From: 2010.06.25/outbox.cif.g09.slc.cpg/sg11_9_cif.got.tgz:17303.got - 2010.06.27 23:14:04.
