data_PCOD8068541
_publ_section_title
;
Structure prediction by ZEFSAII (Michael W. Deem and Ramdas Pophale) SiO2 
 PCOD8068541
Probable space group: P 21/M
;
_chemical_formula_sum "Si O2"
_cell_formula_units_Z 32
_cell_length_a 12.834857
_cell_length_b 9.267490
_cell_length_c 17.220626
_cell_angle_alpha 90.000000
_cell_angle_beta 89.164843
_cell_angle_gamma 90.000000
_cell_volume 2048.122634
_symmetry_space_group_name_H-M "P 21/M"
_symmetry_group_IT_number 11
_symmetry_cell_setting 'monoclinic'
loop_
_space_group_symop_operation_xyz
x,y,z
-x,1/2+y,-z
-x,-y,-z
x,1/2-y,z
loop_
_atom_site_type_symbol
_atom_site_label
_atom_site_fract_x
_atom_site_fract_y
_atom_site_fract_z
Si Si1 0.395267 0.914479 0.503504
Si Si2 0.881167 0.917420 0.076698
Si Si3 0.607972 0.419013 0.663832
Si Si4 0.388924 0.580455 0.671511
Si Si5 0.307576 0.082174 0.813885
Si Si6 0.883466 0.419479 0.921285
Si Si7 0.501472 0.079964 0.918827
Si Si8 0.300706 0.920395 0.180283
O O1 0.430121 0.750000 0.504814
O O2 0.336808 0.946418 0.421642
O O3 0.337047 0.948882 0.585858
O O4 0.500000 0.000000 0.500000
O O5 0.872770 0.750000 0.054395
O O6 0.803224 0.956631 0.146880
O O7 0.997964 0.958597 0.102780
O O8 0.849126 0.006502 0.001465
O O9 0.579658 0.250000 0.675443
O O10 0.502427 0.508815 0.674610
O O11 0.688084 0.470254 0.729998
O O12 0.399492 0.750000 0.688485
O O13 0.313039 0.509318 0.735031
O O14 0.316012 0.250000 0.792291
O O15 0.399004 0.037276 0.871665
O O16 0.869120 0.250000 0.933780
O O17 0.807626 0.479498 0.854220
O O18 0.506099 0.250000 0.934259
O O19 0.601146 0.022626 0.870096
O O20 0.500000 0.000000 0.000000
O O21 0.299713 0.750000 0.175924
#
# Coordination Sequence:
#
# PCOD8068541 Si02
#       8
#     4   4   4   4   4   4   4   4
#     4   8  15  25  40  60  83 111 140 169 204 248
#     4   9  18  31  46  63  83 109 143 180 213 249
#     4   9  15  28  45  60  85 118 142 165 207 258
#     4  10  18  27  40  64  90 110 140 178 209 243
#     4  10  19  31  44  59  84 117 146 169 205 256
#     4   9  17  30  47  65  84 106 139 182 218 245
#     4  10  19  29  40  57  81 110 140 166 199 248
#     4   9  16  27  44  63  83 109 140 170 204 249
#
# _framework density 15.624065
#
# number of rings (size 3 to 8) (size 9 to 14) (size 15 to 20)
#    0.000    2.750    1.250    1.125    0.000    1.500 
#    0.000    0.625    0.000    0.000    0.000    0.875 
#    0.000    0.000    0.000    0.000    0.000    0.000 
#
# Total GULP energy -396498.452989 kJ/mol
# GULP energy per Si atom -12390.576656 kJ/mol
# Density = 1.558850 g / cm^3
# Si number density = 15.624065 Si / 1000 Ang^3
#
#
#
# Elastic Constant Matrix: (Units=GPa)
#
#
# Indices 1 2 3 4 5 6 
#
# 1 80.5954 23.7433 67.0384 0.0000 2.9454 0.0000
# 2 23.7433 38.0372 46.4633 0.0000 -2.8641 0.0000
# 3 67.0384 46.4633 170.6348 0.0000 4.3669 0.0000
# 4 0.0000 0.0000 0.0000 24.3419 0.0000 -2.5013
# 5 2.9454 -2.8641 4.3669 0.0000 18.9243 0.0000
# 6 0.0000 0.0000 0.0000 -2.5013 0.0000 12.0070
#
#
#
# Elastic Compliance Matrix: (Units=1/GPa)
#
#
# Indices 1 2 3 4 5 6 
#
# 1 0.018930 -0.004444 -0.006171 0.000000 -0.002195 0.000000
# 2 -0.004444 0.041839 -0.009885 0.000000 0.009305 0.000000
# 3 -0.006171 -0.009885 0.011056 0.000000 -0.003087 0.000000
# 4 0.000000 0.000000 0.000000 0.041980 0.000000 0.008745
# 5 -0.002195 0.009305 -0.003087 0.000000 0.055304 0.000000
# 6 0.000000 0.000000 0.000000 0.008745 0.000000 0.085107
#
#
# Mechanical properties :
#
#
# Convention : Reuss Voigt Hill
#
# Bulk Modulus (GPa) = 32.44069 62.63973 47.54021
# Shear Modulus (GPa) = 16.36716 21.18947 18.77831
#
# Velocity S-wave (km/s) = 3.24012 3.68667 3.47058
# Velocity P-wave (km/s) = 5.89967 7.63550 6.82301
#
# Compressibility (1/GPa) = 0.03082548
#
# Stress axis : x y z
#
# Youngs Moduli (GPa) = 52.82657 23.90107 90.45219
#
# Poissons Ratio (x) = 0.10621 0.55818
# Poissons Ratio (y) = 0.23474 0.89412
# Poissons Ratio (z) = 0.32599 0.23626
#
# Static dielectric constant tensor:
#      x y z
#    x 2.872340 0.000000 0.101680 
#    y 0.000000 2.823110 0.000000 
#    z 0.101680 0.000000 3.523910 
# 
# 
# High freq. dielectric constant tensor:
#      x y z
#    x 1.563090 0.000000 0.002400 
#    y 0.000000 1.591620 0.000000 
#    z 0.002400 0.000000 1.611980 
# 
# From -- ./inp_files/40623.got.cif
#   From: 2010.06.25/outbox.cif.g09.slc.cpg/sg11_21_cif.got.tgz:40623.got - 2010.06.27 23:14:04.
