data_PCOD8068531
_publ_section_title
;
Structure prediction by ZEFSAII (Michael W. Deem and Ramdas Pophale) SiO2 
 PCOD8068531
Probable space group: P 21/M
;
_chemical_formula_sum "Si O2"
_cell_formula_units_Z 32
_cell_length_a 18.364225
_cell_length_b 9.115993
_cell_length_c 18.435516
_cell_angle_alpha 90.000000
_cell_angle_beta 43.563707
_cell_angle_gamma 90.000000
_cell_volume 2126.926019
_symmetry_space_group_name_H-M "P 21/M"
_symmetry_group_IT_number 11
_symmetry_cell_setting 'monoclinic'
loop_
_space_group_symop_operation_xyz
x,y,z
-x,1/2+y,-z
-x,-y,-z
x,1/2-y,z
loop_
_atom_site_type_symbol
_atom_site_label
_atom_site_fract_x
_atom_site_fract_y
_atom_site_fract_z
Si Si1 0.714121 0.422346 0.016706
Si Si2 0.583598 0.087929 0.846898
Si Si3 0.653018 0.586663 0.924015
Si Si4 0.510887 0.579506 0.607058
Si Si5 0.104304 0.920293 0.007503
Si Si6 0.348096 0.418452 0.627606
Si Si7 0.129068 0.080026 0.845283
Si Si8 0.514827 0.575749 0.227585
O O1 0.688743 0.250000 0.031021
O O2 0.625996 0.499941 0.129457
O O3 0.719298 0.487108 0.931842
O O4 0.827762 0.456080 0.970210
O O5 0.633768 0.250000 0.815043
O O6 0.571978 0.036981 0.771714
O O7 0.658757 0.979818 0.838514
O O8 0.467153 0.091196 0.964196
O O9 0.701473 0.750000 0.887277
O O10 0.495877 0.750000 0.637228
O O11 0.406132 0.523926 0.642369
O O12 0.612350 0.552208 0.482555
O O13 0.531228 0.486940 0.664708
O O14 0.109538 0.750000 0.985445
O O15 0.982856 0.972207 0.108095
O O16 0.154277 0.000449 0.902409
O O17 0.371818 0.250000 0.632815
O O18 0.223141 0.453815 0.720665
O O19 0.124176 0.250000 0.867742
O O20 0.533369 0.750000 0.218591
#
# Coordination Sequence:
#
# PCOD8068531 Si02
#       8
#     4   4   4   4   4   4   4   4
#     4  10  18  27  40  58  82 109 136 167 199 233
#     4   8  15  26  38  53  75 104 135 163 192 230
#     4   9  16  25  38  56  78 105 135 163 194 234
#     4  10  19  29  42  61  82 104 134 169 202 238
#     4   9  18  29  41  60  81 103 134 168 200 234
#     4   9  18  31  45  59  78 107 137 166 202 240
#     4   9  17  30  45  58  77 105 135 167 201 237
#     4  10  19  29  41  58  81 109 138 166 198 236
#
# _framework density 15.045188
#
# number of rings (size 3 to 8) (size 9 to 14) (size 15 to 20)
#    0.000    2.750    0.000    3.000    0.000    7.500 
#    0.000    0.000    0.000    0.000    0.000    0.000 
#    0.000    1.000    0.000    2.000    0.000    2.875 
#
# Total GULP energy -396696.408613 kJ/mol
# GULP energy per Si atom -12396.762769 kJ/mol
# Density = 1.501094 g / cm^3
# Si number density = 15.045188 Si / 1000 Ang^3
#
#
#
# Elastic Constant Matrix: (Units=GPa)
#
#
# Indices 1 2 3 4 5 6 
#
# 1 101.4749 55.3983 52.4534 0.0000 16.6438 0.0000
# 2 55.3983 83.8909 38.0564 0.0000 11.1832 0.0000
# 3 52.4534 38.0564 73.6574 0.0000 6.6358 0.0000
# 4 0.0000 0.0000 0.0000 18.4881 0.0000 6.8513
# 5 16.6438 11.1832 6.6358 0.0000 23.8379 0.0000
# 6 0.0000 0.0000 0.0000 6.8513 0.0000 24.6068
#
#
#
# Elastic Compliance Matrix: (Units=1/GPa)
#
#
# Indices 1 2 3 4 5 6 
#
# 1 0.020655 -0.008150 -0.009789 0.000000 -0.007873 0.000000
# 2 -0.008150 0.019438 -0.004032 0.000000 -0.002307 0.000000
# 3 -0.009789 -0.004032 0.022406 0.000000 0.002489 0.000000
# 4 0.000000 0.000000 0.000000 0.060312 0.000000 -0.016793
# 5 -0.007873 -0.002307 0.002489 0.000000 0.047837 0.000000
# 6 0.000000 0.000000 0.000000 -0.016793 0.000000 0.045315
#
#
# Mechanical properties :
#
#
# Convention : Reuss Voigt Hill
#
# Bulk Modulus (GPa) = 53.88280 61.20439 57.54359
# Shear Modulus (GPa) = 18.79055 20.92756 19.85905
#
# Velocity S-wave (km/s) = 3.53787 3.73363 3.63707
# Velocity P-wave (km/s) = 7.25124 7.70424 7.48117
#
# Compressibility (1/GPa) = 0.01855880
#
# Stress axis : x y z
#
# Youngs Moduli (GPa) = 48.41374 51.44445 44.63005
#
# Poissons Ratio (x) = 0.41925 0.43689
# Poissons Ratio (y) = 0.39455 0.17994
# Poissons Ratio (z) = 0.47393 0.20742
#
# Static dielectric constant tensor:
#      x y z
#    x 2.975310 0.000000 0.124320 
#    y 0.000000 3.072700 0.000000 
#    z 0.124320 0.000000 2.770540 
# 
# 
# High freq. dielectric constant tensor:
#      x y z
#    x 1.565050 0.000000 0.018290 
#    y 0.000000 1.590180 0.000000 
#    z 0.018290 0.000000 1.537920 
# 
# From -- ./inp_files/52925.got.cif
#   From: 2010.06.25/outbox.cif.g09.slc.cpg/sg11_27_cif.got.tgz:52925.got - 2010.06.27 23:14:04.
