data_PCOD8068750
_publ_section_title
;
Structure prediction by ZEFSAII (Michael W. Deem and Ramdas Pophale) SiO2 
 PCOD8068750
Probable space group: P 21/M
;
_chemical_formula_sum "Si O2"
_cell_formula_units_Z 32
_cell_length_a 12.136382
_cell_length_b 9.411906
_cell_length_c 21.219042
_cell_angle_alpha 90.000000
_cell_angle_beta 129.229901
_cell_angle_gamma 90.000000
_cell_volume 1877.492622
_symmetry_space_group_name_H-M "P 21/M"
_symmetry_group_IT_number 11
_symmetry_cell_setting 'monoclinic'
loop_
_space_group_symop_operation_xyz
x,y,z
-x,1/2+y,-z
-x,-y,-z
x,1/2-y,z
loop_
_atom_site_type_symbol
_atom_site_label
_atom_site_fract_x
_atom_site_fract_y
_atom_site_fract_z
Si Si1 0.045238 0.912019 0.804087
Si Si2 0.249330 0.081307 0.454073
Si Si3 0.712723 0.914153 0.054775
Si Si4 0.066672 0.915468 0.665848
Si Si5 0.669408 0.915889 0.279543
Si Si6 0.468132 0.082788 0.637939
Si Si7 0.506388 0.913306 0.096330
Si Si8 0.718679 0.914893 0.674830
O O1 0.086439 0.750000 0.834678
O O2 0.084493 0.946017 0.746266
O O3 0.879120 0.938407 0.756558
O O4 0.132825 0.015141 0.881679
O O5 0.244532 0.250000 0.449555
O O6 0.357036 0.024166 0.545741
O O7 0.297830 0.026828 0.402725
O O8 0.089326 0.029845 0.412208
O O9 0.732370 0.750000 0.044694
O O10 0.628015 0.937369 0.088742
O O11 0.629645 0.989356 0.967553
O O12 0.087407 0.750000 0.658426
O O13 0.181838 0.002273 0.668122
O O14 0.704937 0.750000 0.288376
O O15 0.590100 0.956944 0.314779
O O16 0.568024 0.962801 0.185588
O O17 0.491593 0.250000 0.638634
O O18 0.617815 0.005081 0.683662
O O19 0.456525 0.750000 0.079514
O O20 0.676110 0.750000 0.663464
#
# Coordination Sequence:
#
# PCOD8068750 Si02
#       8
#     4   4   4   4   4   4   4   4
#     4   9  17  30  49  72  98 127 155 195 247 287
#     4   8  16  32  51  72  97 125 159 204 248 282
#     4  10  18  28  48  75  98 122 157 197 235 283
#     4   9  17  30  49  70  95 129 164 194 234 287
#     4  10  20  33  47  68 101 134 160 193 238 287
#     4  10  20  33  50  70  96 131 166 199 240 284
#     4   9  18  31  45  66 100 132 155 188 236 287
#     4   9  18  33  52  72  96 125 163 205 242 281
#
# _framework density 17.044007000000001
#
# number of rings (size 3 to 8) (size 9 to 14) (size 15 to 20)
#    0.000    2.750    1.250    2.250    0.000    2.500 
#    0.000    2.500    0.000    0.750    0.000    0.000 
#    0.000    0.000    0.000    0.000    0.000    0.000 
#
# Total GULP energy -396815.806891 kJ/mol
# GULP energy per Si atom -12400.493965 kJ/mol
# Density = 1.700521 g / cm^3
# Si number density = 17.044007 Si / 1000 Ang^3
#
#
#
# Elastic Constant Matrix: (Units=GPa)
#
#
# Indices 1 2 3 4 5 6 
#
# 1 110.0348 47.7423 45.3307 0.0000 8.2065 0.0000
# 2 47.7423 59.5546 36.4032 0.0000 12.4259 0.0000
# 3 45.3307 36.4032 75.5299 0.0000 15.6491 0.0000
# 4 0.0000 0.0000 0.0000 23.7586 0.0000 6.8208
# 5 8.2065 12.4259 15.6491 0.0000 18.9251 0.0000
# 6 0.0000 0.0000 0.0000 6.8208 0.0000 27.0866
#
#
#
# Elastic Compliance Matrix: (Units=1/GPa)
#
#
# Indices 1 2 3 4 5 6 
#
# 1 0.015220 -0.009873 -0.005252 0.000000 0.004225 0.000000
# 2 -0.009873 0.031102 -0.006904 0.000000 -0.010431 0.000000
# 3 -0.005252 -0.006904 0.022093 0.000000 -0.011459 0.000000
# 4 0.000000 0.000000 0.000000 0.045370 0.000000 -0.011425
# 5 0.004225 -0.010431 -0.011459 0.000000 0.067332 0.000000
# 6 0.000000 0.000000 0.000000 -0.011425 0.000000 0.039796
#
#
# Mechanical properties :
#
#
# Convention : Reuss Voigt Hill
#
# Bulk Modulus (GPa) = 41.05210 56.00798 48.53004
# Shear Modulus (GPa) = 18.30905 21.66360 19.98632
#
# Velocity S-wave (km/s) = 3.28109 3.56903 3.42808
# Velocity P-wave (km/s) = 6.20422 7.06513 6.64862
#
# Compressibility (1/GPa) = 0.02435929
#
# Stress axis : x y z
#
# Youngs Moduli (GPa) = 65.70302 32.15193 45.26278
#
# Poissons Ratio (x) = 0.31742 0.23770
# Poissons Ratio (y) = 0.64866 0.31249
# Poissons Ratio (z) = 0.34505 0.22197
#
# Static dielectric constant tensor:
#      x y z
#    x 2.965550 0.000000 0.078340 
#    y 0.000000 3.012650 0.000000 
#    z 0.078340 0.000000 3.251540 
# 
# 
# High freq. dielectric constant tensor:
#      x y z
#    x 1.637010 0.000000 0.014450 
#    y 0.000000 1.645510 0.000000 
#    z 0.014450 0.000000 1.657820 
# 
# From -- ./inp_files/58692.got.cif
#   From: 2010.06.25/outbox.cif.g09.slc.cpg/sg11_30_cif.got.tgz:58692.got - 2010.06.27 23:14:04.
