data_PCOD8068085
_publ_section_title
;
Structure prediction by ZEFSAII (Michael W. Deem and Ramdas Pophale) SiO2 
 PCOD8068085
Probable space group: P 2/M
;
_chemical_formula_sum "Si O2"
_cell_formula_units_Z 32
_cell_length_a 24.000000
_cell_length_b 9.000000
_cell_length_c 18.000000
_cell_angle_alpha 90.000000
_cell_angle_beta 150.000000
_cell_angle_gamma 90.000000
_cell_volume 1944.000000
_symmetry_space_group_name_H-M "P 2/M"
_symmetry_group_IT_number 10
_symmetry_cell_setting 'monoclinic'
loop_
_space_group_symop_operation_xyz
x,y,z
-x,y,-z
-x,-y,-z
x,-y,z
loop_
_atom_site_type_symbol
_atom_site_label
_atom_site_fract_x
_atom_site_fract_y
_atom_site_fract_z
Si Si1 0.951588 0.325467 0.133662
Si Si2 0.460558 0.664962 0.370250
Si Si3 0.753422 0.674774 0.800905
Si Si4 0.185140 0.176299 0.420371
Si Si5 0.867684 0.169165 0.340150
Si Si6 0.901582 0.333889 0.235468
Si Si7 0.166007 0.668797 0.552046
Si Si8 0.670042 0.175625 0.556917
O O1 0.982688 0.500000 0.176075
O O2 0.881962 0.278730 0.127867
O O3 0.064455 0.232644 0.254276
O O4 0.876302 0.292227 0.974626
O O5 0.500000 0.658208 0.500000
O O6 0.461254 0.500000 0.335244
O O7 0.334115 0.726838 0.235141
O O8 0.541668 0.766483 0.413089
O O9 0.734853 0.500000 0.764410
O O10 0.740326 0.757158 0.706882
O O11 0.216560 0.249303 0.536957
O O12 0.274356 0.219668 0.458505
O O13 0.181045 0.000000 0.426964
O O14 0.837901 0.236268 0.224305
O O15 0.803312 0.251283 0.333963
O O16 0.000000 0.182920 0.500000
O O17 0.827159 0.000000 0.295008
O O18 0.856025 0.500000 0.194538
O O19 0.033876 0.328726 0.396561
O O20 0.211875 0.500000 0.606310
O O21 0.668945 0.000000 0.565102
#
# Coordination Sequence:
#
# PCOD8068085 Si02
#       8
#     4   4   4   4   4   4   4   4
#     4   9  18  31  45  61  84 115 146 175 209 249
#     4   8  15  29  48  66  82 102 133 176 219 255
#     4   9  18  32  48  65  84 108 141 179 216 252
#     4  10  20  31  41  58  87 117 144 175 210 249
#     4   9  15  22  35  55  78 105 136 169 205 243
#     4   8  14  24  37  54  77 105 137 170 202 240
#     4   9  16  26  40  56  76 106 142 175 207 244
#     4  10  20  31  44  63  86 112 141 176 216 254
#
# _framework density 16.460905
#
# number of rings (size 3 to 8) (size 9 to 14) (size 15 to 20)
#    0.000    3.000    0.000    3.000    0.000    9.750 
#    0.000    2.500    0.000    0.000    0.000    0.000 
#    0.000    1.000    0.000   11.500    0.000    5.250 
#
# Total GULP energy -396465.447931 kJ/mol
# GULP energy per Si atom -12389.545248 kJ/mol
# Density = 1.642344 g / cm^3
# Si number density = 16.460905 Si / 1000 Ang^3
#
#
#
# Elastic Constant Matrix: (Units=GPa)
#
#
# Indices 1 2 3 4 5 6 
#
# 1 152.2208 63.5379 21.3794 0.0000 -6.8973 0.0000
# 2 63.5379 97.6325 12.8154 0.0000 -3.4590 0.0000
# 3 21.3794 12.8154 16.0807 0.0000 1.1297 0.0000
# 4 0.0000 0.0000 0.0000 14.1754 0.0000 -2.8140
# 5 -6.8973 -3.4590 1.1297 0.0000 20.3176 0.0000
# 6 0.0000 0.0000 0.0000 -2.8140 0.0000 35.4983
#
#
#
# Elastic Compliance Matrix: (Units=1/GPa)
#
#
# Indices 1 2 3 4 5 6 
#
# 1 0.010286 -0.005316 -0.009659 0.000000 0.003124 0.000000
# 2 -0.005316 0.014310 -0.004399 0.000000 0.000876 0.000000
# 3 -0.009659 -0.004399 0.079126 0.000000 -0.008427 0.000000
# 4 0.000000 0.000000 0.000000 0.071673 0.000000 0.005682
# 5 0.003124 0.000876 -0.008427 0.000000 0.050897 0.000000
# 6 0.000000 0.000000 0.000000 0.005682 0.000000 0.028621
#
#
# Mechanical properties :
#
#
# Convention : Reuss Voigt Hill
#
# Bulk Modulus (GPa) = 15.39043 51.26659 33.32851
# Shear Modulus (GPa) = 15.85701 25.21168 20.53434
#
# Velocity S-wave (km/s) = 3.10710 3.91782 3.53577
# Velocity P-wave (km/s) = 4.71615 7.18873 6.07947
#
# Compressibility (1/GPa) = 0.06497546
#
# Stress axis : x y z
#
# Youngs Moduli (GPa) = 97.21608 69.87962 12.63812
#
# Poissons Ratio (x) = 0.37146 0.12207
# Poissons Ratio (y) = 0.51677 0.05559
# Poissons Ratio (z) = 0.93900 0.30739
#
# Static dielectric constant tensor:
#      x y z
#    x 3.449730 0.000000 -0.093150 
#    y 0.000000 3.194560 0.000000 
#    z -0.093150 0.000000 2.955560 
# 
# 
# High freq. dielectric constant tensor:
#      x y z
#    x 1.647190 0.000000 -0.016910 
#    y 0.000000 1.640000 0.000000 
#    z -0.016910 0.000000 1.580310 
# 
# From -- ./inp_files/79984.got.cif
#   From: 2010.06.25/outbox.ucp.g09.slc.cvg/sg10_40_cif.got.tgz:79984.got - 2010.06.28 13:37:52.
