data_PCOD8068639
_publ_section_title
;
Structure prediction by ZEFSAII (Michael W. Deem and Ramdas Pophale) SiO2 
 PCOD8068639
Probable space group: P 21/M
;
_chemical_formula_sum "Si O2"
_cell_formula_units_Z 32
_cell_length_a 18.996080
_cell_length_b 9.076489
_cell_length_c 23.352618
_cell_angle_alpha 90.000000
_cell_angle_beta 151.242811
_cell_angle_gamma 90.000000
_cell_volume 1937.098465
_symmetry_space_group_name_H-M "P 21/M"
_symmetry_group_IT_number 11
_symmetry_cell_setting 'monoclinic'
loop_
_space_group_symop_operation_xyz
x,y,z
-x,1/2+y,-z
-x,-y,-z
x,1/2-y,z
loop_
_atom_site_type_symbol
_atom_site_label
_atom_site_fract_x
_atom_site_fract_y
_atom_site_fract_z
Si Si1 0.332578 0.917722 0.203552
Si Si2 0.909698 0.413518 0.067309
Si Si3 0.290793 0.077296 0.998308
Si Si4 0.890056 0.919923 0.348026
Si Si5 0.182906 0.079129 0.575156
Si Si6 0.879688 0.576273 0.875526
Si Si7 0.469445 0.575341 0.738742
Si Si8 0.354436 0.076430 0.917097
O O1 0.374618 0.750000 0.248738
O O2 0.276594 0.000809 0.221441
O O3 0.473930 0.002256 0.279725
O O4 0.205389 0.925564 0.066170
O O5 0.909876 0.250000 0.093211
O O6 0.070409 0.450708 0.155232
O O7 0.863153 0.519632 0.085856
O O8 0.276398 0.250000 0.986270
O O9 0.426564 0.026605 0.134423
O O10 0.315012 0.015020 0.951934
O O11 0.939231 0.750000 0.377554
O O12 0.812593 0.947770 0.353620
O O13 0.777079 0.966588 0.218605
O O14 0.029804 0.024017 0.440184
O O15 0.204528 0.250000 0.575230
O O16 0.308584 0.983590 0.635876
O O17 0.873548 0.750000 0.885039
O O18 0.000000 0.500000 0.000000
O O19 0.466621 0.750000 0.729174
O O20 0.382405 0.250000 0.937828
O O21 0.500000 0.000000 0.000000
#
# Coordination Sequence:
#
# PCOD8068639 Si02
#       8
#     4   4   4   4   4   4   4   4
#     4   9  16  25  37  56  82 112 146 181 215 255
#     4   8  15  25  37  54  79 112 146 178 213 254
#     4   9  18  29  42  62  87 115 148 182 214 257
#     4   9  19  34  49  65  87 115 145 180 223 265
#     4  10  19  31  48  67  86 111 146 185 221 261
#     4   9  15  23  35  53  78 110 146 180 215 256
#     4  10  18  28  43  63  89 119 147 178 219 262
#     4  10  20  33  48  67  90 116 146 180 219 261
#
# _framework density 16.519552000000001
#
# number of rings (size 3 to 8) (size 9 to 14) (size 15 to 20)
#    0.000    2.750    0.000    3.000    0.000    5.500 
#    0.000    0.000    0.000    0.000    0.000    0.000 
#    0.000    1.000    0.000    3.000    0.000    5.500 
#
# Total GULP energy -396677.189321 kJ/mol
# GULP energy per Si atom -12396.162166 kJ/mol
# Density = 1.648195 g / cm^3
# Si number density = 16.519552 Si / 1000 Ang^3
#
#
#
# Elastic Constant Matrix: (Units=GPa)
#
#
# Indices 1 2 3 4 5 6 
#
# 1 128.5836 50.9176 46.4580 0.0000 25.4185 0.0000
# 2 50.9176 75.3630 33.1137 0.0000 14.0862 0.0000
# 3 46.4580 33.1137 54.3335 0.0000 10.6043 0.0000
# 4 0.0000 0.0000 0.0000 20.7889 0.0000 9.9391
# 5 25.4185 14.0862 10.6043 0.0000 21.2080 0.0000
# 6 0.0000 0.0000 0.0000 9.9391 0.0000 32.1842
#
#
#
# Elastic Compliance Matrix: (Units=1/GPa)
#
#
# Indices 1 2 3 4 5 6 
#
# 1 0.014301 -0.004413 -0.007497 0.000000 -0.010461 0.000000
# 2 -0.004413 0.020539 -0.007883 0.000000 -0.004411 0.000000
# 3 -0.007497 -0.007883 0.029747 0.000000 -0.000652 0.000000
# 4 0.000000 0.000000 0.000000 0.056435 0.000000 -0.017428
# 5 -0.010461 -0.004411 -0.000652 0.000000 0.062946 0.000000
# 6 0.000000 0.000000 0.000000 -0.017428 0.000000 0.036453
#
#
# Mechanical properties :
#
#
# Convention : Reuss Voigt Hill
#
# Bulk Modulus (GPa) = 39.99932 57.69542 48.84737
# Shear Modulus (GPa) = 18.63298 23.35560 20.99429
#
# Velocity S-wave (km/s) = 3.36212 3.76415 3.56880
# Velocity P-wave (km/s) = 6.27197 7.34120 6.82755
#
# Compressibility (1/GPa) = 0.02500043
#
# Stress axis : x y z
#
# Youngs Moduli (GPa) = 69.92445 48.68800 33.61665
#
# Poissons Ratio (x) = 0.21486 0.25203
# Poissons Ratio (y) = 0.30857 0.26501
# Poissons Ratio (z) = 0.52423 0.38382
#
# Static dielectric constant tensor:
#      x y z
#    x 3.709640 0.000000 0.202410 
#    y 0.000000 3.192370 0.000000 
#    z 0.202410 0.000000 2.747500 
# 
# 
# High freq. dielectric constant tensor:
#      x y z
#    x 1.642680 0.000000 0.028650 
#    y 0.000000 1.645520 0.000000 
#    z 0.028650 0.000000 1.581620 
# 
# From -- ./inp_files/42497.got.cif
#   From: 2010.06.25/outbox.cif.g09.slc.cpg/sg11_22_cif.got.tgz:42497.got - 2010.06.27 23:14:04.
