data_PCOD8068242
_publ_section_title
;
Structure prediction by ZEFSAII (Michael W. Deem and Ramdas Pophale) SiO2 
 PCOD8068242
Probable space group: P 21/M
;
_chemical_formula_sum "Si O2"
_cell_formula_units_Z 28
_cell_length_a 16.620102
_cell_length_b 8.770933
_cell_length_c 21.697281
_cell_angle_alpha 90.000000
_cell_angle_beta 152.599917
_cell_angle_gamma 90.000000
_cell_volume 1455.567724
_symmetry_space_group_name_H-M "P 21/M"
_symmetry_group_IT_number 11
_symmetry_cell_setting 'monoclinic'
loop_
_space_group_symop_operation_xyz
x,y,z
-x,1/2+y,-z
-x,-y,-z
x,1/2-y,z
loop_
_atom_site_type_symbol
_atom_site_label
_atom_site_fract_x
_atom_site_fract_y
_atom_site_fract_z
Si Si1 0.488579 0.429323 0.795634
Si Si2 0.109668 0.579906 0.278467
Si Si3 0.994135 0.430364 0.314831
Si Si4 0.733903 0.578436 0.056204
Si Si5 0.114678 0.930379 0.524254
Si Si6 0.237949 0.927505 0.123052
Si Si7 0.146562 0.427740 0.180981
O O1 0.449215 0.250000 0.771720
O O2 0.313856 0.524123 0.669781
O O3 0.609459 0.472626 0.819981
O O4 0.580406 0.479992 0.921470
O O5 0.184294 0.750000 0.339943
O O6 0.205797 0.506259 0.285151
O O7 0.136746 0.480059 0.359388
O O8 0.900155 0.585447 0.122829
O O9 0.990128 0.250000 0.318531
O O10 0.801194 0.493821 0.164444
O O11 0.046530 0.504649 0.414068
O O12 0.667990 0.750000 0.026604
O O13 0.095605 0.750000 0.511468
O O14 0.000000 0.000000 0.500000
O O15 0.239621 0.750000 0.139483
O O16 0.269431 0.016184 0.208678
O O17 0.052658 0.975338 0.968274
O O18 0.169646 0.250000 0.205983
#
# Coordination Sequence:
#
# PCOD8068242 Si02
#       7
#     4   4   4   4   4   4   4
#     4  11  21  37  60  87 119 155 196 242 293 344
#     4   9  17  29  50  78 112 149 190 231 276 331
#     4  10  19  36  61  87 115 151 193 234 285 347
#     4   9  18  32  55  86 116 152 192 235 283 337
#     4  12  26  45  65  88 116 149 190 236 292 353
#     4   9  18  29  44  72 113 154 190 234 285 336
#     4  10  17  26  45  76 113 153 195 238 282 331
#
# _framework density 19.23648
#
# number of rings (size 3 to 8) (size 9 to 14) (size 15 to 20)
#    0.857    1.143    1.429    3.857    0.000    1.714 
#    0.000    0.714    0.000    0.857    0.000    0.000 
#    0.000    0.000    0.000    0.000    0.000    0.000 
#
# Total GULP energy -347060.626915 kJ/mol
# GULP energy per Si atom -12395.022390 kJ/mol
# Density = 1.919270 g / cm^3
# Si number density = 19.236480 Si / 1000 Ang^3
#
#
#
# Elastic Constant Matrix: (Units=GPa)
#
#
# Indices 1 2 3 4 5 6 
#
# 1 193.3926 112.7383 83.6108 0.0000 -32.0763 0.0000
# 2 112.7383 172.1557 57.8545 0.0000 -22.6856 0.0000
# 3 83.6108 57.8545 85.8179 0.0000 -23.8701 0.0000
# 4 0.0000 0.0000 0.0000 27.4158 0.0000 -8.1881
# 5 -32.0763 -22.6856 -23.8701 0.0000 30.9956 0.0000
# 6 0.0000 0.0000 0.0000 -8.1881 0.0000 32.9320
#
#
#
# Elastic Compliance Matrix: (Units=1/GPa)
#
#
# Indices 1 2 3 4 5 6 
#
# 1 0.011553 -0.004748 -0.007249 0.000000 0.002899 0.000000
# 2 -0.004748 0.009563 -0.001580 0.000000 0.000870 0.000000
# 3 -0.007249 -0.001580 0.022108 0.000000 0.008367 0.000000
# 4 0.000000 0.000000 0.000000 0.039401 0.000000 0.009797
# 5 0.002899 0.000870 0.008367 0.000000 0.042343 0.000000
# 6 0.000000 0.000000 0.000000 0.009797 0.000000 0.032801
#
#
# Mechanical properties :
#
#
# Convention : Reuss Voigt Hill
#
# Bulk Modulus (GPa) = 62.22379 106.64149 84.43264
# Shear Modulus (GPa) = 26.27706 31.41284 28.84495
#
# Velocity S-wave (km/s) = 3.69996 4.04540 3.87653
# Velocity P-wave (km/s) = 7.11828 8.79647 8.00149
#
# Compressibility (1/GPa) = 0.01607102
#
# Stress axis : x y z
#
# Youngs Moduli (GPa) = 86.55401 104.56705 45.23299
#
# Poissons Ratio (x) = 0.49646 0.32791
# Poissons Ratio (y) = 0.41094 0.07145
# Poissons Ratio (z) = 0.62746 0.16517
#
# Static dielectric constant tensor:
#      x y z
#    x 3.465570 0.000000 -0.100160 
#    y 0.000000 3.606390 0.000000 
#    z -0.100160 0.000000 3.188440 
# 
# 
# High freq. dielectric constant tensor:
#      x y z
#    x 1.740670 0.000000 -0.019160 
#    y 0.000000 1.764110 0.000000 
#    z -0.019160 0.000000 1.712440 
# 
# From -- ./inp_files/65470.got.cif
#   From: 2010.06.25/outbox.cif.g09.slc.cpg/sg11_33_cif.got.tgz:65470.got - 2010.06.27 23:14:04.
