data_PCOD8068818
_publ_section_title
;
Structure prediction by ZEFSAII (Michael W. Deem and Ramdas Pophale) SiO2 
 PCOD8068818
Probable space group: P 21/M
;
_chemical_formula_sum "Si O2"
_cell_formula_units_Z 32
_cell_length_a 19.102052
_cell_length_b 8.936703
_cell_length_c 23.219395
_cell_angle_alpha 90.000000
_cell_angle_beta 28.138006
_cell_angle_gamma 90.000000
_cell_volume 1869.300863
_symmetry_space_group_name_H-M "P 21/M"
_symmetry_group_IT_number 11
_symmetry_cell_setting 'monoclinic'
loop_
_space_group_symop_operation_xyz
x,y,z
-x,1/2+y,-z
-x,-y,-z
x,1/2-y,z
loop_
_atom_site_type_symbol
_atom_site_label
_atom_site_fract_x
_atom_site_fract_y
_atom_site_fract_z
Si Si1 0.456899 0.927591 0.775300
Si Si2 0.877943 0.573532 0.628446
Si Si3 0.649865 0.928292 0.414010
Si Si4 0.339262 0.579820 0.288088
Si Si5 0.850968 0.076881 0.177478
Si Si6 0.699360 0.925314 0.507086
Si Si7 0.193436 0.423326 0.908055
Si Si8 0.906846 0.416604 0.434884
O O1 0.440946 0.750000 0.790311
O O2 0.564452 0.980206 0.645257
O O3 0.518859 0.989367 0.790972
O O4 0.297808 0.002962 0.880381
O O5 0.870793 0.750000 0.621020
O O6 0.719022 0.498173 0.728831
O O7 0.000000 0.500000 0.500000
O O8 0.930258 0.542753 0.656848
O O9 0.639204 0.750000 0.418349
O O10 0.674793 0.987099 0.460852
O O11 0.500000 0.000000 0.500000
O O12 0.788339 0.986013 0.276754
O O13 0.385493 0.750000 0.241153
O O14 0.209683 0.570441 0.428794
O O15 0.803262 0.250000 0.215580
O O16 0.781205 0.009859 0.170038
O O17 0.026959 0.056184 0.051226
O O18 0.705854 0.750000 0.501236
O O19 0.857797 0.978859 0.417665
O O20 0.233259 0.250000 0.869868
O O21 0.909040 0.250000 0.408121
#
# Coordination Sequence:
#
# PCOD8068818 Si02
#       8
#     4   4   4   4   4   4   4   4
#     4  10  18  29  46  67  93 123 154 190 231 274
#     4   9  15  23  35  54  80 112 150 187 224 267
#     4  11  22  35  51  71  95 123 155 192 233 276
#     4   9  16  25  37  57  85 117 152 186 223 269
#     4  10  21  36  52  71  93 119 154 192 232 278
#     4   9  19  31  43  63  90 119 152 188 225 270
#     4  10  20  34  52  71  92 119 152 192 234 277
#     4   8  15  25  38  56  80 113 150 185 221 264
#
# _framework density 17.118698999999999
#
# number of rings (size 3 to 8) (size 9 to 14) (size 15 to 20)
#    0.000    2.500    0.000    3.750    0.000    7.500 
#    0.000    0.000    0.000    0.000    0.000    0.000 
#    0.000    1.000    0.000    3.250    0.000    5.625 
#
# Total GULP energy -396695.396560 kJ/mol
# GULP energy per Si atom -12396.731142 kJ/mol
# Density = 1.707974 g / cm^3
# Si number density = 17.118699 Si / 1000 Ang^3
#
#
#
# Elastic Constant Matrix: (Units=GPa)
#
#
# Indices 1 2 3 4 5 6 
#
# 1 128.9706 48.7223 34.1867 0.0000 -31.0817 0.0000
# 2 48.7223 86.2374 27.4476 0.0000 -13.2430 0.0000
# 3 34.1867 27.4476 36.8465 0.0000 -9.9253 0.0000
# 4 0.0000 0.0000 0.0000 22.1066 0.0000 -7.2148
# 5 -31.0817 -13.2430 -9.9253 0.0000 25.8459 0.0000
# 6 0.0000 0.0000 0.0000 -7.2148 0.0000 34.7117
#
#
#
# Elastic Compliance Matrix: (Units=1/GPa)
#
#
# Indices 1 2 3 4 5 6 
#
# 1 0.013944 -0.003845 -0.006789 0.000000 0.012192 0.000000
# 2 -0.003845 0.016609 -0.008653 0.000000 0.000563 0.000000
# 3 -0.006789 -0.008653 0.040701 0.000000 0.003032 0.000000
# 4 0.000000 0.000000 0.000000 0.048527 0.000000 0.010086
# 5 0.012192 0.000563 0.003032 0.000000 0.054805 0.000000
# 6 0.000000 0.000000 0.000000 0.010086 0.000000 0.030905
#
#
# Mechanical properties :
#
#
# Convention : Reuss Voigt Hill
#
# Bulk Modulus (GPa) = 30.60022 52.52974 41.56498
# Shear Modulus (GPa) = 19.61098 25.97936 22.79517
#
# Velocity S-wave (km/s) = 3.38833 3.89987 3.65306
# Velocity P-wave (km/s) = 5.76384 7.14359 6.49048
#
# Compressibility (1/GPa) = 0.03267951
#
# Stress axis : x y z
#
# Youngs Moduli (GPa) = 71.71508 60.20904 24.56929
#
# Poissons Ratio (x) = 0.23151 0.16681
# Poissons Ratio (y) = 0.27575 0.21260
# Poissons Ratio (z) = 0.48689 0.52099
#
# Static dielectric constant tensor:
#      x y z
#    x 3.516170 0.000000 -0.248070 
#    y 0.000000 3.322980 0.000000 
#    z -0.248070 0.000000 2.844160 
# 
# 
# High freq. dielectric constant tensor:
#      x y z
#    x 1.668540 0.000000 -0.032620 
#    y 0.000000 1.675200 0.000000 
#    z -0.032620 0.000000 1.603710 
# 
# From -- ./inp_files/69434.got.cif
#   From: 2010.06.25/outbox.cif.g09.slc.cpg/sg11_35_cif.got.tgz:69434.got - 2010.06.27 23:14:04.
