data_PCOD8068532
_publ_section_title
;
Structure prediction by ZEFSAII (Michael W. Deem and Ramdas Pophale) SiO2 
 PCOD8068532
Probable space group: P 21/M
;
_chemical_formula_sum "Si O2"
_cell_formula_units_Z 32
_cell_length_a 13.676099
_cell_length_b 8.701012
_cell_length_c 26.582482
_cell_angle_alpha 90.000000
_cell_angle_beta 139.175069
_cell_angle_gamma 90.000000
_cell_volume 2067.945975
_symmetry_space_group_name_H-M "P 21/M"
_symmetry_group_IT_number 11
_symmetry_cell_setting 'monoclinic'
loop_
_space_group_symop_operation_xyz
x,y,z
-x,1/2+y,-z
-x,-y,-z
x,1/2-y,z
loop_
_atom_site_type_symbol
_atom_site_label
_atom_site_fract_x
_atom_site_fract_y
_atom_site_fract_z
Si Si1 0.974002 0.070113 0.917916
Si Si2 0.786366 0.931287 0.385976
Si Si3 0.626896 0.427644 0.618464
Si Si4 0.762584 0.573767 0.916680
Si Si5 0.321895 0.572391 0.474169
Si Si6 0.099494 0.929412 0.471287
Si Si7 0.244520 0.430472 0.234207
Si Si8 0.460277 0.930402 0.235200
O O1 0.937151 0.250000 0.912479
O O2 0.883110 0.963244 0.920798
O O3 0.914641 0.015385 0.840216
O O4 0.152690 0.041049 0.996808
O O5 0.785856 0.750000 0.387913
O O6 0.631600 0.989245 0.301004
O O7 0.928240 0.990921 0.408233
O O8 0.796700 0.991534 0.446718
O O9 0.642112 0.250000 0.639274
O O10 0.452196 0.469298 0.548556
O O11 0.702519 0.464495 0.594021
O O12 0.712835 0.529533 0.692390
O O13 0.713530 0.750000 0.893844
O O14 0.614324 0.472447 0.848113
O O15 0.368097 0.750000 0.499470
O O16 0.167409 0.533291 0.442882
O O17 0.103015 0.750000 0.484275
O O18 0.223190 0.250000 0.220635
O O19 0.374132 0.486212 0.246919
O O20 0.449703 0.750000 0.240576
#
# Coordination Sequence:
#
# PCOD8068532 Si02
#       8
#     4   4   4   4   4   4   4   4
#     4   9  16  26  39  55  77 105 135 165 197 233
#     4   9  18  29  41  60  82 105 134 166 199 234
#     4  10  19  30  43  60  82 105 133 168 203 240
#     4   9  16  25  38  56  78 105 135 164 195 234
#     4   9  18  31  46  61  78 105 136 167 203 239
#     4   9  17  30  45  59  78 104 135 168 200 236
#     4  11  20  28  40  58  81 109 139 168 198 234
#     4  10  18  27  40  58  82 110 137 166 199 234
#
# _framework density 15.474290999999999
#
# number of rings (size 3 to 8) (size 9 to 14) (size 15 to 20)
#    0.000    2.500    0.000    4.875    0.000    5.500 
#    0.000    0.000    0.000    0.000    0.000    0.000 
#    0.000    1.000    0.000    2.000    0.000    3.125 
#
# Total GULP energy -396558.744081 kJ/mol
# GULP energy per Si atom -12392.460753 kJ/mol
# Density = 1.543907 g / cm^3
# Si number density = 15.474291 Si / 1000 Ang^3
#
#
#
# Elastic Constant Matrix: (Units=GPa)
#
#
# Indices 1 2 3 4 5 6 
#
# 1 72.1307 18.6266 46.3688 0.0000 5.0000 0.0000
# 2 18.6266 46.6910 34.5369 0.0000 2.8052 0.0000
# 3 46.3688 34.5369 132.5443 0.0000 12.3617 0.0000
# 4 0.0000 0.0000 0.0000 27.0068 0.0000 -1.6422
# 5 5.0000 2.8052 12.3617 0.0000 18.2476 0.0000
# 6 0.0000 0.0000 0.0000 -1.6422 0.0000 12.3714
#
#
#
# Elastic Compliance Matrix: (Units=1/GPa)
#
#
# Indices 1 2 3 4 5 6 
#
# 1 0.018268 -0.003181 -0.005488 0.000000 -0.000799 0.000000
# 2 -0.003181 0.027092 -0.006020 0.000000 0.000785 0.000000
# 3 -0.005488 -0.006020 0.011535 0.000000 -0.005385 0.000000
# 4 0.000000 0.000000 0.000000 0.037329 0.000000 0.004955
# 5 -0.000799 0.000785 -0.005385 0.000000 0.058548 0.000000
# 6 0.000000 0.000000 0.000000 0.004955 0.000000 0.081490
#
#
# Mechanical properties :
#
#
# Convention : Reuss Voigt Hill
#
# Bulk Modulus (GPa) = 36.33819 50.04787 43.19303
# Shear Modulus (GPa) = 18.32771 21.64741 19.98756
#
# Velocity S-wave (km/s) = 3.44524 3.74428 3.59787
# Velocity P-wave (km/s) = 6.27377 7.14882 6.72554
#
# Compressibility (1/GPa) = 0.02751926
#
# Stress axis : x y z
#
# Youngs Moduli (GPa) = 54.74024 36.91142 86.69106
#
# Poissons Ratio (x) = 0.11740 0.47572
# Poissons Ratio (y) = 0.17411 0.52186
# Poissons Ratio (z) = 0.30039 0.22220
#
# Static dielectric constant tensor:
#      x y z
#    x 2.794840 0.000000 0.131150 
#    y 0.000000 3.011060 0.000000 
#    z 0.131150 0.000000 3.506710 
# 
# 
# High freq. dielectric constant tensor:
#      x y z
#    x 1.539670 0.000000 0.006350 
#    y 0.000000 1.604790 0.000000 
#    z 0.006350 0.000000 1.600870 
# 
# From -- ./inp_files/71515.got.cif
#   From: 2010.06.25/outbox.cif.g09.slc.cpg/sg11_36_cif.got.tgz:71515.got - 2010.06.27 23:14:04.
