data_PCOD8068646
_publ_section_title
;
Structure prediction by ZEFSAII (Michael W. Deem and Ramdas Pophale) SiO2 
 PCOD8068646
Probable space group: P 21/M
;
_chemical_formula_sum "Si O2"
_cell_formula_units_Z 32
_cell_length_a 14.472950
_cell_length_b 9.185318
_cell_length_c 14.000643
_cell_angle_alpha 90.000000
_cell_angle_beta 91.324808
_cell_angle_gamma 90.000000
_cell_volume 1860.729034
_symmetry_space_group_name_H-M "P 21/M"
_symmetry_group_IT_number 11
_symmetry_cell_setting 'monoclinic'
loop_
_space_group_symop_operation_xyz
x,y,z
-x,1/2+y,-z
-x,-y,-z
x,1/2-y,z
loop_
_atom_site_type_symbol
_atom_site_label
_atom_site_fract_x
_atom_site_fract_y
_atom_site_fract_z
Si Si1 0.095607 0.580655 0.521303
Si Si2 0.878744 0.414794 0.963924
Si Si3 0.235380 0.080189 0.889866
Si Si4 0.300482 0.588870 0.171729
Si Si5 0.832509 0.417752 0.677797
Si Si6 0.166574 0.586516 0.723552
Si Si7 0.408000 0.081156 0.026636
Si Si8 0.030775 0.413270 0.189144
O O1 0.071229 0.750000 0.535373
O O2 0.167198 0.555388 0.435892
O O3 0.146533 0.521521 0.617647
O O4 0.000000 0.500000 0.500000
O O5 0.909568 0.250000 0.992230
O O6 0.794349 0.411760 0.888614
O O7 0.961375 0.500437 0.911642
O O8 0.847447 0.499195 0.057443
O O9 0.212674 0.250000 0.885987
O O10 0.239516 0.015606 0.782079
O O11 0.332845 0.049343 0.943108
O O12 0.345685 0.750000 0.170290
O O13 0.268938 0.544968 0.279191
O O14 0.372972 0.476022 0.128880
O O15 0.856587 0.250000 0.702162
O O16 0.912122 0.515770 0.724102
O O17 0.207395 0.750000 0.717076
O O18 0.074175 0.586803 0.782753
O O19 0.429562 0.250000 0.038495
O O20 0.500000 0.000000 0.000000
O O21 0.068499 0.250000 0.174174
#
# Coordination Sequence:
#
# PCOD8068646 Si02
#       8
#     4   4   4   4   4   4   4   4
#     4  10  19  32  48  69  95 129 175 218 252 286
#     4   9  17  30  47  65  90 126 163 198 240 285
#     4  10  21  35  50  70  95 124 159 197 237 288
#     4   8  15  28  46  71  98 125 155 191 236 286
#     4   9  17  29  47  68  95 130 168 209 250 285
#     4  10  21  33  45  65  95 131 168 206 248 288
#     4  10  20  34  54  79 101 123 150 186 234 293
#     4  10  18  28  43  65  92 125 167 208 243 281
#
# _framework density 17.197558999999998
#
# number of rings (size 3 to 8) (size 9 to 14) (size 15 to 20)
#    0.000    2.500    1.250    2.250    0.000    6.500 
#    0.000    0.000    0.000    0.000    0.000    0.875 
#    0.000    0.000    0.000    0.000    0.000    0.000 
#
# Total GULP energy -396698.157116 kJ/mol
# GULP energy per Si atom -12396.817410 kJ/mol
# Density = 1.715842 g / cm^3
# Si number density = 17.197559 Si / 1000 Ang^3
#
#
#
# Elastic Constant Matrix: (Units=GPa)
#
#
# Indices 1 2 3 4 5 6 
#
# 1 51.5652 37.3060 39.2734 0.0000 -13.6249 0.0000
# 2 37.3060 101.4821 53.0367 0.0000 -3.5386 0.0000
# 3 39.2734 53.0367 132.4285 0.0000 -7.1033 0.0000
# 4 0.0000 0.0000 0.0000 25.3247 0.0000 -1.8814
# 5 -13.6249 -3.5386 -7.1033 0.0000 18.8126 0.0000
# 6 0.0000 0.0000 0.0000 -1.8814 0.0000 22.8492
#
#
#
# Elastic Compliance Matrix: (Units=1/GPa)
#
#
# Indices 1 2 3 4 5 6 
#
# 1 0.036837 -0.009710 -0.005821 0.000000 0.022654 0.000000
# 2 -0.009710 0.015026 -0.003433 0.000000 -0.005502 0.000000
# 3 -0.005821 -0.003433 0.010606 0.000000 -0.000856 0.000000
# 4 0.000000 0.000000 0.000000 0.039730 0.000000 0.003271
# 5 0.022654 -0.005502 -0.000856 0.000000 0.068205 0.000000
# 6 0.000000 0.000000 0.000000 0.003271 0.000000 0.044035
#
#
# Mechanical properties :
#
#
# Convention : Reuss Voigt Hill
#
# Bulk Modulus (GPa) = 40.74683 60.52311 50.63497
# Shear Modulus (GPa) = 19.19046 23.78795 21.48920
#
# Velocity S-wave (km/s) = 3.34411 3.72320 3.53873
# Velocity P-wave (km/s) = 6.21736 7.33159 6.79734
#
# Compressibility (1/GPa) = 0.02454179
#
# Stress axis : x y z
#
# Youngs Moduli (GPa) = 27.14696 66.55216 94.28184
#
# Poissons Ratio (x) = 0.64620 0.54877
# Poissons Ratio (y) = 0.26359 0.32370
# Poissons Ratio (z) = 0.15801 0.22850
#
# Static dielectric constant tensor:
#      x y z
#    x 2.861290 0.000000 -0.166420 
#    y 0.000000 3.413550 0.000000 
#    z -0.166420 0.000000 3.559180 
# 
# 
# High freq. dielectric constant tensor:
#      x y z
#    x 1.616470 0.000000 -0.011360 
#    y 0.000000 1.672500 0.000000 
#    z -0.011360 0.000000 1.667680 
# 
# From -- ./inp_files/51354.got.cif
#   From: 2010.06.25/outbox.cif.g09.slc.cpg/sg11_26_cif.got.tgz:51354.got - 2010.06.27 23:14:04.
