data_PCOD8068919
_publ_section_title
;
Structure prediction by ZEFSAII (Michael W. Deem and Ramdas Pophale) SiO2 
 PCOD8068919
Probable space group: P 21/M
;
_chemical_formula_sum "Si O2"
_cell_formula_units_Z 28
_cell_length_a 13.600621
_cell_length_b 8.456002
_cell_length_c 13.937380
_cell_angle_alpha 90.000000
_cell_angle_beta 58.318684
_cell_angle_gamma 90.000000
_cell_volume 1364.035096
_symmetry_space_group_name_H-M "P 21/M"
_symmetry_group_IT_number 11
_symmetry_cell_setting 'monoclinic'
loop_
_space_group_symop_operation_xyz
x,y,z
-x,1/2+y,-z
-x,-y,-z
x,1/2-y,z
loop_
_atom_site_type_symbol
_atom_site_label
_atom_site_fract_x
_atom_site_fract_y
_atom_site_fract_z
Si Si1 0.260370 0.935935 0.955233
Si Si2 0.352980 0.434197 0.628136
Si Si3 0.061010 0.562619 0.180975
Si Si4 0.520121 0.434137 0.256527
Si Si5 0.687544 0.434102 0.548510
Si Si6 0.140929 0.935634 0.824161
Si Si7 0.943054 0.564049 0.433963
O O1 0.273486 0.750000 0.940833
O O2 0.392166 0.000558 0.872350
O O3 0.177083 0.992476 0.911566
O O4 0.196223 0.983589 0.088234
O O5 0.385824 0.250000 0.621568
O O6 0.414893 0.539494 0.676210
O O7 0.383905 0.497910 0.506176
O O8 0.215839 0.464544 0.708514
O O9 0.045706 0.750000 0.182639
O O10 0.990130 0.483069 0.130686
O O11 0.017765 0.496240 0.305697
O O12 0.492004 0.250000 0.257744
O O13 0.398065 0.528469 0.317666
O O14 0.710287 0.250000 0.526917
O O15 0.809647 0.517517 0.499006
O O16 0.160857 0.750000 0.797935
O O17 0.952633 0.750000 0.428913
O O18 0.000000 0.500000 0.500000
#
# Coordination Sequence:
#
# PCOD8068919 Si02
#       7
#     4   4   4   4   4   4   4
#     4   8  17  32  51  79 113 149 185 223 267 326
#     4  11  20  32  50  77 113 152 192 229 272 328
#     4  10  19  34  56  79 108 145 185 228 279 333
#     4  10  20  35  54  80 115 151 188 225 271 330
#     4  12  23  37  57  80 111 146 186 233 282 333
#     4  10  18  29  48  77 113 150 186 225 271 326
#     4  11  24  41  62  86 111 142 185 237 290 337
#
# _framework density 20.527332000000001
#
# number of rings (size 3 to 8) (size 9 to 14) (size 15 to 20)
#    0.000    1.714    1.429    5.571    0.000    0.571 
#    0.000    3.571    0.000    0.857    0.000    0.000 
#    0.000    0.000    0.000    0.000    0.000    0.000 
#
# Total GULP energy -346975.701563 kJ/mol
# GULP energy per Si atom -12391.989342 kJ/mol
# Density = 2.048061 g / cm^3
# Si number density = 20.527332 Si / 1000 Ang^3
#
#
#
# Elastic Constant Matrix: (Units=GPa)
#
#
# Indices 1 2 3 4 5 6 
#
# 1 40.5747 -1.4233 46.9164 0.0000 -6.6823 0.0000
# 2 -1.4233 48.4238 14.3531 0.0000 -0.0182 0.0000
# 3 46.9164 14.3531 162.0254 0.0000 -34.9959 0.0000
# 4 0.0000 0.0000 0.0000 18.5910 0.0000 -4.4115
# 5 -6.6823 -0.0182 -34.9959 0.0000 26.3856 0.0000
# 6 0.0000 0.0000 0.0000 -4.4115 0.0000 26.9842
#
#
#
# Elastic Compliance Matrix: (Units=1/GPa)
#
#
# Indices 1 2 3 4 5 6 
#
# 1 0.039143 0.005156 -0.013523 0.000000 -0.008019 0.000000
# 2 0.005156 0.022116 -0.004438 0.000000 -0.004566 0.000000
# 3 -0.013523 -0.004438 0.013651 0.000000 0.014678 0.000000
# 4 0.000000 0.000000 0.000000 0.055960 0.000000 0.009149
# 5 -0.008019 -0.004566 0.014678 0.000000 0.055333 0.000000
# 6 0.000000 0.000000 0.000000 0.009149 0.000000 0.038554
#
#
# Mechanical properties :
#
#
# Convention : Reuss Voigt Hill
#
# Bulk Modulus (GPa) = 20.28431 41.19072 30.73751
# Shear Modulus (GPa) = 18.74047 27.13733 22.93890
#
# Velocity S-wave (km/s) = 3.02479 3.63989 3.34650
# Velocity P-wave (km/s) = 4.70130 6.14613 5.47161
#
# Compressibility (1/GPa) = 0.04929919
#
# Stress axis : x y z
#
# Youngs Moduli (GPa) = 25.54751 45.21539 73.25416
#
# Poissons Ratio (x) = -0.23312 0.99062
# Poissons Ratio (y) = -0.13172 0.32512
# Poissons Ratio (z) = 0.34548 0.20068
#
# Static dielectric constant tensor:
#      x y z
#    x 3.417370 0.000000 -0.424640 
#    y 0.000000 3.501220 0.000000 
#    z -0.424640 0.000000 4.382910 
# 
# 
# High freq. dielectric constant tensor:
#      x y z
#    x 1.756450 0.000000 -0.039300 
#    y 0.000000 1.789750 0.000000 
#    z -0.039300 0.000000 1.819730 
# 
# From -- ./inp_files/49154.got.cif
#   From: 2010.06.25/outbox.cif.g09.slc.cpg/sg11_25_cif.got.tgz:49154.got - 2010.06.27 23:14:04.
