data_PCOD8068007
_publ_section_title
;
Structure prediction by ZEFSAII (Michael W. Deem and Ramdas Pophale) SiO2 
 PCOD8068007
Probable space group: P 2/M
;
_chemical_formula_sum "Si O2"
_cell_formula_units_Z 32
_cell_length_a 28.147836
_cell_length_b 9.568093
_cell_length_c 21.745566
_cell_angle_alpha 90.000000
_cell_angle_beta 161.174544
_cell_angle_gamma 90.000000
_cell_volume 1889.824947
_symmetry_space_group_name_H-M "P 2/M"
_symmetry_group_IT_number 10
_symmetry_cell_setting 'monoclinic'
loop_
_space_group_symop_operation_xyz
x,y,z
-x,y,-z
-x,-y,-z
x,-y,z
loop_
_atom_site_type_symbol
_atom_site_label
_atom_site_fract_x
_atom_site_fract_y
_atom_site_fract_z
Si Si1 0.850349 0.166365 0.191880
Si Si2 0.332692 0.166359 0.674230
Si Si3 0.042195 0.336957 0.983019
Si Si4 0.905685 0.840950 0.712562
Si Si5 0.791914 0.840953 0.985031
Si Si6 0.820726 0.166870 0.391440
Si Si7 0.339449 0.336946 0.280277
Si Si8 0.337209 0.166795 0.924405
O O1 0.784628 0.215432 0.045925
O O2 0.747006 0.225122 0.119125
O O3 0.013658 0.225994 0.403294
O O4 0.857596 0.000000 0.201387
O O5 0.237961 0.215437 0.499264
O O6 0.265572 0.226008 0.655202
O O7 0.329958 0.000000 0.673751
O O8 0.497210 0.225137 0.869349
O O9 0.012142 0.500000 0.936714
O O10 0.212958 0.300480 0.175918
O O11 0.000000 0.289761 0.000000
O O12 0.931390 0.255000 0.803052
O O13 0.039432 0.831125 0.828858
O O14 0.884534 0.000000 0.709505
O O15 0.734579 0.000000 0.909601
O O16 0.688071 0.744965 0.816415
O O17 0.741732 0.224364 0.233453
O O18 0.820469 0.000000 0.390922
O O19 0.500000 0.289747 0.500000
O O20 0.337046 0.500000 0.261642
O O21 0.336726 0.000000 0.923443
#
# Coordination Sequence:
#
# PCOD8068007 Si02
#       8
#     4   4   4   4   4   4   4   4
#     4   9  15  24  36  54  82 114 145 177 215 254
#     4   9  15  24  36  54  82 114 145 177 215 254
#     4   9  18  33  51  69  89 113 144 181 217 256
#     4   9  16  28  46  65  89 120 148 176 214 262
#     4   9  16  28  46  65  89 120 148 176 214 262
#     4   9  14  22  36  52  76 115 152 176 209 259
#     4   9  18  33  51  69  89 113 144 181 217 256
#     4   9  16  22  32  54  84 113 144 182 217 251
#
# _framework density 16.932786
#
# number of rings (size 3 to 8) (size 9 to 14) (size 15 to 20)
#    0.000    3.000    1.250    0.750    0.000    3.500 
#    2.250    0.000    0.000    0.000    0.000    0.000 
#    0.000    6.000    0.000    0.000    0.000    0.000 
#
# Total GULP energy -396716.599733 kJ/mol
# GULP energy per Si atom -12397.393742 kJ/mol
# Density = 1.689425 g / cm^3
# Si number density = 16.932786 Si / 1000 Ang^3
#
#
#
# Elastic Constant Matrix: (Units=GPa)
#
#
# Indices 1 2 3 4 5 6 
#
# 1 159.3216 30.8988 92.8011 0.0000 -11.7205 0.0000
# 2 30.8988 22.5947 32.2753 0.0000 -8.9859 0.0000
# 3 92.8011 32.2753 162.7982 0.0000 -11.1196 0.0000
# 4 0.0000 0.0000 0.0000 4.0447 0.0000 5.1295
# 5 -11.7205 -8.9859 -11.1196 0.0000 30.2679 0.0000
# 6 0.0000 0.0000 0.0000 5.1295 0.0000 4.8126
#
#
#
# Elastic Compliance Matrix: (Units=1/GPa)
#
#
# Indices 1 2 3 4 5 6 
#
# 1 0.010334 -0.007952 -0.004310 0.000000 0.000057 0.000000
# 2 -0.007952 0.074436 -0.009155 0.000000 0.015656 0.000000
# 3 -0.004310 -0.009155 0.010375 0.000000 -0.000575 0.000000
# 4 0.000000 0.000000 0.000000 -0.702977 0.000000 0.749259
# 5 0.000057 0.015656 -0.000575 0.000000 0.037497 0.000000
# 6 0.000000 0.000000 0.000000 0.749259 0.000000 -0.590802
#
#
# Mechanical properties :
#
#
# Convention : Reuss Voigt Hill
#
# Bulk Modulus (GPa) = 19.11641 72.96278 46.03959
# Shear Modulus (GPa) = -4.54188 20.40766 7.93289
#
# Velocity S-wave (km/s) = -1.63955 3.47539 2.16682
# Velocity P-wave (km/s) = 2.78027 7.69985 5.78868
#
# Compressibility (1/GPa) = 0.05231108
#
# Stress axis : x y z
#
# Youngs Moduli (GPa) = 96.77216 13.43431 96.38338
#
# Poissons Ratio (x) = 0.10683 0.41543
# Poissons Ratio (y) = 0.76951 0.88239
# Poissons Ratio (z) = 0.41710 0.12299
#
# Static dielectric constant tensor:
#      x y z
#    x 3.301270 0.000000 0.008930 
#    y 0.000000 2.639630 0.000000 
#    z 0.008930 0.000000 3.299900 
# 
# 
# High freq. dielectric constant tensor:
#      x y z
#    x 1.658450 0.000000 -0.005640 
#    y 0.000000 1.588920 0.000000 
#    z -0.005640 0.000000 1.659310 
# 
# From -- ./inp_files/86945.got.cif
#   From: 2010.06.25/outbox.cif.g09.slc.cpg/sg10_44_cif.got.tgz:86945.got - 2010.06.27 22:07:45.
