data_PCOD8068281
_publ_section_title
;
Structure prediction by ZEFSAII (Michael W. Deem and Ramdas Pophale) SiO2 
 PCOD8068281
Probable space group: P 21/M
;
_chemical_formula_sum "Si O2"
_cell_formula_units_Z 32
_cell_length_a 23.878326
_cell_length_b 8.842166
_cell_length_c 20.722493
_cell_angle_alpha 90.000000
_cell_angle_beta 23.637909
_cell_angle_gamma 90.000000
_cell_volume 1754.286175
_symmetry_space_group_name_H-M "P 21/M"
_symmetry_group_IT_number 11
_symmetry_cell_setting 'monoclinic'
loop_
_space_group_symop_operation_xyz
x,y,z
-x,1/2+y,-z
-x,-y,-z
x,1/2-y,z
loop_
_atom_site_type_symbol
_atom_site_label
_atom_site_fract_x
_atom_site_fract_y
_atom_site_fract_z
Si Si1 0.576506 0.071770 0.149710
Si Si2 0.144029 0.927956 0.369759
Si Si3 0.973223 0.072806 0.377190
Si Si4 0.944740 0.071671 0.265049
Si Si5 0.486453 0.928150 0.583787
Si Si6 0.225323 0.924436 0.943454
Si Si7 0.649910 0.070705 0.524795
Si Si8 0.734901 0.570681 0.872528
O O1 0.550836 0.250000 0.172717
O O2 0.437500 0.993634 0.323027
O O3 0.704653 0.032549 0.062205
O O4 0.607695 0.002562 0.046548
O O5 0.144484 0.750000 0.354949
O O6 0.151529 0.960520 0.439285
O O7 0.268406 0.008104 0.197972
O O8 0.000000 0.000000 0.500000
O O9 0.992500 0.250000 0.348700
O O10 0.937225 0.000605 0.345576
O O11 0.121540 0.010962 0.246589
O O12 0.949287 0.250000 0.265028
O O13 0.809998 0.020679 0.366868
O O14 0.083944 0.017360 0.081790
O O15 0.511963 0.750000 0.554041
O O16 0.500000 0.000000 0.500000
O O17 0.603567 0.999135 0.506214
O O18 0.332664 0.966169 0.773128
O O19 0.185198 0.750000 0.983732
O O20 0.630934 0.250000 0.541968
O O21 0.718801 0.750000 0.888694
#
# Coordination Sequence:
#
# PCOD8068281 Si02
#       8
#     4   4   4   4   4   4   4   4
#     4  10  19  32  50  74 103 136 176 221 266 311
#     4   9  16  26  40  63  97 132 170 216 267 317
#     4   8  15  27  44  68  98 133 168 210 262 309
#     4  10  19  33  53  78 107 139 175 212 255 311
#     4  10  21  39  61  84 110 139 175 212 252 301
#     4   9  19  33  52  80 107 133 168 213 257 301
#     4  10  21  35  54  80 109 140 173 210 255 307
#     4  10  17  27  46  70  98 131 172 221 272 317
#
# _framework density 18.241038
#
# number of rings (size 3 to 8) (size 9 to 14) (size 15 to 20)
#    0.000    2.500    1.250    3.375    0.000    3.500 
#    0.000    1.250    0.000    0.750    0.000    0.000 
#    0.000    0.000    0.000    0.000    0.000    0.000 
#
# Total GULP energy -396662.768989 kJ/mol
# GULP energy per Si atom -12395.711531 kJ/mol
# Density = 1.819952 g / cm^3
# Si number density = 18.241038 Si / 1000 Ang^3
#
#
#
# Elastic Constant Matrix: (Units=GPa)
#
#
# Indices 1 2 3 4 5 6 
#
# 1 81.1478 37.5283 59.5871 0.0000 12.4941 0.0000
# 2 37.5283 73.4445 42.4157 0.0000 2.0488 0.0000
# 3 59.5871 42.4157 106.3602 0.0000 4.2019 0.0000
# 4 0.0000 0.0000 0.0000 31.7328 0.0000 7.2164
# 5 12.4941 2.0488 4.2019 0.0000 32.7092 0.0000
# 6 0.0000 0.0000 0.0000 7.2164 0.0000 24.3251
#
#
#
# Elastic Compliance Matrix: (Units=1/GPa)
#
#
# Indices 1 2 3 4 5 6 
#
# 1 0.024208 -0.005845 -0.010936 0.000000 -0.007476 0.000000
# 2 -0.005845 0.019103 -0.004407 0.000000 0.001602 0.000000
# 3 -0.010936 -0.004407 0.017197 0.000000 0.002244 0.000000
# 4 0.000000 0.000000 0.000000 0.033793 0.000000 -0.010025
# 5 -0.007476 0.001602 0.002244 0.000000 0.033039 0.000000
# 6 0.000000 0.000000 0.000000 -0.010025 0.000000 0.044084
#
#
# Mechanical properties :
#
#
# Convention : Reuss Voigt Hill
#
# Bulk Modulus (GPa) = 55.14962 60.00164 57.57563
# Shear Modulus (GPa) = 22.74353 25.84819 24.29586
#
# Velocity S-wave (km/s) = 3.53488 3.76844 3.65353
# Velocity P-wave (km/s) = 6.85274 7.20416 7.03065
#
# Compressibility (1/GPa) = 0.01813249
#
# Stress axis : x y z
#
# Youngs Moduli (GPa) = 41.30949 52.34851 58.14913
#
# Poissons Ratio (x) = 0.30600 0.63589
# Poissons Ratio (y) = 0.24147 0.25624
# Poissons Ratio (z) = 0.45174 0.23067
#
# Static dielectric constant tensor:
#      x y z
#    x 3.401350 0.000000 0.235210 
#    y 0.000000 3.302440 0.000000 
#    z 0.235210 0.000000 3.355590 
# 
# 
# High freq. dielectric constant tensor:
#      x y z
#    x 1.685400 0.000000 0.025400 
#    y 0.000000 1.706150 0.000000 
#    z 0.025400 0.000000 1.697330 
# 
# From -- ./inp_files/70333.got.cif
#   From: 2010.06.25/outbox.cif.g09.slc.cpg/sg11_36_cif.got.tgz:70333.got - 2010.06.27 23:14:04.
