data_PCOD8068360
_publ_section_title
;
Structure prediction by ZEFSAII (Michael W. Deem and Ramdas Pophale) SiO2 
 PCOD8068360
Probable space group: P 21/M
;
_chemical_formula_sum "Si O2"
_cell_formula_units_Z 24
_cell_length_a 11.879659
_cell_length_b 13.312757
_cell_length_c 9.627624
_cell_angle_alpha 90.000000
_cell_angle_beta 118.044045
_cell_angle_gamma 90.000000
_cell_volume 1343.842428
_symmetry_space_group_name_H-M "P 21/M"
_symmetry_group_IT_number 11
_symmetry_cell_setting 'monoclinic'
loop_
_space_group_symop_operation_xyz
x,y,z
-x,1/2+y,-z
-x,-y,-z
x,1/2-y,z
loop_
_atom_site_type_symbol
_atom_site_label
_atom_site_fract_x
_atom_site_fract_y
_atom_site_fract_z
Si Si1 0.307615 0.980377 0.934132
Si Si2 0.982284 0.134851 0.605331
Si Si3 0.492676 0.867518 0.869228
Si Si4 0.859963 0.863892 0.578783
Si Si5 0.960161 0.025460 0.130857
Si Si6 0.272741 0.534390 0.610234
O O1 0.372225 0.075424 0.048371
O O2 0.188907 0.940654 0.956994
O O3 0.251720 0.013458 0.751761
O O4 0.413362 0.892461 0.966190
O O5 0.004035 0.250000 0.657637
O O6 0.058673 0.107120 0.510046
O O7 0.026163 0.071481 0.763277
O O8 0.833582 0.117133 0.486470
O O9 0.518607 0.750000 0.870323
O O10 0.410523 0.909223 0.688989
O O11 0.810797 0.750000 0.553581
O O12 0.738631 0.940442 0.504711
O O13 0.950052 0.884019 0.763532
O O14 0.000000 0.000000 0.000000
#
# Coordination Sequence:
#
# PCOD8068360 Si02
#       6
#     4   4   4   4   4   4
#     4   9  18  31  46  78 105 130 174 206 257 307
#     4  10  17  29  52  74  96 132 177 217 250 292
#     4   9  17  30  51  75 102 132 168 222 262 289
#     4  10  18  31  53  74 100 136 173 216 255 294
#     4  11  21  34  49  74 115 142 162 202 256 320
#     4   9  15  30  48  75  98 121 167 216 254 295
#
# _framework density 17.859235999999999
#
# number of rings (size 3 to 8) (size 9 to 14) (size 15 to 20)
#    1.000    1.333    3.333    1.500    0.000    2.667 
#    0.000    0.000    0.000    4.000    0.000    2.333 
#    0.000    0.000    0.000    0.000    0.000    0.000 
#
# Total GULP energy -297323.166987 kJ/mol
# GULP energy per Si atom -12388.465291 kJ/mol
# Density = 1.781859 g / cm^3
# Si number density = 17.859236 Si / 1000 Ang^3
#
#
#
# Elastic Constant Matrix: (Units=GPa)
#
#
# Indices 1 2 3 4 5 6 
#
# 1 36.8011 -0.8557 21.0262 0.0000 5.6394 0.0000
# 2 -0.8557 85.5721 21.7653 0.0000 8.5506 0.0000
# 3 21.0262 21.7653 66.1438 0.0000 -1.0544 0.0000
# 4 0.0000 0.0000 0.0000 21.1995 0.0000 6.2457
# 5 5.6394 8.5506 -1.0544 0.0000 22.2235 0.0000
# 6 0.0000 0.0000 0.0000 6.2457 0.0000 13.0086
#
#
#
# Elastic Compliance Matrix: (Units=1/GPa)
#
#
# Indices 1 2 3 4 5 6 
#
# 1 0.036862 0.005008 -0.013556 0.000000 -0.011924 0.000000
# 2 0.005008 0.014041 -0.006324 0.000000 -0.006973 0.000000
# 3 -0.013556 -0.006324 0.021619 0.000000 0.006899 0.000000
# 4 0.000000 0.000000 0.000000 0.054943 0.000000 -0.026379
# 5 -0.011924 -0.006973 0.006899 0.000000 0.051034 0.000000
# 6 0.000000 0.000000 0.000000 -0.026379 0.000000 0.089537
#
#
# Mechanical properties :
#
#
# Convention : Reuss Voigt Hill
#
# Bulk Modulus (GPa) = 23.37597 30.26538 26.82067
# Shear Modulus (GPa) = 16.02369 21.05839 18.54104
#
# Velocity S-wave (km/s) = 2.99862 3.43757 3.22557
# Velocity P-wave (km/s) = 5.01062 5.72183 5.37799
#
# Compressibility (1/GPa) = 0.04277898
#
# Stress axis : x y z
#
# Youngs Moduli (GPa) = 27.12824 71.21831 46.25642
#
# Poissons Ratio (x) = -0.35666 0.62705
# Poissons Ratio (y) = -0.13586 0.29251
# Poissons Ratio (z) = 0.36775 0.45036
#
# Static dielectric constant tensor:
#      x y z
#    x 3.023440 0.000000 0.319840 
#    y 0.000000 3.130130 0.000000 
#    z 0.319840 0.000000 3.201120 
# 
# 
# High freq. dielectric constant tensor:
#      x y z
#    x 1.653980 0.000000 0.036230 
#    y 0.000000 1.685230 0.000000 
#    z 0.036230 0.000000 1.677540 
# 
# From -- ./inp_files/21753.got.cif
#   From: 2010.06.25/outbox.cif.g09.slc.cpg/sg11_11_cif.got.tgz:21753.got - 2010.06.27 23:14:04.
