data_PCOD8068300
_publ_section_title
;
Structure prediction by ZEFSAII (Michael W. Deem and Ramdas Pophale) SiO2 
 PCOD8068300
Probable space group: P 21/M
;
_chemical_formula_sum "Si O2"
_cell_formula_units_Z 32
_cell_length_a 26.807805
_cell_length_b 8.940838
_cell_length_c 14.574672
_cell_angle_alpha 90.000000
_cell_angle_beta 34.848642
_cell_angle_gamma 90.000000
_cell_volume 1996.119229
_symmetry_space_group_name_H-M "P 21/M"
_symmetry_group_IT_number 11
_symmetry_cell_setting 'monoclinic'
loop_
_space_group_symop_operation_xyz
x,y,z
-x,1/2+y,-z
-x,-y,-z
x,1/2-y,z
loop_
_atom_site_type_symbol
_atom_site_label
_atom_site_fract_x
_atom_site_fract_y
_atom_site_fract_z
Si Si1 0.903934 0.574447 0.242059
Si Si2 0.549484 0.076265 0.169880
Si Si3 0.729143 0.075012 0.230017
Si Si4 0.418968 0.929589 0.676575
Si Si5 0.584732 0.072690 0.918527
Si Si6 0.732209 0.918189 0.586615
Si Si7 0.902080 0.073283 0.051323
Si Si8 0.648573 0.583001 0.517667
O O1 0.899925 0.750000 0.227406
O O2 0.834908 0.533946 0.427698
O O3 0.879840 0.494120 0.183792
O O4 0.001098 0.525617 0.128488
O O5 0.568481 0.250000 0.147815
O O6 0.582866 0.007298 0.216002
O O7 0.448575 0.039436 0.307330
O O8 0.595486 0.014928 0.007772
O O9 0.731700 0.250000 0.214771
O O10 0.672417 0.012591 0.230235
O O11 0.829510 0.014995 0.086674
O O12 0.680121 0.037107 0.397541
O O13 0.429278 0.750000 0.657146
O O14 0.500000 0.000000 0.500000
O O15 0.570675 0.250000 0.936035
O O16 0.674978 0.030733 0.732787
O O17 0.500000 0.000000 0.000000
O O18 0.719981 0.750000 0.644097
O O19 0.706407 0.924888 0.519994
O O20 0.894816 0.250000 0.073228
O O21 0.651776 0.750000 0.469505
#
# Coordination Sequence:
#
# PCOD8068300 Si02
#       8
#     4   4   4   4   4   4   4   4
#     4   9  17  29  45  63  89 123 151 178 219 271
#     4   9  18  32  45  59  85 119 149 179 214 259
#     4  10  19  28  42  68  94 116 149 188 222 254
#     4  10  19  31  46  64  88 118 150 183 217 260
#     4  11  21  33  48  66  88 117 151 186 224 263
#     4  10  19  31  45  65  89 119 155 182 217 266
#     4   9  17  28  42  65  94 118 146 185 223 262
#     4  10  17  28  45  62  89 123 151 177 214 265
#
# _framework density 16.031106999999999
#
# number of rings (size 3 to 8) (size 9 to 14) (size 15 to 20)
#    0.000    2.250    3.750    0.375    0.000    1.000 
#    0.000    1.250    0.000    0.000    0.000    0.875 
#    0.000    0.000    0.000    0.000    0.000    0.000 
#
# Total GULP energy -396465.094358 kJ/mol
# GULP energy per Si atom -12389.534199 kJ/mol
# Density = 1.599462 g / cm^3
# Si number density = 16.031107 Si / 1000 Ang^3
#
#
#
# Elastic Constant Matrix: (Units=GPa)
#
#
# Indices 1 2 3 4 5 6 
#
# 1 101.7167 23.4883 54.6918 0.0000 -2.7266 0.0000
# 2 23.4883 21.1053 22.3972 0.0000 -2.7740 0.0000
# 3 54.6918 22.3972 97.9101 0.0000 4.3682 0.0000
# 4 0.0000 0.0000 0.0000 22.6381 0.0000 0.0070
# 5 -2.7266 -2.7740 4.3682 0.0000 16.9151 0.0000
# 6 0.0000 0.0000 0.0000 0.0070 0.0000 14.0685
#
#
#
# Elastic Compliance Matrix: (Units=1/GPa)
#
#
# Indices 1 2 3 4 5 6 
#
# 1 0.015821 -0.010259 -0.006605 0.000000 0.002574 0.000000
# 2 -0.010259 0.072745 -0.011501 0.000000 0.013246 0.000000
# 3 -0.006605 -0.011501 0.016860 0.000000 -0.007305 0.000000
# 4 0.000000 0.000000 0.000000 0.044173 0.000000 -0.000022
# 5 0.002574 0.013246 -0.007305 0.000000 0.063592 0.000000
# 6 0.000000 0.000000 0.000000 -0.000022 0.000000 0.071081
#
#
# Mechanical properties :
#
#
# Convention : Reuss Voigt Hill
#
# Bulk Modulus (GPa) = 20.53614 46.87629 33.70622
# Shear Modulus (GPa) = 13.99642 18.73467 16.36555
#
# Velocity S-wave (km/s) = 2.95800 3.42225 3.19856
# Velocity P-wave (km/s) = 4.95018 6.70224 5.89171
#
# Compressibility (1/GPa) = 0.04869464
#
# Stress axis : x y z
#
# Youngs Moduli (GPa) = 63.20750 13.74672 59.31229
#
# Poissons Ratio (x) = 0.14103 0.39178
# Poissons Ratio (y) = 0.64846 0.68214
# Poissons Ratio (z) = 0.41751 0.15810
#
# Static dielectric constant tensor:
#      x y z
#    x 3.441260 0.000000 -0.207420 
#    y 0.000000 2.943140 0.000000 
#    z -0.207420 0.000000 3.184060 
# 
# 
# High freq. dielectric constant tensor:
#      x y z
#    x 1.603470 0.000000 -0.015970 
#    y 0.000000 1.601830 0.000000 
#    z -0.015970 0.000000 1.604840 
# 
# From -- ./inp_files/52924.got.cif
#   From: 2010.06.25/outbox.cif.g09.slc.cpg/sg11_27_cif.got.tgz:52924.got - 2010.06.27 23:14:04.
