data_PCOD8068647
_publ_section_title
;
Structure prediction by ZEFSAII (Michael W. Deem and Ramdas Pophale) SiO2 
 PCOD8068647
Probable space group: P 21/M
;
_chemical_formula_sum "Si O2"
_cell_formula_units_Z 32
_cell_length_a 12.241248
_cell_length_b 8.520472
_cell_length_c 23.344393
_cell_angle_alpha 90.000000
_cell_angle_beta 137.014523
_cell_angle_gamma 90.000000
_cell_volume 1660.111230
_symmetry_space_group_name_H-M "P 21/M"
_symmetry_group_IT_number 11
_symmetry_cell_setting 'monoclinic'
loop_
_space_group_symop_operation_xyz
x,y,z
-x,1/2+y,-z
-x,-y,-z
x,1/2-y,z
loop_
_atom_site_type_symbol
_atom_site_label
_atom_site_fract_x
_atom_site_fract_y
_atom_site_fract_z
Si Si1 0.881223 0.065653 0.407506
Si Si2 0.736721 0.929889 0.754686
Si Si3 0.057100 0.578426 0.078341
Si Si4 0.246561 0.078749 0.961535
Si Si5 0.027368 0.565783 0.787883
Si Si6 0.157494 0.066854 0.726904
Si Si7 0.502110 0.935225 0.850058
Si Si8 0.462857 0.067389 0.713692
O O1 0.904668 0.250000 0.409351
O O2 0.924569 0.982075 0.364177
O O3 0.699718 0.029776 0.356299
O O4 0.000000 0.000000 0.500000
O O5 0.691740 0.750000 0.727033
O O6 0.859646 0.991629 0.752827
O O7 0.824649 0.952056 0.848824
O O8 0.572984 0.028997 0.700008
O O9 0.141167 0.750000 0.101111
O O10 0.905363 0.608595 0.058423
O O11 0.000000 0.500000 0.000000
O O12 0.303948 0.250000 0.959860
O O13 0.188666 0.969733 0.886710
O O14 0.385389 0.001522 0.054641
O O15 0.020181 0.750000 0.774699
O O16 0.035709 0.474933 0.731166
O O17 0.197420 0.250000 0.741803
O O18 0.320437 0.969921 0.798250
O O19 0.528673 0.750000 0.852246
O O20 0.545020 0.019361 0.806077
O O21 0.421315 0.250000 0.698545
#
# Coordination Sequence:
#
# PCOD8068647 Si02
#       8
#     4   4   4   4   4   4   4   4
#     4  11  22  40  65  92 119 142 171 211 261 319
#     4  10  20  34  51  73 103 141 184 227 271 320
#     4  10  18  28  43  65  95 133 179 229 279 326
#     4   9  19  32  46  67  98 138 184 232 277 321
#     4  10  21  36  54  75 103 144 191 232 272 319
#     4  11  22  37  57  81 110 143 180 221 270 325
#     4  10  19  33  52  75 106 143 185 233 282 325
#     4  11  21  34  55  84 114 144 180 221 273 327
#
# _framework density 19.275815000000001
#
# number of rings (size 3 to 8) (size 9 to 14) (size 15 to 20)
#    0.000    1.750    0.000    7.125    0.000    4.500 
#    0.000    0.000    0.000    0.750    0.000    0.000 
#    0.000    0.000    0.000    0.000    0.000    0.000 
#
# Total GULP energy -396623.772460 kJ/mol
# GULP energy per Si atom -12394.492889 kJ/mol
# Density = 1.923194 g / cm^3
# Si number density = 19.275815 Si / 1000 Ang^3
#
#
#
# Elastic Constant Matrix: (Units=GPa)
#
#
# Indices 1 2 3 4 5 6 
#
# 1 99.8200 22.5614 38.9843 0.0000 -7.0404 0.0000
# 2 22.5614 76.3740 13.7473 0.0000 -8.0155 0.0000
# 3 38.9843 13.7473 95.4676 0.0000 -9.4302 0.0000
# 4 0.0000 0.0000 0.0000 26.8986 0.0000 1.1545
# 5 -7.0404 -8.0155 -9.4302 0.0000 14.8799 0.0000
# 6 0.0000 0.0000 0.0000 1.1545 0.0000 26.3631
#
#
#
# Elastic Compliance Matrix: (Units=1/GPa)
#
#
# Indices 1 2 3 4 5 6 
#
# 1 0.012527 -0.002713 -0.004570 0.000000 0.001569 0.000000
# 2 -0.002713 0.014629 -0.000370 0.000000 0.006362 0.000000
# 3 -0.004570 -0.000370 0.012973 0.000000 0.005860 0.000000
# 4 0.000000 0.000000 0.000000 0.037247 0.000000 -0.001631
# 5 0.001569 0.006362 0.005860 0.000000 0.075088 0.000000
# 6 0.000000 0.000000 0.000000 -0.001631 0.000000 0.038003
#
#
# Mechanical properties :
#
#
# Convention : Reuss Voigt Hill
#
# Bulk Modulus (GPa) = 40.28544 46.91642 43.60093
# Shear Modulus (GPa) = 23.35933 26.71956 25.03945
#
# Velocity S-wave (km/s) = 3.48494 3.72717 3.60809
# Velocity P-wave (km/s) = 6.09409 6.55094 6.32664
#
# Compressibility (1/GPa) = 0.02482286
#
# Stress axis : x y z
#
# Youngs Moduli (GPa) = 79.83024 68.35591 77.08377
#
# Poissons Ratio (x) = 0.18546 0.35224
# Poissons Ratio (y) = 0.21660 0.02854
# Poissons Ratio (z) = 0.36479 0.02531
#
# Static dielectric constant tensor:
#      x y z
#    x 3.702160 0.000000 0.013300 
#    y 0.000000 3.676140 0.000000 
#    z 0.013300 0.000000 3.327000 
# 
# 
# High freq. dielectric constant tensor:
#      x y z
#    x 1.749420 0.000000 0.001610 
#    y 0.000000 1.761250 0.000000 
#    z 0.001610 0.000000 1.716010 
# 
# From -- ./inp_files/68318.got.cif
#   From: 2010.06.25/outbox.cif.g09.slc.cpg/sg11_35_cif.got.tgz:68318.got - 2010.06.27 23:14:04.
