data_PCOD8068765
_publ_section_title
;
Structure prediction by ZEFSAII (Michael W. Deem and Ramdas Pophale) SiO2 
 PCOD8068765
Probable space group: P 21/M
;
_chemical_formula_sum "Si O2"
_cell_formula_units_Z 32
_cell_length_a 16.130763
_cell_length_b 9.074418
_cell_length_c 14.455623
_cell_angle_alpha 90.000000
_cell_angle_beta 83.830803
_cell_angle_gamma 90.000000
_cell_volume 2103.721004
_symmetry_space_group_name_H-M "P 21/M"
_symmetry_group_IT_number 11
_symmetry_cell_setting 'monoclinic'
loop_
_space_group_symop_operation_xyz
x,y,z
-x,1/2+y,-z
-x,-y,-z
x,1/2-y,z
loop_
_atom_site_type_symbol
_atom_site_label
_atom_site_fract_x
_atom_site_fract_y
_atom_site_fract_z
Si Si1 0.428234 0.579381 0.954564
Si Si2 0.971095 0.584384 0.641464
Si Si3 0.557497 0.575392 0.568156
Si Si4 0.177110 0.919415 0.265777
Si Si5 0.116500 0.083268 0.545780
Si Si6 0.674490 0.077166 0.870440
Si Si7 0.528628 0.578397 0.777498
Si Si8 0.733663 0.078608 0.551147
O O1 0.443878 0.750000 0.967868
O O2 0.441226 0.541080 0.843755
O O3 0.500000 0.500000 0.000000
O O4 0.341239 0.537506 0.017835
O O5 0.992768 0.750000 0.669891
O O6 0.906788 0.515426 0.722895
O O7 0.929356 0.582855 0.546516
O O8 0.055936 0.489554 0.629527
O O9 0.500000 0.500000 0.500000
O O10 0.560005 0.750000 0.552273
O O11 0.518043 0.532319 0.672396
O O12 0.649714 0.512015 0.548467
O O13 0.149435 0.750000 0.261793
O O14 0.232612 0.972232 0.171132
O O15 0.233152 0.945048 0.349557
O O16 0.137934 0.250000 0.573540
O O17 0.200149 0.986532 0.529994
O O18 0.666790 0.250000 0.852166
O O19 0.606251 0.003877 0.813146
O O20 0.549950 0.750000 0.781933
O O21 0.718647 0.250000 0.530445
#
# Coordination Sequence:
#
# PCOD8068765 Si02
#       8
#     4   4   4   4   4   4   4   4
#     4   8  14  24  38  56  76  98 126 159 195 235
#     4   9  16  24  35  53  75 102 133 163 193 226
#     4  11  22  33  44  58  77 102 136 175 214 247
#     4   9  16  24  36  55  79 106 132 160 193 231
#     4   9  16  26  39  54  74  99 130 164 197 234
#     4   9  15  24  39  58  79 104 132 160 193 236
#     4   9  17  28  41  56  75  99 129 167 205 240
#     4  10  18  29  43  57  75 100 132 167 203 241
#
# _framework density 15.211142000000001
#
# number of rings (size 3 to 8) (size 9 to 14) (size 15 to 20)
#    0.000    2.750    1.250    1.500    0.000    4.500 
#    0.000    0.000    0.000    0.000    0.000    0.000 
#    0.000    0.000    0.000    1.125    0.000   11.250 
#
# Total GULP energy -396452.767768 kJ/mol
# GULP energy per Si atom -12389.148993 kJ/mol
# Density = 1.517652 g / cm^3
# Si number density = 15.211142 Si / 1000 Ang^3
#
#
#
# Elastic Constant Matrix: (Units=GPa)
#
#
# Indices 1 2 3 4 5 6 
#
# 1 77.3557 40.5001 57.5024 0.0000 -37.0324 0.0000
# 2 40.5001 72.7706 36.4038 0.0000 -16.3303 0.0000
# 3 57.5024 36.4038 83.0641 0.0000 -33.6960 0.0000
# 4 0.0000 0.0000 0.0000 12.5409 0.0000 -5.1606
# 5 -37.0324 -16.3303 -33.6960 0.0000 30.8720 0.0000
# 6 0.0000 0.0000 0.0000 -5.1606 0.0000 25.9654
#
#
#
# Elastic Compliance Matrix: (Units=1/GPa)
#
#
# Indices 1 2 3 4 5 6 
#
# 1 0.043208 -0.010715 -0.011646 0.000000 0.033451 0.000000
# 2 -0.010715 0.020302 -0.004195 0.000000 -0.006692 0.000000
# 3 -0.011646 -0.004195 0.027587 0.000000 0.013922 0.000000
# 4 0.000000 0.000000 0.000000 0.086841 0.000000 0.017259
# 5 0.033451 -0.006692 0.013922 0.000000 0.084174 0.000000
# 6 0.000000 0.000000 0.000000 0.017259 0.000000 0.041943
#
#
# Mechanical properties :
#
#
# Convention : Reuss Voigt Hill
#
# Bulk Modulus (GPa) = 26.32543 55.77812 41.05178
# Shear Modulus (GPa) = 13.51986 20.46129 16.99058
#
# Velocity S-wave (km/s) = 2.98453 3.67161 3.34575
# Velocity P-wave (km/s) = 5.40563 7.39751 6.47858
#
# Compressibility (1/GPa) = 0.03798608
#
# Stress axis : x y z
#
# Youngs Moduli (GPa) = 23.14396 49.25703 36.24925
#
# Poissons Ratio (x) = 0.52777 0.42214
# Poissons Ratio (y) = 0.24798 0.15206
# Poissons Ratio (z) = 0.26952 0.20663
#
# Static dielectric constant tensor:
#      x y z
#    x 2.906170 0.000000 -0.562530 
#    y 0.000000 3.049610 0.000000 
#    z -0.562530 0.000000 3.095490 
# 
# 
# High freq. dielectric constant tensor:
#      x y z
#    x 1.556760 0.000000 -0.055100 
#    y 0.000000 1.596010 0.000000 
#    z -0.055100 0.000000 1.546860 
# 
# From -- ./inp_files/51288.got.cif
#   From: 2010.06.25/outbox.cif.g09.slc.cpg/sg11_26_cif.got.tgz:51288.got - 2010.06.27 23:14:04.
