data_PCOD8068586
_publ_section_title
;
Structure prediction by ZEFSAII (Michael W. Deem and Ramdas Pophale) SiO2 
 PCOD8068586
Probable space group: P 21/M
;
_chemical_formula_sum "Si O2"
_cell_formula_units_Z 32
_cell_length_a 21.984392
_cell_length_b 20.598307
_cell_length_c 9.157999
_cell_angle_alpha 90.000000
_cell_angle_beta 149.383713
_cell_angle_gamma 90.000000
_cell_volume 2112.070333
_symmetry_space_group_name_H-M "P 21/M"
_symmetry_group_IT_number 11
_symmetry_cell_setting 'monoclinic'
loop_
_space_group_symop_operation_xyz
x,y,z
-x,1/2+y,-z
-x,-y,-z
x,1/2-y,z
loop_
_atom_site_type_symbol
_atom_site_label
_atom_site_fract_x
_atom_site_fract_y
_atom_site_fract_z
Si Si1 0.793980 0.425505 0.237208
Si Si2 0.077428 0.676870 0.310968
Si Si3 0.599163 0.072658 0.078200
Si Si4 0.108905 0.085981 0.171498
Si Si5 0.276929 0.824850 0.485103
Si Si6 0.340306 0.029614 0.554652
Si Si7 0.971346 0.974703 0.715203
Si Si8 0.213436 0.923649 0.110403
O O1 0.873126 0.365159 0.453609
O O2 0.674025 0.429901 0.084438
O O3 0.871905 0.491761 0.406582
O O4 0.754068 0.411733 0.990150
O O5 0.072338 0.750000 0.356912
O O6 0.157565 0.668298 0.332959
O O7 0.945227 0.654585 0.990731
O O8 0.617612 0.139548 0.206504
O O9 0.641943 0.012936 0.264436
O O10 0.460297 0.065310 0.750439
O O11 0.245824 0.085126 0.403057
O O12 0.096800 0.076394 0.320793
O O13 0.034768 0.028720 0.943378
O O14 0.313118 0.750000 0.532921
O O15 0.252413 0.859775 0.280508
O O16 0.289696 0.985466 0.320194
O O17 0.071189 0.936538 0.828636
#
# Coordination Sequence:
#
# PCOD8068586 Si02
#       8
#     4   4   4   4   4   4   4   4
#     4  10  18  27  43  66  95 118 139 173 220 265
#     4   9  17  29  45  64  86 113 147 182 213 254
#     4   9  17  30  45  64  87 114 148 185 215 249
#     4   9  14  26  47  63  84 112 141 181 217 247
#     4   9  17  30  46  63  85 113 147 184 216 250
#     4   9  17  29  46  64  87 114 146 181 217 254
#     4   9  15  26  42  66  90 112 138 172 219 265
#     4  10  18  27  43  68  93 116 140 171 219 274
#
# _framework density 15.151011
#
# number of rings (size 3 to 8) (size 9 to 14) (size 15 to 20)
#    0.000    2.750    2.500    0.375    0.000    1.000 
#    0.000    0.625    0.000    0.000    0.000    0.000 
#    0.000    0.000    0.000    0.000    0.000    0.000 
#
# Total GULP energy -396731.046196 kJ/mol
# GULP energy per Si atom -12397.845194 kJ/mol
# Density = 1.511653 g / cm^3
# Si number density = 15.151011 Si / 1000 Ang^3
#
#
#
# Elastic Constant Matrix: (Units=GPa)
#
#
# Indices 1 2 3 4 5 6 
#
# 1 94.9368 41.7431 52.9820 0.0000 -7.6265 0.0000
# 2 41.7431 81.1547 45.7213 0.0000 6.6279 0.0000
# 3 52.9820 45.7213 88.8007 0.0000 9.8534 0.0000
# 4 0.0000 0.0000 0.0000 14.8478 0.0000 2.0599
# 5 -7.6265 6.6279 9.8534 0.0000 26.4672 0.0000
# 6 0.0000 0.0000 0.0000 2.0599 0.0000 14.7671
#
#
#
# Elastic Compliance Matrix: (Units=1/GPa)
#
#
# Indices 1 2 3 4 5 6 
#
# 1 0.019204 -0.005105 -0.009998 0.000000 0.010534 0.000000
# 2 -0.005105 0.018743 -0.006175 0.000000 -0.003866 0.000000
# 3 -0.009998 -0.006175 0.021440 0.000000 -0.009316 0.000000
# 4 0.000000 0.000000 0.000000 0.068679 0.000000 -0.009580
# 5 0.010534 -0.003866 -0.009316 0.000000 0.045254 0.000000
# 6 0.000000 0.000000 0.000000 -0.009580 0.000000 0.069054
#
#
# Mechanical properties :
#
#
# Convention : Reuss Voigt Hill
#
# Bulk Modulus (GPa) = 59.42093 60.64277 60.03185
# Shear Modulus (GPa) = 17.20920 19.51280 18.36100
#
# Velocity S-wave (km/s) = 3.37389 3.59261 3.48496
# Velocity P-wave (km/s) = 7.38117 7.57110 7.47674
#
# Compressibility (1/GPa) = 0.01682909
#
# Stress axis : x y z
#
# Youngs Moduli (GPa) = 52.07208 53.35339 46.64249
#
# Poissons Ratio (x) = 0.27239 0.46634
# Poissons Ratio (y) = 0.26585 0.28803
# Poissons Ratio (z) = 0.52063 0.32947
#
# Static dielectric constant tensor:
#      x y z
#    x 2.787830 0.000000 0.108200 
#    y 0.000000 2.832070 0.000000 
#    z 0.108200 0.000000 2.892510 
# 
# 
# High freq. dielectric constant tensor:
#      x y z
#    x 1.572740 0.000000 0.002660 
#    y 0.000000 1.559590 0.000000 
#    z 0.002660 0.000000 1.568360 
# 
# From -- ./inp_files/14817.got.cif
#   From: 2010.06.25/outbox.cif.g09.slc.cpg/sg11_8_cif.got.tgz:14817.got - 2010.06.27 23:14:04.
