data_PCOD8068402
_publ_section_title
;
Structure prediction by ZEFSAII (Michael W. Deem and Ramdas Pophale) SiO2 
 PCOD8068402
Probable space group: P 21/M
;
_chemical_formula_sum "Si O2"
_cell_formula_units_Z 32
_cell_length_a 12.420118
_cell_length_b 19.907401
_cell_length_c 8.998413
_cell_angle_alpha 90.000000
_cell_angle_beta 130.958880
_cell_angle_gamma 90.000000
_cell_volume 1680.183898
_symmetry_space_group_name_H-M "P 21/M"
_symmetry_group_IT_number 11
_symmetry_cell_setting 'monoclinic'
loop_
_space_group_symop_operation_xyz
x,y,z
-x,1/2+y,-z
-x,-y,-z
x,1/2-y,z
loop_
_atom_site_type_symbol
_atom_site_label
_atom_site_fract_x
_atom_site_fract_y
_atom_site_fract_z
Si Si1 0.522472 0.622962 0.591537
Si Si2 0.974489 0.671244 0.950871
Si Si3 0.339570 0.328762 0.789192
Si Si4 0.232972 0.326251 0.991658
Si Si5 0.291078 0.673740 0.161040
Si Si6 0.623603 0.477105 0.317264
Si Si7 0.599112 0.414926 0.992637
Si Si8 0.241990 0.094232 0.425230
O O1 0.616201 0.668963 0.785405
O O2 0.419250 0.666717 0.393848
O O3 0.423778 0.573314 0.596903
O O4 0.636699 0.585148 0.590806
O O5 0.934435 0.750000 0.881876
O O6 0.901394 0.645284 0.037682
O O7 0.910488 0.619919 0.770593
O O8 0.142951 0.661246 0.113272
O O9 0.347802 0.250000 0.810180
O O10 0.497182 0.356132 0.956273
O O11 0.282706 0.347949 0.577681
O O12 0.245040 0.360451 0.839390
O O13 0.197656 0.250000 0.929944
O O14 0.295897 0.750000 0.101775
O O15 0.294927 0.619036 0.031372
O O16 0.487828 0.525005 0.163804
O O17 0.759528 0.521463 0.495518
O O18 0.676543 0.441683 0.212295
#
# Coordination Sequence:
#
# PCOD8068402 Si02
#       8
#     4   4   4   4   4   4   4   4
#     4  11  19  33  56  82 110 138 181 225 268 320
#     4   9  20  38  55  77 111 145 181 225 277 325
#     4  10  17  30  54  83 106 133 181 231 273 321
#     4   9  18  32  54  80 107 139 177 224 273 328
#     4  11  22  37  57  82 112 143 179 227 277 325
#     4  10  20  35  53  82 112 145 180 224 271 320
#     4  10  20  34  55  81 112 144 174 225 278 321
#     4  10  20  33  56  81 104 145 187 225 264 321
#
# _framework density 19.045534
#
# number of rings (size 3 to 8) (size 9 to 14) (size 15 to 20)
#    0.000    2.000    3.750    1.500    0.000    1.000 
#    0.000    2.500    0.000    3.000    0.000    0.000 
#    0.000    0.000    0.000    0.000    0.000    0.000 
#
# Total GULP energy -396457.234294 kJ/mol
# GULP energy per Si atom -12389.288572 kJ/mol
# Density = 1.900219 g / cm^3
# Si number density = 19.045534 Si / 1000 Ang^3
#
#
#
# Elastic Constant Matrix: (Units=GPa)
#
#
# Indices 1 2 3 4 5 6 
#
# 1 88.3292 26.4441 21.9417 0.0000 -7.4655 0.0000
# 2 26.4441 51.2122 9.6378 0.0000 -7.5071 0.0000
# 3 21.9417 9.6378 37.2139 0.0000 -12.1604 0.0000
# 4 0.0000 0.0000 0.0000 24.5217 0.0000 -4.2906
# 5 -7.4655 -7.5071 -12.1604 0.0000 31.5557 0.0000
# 6 0.0000 0.0000 0.0000 -4.2906 0.0000 25.2695
#
#
#
# Elastic Compliance Matrix: (Units=1/GPa)
#
#
# Indices 1 2 3 4 5 6 
#
# 1 0.015048 -0.006490 -0.007474 0.000000 -0.000864 0.000000
# 2 -0.006490 0.023621 -0.001094 0.000000 0.003662 0.000000
# 3 -0.007474 -0.001094 0.035350 0.000000 0.011594 0.000000
# 4 0.000000 0.000000 0.000000 0.042029 0.000000 0.007136
# 5 -0.000864 0.003662 0.011594 0.000000 0.036825 0.000000
# 6 0.000000 0.000000 0.000000 0.007136 0.000000 0.040785
#
#
# Mechanical properties :
#
#
# Convention : Reuss Voigt Hill
#
# Bulk Modulus (GPa) = 22.77764 32.53363 27.65563
# Shear Modulus (GPa) = 20.97243 24.18482 22.57863
#
# Velocity S-wave (km/s) = 3.32199 3.56735 3.44686
# Velocity P-wave (km/s) = 5.16718 5.83842 5.51302
#
# Compressibility (1/GPa) = 0.04390271
#
# Stress axis : x y z
#
# Youngs Moduli (GPa) = 66.45441 42.33574 28.28828
#
# Poissons Ratio (x) = 0.27477 0.21142
# Poissons Ratio (y) = 0.43131 0.03094
# Poissons Ratio (z) = 0.49667 0.04631
#
# Static dielectric constant tensor:
#      x y z
#    x 3.672150 0.000000 -0.466160 
#    y 0.000000 3.492750 0.000000 
#    z -0.466160 0.000000 3.558700 
# 
# 
# High freq. dielectric constant tensor:
#      x y z
#    x 1.731190 0.000000 -0.029830 
#    y 0.000000 1.734460 0.000000 
#    z -0.029830 0.000000 1.725220 
# 
# From -- ./inp_files/19184.got.cif
#   From: 2010.06.25/outbox.cif.g09.slc.cpg/sg11_10_cif.got.tgz:19184.got - 2010.06.27 23:14:04.
