data_PCOD8068991
_publ_section_title
;
Structure prediction by ZEFSAII (Michael W. Deem and Ramdas Pophale) SiO2 
 PCOD8068991
Probable space group: P 21/M
;
_chemical_formula_sum "Si O2"
_cell_formula_units_Z 32
_cell_length_a 12.919410
_cell_length_b 8.768672
_cell_length_c 17.084863
_cell_angle_alpha 90.000000
_cell_angle_beta 90.831908
_cell_angle_gamma 90.000000
_cell_volume 1935.272952
_symmetry_space_group_name_H-M "P 21/M"
_symmetry_group_IT_number 11
_symmetry_cell_setting 'monoclinic'
loop_
_space_group_symop_operation_xyz
x,y,z
-x,1/2+y,-z
-x,-y,-z
x,1/2-y,z
loop_
_atom_site_type_symbol
_atom_site_label
_atom_site_fract_x
_atom_site_fract_y
_atom_site_fract_z
Si Si1 0.295217 0.568897 0.818024
Si Si2 0.683260 0.430809 0.821679
Si Si3 0.098580 0.569458 0.906574
Si Si4 0.375742 0.430867 0.335708
Si Si5 0.387877 0.928834 0.661964
Si Si6 0.612395 0.429546 0.508309
Si Si7 0.113441 0.570505 0.084638
Si Si8 0.495517 0.930491 0.914740
O O1 0.288504 0.750000 0.815900
O O2 0.187335 0.502850 0.850092
O O3 0.317102 0.502202 0.730854
O O4 0.387518 0.517278 0.875823
O O5 0.670671 0.250000 0.824594
O O6 0.690615 0.489685 0.732889
O O7 0.787044 0.485334 0.866411
O O8 0.586858 0.507941 0.862367
O O9 0.094014 0.750000 0.901788
O O10 0.988502 0.503569 0.878071
O O11 0.125522 0.515765 0.995033
O O12 0.365447 0.250000 0.329434
O O13 0.494350 0.490763 0.330717
O O14 0.329112 0.487709 0.419030
O O15 0.397743 0.750000 0.675318
O O16 0.335533 0.963399 0.576446
O O17 0.500000 0.500000 0.500000
O O18 0.605867 0.250000 0.524373
O O19 0.100622 0.750000 0.089410
O O20 0.504430 0.750000 0.919999
O O21 0.500000 0.000000 0.000000
#
# Coordination Sequence:
#
# PCOD8068991 Si02
#       8
#     4   4   4   4   4   4   4   4
#     4   9  16  29  48  69  94 124 155 193 238 281
#     4  11  21  33  49  70  96 127 162 198 241 289
#     4   9  17  31  52  70  86 118 163 200 234 282
#     4  10  18  30  46  67  96 129 160 194 237 285
#     4   8  14  26  44  66  93 124 155 187 231 282
#     4   9  16  26  43  66  93 127 162 194 232 282
#     4   9  19  34  48  66  94 123 155 202 249 282
#     4  11  21  33  48  67  98 132 161 193 234 286
#
# _framework density 16.535135
#
# number of rings (size 3 to 8) (size 9 to 14) (size 15 to 20)
#    0.000    2.500    1.250    3.000    0.000    3.000 
#    0.000    3.750    0.000    0.000    0.000    0.875 
#    0.000    0.000    0.000    0.000    0.000    0.000 
#
# Total GULP energy -396630.947468 kJ/mol
# GULP energy per Si atom -12394.717108 kJ/mol
# Density = 1.649750 g / cm^3
# Si number density = 16.535135 Si / 1000 Ang^3
#
#
#
# Elastic Constant Matrix: (Units=GPa)
#
#
# Indices 1 2 3 4 5 6 
#
# 1 85.4497 23.3699 37.4049 0.0000 -11.0625 0.0000
# 2 23.3699 39.3855 26.0849 0.0000 0.6560 0.0000
# 3 37.4049 26.0849 113.8954 0.0000 -10.3056 0.0000
# 4 0.0000 0.0000 0.0000 26.0817 0.0000 1.4291
# 5 -11.0625 0.6560 -10.3056 0.0000 19.7978 0.0000
# 6 0.0000 0.0000 0.0000 1.4291 0.0000 20.5698
#
#
#
# Elastic Compliance Matrix: (Units=1/GPa)
#
#
# Indices 1 2 3 4 5 6 
#
# 1 0.016068 -0.007822 -0.002781 0.000000 0.007790 0.000000
# 2 -0.007822 0.034176 -0.006041 0.000000 -0.008648 0.000000
# 3 -0.002781 -0.006041 0.011496 0.000000 0.004630 0.000000
# 4 0.000000 0.000000 0.000000 0.038488 0.000000 -0.002674
# 5 0.007790 -0.008648 0.004630 0.000000 0.057560 0.000000
# 6 0.000000 0.000000 0.000000 -0.002674 0.000000 0.048801
#
#
# Mechanical properties :
#
#
# Convention : Reuss Voigt Hill
#
# Bulk Modulus (GPa) = 35.14618 45.82779 40.48699
# Shear Modulus (GPa) = 20.05136 23.41459 21.73297
#
# Velocity S-wave (km/s) = 3.48609 3.76713 3.62933
# Velocity P-wave (km/s) = 6.12416 6.83354 6.48855
#
# Compressibility (1/GPa) = 0.02845259
#
# Stress axis : x y z
#
# Youngs Moduli (GPa) = 62.23627 29.26007 86.98967
#
# Poissons Ratio (x) = 0.22888 0.24188
# Poissons Ratio (y) = 0.48683 0.52548
# Poissons Ratio (z) = 0.17305 0.17675
#
# Static dielectric constant tensor:
#      x y z
#    x 3.016300 0.000000 -0.084120 
#    y 0.000000 3.024800 0.000000 
#    z -0.084120 0.000000 3.723040 
# 
# 
# High freq. dielectric constant tensor:
#      x y z
#    x 1.599800 0.000000 -0.001900 
#    y 0.000000 1.625310 0.000000 
#    z -0.001900 0.000000 1.648880 
# 
# From -- ./inp_files/42465.got.cif
#   From: 2010.06.25/outbox.cif.g09.slc.cpg/sg11_22_cif.got.tgz:42465.got - 2010.06.27 23:14:04.
