data_PCOD8068871
_publ_section_title
;
Structure prediction by ZEFSAII (Michael W. Deem and Ramdas Pophale) SiO2 
 PCOD8068871
Probable space group: P 21/M
;
_chemical_formula_sum "Si O2"
_cell_formula_units_Z 32
_cell_length_a 15.816607
_cell_length_b 8.971439
_cell_length_c 14.654864
_cell_angle_alpha 90.000000
_cell_angle_beta 61.801889
_cell_angle_gamma 90.000000
_cell_volume 1832.695752
_symmetry_space_group_name_H-M "P 21/M"
_symmetry_group_IT_number 11
_symmetry_cell_setting 'monoclinic'
loop_
_space_group_symop_operation_xyz
x,y,z
-x,1/2+y,-z
-x,-y,-z
x,1/2-y,z
loop_
_atom_site_type_symbol
_atom_site_label
_atom_site_fract_x
_atom_site_fract_y
_atom_site_fract_z
Si Si1 0.341087 0.427021 0.935759
Si Si2 0.442708 0.574178 0.176696
Si Si3 0.093810 0.423629 0.556872
Si Si4 0.347811 0.074557 0.730496
Si Si5 0.730261 0.427169 0.855861
Si Si6 0.726069 0.925308 0.420183
Si Si7 0.104609 0.077092 0.341519
Si Si8 0.438234 0.574300 0.383608
O O1 0.330681 0.250000 0.952487
O O2 0.450010 0.482782 0.900287
O O3 0.312120 0.481545 0.848054
O O4 0.269607 0.508680 0.041789
O O5 0.444123 0.750000 0.169260
O O6 0.364884 0.508663 0.146001
O O7 0.410717 0.527374 0.294561
O O8 0.069524 0.250000 0.585082
O O9 0.177059 0.482974 0.581678
O O10 0.128022 0.451284 0.435847
O O11 0.001862 0.521842 0.627433
O O12 0.359544 0.250000 0.733914
O O13 0.273671 0.030430 0.687744
O O14 0.454096 0.014447 0.651927
O O15 0.732492 0.250000 0.857183
O O16 0.823289 0.482862 0.755940
O O17 0.718151 0.750000 0.437506
O O18 0.632501 0.994657 0.511831
O O19 0.113213 0.250000 0.311610
O O20 0.429009 0.750000 0.403066
#
# Coordination Sequence:
#
# PCOD8068871 Si02
#       8
#     4   4   4   4   4   4   4   4
#     4   9  17  32  49  65  91 128 165 193 222 267
#     4   8  16  29  45  66  95 129 159 188 225 272
#     4   9  19  34  51  72  97 121 148 188 233 275
#     4   8  16  30  47  66  93 129 161 190 226 269
#     4  11  20  30  47  71  96 122 155 195 236 271
#     4  10  18  29  47  71  96 122 154 191 233 274
#     4  10  20  34  51  71  95 123 152 183 228 285
#     4   9  16  28  45  67  96 129 161 187 219 269
#
# _framework density 17.460616999999999
#
# number of rings (size 3 to 8) (size 9 to 14) (size 15 to 20)
#    0.000    2.750    0.000    3.750    0.000    1.000 
#    0.000    4.375    0.000    0.750    0.000    0.000 
#    0.000    0.000    0.000    0.000    0.000    0.000 
#
# Total GULP energy -396680.634392 kJ/mol
# GULP energy per Si atom -12396.269825 kJ/mol
# Density = 1.742088 g / cm^3
# Si number density = 17.460617 Si / 1000 Ang^3
#
#
#
# Elastic Constant Matrix: (Units=GPa)
#
#
# Indices 1 2 3 4 5 6 
#
# 1 115.2107 30.8391 61.6407 0.0000 17.9774 0.0000
# 2 30.8391 42.0434 38.5560 0.0000 1.8471 0.0000
# 3 61.6407 38.5560 118.8912 0.0000 7.7891 0.0000
# 4 0.0000 0.0000 0.0000 26.1756 0.0000 -3.3513
# 5 17.9774 1.8471 7.7891 0.0000 20.8079 0.0000
# 6 0.0000 0.0000 0.0000 -3.3513 0.0000 18.5088
#
#
#
# Elastic Compliance Matrix: (Units=1/GPa)
#
#
# Indices 1 2 3 4 5 6 
#
# 1 0.014421 -0.005528 -0.005023 0.000000 -0.010088 0.000000
# 2 -0.005528 0.035998 -0.009135 0.000000 0.005000 0.000000
# 3 -0.005023 -0.009135 0.013983 0.000000 -0.000084 0.000000
# 4 0.000000 0.000000 0.000000 0.039110 0.000000 0.007082
# 5 -0.010088 0.005000 -0.000084 0.000000 0.056362 0.000000
# 6 0.000000 0.000000 0.000000 0.007082 0.000000 0.055310
#
#
# Mechanical properties :
#
#
# Convention : Reuss Voigt Hill
#
# Bulk Modulus (GPa) = 39.95378 59.80187 49.87782
# Shear Modulus (GPa) = 19.01847 22.77243 20.89545
#
# Velocity S-wave (km/s) = 3.30392 3.61531 3.46312
# Velocity P-wave (km/s) = 6.12261 7.19383 6.67973
#
# Compressibility (1/GPa) = 0.02502892
#
# Stress axis : x y z
#
# Youngs Moduli (GPa) = 69.34201 27.77932 71.51344
#
# Poissons Ratio (x) = 0.15358 0.35922
# Poissons Ratio (y) = 0.38335 0.65330
# Poissons Ratio (z) = 0.34831 0.25377
#
# Static dielectric constant tensor:
#      x y z
#    x 3.487740 0.000000 0.244790 
#    y 0.000000 3.003950 0.000000 
#    z 0.244790 0.000000 3.251960 
# 
# 
# High freq. dielectric constant tensor:
#      x y z
#    x 1.663280 0.000000 0.012040 
#    y 0.000000 1.652770 0.000000 
#    z 0.012040 0.000000 1.672010 
# 
# From -- ./inp_files/51618.got.cif
#   From: 2010.06.25/outbox.cif.g09.slc.cpg/sg11_26_cif.got.tgz:51618.got - 2010.06.27 23:14:04.
