data_PCOD8068540
_publ_section_title
;
Structure prediction by ZEFSAII (Michael W. Deem and Ramdas Pophale) SiO2 
 PCOD8068540
Probable space group: P 21/M
;
_chemical_formula_sum "Si O2"
_cell_formula_units_Z 32
_cell_length_a 30.489132
_cell_length_b 8.655563
_cell_length_c 15.966530
_cell_angle_alpha 90.000000
_cell_angle_beta 150.005836
_cell_angle_gamma 90.000000
_cell_volume 2106.416751
_symmetry_space_group_name_H-M "P 21/M"
_symmetry_group_IT_number 11
_symmetry_cell_setting 'monoclinic'
loop_
_space_group_symop_operation_xyz
x,y,z
-x,1/2+y,-z
-x,-y,-z
x,1/2-y,z
loop_
_atom_site_type_symbol
_atom_site_label
_atom_site_fract_x
_atom_site_fract_y
_atom_site_fract_z
Si Si1 0.027886 0.571729 0.914721
Si Si2 0.912061 0.433150 0.314967
Si Si3 0.504511 0.571356 0.097074
Si Si4 0.306556 0.431287 0.608216
Si Si5 0.837718 0.568554 0.345631
Si Si6 0.316765 0.568671 0.807869
Si Si7 0.868810 0.929528 0.771147
Si Si8 0.011451 0.431114 0.710788
O O1 0.034579 0.750000 0.899749
O O2 0.935684 0.534149 0.806522
O O3 0.035587 0.466519 0.845925
O O4 0.107440 0.529599 0.108306
O O5 0.911645 0.250000 0.312738
O O6 0.834260 0.494806 0.246232
O O7 0.909961 0.498328 0.216758
O O8 0.000000 0.500000 0.500000
O O9 0.493243 0.750000 0.063987
O O10 0.602561 0.533534 0.293966
O O11 0.500000 0.500000 0.000000
O O12 0.416778 0.520110 0.002752
O O13 0.299234 0.250000 0.619008
O O14 0.301777 0.527650 0.685804
O O15 0.227459 0.481826 0.417352
O O16 0.850419 0.750000 0.358735
O O17 0.746640 0.530447 0.239192
O O18 0.917355 0.503435 0.532814
O O19 0.297694 0.750000 0.789176
O O20 0.872915 0.750000 0.802529
O O21 0.005853 0.250000 0.686162
#
# Coordination Sequence:
#
# PCOD8068540 Si02
#       8
#     4   4   4   4   4   4   4   4
#     4  10  19  30  43  61  85 112 142 176 212 247
#     4  10  18  30  45  62  84 109 138 171 207 245
#     4   8  15  26  40  58  81 108 139 175 211 249
#     4   9  16  28  44  60  81 112 146 178 214 252
#     4  11  20  30  43  61  85 113 144 174 207 246
#     4  10  18  27  40  61  86 112 143 176 211 250
#     4   9  18  30  43  59  81 110 144 180 214 247
#     4  11  20  31  46  63  84 111 142 173 208 248
#
# _framework density 15.191677
#
# number of rings (size 3 to 8) (size 9 to 14) (size 15 to 20)
#    0.000    2.250    0.000    6.375    0.000    2.500 
#    0.000    0.000    0.000    0.000    0.000    0.000 
#    0.000    1.000    0.000    2.750    0.000    4.000 
#
# Total GULP energy -396545.467007 kJ/mol
# GULP energy per Si atom -12392.045844 kJ/mol
# Density = 1.515710 g / cm^3
# Si number density = 15.191677 Si / 1000 Ang^3
#
#
#
# Elastic Constant Matrix: (Units=GPa)
#
#
# Indices 1 2 3 4 5 6 
#
# 1 95.1265 38.3574 44.2042 0.0000 5.1067 0.0000
# 2 38.3574 87.9466 24.6368 0.0000 0.3963 0.0000
# 3 44.2042 24.6368 86.2294 0.0000 12.1576 0.0000
# 4 0.0000 0.0000 0.0000 17.4566 0.0000 -2.7919
# 5 5.1067 0.3963 12.1576 0.0000 20.7784 0.0000
# 6 0.0000 0.0000 0.0000 -2.7919 0.0000 25.1459
#
#
#
# Elastic Compliance Matrix: (Units=1/GPa)
#
#
# Indices 1 2 3 4 5 6 
#
# 1 0.015556 -0.004942 -0.006580 0.000000 0.000121 0.000000
# 2 -0.004942 0.014006 -0.001746 0.000000 0.001969 0.000000
# 3 -0.006580 -0.001746 0.016606 0.000000 -0.008066 0.000000
# 4 0.000000 0.000000 0.000000 0.058320 0.000000 0.006475
# 5 0.000121 0.001969 -0.008066 0.000000 0.052779 0.000000
# 6 0.000000 0.000000 0.000000 0.006475 0.000000 0.040487
#
#
# Mechanical properties :
#
#
# Convention : Reuss Voigt Hill
#
# Bulk Modulus (GPa) = 50.93435 53.74436 52.33936
# Shear Modulus (GPa) = 21.66057 23.48313 22.57185
#
# Velocity S-wave (km/s) = 3.78010 3.93592 3.85879
# Velocity P-wave (km/s) = 7.25622 7.49063 7.37436
#
# Compressibility (1/GPa) = 0.01963311
#
# Stress axis : x y z
#
# Youngs Moduli (GPa) = 64.28362 71.39708 60.21931
#
# Poissons Ratio (x) = 0.35285 0.39622
# Poissons Ratio (y) = 0.31769 0.10514
# Poissons Ratio (z) = 0.42296 0.12465
#
# Static dielectric constant tensor:
#      x y z
#    x 3.287090 0.000000 0.261340 
#    y 0.000000 2.994640 0.000000 
#    z 0.261340 0.000000 2.979420 
# 
# 
# High freq. dielectric constant tensor:
#      x y z
#    x 1.571330 0.000000 0.013420 
#    y 0.000000 1.597760 0.000000 
#    z 0.013420 0.000000 1.549970 
# 
# From -- ./inp_files/56486.got.cif
#   From: 2010.06.25/outbox.cif.g09.slc.cpg/sg11_29_cif.got.tgz:56486.got - 2010.06.27 23:14:04.
