data_PCOD8068081
_publ_section_title
;
Structure prediction by ZEFSAII (Michael W. Deem and Ramdas Pophale) SiO2 
 PCOD8068081
Probable space group: P 2/M
;
_chemical_formula_sum "Si O2"
_cell_formula_units_Z 28
_cell_length_a 30.000000
_cell_length_b 9.000000
_cell_length_c 30.000000
_cell_angle_alpha 90.000000
_cell_angle_beta 170.000000
_cell_angle_gamma 90.000000
_cell_volume 1406.550239
_symmetry_space_group_name_H-M "P 2/M"
_symmetry_group_IT_number 10
_symmetry_cell_setting 'monoclinic'
loop_
_space_group_symop_operation_xyz
x,y,z
-x,y,-z
-x,-y,-z
x,-y,z
loop_
_atom_site_type_symbol
_atom_site_label
_atom_site_fract_x
_atom_site_fract_y
_atom_site_fract_z
Si Si1 0.613447 0.830147 0.775630
Si Si2 0.761861 0.324846 0.738433
Si Si3 0.542691 0.825868 0.993315
Si Si4 0.922469 0.175341 0.525080
Si Si5 0.861325 0.677857 0.557415
Si Si6 0.865742 0.676071 0.739346
Si Si7 0.337387 0.829260 0.070910
O O1 0.343461 0.751891 0.498498
O O2 0.613911 0.000000 0.758488
O O3 0.637445 0.827025 0.851808
O O4 0.850215 0.740584 0.987816
O O5 0.500000 0.254624 0.500000
O O6 0.759927 0.500000 0.744267
O O7 0.782083 0.284668 0.706797
O O8 0.000000 0.254185 0.000000
O O9 0.328583 0.765971 0.748193
O O10 0.496222 0.000000 0.951242
O O11 0.500000 0.753105 0.000000
O O12 0.828024 0.788162 0.258495
O O13 0.950206 0.274119 0.596134
O O14 0.907433 0.000000 0.522211
O O15 0.853839 0.500000 0.555162
O O16 0.071456 0.746011 0.797944
O O17 0.578981 0.744297 0.287728
O O18 0.872255 0.500000 0.736637
O O19 0.330717 0.000000 0.046517
#
# Coordination Sequence:
#
# PCOD8068081 Si02
#       7
#     4   4   4   4   4   4   4
#     4  11  24  41  61  86 120 157 190 237 299 357
#     4   9  17  31  53  82 114 148 191 240 284 330
#     4   9  17  30  52  82 110 141 190 243 279 319
#     4  10  19  33  55  80 111 151 190 231 283 344
#     4  12  25  40  61  90 122 153 192 247 299 342
#     4  11  22  37  62  91 117 152 199 246 288 341
#     4  11  24  43  64  85 114 157 202 237 286 357
#
# _framework density 19.906860999999999
#
# number of rings (size 3 to 8) (size 9 to 14) (size 15 to 20)
#    0.000    1.571    0.000    5.571    0.000   10.857 
#    0.000    0.000    0.000   11.143    0.000    0.000 
#    0.000    0.000    0.000    0.000    0.000    0.000 
#
# Total GULP energy -347265.952513 kJ/mol
# GULP energy per Si atom -12402.355447 kJ/mol
# Density = 1.986155 g / cm^3
# Si number density = 19.906861 Si / 1000 Ang^3
#
#
#
# Elastic Constant Matrix: (Units=GPa)
#
#
# Indices 1 2 3 4 5 6 
#
# 1 65.0116 26.6636 7.1613 0.0000 1.3492 0.0000
# 2 26.6636 116.5674 28.2127 0.0000 1.8708 0.0000
# 3 7.1613 28.2127 117.7246 0.0000 -1.8991 0.0000
# 4 0.0000 0.0000 0.0000 26.4550 0.0000 -3.3039
# 5 1.3492 1.8708 -1.8991 0.0000 40.7042 0.0000
# 6 0.0000 0.0000 0.0000 -3.3039 0.0000 17.8081
#
#
#
# Elastic Compliance Matrix: (Units=1/GPa)
#
#
# Indices 1 2 3 4 5 6 
#
# 1 0.016982 -0.003850 -0.000117 0.000000 -0.000391 0.000000
# 2 -0.003850 0.009991 -0.002167 0.000000 -0.000433 0.000000
# 3 -0.000117 -0.002167 0.009029 0.000000 0.000525 0.000000
# 4 0.000000 0.000000 0.000000 0.038697 0.000000 0.007179
# 5 -0.000391 -0.000433 0.000525 0.000000 0.024625 0.000000
# 6 0.000000 0.000000 0.000000 0.007179 0.000000 0.057486
#
#
# Mechanical properties :
#
#
# Convention : Reuss Voigt Hill
#
# Bulk Modulus (GPa) = 42.13266 47.04210 44.58738
# Shear Modulus (GPa) = 28.25043 32.81119 30.53081
#
# Velocity S-wave (km/s) = 3.77122 4.06425 3.92047
# Velocity P-wave (km/s) = 6.33827 6.76066 6.55287
#
# Compressibility (1/GPa) = 0.02373456
#
# Stress axis : x y z
#
# Youngs Moduli (GPa) = 58.88648 100.09214 110.75044
#
# Poissons Ratio (x) = 0.38534 0.01293
# Poissons Ratio (y) = 0.22671 0.24001
# Poissons Ratio (z) = 0.00687 0.21691
#
# Static dielectric constant tensor:
#      x y z
#    x 3.712860 0.000000 0.006520 
#    y 0.000000 3.575500 0.000000 
#    z 0.006520 0.000000 4.026080 
# 
# 
# High freq. dielectric constant tensor:
#      x y z
#    x 1.789490 0.000000 0.000710 
#    y 0.000000 1.755340 0.000000 
#    z 0.000710 0.000000 1.808250 
# 
# From -- ./inp_files/96042.got.cif
#   From: 2010.06.25/outbox.ucp.g09.slc.cvg/sg10_49_cif.got.tgz:96042.got - 2010.06.28 13:37:52.
