data_PCOD8068984
_publ_section_title
;
Structure prediction by ZEFSAII (Michael W. Deem and Ramdas Pophale) SiO2 
 PCOD8068984
Probable space group: P 21/M
;
_chemical_formula_sum "Si O2"
_cell_formula_units_Z 32
_cell_length_a 14.394513
_cell_length_b 8.955866
_cell_length_c 20.490649
_cell_angle_alpha 90.000000
_cell_angle_beta 128.179978
_cell_angle_gamma 90.000000
_cell_volume 2076.457888
_symmetry_space_group_name_H-M "P 21/M"
_symmetry_group_IT_number 11
_symmetry_cell_setting 'monoclinic'
loop_
_space_group_symop_operation_xyz
x,y,z
-x,1/2+y,-z
-x,-y,-z
x,1/2-y,z
loop_
_atom_site_type_symbol
_atom_site_label
_atom_site_fract_x
_atom_site_fract_y
_atom_site_fract_z
Si Si1 0.874621 0.076154 0.452180
Si Si2 0.697069 0.422159 0.260081
Si Si3 0.625569 0.073151 0.567645
Si Si4 0.337737 0.416592 0.882142
Si Si5 0.448378 0.924627 0.329510
Si Si6 0.542654 0.072790 0.807986
Si Si7 0.384749 0.583082 0.025549
Si Si8 0.294140 0.427905 0.518052
O O1 0.887764 0.250000 0.475183
O O2 0.809000 0.053727 0.354943
O O3 0.807424 0.994881 0.481492
O O4 0.000000 0.000000 0.500000
O O5 0.663366 0.250000 0.236958
O O6 0.728006 0.487898 0.202068
O O7 0.587436 0.505363 0.244892
O O8 0.622950 0.250000 0.552977
O O9 0.647023 0.038773 0.654710
O O10 0.500000 0.000000 0.500000
O O11 0.721670 0.992875 0.562890
O O12 0.286358 0.250000 0.857967
O O13 0.476878 0.418842 0.930200
O O14 0.311903 0.482569 0.943054
O O15 0.469450 0.750000 0.335392
O O16 0.402444 0.978682 0.238126
O O17 0.579256 0.989716 0.401231
O O18 0.527206 0.250000 0.807226
O O19 0.626647 0.020263 0.904750
O O20 0.333745 0.750000 0.997719
O O21 0.283504 0.250000 0.511799
#
# Coordination Sequence:
#
# PCOD8068984 Si02
#       8
#     4   4   4   4   4   4   4   4
#     4  11  23  35  47  63  81 105 137 178 219 257
#     4  10  19  29  41  58  76  98 132 172 210 243
#     4   9  16  26  40  60  83 107 138 172 207 248
#     4   9  16  25  38  52  71 101 133 163 198 240
#     4   8  14  24  40  60  81 108 138 168 201 241
#     4   9  15  25  40  57  79 109 139 165 201 241
#     4   8  14  22  34  53  76 101 131 166 196 230
#     4  10  18  30  46  60  79 107 137 175 214 251
#
# _framework density 15.410857999999999
#
# number of rings (size 3 to 8) (size 9 to 14) (size 15 to 20)
#    0.000    2.750    1.250    3.375    0.000    4.500 
#    0.000    0.625    0.000    0.000    0.000    0.000 
#    0.000    0.000    0.000    1.125    0.000   12.250 
#
# Total GULP energy -396456.142440 kJ/mol
# GULP energy per Si atom -12389.254451 kJ/mol
# Density = 1.537578 g / cm^3
# Si number density = 15.410858 Si / 1000 Ang^3
#
#
#
# Elastic Constant Matrix: (Units=GPa)
#
#
# Indices 1 2 3 4 5 6 
#
# 1 80.0322 35.2184 52.0574 0.0000 -30.1837 0.0000
# 2 35.2184 75.6660 39.2246 0.0000 -15.9004 0.0000
# 3 52.0574 39.2246 84.2996 0.0000 -38.6113 0.0000
# 4 0.0000 0.0000 0.0000 19.7873 0.0000 -5.2222
# 5 -30.1837 -15.9004 -38.6113 0.0000 31.5918 0.0000
# 6 0.0000 0.0000 0.0000 -5.2222 0.0000 19.9441
#
#
#
# Elastic Compliance Matrix: (Units=1/GPa)
#
#
# Indices 1 2 3 4 5 6 
#
# 1 0.023530 -0.004919 -0.006994 0.000000 0.011458 0.000000
# 2 -0.004919 0.018539 -0.007877 0.000000 -0.004996 0.000000
# 3 -0.006994 -0.007877 0.034007 0.000000 0.030917 0.000000
# 4 0.000000 0.000000 0.000000 0.054289 0.000000 0.014215
# 5 0.011458 -0.004996 0.030917 0.000000 0.077872 0.000000
# 6 0.000000 0.000000 0.000000 0.014215 0.000000 0.053862
#
#
# Mechanical properties :
#
#
# Convention : Reuss Voigt Hill
#
# Bulk Modulus (GPa) = 27.39952 54.77762 41.08857
# Shear Modulus (GPa) = 15.93150 21.83114 18.88132
#
# Velocity S-wave (km/s) = 3.21874 3.76787 3.50408
# Velocity P-wave (km/s) = 5.62420 7.38587 6.56440
#
# Compressibility (1/GPa) = 0.03649699
#
# Stress axis : x y z
#
# Youngs Moduli (GPa) = 42.49944 53.94076 29.40563
#
# Poissons Ratio (x) = 0.26531 0.20566
# Poissons Ratio (y) = 0.20904 0.23163
# Poissons Ratio (z) = 0.29723 0.42489
#
# Static dielectric constant tensor:
#      x y z
#    x 2.920500 0.000000 -0.713170 
#    y 0.000000 3.069310 0.000000 
#    z -0.713170 0.000000 3.226710 
# 
# 
# High freq. dielectric constant tensor:
#      x y z
#    x 1.546660 0.000000 -0.054680 
#    y 0.000000 1.596850 0.000000 
#    z -0.054680 0.000000 1.572990 
# 
# From -- ./inp_files/64259.got.cif
#   From: 2010.06.25/outbox.cif.g09.slc.cpg/sg11_33_cif.got.tgz:64259.got - 2010.06.27 23:14:04.
