data_PCOD8068900
_publ_section_title
;
Structure prediction by ZEFSAII (Michael W. Deem and Ramdas Pophale) SiO2 
 PCOD8068900
Probable space group: P 21/M
;
_chemical_formula_sum "Si O2"
_cell_formula_units_Z 32
_cell_length_a 5.148864
_cell_length_b 16.240816
_cell_length_c 19.933532
_cell_angle_alpha 90.000000
_cell_angle_beta 95.974751
_cell_angle_gamma 90.000000
_cell_volume 1657.822181
_symmetry_space_group_name_H-M "P 21/M"
_symmetry_group_IT_number 11
_symmetry_cell_setting 'monoclinic'
loop_
_space_group_symop_operation_xyz
x,y,z
-x,1/2+y,-z
-x,-y,-z
x,1/2-y,z
loop_
_atom_site_type_symbol
_atom_site_label
_atom_site_fract_x
_atom_site_fract_y
_atom_site_fract_z
Si Si1 0.073255 0.486709 0.208834
Si Si2 0.949241 0.445276 0.934381
Si Si3 0.776488 0.348637 0.536331
Si Si4 0.732366 0.153471 0.385302
Si Si5 0.437077 0.154823 0.901805
Si Si6 0.208365 0.346427 0.303188
Si Si7 0.414799 0.082606 0.759353
Si Si8 0.307219 0.347079 0.613284
O O1 0.070197 0.491478 0.128367
O O2 0.135778 0.393392 0.232659
O O3 0.296017 0.546957 0.243662
O O4 0.792367 0.510647 0.231223
O O5 0.681532 0.395774 0.936916
O O6 0.178082 0.379453 0.930024
O O7 0.000000 0.500000 0.000000
O O8 0.780068 0.250000 0.535245
O O9 0.745458 0.384352 0.460256
O O10 0.543070 0.383584 0.575663
O O11 0.041571 0.383840 0.575648
O O12 0.689159 0.250000 0.390580
O O13 0.484118 0.118732 0.337826
O O14 0.997942 0.131914 0.354437
O O15 0.469228 0.250000 0.921790
O O16 0.415434 0.146820 0.820871
O O17 0.214398 0.250000 0.285923
O O18 0.330933 0.130485 0.691234
O O19 0.306608 0.250000 0.606726
#
# Coordination Sequence:
#
# PCOD8068900 Si02
#       8
#     4   4   4   4   4   4   4   4
#     4  10  21  36  55  77 103 138 172 209 262 320
#     4  10  21  38  60  84 117 153 180 215 271 330
#     4   9  17  28  45  71  99 129 169 214 261 311
#     4   9  17  30  50  73  96 127 170 220 266 308
#     4  10  20  36  59  87 114 146 192 228 254 307
#     4  10  19  33  54  75  95 125 173 225 264 306
#     4  10  20  34  53  76 107 142 172 212 263 314
#     4  10  18  29  48  73 101 132 170 215 257 302
#
# _framework density 19.302433000000001
#
# number of rings (size 3 to 8) (size 9 to 14) (size 15 to 20)
#    0.000    2.250    0.000    3.375    0.000    3.000 
#    0.000    5.000    0.000   16.500    0.000    0.000 
#    0.000    0.000    0.000    0.000    0.000    0.000 
#
# Total GULP energy -396844.622378 kJ/mol
# GULP energy per Si atom -12401.394449 kJ/mol
# Density = 1.925850 g / cm^3
# Si number density = 19.302433 Si / 1000 Ang^3
#
#
#
# Elastic Constant Matrix: (Units=GPa)
#
#
# Indices 1 2 3 4 5 6 
#
# 1 122.3162 21.8298 39.4180 0.0000 15.0366 0.0000
# 2 21.8298 47.9492 42.2764 0.0000 8.9469 0.0000
# 3 39.4180 42.2764 106.1847 0.0000 16.6140 0.0000
# 4 0.0000 0.0000 0.0000 22.7308 0.0000 7.2564
# 5 15.0366 8.9469 16.6140 0.0000 26.5931 0.0000
# 6 0.0000 0.0000 0.0000 7.2564 0.0000 15.0330
#
#
#
# Elastic Compliance Matrix: (Units=1/GPa)
#
#
# Indices 1 2 3 4 5 6 
#
# 1 0.009661 -0.001649 -0.002396 0.000000 -0.003411 0.000000
# 2 -0.001649 0.032654 -0.011987 0.000000 -0.002564 0.000000
# 3 -0.002396 -0.011987 0.015779 0.000000 -0.004470 0.000000
# 4 0.000000 0.000000 0.000000 0.052007 0.000000 -0.025104
# 5 -0.003411 -0.002564 -0.004470 0.000000 0.043188 0.000000
# 6 0.000000 0.000000 0.000000 -0.025104 0.000000 0.078638
#
#
# Mechanical properties :
#
#
# Convention : Reuss Voigt Hill
#
# Bulk Modulus (GPa) = 38.41924 53.72207 46.07065
# Shear Modulus (GPa) = 18.33727 24.39978 21.36852
#
# Velocity S-wave (km/s) = 3.08555 3.55924 3.33083
# Velocity P-wave (km/s) = 5.71325 6.69202 6.22191
#
# Compressibility (1/GPa) = 0.02602863
#
# Stress axis : x y z
#
# Youngs Moduli (GPa) = 103.50452 30.62424 63.37507
#
# Poissons Ratio (x) = 0.05051 0.15185
# Poissons Ratio (y) = 0.17073 0.75970
# Poissons Ratio (z) = 0.24801 0.36710
#
# Static dielectric constant tensor:
#      x y z
#    x 3.868190 0.000000 0.028840 
#    y 0.000000 3.135160 0.000000 
#    z 0.028840 0.000000 3.519950 
# 
# 
# High freq. dielectric constant tensor:
#      x y z
#    x 1.775500 0.000000 0.002290 
#    y 0.000000 1.720390 0.000000 
#    z 0.002290 0.000000 1.744970 
# 
# From -- ./inp_files/57061.got.cif
#   From: 2010.06.25/outbox.cif.g09.slc.cpg/sg11_29_cif.got.tgz:57061.got - 2010.06.27 23:14:04.
