data_PCOD8068211
_publ_section_title
;
Structure prediction by ZEFSAII (Michael W. Deem and Ramdas Pophale) SiO2 
 PCOD8068211
Probable space group: P 21/M
;
_chemical_formula_sum "Si O2"
_cell_formula_units_Z 32
_cell_length_a 29.677535
_cell_length_b 8.792616
_cell_length_c 23.698462
_cell_angle_alpha 90.000000
_cell_angle_beta 16.440079
_cell_angle_gamma 90.000000
_cell_volume 1750.135268
_symmetry_space_group_name_H-M "P 21/M"
_symmetry_group_IT_number 11
_symmetry_cell_setting 'monoclinic'
loop_
_space_group_symop_operation_xyz
x,y,z
-x,1/2+y,-z
-x,-y,-z
x,1/2-y,z
loop_
_atom_site_type_symbol
_atom_site_label
_atom_site_fract_x
_atom_site_fract_y
_atom_site_fract_z
Si Si1 0.127636 0.573083 0.221486
Si Si2 0.909830 0.570636 0.160536
Si Si3 0.564309 0.927990 0.604445
Si Si4 0.375129 0.428507 0.009134
Si Si5 0.122189 0.074358 0.394566
Si Si6 0.024203 0.570515 0.799300
Si Si7 0.659137 0.569983 0.612905
Si Si8 0.222524 0.929117 0.983081
O O1 0.172437 0.750000 0.177002
O O2 0.943414 0.539369 0.463311
O O3 0.254412 0.475426 0.104271
O O4 0.136141 0.531125 0.145753
O O5 0.937742 0.750000 0.129148
O O6 0.721891 0.531435 0.379254
O O7 0.976986 0.500703 0.137178
O O8 0.000000 0.500000 0.000000
O O9 0.540990 0.750000 0.638712
O O10 0.583859 0.990680 0.644524
O O11 0.404878 0.991288 0.766593
O O12 0.409181 0.250000 0.963702
O O13 0.542536 0.516702 0.802970
O O14 0.300303 0.476194 0.160878
O O15 0.112659 0.250000 0.392802
O O16 0.000000 0.000000 0.500000
O O17 0.037923 0.750000 0.787974
O O18 0.167618 0.505358 0.588737
O O19 0.859456 0.523764 0.967898
O O20 0.682687 0.750000 0.586165
O O21 0.212873 0.750000 0.981147
#
# Coordination Sequence:
#
# PCOD8068211 Si02
#       8
#     4   4   4   4   4   4   4   4
#     4   9  16  28  47  68  97 138 180 214 259 319
#     4  10  20  38  62  86 111 142 176 212 251 302
#     4   8  16  31  54  80 103 131 173 216 252 297
#     4  10  17  25  42  71 104 132 168 221 274 314
#     4   8  15  25  38  63  97 132 169 215 264 314
#     4  11  23  37  53  80 111 139 170 213 264 314
#     4  10  18  33  53  74  99 136 180 221 262 314
#     4  10  18  33  54  77 104 139 177 217 261 312
#
# _framework density 18.284300999999999
#
# number of rings (size 3 to 8) (size 9 to 14) (size 15 to 20)
#    0.000    2.500    1.250    3.000    0.000    1.000 
#    0.000    1.875    0.000    0.750    0.000    0.000 
#    0.000    0.000    0.000    0.000    0.000    0.000 
#
# Total GULP energy -396508.531110 kJ/mol
# GULP energy per Si atom -12390.891597 kJ/mol
# Density = 1.824269 g / cm^3
# Si number density = 18.284301 Si / 1000 Ang^3
#
#
#
# Elastic Constant Matrix: (Units=GPa)
#
#
# Indices 1 2 3 4 5 6 
#
# 1 68.3012 31.2216 53.4988 0.0000 -3.9424 0.0000
# 2 31.2216 76.6363 46.4588 0.0000 2.7604 0.0000
# 3 53.4988 46.4588 140.6248 0.0000 9.3968 0.0000
# 4 0.0000 0.0000 0.0000 28.4552 0.0000 1.7611
# 5 -3.9424 2.7604 9.3968 0.0000 30.1978 0.0000
# 6 0.0000 0.0000 0.0000 1.7611 0.0000 20.5555
#
#
#
# Elastic Compliance Matrix: (Units=1/GPa)
#
#
# Indices 1 2 3 4 5 6 
#
# 1 0.023212 -0.005098 -0.007537 0.000000 0.005842 0.000000
# 2 -0.005098 0.017437 -0.003748 0.000000 -0.001093 0.000000
# 3 -0.007537 -0.003748 0.011499 0.000000 -0.004219 0.000000
# 4 0.000000 0.000000 0.000000 0.035330 0.000000 -0.003027
# 5 0.005842 -0.001093 -0.004219 0.000000 0.035291 0.000000
# 6 0.000000 0.000000 0.000000 -0.003027 0.000000 0.048908
#
#
# Mechanical properties :
#
#
# Convention : Reuss Voigt Hill
#
# Bulk Modulus (GPa) = 51.59492 60.88008 56.23750
# Shear Modulus (GPa) = 23.70751 26.13390 24.92070
#
# Velocity S-wave (km/s) = 3.60475 3.78472 3.69583
# Velocity P-wave (km/s) = 6.75315 7.24344 7.00259
#
# Compressibility (1/GPa) = 0.01938175
#
# Stress axis : x y z
#
# Youngs Moduli (GPa) = 43.08126 57.34846 86.96646
#
# Poissons Ratio (x) = 0.29236 0.65545
# Poissons Ratio (y) = 0.21963 0.32598
# Poissons Ratio (z) = 0.32469 0.21496
#
# Static dielectric constant tensor:
#      x y z
#    x 3.098470 0.000000 0.165640 
#    y 0.000000 3.234750 0.000000 
#    z 0.165640 0.000000 3.846650 
# 
# 
# High freq. dielectric constant tensor:
#      x y z
#    x 1.666690 0.000000 0.011470 
#    y 0.000000 1.701940 0.000000 
#    z 0.011470 0.000000 1.723340 
# 
# From -- ./inp_files/67032.got.cif
#   From: 2010.06.25/outbox.cif.g09.slc.cpg/sg11_34_cif.got.tgz:67032.got - 2010.06.27 23:14:04.
