data_PCOD8068896
_publ_section_title
;
Structure prediction by ZEFSAII (Michael W. Deem and Ramdas Pophale) SiO2 
 PCOD8068896
Probable space group: P 21/M
;
_chemical_formula_sum "Si O2"
_cell_formula_units_Z 24
_cell_length_a 13.642992
_cell_length_b 9.021577
_cell_length_c 25.897066
_cell_angle_alpha 90.000000
_cell_angle_beta 154.678103
_cell_angle_gamma 90.000000
_cell_volume 1363.280742
_symmetry_space_group_name_H-M "P 21/M"
_symmetry_group_IT_number 11
_symmetry_cell_setting 'monoclinic'
loop_
_space_group_symop_operation_xyz
x,y,z
-x,1/2+y,-z
-x,-y,-z
x,1/2-y,z
loop_
_atom_site_type_symbol
_atom_site_label
_atom_site_fract_x
_atom_site_fract_y
_atom_site_fract_z
Si Si1 0.927403 0.922523 0.517492
Si Si2 0.376721 0.079545 0.988928
Si Si3 0.447517 0.919828 0.600862
Si Si4 0.098783 0.077762 0.232808
Si Si5 0.806785 0.418344 0.254959
Si Si6 0.172901 0.921742 0.369394
O O1 0.907926 0.750000 0.497499
O O2 0.121953 0.961153 0.652762
O O3 0.676184 0.978860 0.415561
O O4 0.000000 0.000000 0.500000
O O5 0.335108 0.250000 0.953675
O O6 0.534675 0.067658 0.115633
O O7 0.500000 0.000000 0.000000
O O8 0.135992 0.007383 0.889910
O O9 0.388299 0.750000 0.586035
O O10 0.722597 0.945858 0.729830
O O11 0.354536 0.961089 0.499919
O O12 0.043433 0.250000 0.214372
O O13 0.228047 0.017092 0.345080
O O14 0.890137 0.250000 0.283176
O O15 0.921713 0.530498 0.269336
O O16 0.171179 0.750000 0.353706
#
# Coordination Sequence:
#
# PCOD8068896 Si02
#       6
#     4   4   4   4   4   4
#     4  10  20  36  59  82 102 128 163 213 269 317
#     4  11  21  33  50  73 104 142 181 214 247 295
#     4   9  20  35  50  73 103 135 172 214 259 307
#     4  11  21  32  47  70 106 144 174 209 254 302
#     4   9  19  34  51  73 103 136 171 211 257 303
#     4  10  18  29  48  72 100 136 176 213 250 300
#
# _framework density 17.604592
#
# number of rings (size 3 to 8) (size 9 to 14) (size 15 to 20)
#    0.000    2.000    1.667    2.500    0.000    3.333 
#    0.000    0.000    0.000    1.000    0.000    0.000 
#    0.000    0.000    0.000    0.000    0.000    0.000 
#
# Total GULP energy -297540.354801 kJ/mol
# GULP energy per Si atom -12397.514783 kJ/mol
# Density = 1.756452 g / cm^3
# Si number density = 17.604592 Si / 1000 Ang^3
#
#
#
# Elastic Constant Matrix: (Units=GPa)
#
#
# Indices 1 2 3 4 5 6 
#
# 1 104.3656 56.7605 47.5882 0.0000 11.1867 0.0000
# 2 56.7605 104.1894 41.1856 0.0000 13.0557 0.0000
# 3 47.5882 41.1856 79.1214 0.0000 20.9288 0.0000
# 4 0.0000 0.0000 0.0000 27.1000 0.0000 2.7410
# 5 11.1867 13.0557 20.9288 0.0000 22.5277 0.0000
# 6 0.0000 0.0000 0.0000 2.7410 0.0000 29.6901
#
#
#
# Elastic Compliance Matrix: (Units=1/GPa)
#
#
# Indices 1 2 3 4 5 6 
#
# 1 0.015852 -0.006183 -0.006870 0.000000 0.002094 0.000000
# 2 -0.006183 0.014536 -0.003224 0.000000 -0.002359 0.000000
# 3 -0.006870 -0.003224 0.022608 0.000000 -0.015724 0.000000
# 4 0.000000 0.000000 0.000000 0.037248 0.000000 -0.003439
# 5 0.002094 -0.002359 -0.015724 0.000000 0.059325 0.000000
# 6 0.000000 0.000000 0.000000 -0.003439 0.000000 0.033999
#
#
# Mechanical properties :
#
#
# Convention : Reuss Voigt Hill
#
# Bulk Modulus (GPa) = 48.91581 64.30499 56.61040
# Shear Modulus (GPa) = 22.42790 25.33970 23.88380
#
# Velocity S-wave (km/s) = 3.57316 3.79803 3.68731
# Velocity P-wave (km/s) = 6.69846 7.47262 7.09611
#
# Compressibility (1/GPa) = 0.02044329
#
# Stress axis : x y z
#
# Youngs Moduli (GPa) = 63.08192 68.79393 44.23185
#
# Poissons Ratio (x) = 0.42534 0.30387
# Poissons Ratio (y) = 0.39002 0.14260
# Poissons Ratio (z) = 0.43337 0.22179
#
# Static dielectric constant tensor:
#      x y z
#    x 3.042270 0.000000 0.115500 
#    y 0.000000 3.405850 0.000000 
#    z 0.115500 0.000000 3.408220 
# 
# 
# High freq. dielectric constant tensor:
#      x y z
#    x 1.648820 0.000000 0.015170 
#    y 0.000000 1.694990 0.000000 
#    z 0.015170 0.000000 1.675770 
# 
# From -- ./inp_files/33672.got.cif
#   From: 2010.06.25/outbox.cif.g09.slc.cpg/sg11_17_cif.got.tgz:33672.got - 2010.06.27 23:14:04.
