data_PCOD8068806
_publ_section_title
;
Structure prediction by ZEFSAII (Michael W. Deem and Ramdas Pophale) SiO2 
 PCOD8068806
Probable space group: P 21/M
;
_chemical_formula_sum "Si O2"
_cell_formula_units_Z 24
_cell_length_a 12.131504
_cell_length_b 8.623113
_cell_length_c 21.804452
_cell_angle_alpha 90.000000
_cell_angle_beta 142.188192
_cell_angle_gamma 90.000000
_cell_volume 1398.407939
_symmetry_space_group_name_H-M "P 21/M"
_symmetry_group_IT_number 11
_symmetry_cell_setting 'monoclinic'
loop_
_space_group_symop_operation_xyz
x,y,z
-x,1/2+y,-z
-x,-y,-z
x,1/2-y,z
loop_
_atom_site_type_symbol
_atom_site_label
_atom_site_fract_x
_atom_site_fract_y
_atom_site_fract_z
Si Si1 0.072205 0.433507 0.968213
Si Si2 0.165616 0.427919 0.503463
Si Si3 0.506601 0.930569 0.435931
Si Si4 0.263939 0.067171 0.226381
Si Si5 0.233809 0.927901 0.660751
Si Si6 0.406207 0.931030 0.162927
O O1 0.059055 0.250000 0.959986
O O2 0.943009 0.506706 0.859368
O O3 0.280048 0.487701 0.055791
O O4 0.000000 0.500000 0.000000
O O5 0.179524 0.250000 0.532598
O O6 0.292127 0.458011 0.500925
O O7 0.227833 0.537809 0.585713
O O8 0.959772 0.466233 0.393985
O O9 0.456384 0.750000 0.414448
O O10 0.500000 0.000000 0.500000
O O11 0.362220 0.021046 0.331807
O O12 0.266270 0.250000 0.217930
O O13 0.364622 0.989244 0.213284
O O14 0.287490 0.750000 0.693146
O O15 0.386508 0.029874 0.761269
O O16 0.371219 0.750000 0.144442
#
# Coordination Sequence:
#
# PCOD8068806 Si02
#       6
#     4   4   4   4   4   4
#     4  10  18  29  45  67  95 128 161 198 241 294
#     4   9  19  33  48  68  97 129 164 204 245 290
#     4  11  22  36  52  72  98 132 170 208 246 287
#     4  11  20  32  48  69  96 129 164 204 246 292
#     4  10  18  29  48  72  97 129 164 199 244 295
#     4  11  19  29  45  70 101 132 161 197 243 296
#
# _framework density 17.162372999999999
#
# number of rings (size 3 to 8) (size 9 to 14) (size 15 to 20)
#    0.000    1.667    1.667    7.500    0.000    1.333 
#    0.000    0.000    0.000    0.000    0.000    1.167 
#    0.000    0.000    0.000    0.000    0.000    0.000 
#
# Total GULP energy -297570.161844 kJ/mol
# GULP energy per Si atom -12398.756743 kJ/mol
# Density = 1.712331 g / cm^3
# Si number density = 17.162373 Si / 1000 Ang^3
#
#
#
# Elastic Constant Matrix: (Units=GPa)
#
#
# Indices 1 2 3 4 5 6 
#
# 1 64.8899 22.6664 43.6655 0.0000 10.7260 0.0000
# 2 22.6664 107.3062 37.6200 0.0000 9.5227 0.0000
# 3 43.6655 37.6200 123.7819 0.0000 25.7212 0.0000
# 4 0.0000 0.0000 0.0000 33.6298 0.0000 3.7913
# 5 10.7260 9.5227 25.7212 0.0000 25.7027 0.0000
# 6 0.0000 0.0000 0.0000 3.7913 0.0000 19.1207
#
#
#
# Elastic Compliance Matrix: (Units=1/GPa)
#
#
# Indices 1 2 3 4 5 6 
#
# 1 0.020637 -0.001996 -0.006360 0.000000 -0.001508 0.000000
# 2 -0.001996 0.010639 -0.002378 0.000000 -0.000729 0.000000
# 3 -0.006360 -0.002378 0.013017 0.000000 -0.009492 0.000000
# 4 0.000000 0.000000 0.000000 0.030415 0.000000 -0.006031
# 5 -0.001508 -0.000729 -0.009492 0.000000 0.049304 0.000000
# 6 0.000000 0.000000 0.000000 -0.006031 0.000000 0.053495
#
#
# Mechanical properties :
#
#
# Convention : Reuss Voigt Hill
#
# Bulk Modulus (GPa) = 43.80950 55.98686 49.89818
# Shear Modulus (GPa) = 24.20328 28.49239 26.34783
#
# Velocity S-wave (km/s) = 3.75941 4.07893 3.92243
# Velocity P-wave (km/s) = 6.66529 7.40785 7.04636
#
# Compressibility (1/GPa) = 0.02282610
#
# Stress axis : x y z
#
# Youngs Moduli (GPa) = 48.45707 93.99344 76.82092
#
# Poissons Ratio (x) = 0.18757 0.48858
# Poissons Ratio (y) = 0.09670 0.18267
# Poissons Ratio (z) = 0.30819 0.22351
#
# Static dielectric constant tensor:
#      x y z
#    x 2.875840 0.000000 0.505900 
#    y 0.000000 3.354080 0.000000 
#    z 0.505900 0.000000 3.790250 
# 
# 
# High freq. dielectric constant tensor:
#      x y z
#    x 1.606250 0.000000 0.040140 
#    y 0.000000 1.682810 0.000000 
#    z 0.040140 0.000000 1.668950 
# 
# From -- ./inp_files/48828.got.cif
#   From: 2010.06.25/outbox.cif.g09.slc.cpg/sg11_25_cif.got.tgz:48828.got - 2010.06.27 23:14:04.
