data_PCOD8068933
_publ_section_title
;
Structure prediction by ZEFSAII (Michael W. Deem and Ramdas Pophale) SiO2 
 PCOD8068933
Probable space group: P 21/M
;
_chemical_formula_sum "Si O2"
_cell_formula_units_Z 28
_cell_length_a 9.551017
_cell_length_b 9.004687
_cell_length_c 28.490520
_cell_angle_alpha 90.000000
_cell_angle_beta 141.176505
_cell_angle_gamma 90.000000
_cell_volume 1536.147975
_symmetry_space_group_name_H-M "P 21/M"
_symmetry_group_IT_number 11
_symmetry_cell_setting 'monoclinic'
loop_
_space_group_symop_operation_xyz
x,y,z
-x,1/2+y,-z
-x,-y,-z
x,1/2-y,z
loop_
_atom_site_type_symbol
_atom_site_label
_atom_site_fract_x
_atom_site_fract_y
_atom_site_fract_z
Si Si1 0.315884 0.924510 0.920152
Si Si2 0.214331 0.424131 0.797834
Si Si3 0.904466 0.922186 0.406622
Si Si4 0.315856 0.421884 0.551020
Si Si5 0.562032 0.921889 0.240554
Si Si6 0.185157 0.079529 0.192613
Si Si7 0.241571 0.425645 0.314121
O O1 0.362101 0.750000 0.926855
O O2 0.077050 0.954210 0.882040
O O3 0.324748 0.997247 0.871257
O O4 0.500000 0.000000 0.000000
O O5 0.181599 0.250000 0.799274
O O6 0.382034 0.453355 0.798739
O O7 0.977504 0.495880 0.722275
O O8 0.967625 0.750000 0.416805
O O9 0.765607 0.949308 0.417513
O O10 0.757195 0.985565 0.325213
O O11 0.132949 0.015661 0.467024
O O12 0.358388 0.250000 0.551322
O O13 0.544582 0.511634 0.602682
O O14 0.540932 0.750000 0.246463
O O15 0.322016 0.991473 0.189191
O O16 0.238650 0.250000 0.198179
O O17 0.261612 0.031626 0.264574
O O18 0.219599 0.250000 0.315556
#
# Coordination Sequence:
#
# PCOD8068933 Si02
#       7
#     4   4   4   4   4   4   4
#     4  10  21  39  61  87 112 140 176 215 259 310
#     4  10  21  36  56  81 110 142 176 217 264 319
#     4   9  18  31  47  72 106 139 175 225 274 318
#     4  10  18  29  49  75 102 137 182 229 276 319
#     4  10  20  35  54  79 109 142 179 218 267 320
#     4   9  19  33  54  81 107 136 175 218 260 311
#     4  10  19  33  52  76 105 140 183 228 269 316
#
# _framework density 18.227411
#
# number of rings (size 3 to 8) (size 9 to 14) (size 15 to 20)
#    0.000    2.286    1.429    2.571    0.000    5.143 
#    0.000    1.429    0.000    0.000    0.000    0.000 
#    0.000    0.000    0.000    0.000    0.000    0.000 
#
# Total GULP energy -347262.198873 kJ/mol
# GULP energy per Si atom -12402.221388 kJ/mol
# Density = 1.818592 g / cm^3
# Si number density = 18.227411 Si / 1000 Ang^3
#
#
#
# Elastic Constant Matrix: (Units=GPa)
#
#
# Indices 1 2 3 4 5 6 
#
# 1 90.7816 54.5752 40.5737 0.0000 8.9193 0.0000
# 2 54.5752 96.0331 46.1445 0.0000 8.2870 0.0000
# 3 40.5737 46.1445 104.3151 0.0000 10.9572 0.0000
# 4 0.0000 0.0000 0.0000 34.3803 0.0000 6.3068
# 5 8.9193 8.2870 10.9572 0.0000 20.6560 0.0000
# 6 0.0000 0.0000 0.0000 6.3068 0.0000 29.0064
#
#
#
# Elastic Compliance Matrix: (Units=1/GPa)
#
#
# Indices 1 2 3 4 5 6 
#
# 1 0.017606 -0.008404 -0.002845 0.000000 -0.002722 0.000000
# 2 -0.008404 0.017342 -0.004292 0.000000 -0.001052 0.000000
# 3 -0.002845 -0.004292 0.013006 0.000000 -0.003949 0.000000
# 4 0.000000 0.000000 0.000000 0.030295 0.000000 -0.006587
# 5 -0.002722 -0.001052 -0.003949 0.000000 0.052104 0.000000
# 6 0.000000 0.000000 0.000000 -0.006587 0.000000 0.035907
#
#
# Mechanical properties :
#
#
# Convention : Reuss Voigt Hill
#
# Bulk Modulus (GPa) = 59.26509 63.74627 61.50568
# Shear Modulus (GPa) = 24.63453 26.79763 25.71608
#
# Velocity S-wave (km/s) = 3.68028 3.83846 3.76020
# Velocity P-wave (km/s) = 7.11647 7.39552 7.25733
#
# Compressibility (1/GPa) = 0.01687334
#
# Stress axis : x y z
#
# Youngs Moduli (GPa) = 56.79746 57.66286 76.88605
#
# Poissons Ratio (x) = 0.48459 0.21871
# Poissons Ratio (y) = 0.47732 0.33001
# Poissons Ratio (z) = 0.16157 0.24750
#
# Static dielectric constant tensor:
#      x y z
#    x 3.166370 0.000000 0.106570 
#    y 0.000000 3.390010 0.000000 
#    z 0.106570 0.000000 3.308930 
# 
# 
# High freq. dielectric constant tensor:
#      x y z
#    x 1.688780 0.000000 0.013080 
#    y 0.000000 1.714530 0.000000 
#    z 0.013080 0.000000 1.699760 
# 
# From -- ./inp_files/28225.got.cif
#   From: 2010.06.25/outbox.cif.g09.slc.cpg/sg11_15_cif.got.tgz:28225.got - 2010.06.27 23:14:04.
