data_PCOD8068234
_publ_section_title
;
Structure prediction by ZEFSAII (Michael W. Deem and Ramdas Pophale) SiO2 
 PCOD8068234
Probable space group: P 21/M
;
_chemical_formula_sum "Si O2"
_cell_formula_units_Z 28
_cell_length_a 17.667122
_cell_length_b 8.905690
_cell_length_c 16.561430
_cell_angle_alpha 90.000000
_cell_angle_beta 138.903880
_cell_angle_gamma 90.000000
_cell_volume 1712.816530
_symmetry_space_group_name_H-M "P 21/M"
_symmetry_group_IT_number 11
_symmetry_cell_setting 'monoclinic'
loop_
_space_group_symop_operation_xyz
x,y,z
-x,1/2+y,-z
-x,-y,-z
x,1/2-y,z
loop_
_atom_site_type_symbol
_atom_site_label
_atom_site_fract_x
_atom_site_fract_y
_atom_site_fract_z
Si Si1 0.433225 0.082737 0.833513
Si Si2 0.675931 0.417377 0.118863
Si Si3 0.822552 0.423053 0.820737
Si Si4 0.056947 0.420209 0.938585
Si Si5 0.583356 0.571832 0.631816
Si Si6 0.565856 0.428141 0.788613
Si Si7 0.233381 0.077762 0.952218
O O1 0.382771 0.250000 0.795235
O O2 0.458078 0.032449 0.761209
O O3 0.338995 0.978861 0.801895
O O4 0.554115 0.076484 0.976757
O O5 0.724889 0.250000 0.164271
O O6 0.766083 0.514516 0.138710
O O7 0.782851 0.250000 0.791750
O O8 0.713272 0.525777 0.713818
O O9 0.919622 0.451295 0.829792
O O10 0.876748 0.464683 0.950508
O O11 0.080724 0.250000 0.988806
O O12 0.104706 0.438428 0.885702
O O13 0.500000 0.500000 0.500000
O O14 0.572219 0.750000 0.621846
O O15 0.544725 0.510592 0.687699
O O16 0.576240 0.250000 0.784161
O O17 0.683667 0.485198 0.922414
O O18 0.274762 0.250000 0.983516
#
# Coordination Sequence:
#
# PCOD8068234 Si02
#       7
#     4   4   4   4   4   4   4
#     4   8  15  26  39  56  82 114 148 183 223 270
#     4   9  16  24  36  57  85 117 152 185 221 264
#     4  10  19  32  49  68  92 120 154 195 235 274
#     4   9  18  30  46  69  94 123 156 190 229 277
#     4  12  24  37  51  68  91 121 158 197 238 279
#     4  10  19  31  46  65  87 116 153 192 232 275
#     4  10  17  26  42  64  92 123 154 186 223 272
#
# _framework density 16.347342999999999
#
# number of rings (size 3 to 8) (size 9 to 14) (size 15 to 20)
#    0.000    2.286    1.429    3.857    0.000    5.143 
#    0.000    0.000    0.000    0.000    0.000    0.000 
#    0.000    1.143    0.000    3.429    0.000    4.857 
#
# Total GULP energy -347067.463231 kJ/mol
# GULP energy per Si atom -12395.266544 kJ/mol
# Density = 1.631014 g / cm^3
# Si number density = 16.347343 Si / 1000 Ang^3
#
#
#
# Elastic Constant Matrix: (Units=GPa)
#
#
# Indices 1 2 3 4 5 6 
#
# 1 154.2112 68.1512 41.9716 0.0000 -15.0689 0.0000
# 2 68.1512 120.8261 33.7537 0.0000 -7.7293 0.0000
# 3 41.9716 33.7537 48.8110 0.0000 -3.7216 0.0000
# 4 0.0000 0.0000 0.0000 19.0162 0.0000 -3.8433
# 5 -15.0689 -7.7293 -3.7216 0.0000 12.3430 0.0000
# 6 0.0000 0.0000 0.0000 -3.8433 0.0000 27.7550
#
#
#
# Elastic Compliance Matrix: (Units=1/GPa)
#
#
# Indices 1 2 3 4 5 6 
#
# 1 0.010608 -0.003791 -0.005827 0.000000 0.008820 0.000000
# 2 -0.003791 0.011850 -0.004833 0.000000 0.001335 0.000000
# 3 -0.005827 -0.004833 0.028727 0.000000 -0.001479 0.000000
# 4 0.000000 0.000000 0.000000 0.054101 0.000000 0.007491
# 5 0.008820 0.001335 -0.001479 0.000000 0.092175 0.000000
# 6 0.000000 0.000000 0.000000 0.007491 0.000000 0.037067
#
#
# Mechanical properties :
#
#
# Convention : Reuss Voigt Hill
#
# Bulk Modulus (GPa) = 44.87826 67.95569 56.41697
# Shear Modulus (GPa) = 18.45980 23.82095 21.14037
#
# Velocity S-wave (km/s) = 3.36404 3.82144 3.60001
# Velocity P-wave (km/s) = 6.52698 7.81865 7.20183
#
# Compressibility (1/GPa) = 0.02228251
#
# Stress axis : x y z
#
# Youngs Moduli (GPa) = 94.26916 84.38623 34.81007
#
# Poissons Ratio (x) = 0.31993 0.20285
# Poissons Ratio (y) = 0.35739 0.16823
# Poissons Ratio (z) = 0.54934 0.40783
#
# Static dielectric constant tensor:
#      x y z
#    x 3.662240 0.000000 -0.156190 
#    y 0.000000 3.287390 0.000000 
#    z -0.156190 0.000000 2.542190 
# 
# 
# High freq. dielectric constant tensor:
#      x y z
#    x 1.649340 0.000000 -0.013730 
#    y 0.000000 1.647170 0.000000 
#    z -0.013730 0.000000 1.547060 
# 
# From -- ./inp_files/53271.got.cif
#   From: 2010.06.25/outbox.cif.g09.slc.cpg/sg11_27_cif.got.tgz:53271.got - 2010.06.27 23:14:04.
