data_PCOD8068343
_publ_section_title
;
Structure prediction by ZEFSAII (Michael W. Deem and Ramdas Pophale) SiO2 
 PCOD8068343
Probable space group: P 21/M
;
_chemical_formula_sum "Si O2"
_cell_formula_units_Z 32
_cell_length_a 21.152175
_cell_length_b 10.312115
_cell_length_c 12.334420
_cell_angle_alpha 90.000000
_cell_angle_beta 138.648375
_cell_angle_gamma 90.000000
_cell_volume 1777.507981
_symmetry_space_group_name_H-M "P 21/M"
_symmetry_group_IT_number 11
_symmetry_cell_setting 'monoclinic'
loop_
_space_group_symop_operation_xyz
x,y,z
-x,1/2+y,-z
-x,-y,-z
x,1/2-y,z
loop_
_atom_site_type_symbol
_atom_site_label
_atom_site_fract_x
_atom_site_fract_y
_atom_site_fract_z
Si Si1 0.321309 0.896034 0.218160
Si Si2 0.673249 0.017597 0.537474
Si Si3 0.887957 0.401387 0.031874
Si Si4 0.470889 0.601896 0.246123
Si Si5 0.759877 0.104745 0.429010
Si Si6 0.861498 0.890913 0.825446
Si Si7 0.086625 0.106574 0.352547
Si Si8 0.575592 0.102684 0.055193
O O1 0.325132 0.750000 0.181607
O O2 0.342703 0.899690 0.373958
O O3 0.404123 0.965880 0.253194
O O4 0.214634 0.948655 0.052062
O O5 0.721305 0.099665 0.502528
O O6 0.571538 0.969719 0.364750
O O7 0.746454 0.902415 0.661209
O O8 0.881251 0.250000 0.986228
O O9 0.973257 0.420508 0.230193
O O10 0.906734 0.491864 0.951744
O O11 0.495147 0.750000 0.306369
O O12 0.414138 0.589350 0.060529
O O13 0.798698 0.250000 0.458856
O O14 0.677174 0.068817 0.238315
O O15 0.845022 0.003907 0.511676
O O16 0.879967 0.750000 0.904422
O O17 0.912265 0.893567 0.775445
O O18 0.116765 0.250000 0.435645
O O19 0.544121 0.250000 0.046166
O O20 0.500000 0.000000 0.000000
#
# Coordination Sequence:
#
# PCOD8068343 Si02
#       8
#     4   4   4   4   4   4   4   4
#     4   9  18  30  46  70  97 131 169 203 236 280
#     4  10  17  29  47  67 102 131 161 196 240 289
#     4   9  17  30  46  65  93 128 165 201 238 283
#     4  10  19  31  49  70  96 131 169 201 237 288
#     4  10  20  32  49  75 100 124 159 202 248 290
#     4   9  17  26  40  66  96 126 161 197 239 290
#     4   9  18  30  46  68  94 126 161 199 245 292
#     4  10  20  35  53  74  98 128 162 201 245 292
#
# _framework density 18.002732000000002
#
# number of rings (size 3 to 8) (size 9 to 14) (size 15 to 20)
#    0.000    2.500    1.250    1.500    0.000    4.500 
#    0.000    0.000    0.000    4.500    0.000    0.000 
#    0.000    0.000    0.000    0.000    0.000    0.000 
#
# Total GULP energy -396503.143217 kJ/mol
# GULP energy per Si atom -12390.723226 kJ/mol
# Density = 1.796176 g / cm^3
# Si number density = 18.002732 Si / 1000 Ang^3
#
#
#
# Elastic Constant Matrix: (Units=GPa)
#
#
# Indices 1 2 3 4 5 6 
#
# 1 37.6903 4.1556 24.4232 0.0000 6.9287 0.0000
# 2 4.1556 86.1220 46.3941 0.0000 14.6479 0.0000
# 3 24.4232 46.3941 110.2125 0.0000 17.7378 0.0000
# 4 0.0000 0.0000 0.0000 28.9473 0.0000 3.1847
# 5 6.9287 14.6479 17.7378 0.0000 23.9271 0.0000
# 6 0.0000 0.0000 0.0000 3.1847 0.0000 12.4231
#
#
#
# Elastic Compliance Matrix: (Units=1/GPa)
#
#
# Indices 1 2 3 4 5 6 
#
# 1 0.032201 0.003588 -0.007712 0.000000 -0.005804 0.000000
# 2 0.003588 0.015989 -0.006567 0.000000 -0.005959 0.000000
# 3 -0.007712 -0.006567 0.014239 0.000000 -0.004303 0.000000
# 4 0.000000 0.000000 0.000000 0.035548 0.000000 -0.009113
# 5 -0.005804 -0.005959 -0.004303 0.000000 0.050312 0.000000
# 6 0.000000 0.000000 0.000000 -0.009113 0.000000 0.082831
#
#
# Mechanical properties :
#
#
# Convention : Reuss Voigt Hill
#
# Bulk Modulus (GPa) = 24.36200 42.66339 33.51270
# Shear Modulus (GPa) = 18.78395 23.66296 21.22345
#
# Velocity S-wave (km/s) = 3.23367 3.62941 3.43724
# Velocity P-wave (km/s) = 5.24442 6.42754 5.86588
#
# Compressibility (1/GPa) = 0.04104754
#
# Stress axis : x y z
#
# Youngs Moduli (GPa) = 31.05526 62.54144 70.22938
#
# Poissons Ratio (x) = -0.22438 0.54160
# Poissons Ratio (y) = -0.11142 0.46117
# Poissons Ratio (z) = 0.23949 0.41069
#
# Static dielectric constant tensor:
#      x y z
#    x 3.282540 0.000000 0.229010 
#    y 0.000000 3.353500 0.000000 
#    z 0.229010 0.000000 3.315330 
# 
# 
# High freq. dielectric constant tensor:
#      x y z
#    x 1.672150 0.000000 0.025930 
#    y 0.000000 1.688410 0.000000 
#    z 0.025930 0.000000 1.692580 
# 
# From -- ./inp_files/43144.got.cif
#   From: 2010.06.25/outbox.cif.g09.slc.cpg/sg11_22_cif.got.tgz:43144.got - 2010.06.27 23:14:04.
