data_PCOD8068996
_publ_section_title
;
Structure prediction by ZEFSAII (Michael W. Deem and Ramdas Pophale) SiO2 
 PCOD8068996
Probable space group: P 21/M
;
_chemical_formula_sum "Si O2"
_cell_formula_units_Z 32
_cell_length_a 27.593136
_cell_length_b 8.716928
_cell_length_c 19.393225
_cell_angle_alpha 90.000000
_cell_angle_beta 155.928039
_cell_angle_gamma 90.000000
_cell_volume 1902.614935
_symmetry_space_group_name_H-M "P 21/M"
_symmetry_group_IT_number 11
_symmetry_cell_setting 'monoclinic'
loop_
_space_group_symop_operation_xyz
x,y,z
-x,1/2+y,-z
-x,-y,-z
x,1/2-y,z
loop_
_atom_site_type_symbol
_atom_site_label
_atom_site_fract_x
_atom_site_fract_y
_atom_site_fract_z
Si Si1 0.730998 0.068902 0.823635
Si Si2 0.997602 0.930721 0.804460
Si Si3 0.092688 0.568269 0.173980
Si Si4 0.967490 0.068387 0.622409
Si Si5 0.326457 0.568155 0.403593
Si Si6 0.114914 0.069381 0.614064
Si Si7 0.784104 0.569812 0.116944
Si Si8 0.588564 0.567748 0.761532
O O1 0.713415 0.250000 0.807359
O O2 0.702478 0.006616 0.710376
O O3 0.640664 0.985297 0.756740
O O4 0.864881 0.020020 0.015958
O O5 0.982469 0.750000 0.791666
O O6 0.928699 0.009128 0.777342
O O7 0.937930 0.990916 0.656829
O O8 0.081120 0.750000 0.156124
O O9 0.224590 0.512627 0.323665
O O10 0.000000 0.500000 0.000000
O O11 0.961965 0.250000 0.622707
O O12 0.095599 0.005996 0.762449
O O13 0.867307 0.012789 0.436839
O O14 0.328800 0.750000 0.403455
O O15 0.454258 0.504343 0.594939
O O16 0.099683 0.250000 0.583054
O O17 0.220637 0.033377 0.806776
O O18 0.000000 0.000000 0.500000
O O19 0.787276 0.750000 0.109397
O O20 0.668533 0.500260 0.928412
O O21 0.588522 0.750000 0.762840
#
# Coordination Sequence:
#
# PCOD8068996 Si02
#       8
#     4   4   4   4   4   4   4   4
#     4  10  19  32  46  68 100 128 159 200 240 285
#     4  11  21  33  50  72  98 130 163 201 248 290
#     4  11  21  36  53  71  94 126 166 209 249 288
#     4  10  18  30  46  70  98 126 163 201 238 292
#     4   9  19  34  50  68  95 127 164 205 243 283
#     4   9  16  27  42  65  97 131 161 195 236 288
#     4   8  15  26  43  68  96 124 159 191 228 286
#     4  10  18  31  50  71  96 130 164 196 236 287
#
# _framework density 16.818959
#
# number of rings (size 3 to 8) (size 9 to 14) (size 15 to 20)
#    0.000    2.250    2.500    2.625    0.000    0.500 
#    0.000    1.875    0.000    0.000    0.000    0.875 
#    0.000    0.000    0.000    0.000    0.000    0.000 
#
# Total GULP energy -396650.432778 kJ/mol
# GULP energy per Si atom -12395.326024 kJ/mol
# Density = 1.678068 g / cm^3
# Si number density = 16.818959 Si / 1000 Ang^3
#
#
#
# Elastic Constant Matrix: (Units=GPa)
#
#
# Indices 1 2 3 4 5 6 
#
# 1 126.4161 27.7446 73.1376 0.0000 -11.9638 0.0000
# 2 27.7446 41.2101 26.6687 0.0000 0.0688 0.0000
# 3 73.1376 26.6687 88.3699 0.0000 -8.8149 0.0000
# 4 0.0000 0.0000 0.0000 15.3052 0.0000 -4.7281
# 5 -11.9638 0.0688 -8.8149 0.0000 33.1705 0.0000
# 6 0.0000 0.0000 0.0000 -4.7281 0.0000 27.8734
#
#
#
# Elastic Compliance Matrix: (Units=1/GPa)
#
#
# Indices 1 2 3 4 5 6 
#
# 1 0.015602 -0.002875 -0.011796 0.000000 0.002499 0.000000
# 2 -0.002875 0.030896 -0.007247 0.000000 -0.003027 0.000000
# 3 -0.011796 -0.007247 0.023465 0.000000 0.001996 0.000000
# 4 0.000000 0.000000 0.000000 0.068950 0.000000 0.011696
# 5 0.002499 -0.003027 0.001996 0.000000 0.031585 0.000000
# 6 0.000000 0.000000 0.000000 0.011696 0.000000 0.037860
#
#
# Mechanical properties :
#
#
# Convention : Reuss Voigt Hill
#
# Bulk Modulus (GPa) = 38.27281 56.78865 47.53073
# Shear Modulus (GPa) = 19.16413 23.83283 21.49848
#
# Velocity S-wave (km/s) = 3.37922 3.76842 3.57911
# Velocity P-wave (km/s) = 6.16690 7.26448 6.73807
#
# Compressibility (1/GPa) = 0.02612821
#
# Stress axis : x y z
#
# Youngs Moduli (GPa) = 64.09245 32.36674 42.61642
#
# Poissons Ratio (x) = 0.09304 0.50272
# Poissons Ratio (y) = 0.18424 0.30883
# Poissons Ratio (z) = 0.75606 0.23455
#
# Static dielectric constant tensor:
#      x y z
#    x 3.249990 0.000000 -0.269890 
#    y 0.000000 3.041080 0.000000 
#    z -0.269890 0.000000 3.311010 
# 
# 
# High freq. dielectric constant tensor:
#      x y z
#    x 1.636360 0.000000 -0.027060 
#    y 0.000000 1.637250 0.000000 
#    z -0.027060 0.000000 1.635020 
# 
# From -- ./inp_files/44504.got.cif
#   From: 2010.06.25/outbox.cif.g09.slc.cpg/sg11_23_cif.got.tgz:44504.got - 2010.06.27 23:14:04.
