data_PCOD8068989
_publ_section_title
;
Structure prediction by ZEFSAII (Michael W. Deem and Ramdas Pophale) SiO2 
 PCOD8068989
Probable space group: P 21/M
;
_chemical_formula_sum "Si O2"
_cell_formula_units_Z 32
_cell_length_a 14.015316
_cell_length_b 8.736532
_cell_length_c 16.358390
_cell_angle_alpha 90.000000
_cell_angle_beta 94.977520
_cell_angle_gamma 90.000000
_cell_volume 1995.453556
_symmetry_space_group_name_H-M "P 21/M"
_symmetry_group_IT_number 11
_symmetry_cell_setting 'monoclinic'
loop_
_space_group_symop_operation_xyz
x,y,z
-x,1/2+y,-z
-x,-y,-z
x,1/2-y,z
loop_
_atom_site_type_symbol
_atom_site_label
_atom_site_fract_x
_atom_site_fract_y
_atom_site_fract_z
Si Si1 0.986941 0.931528 0.271616
Si Si2 0.179992 0.070870 0.224464
Si Si3 0.472896 0.426282 0.581457
Si Si4 0.272649 0.430839 0.518299
Si Si5 0.084137 0.418885 0.904323
Si Si6 0.134982 0.918850 0.060499
Si Si7 0.669820 0.430915 0.650956
Si Si8 0.922054 0.069141 0.434165
O O1 0.982880 0.750000 0.287938
O O2 0.920002 0.978743 0.189399
O O3 0.948022 0.026818 0.344068
O O4 0.096491 0.976296 0.262805
O O5 0.160549 0.250000 0.233663
O O6 0.186666 0.030648 0.128747
O O7 0.279468 0.022600 0.272822
O O8 0.500000 0.500000 0.500000
O O9 0.484526 0.250000 0.565758
O O10 0.360726 0.464748 0.589313
O O11 0.555462 0.472266 0.653132
O O12 0.259593 0.250000 0.502023
O O13 0.289889 0.512575 0.433099
O O14 0.180253 0.498973 0.553802
O O15 0.129459 0.250000 0.909791
O O16 0.976742 0.412616 0.929253
O O17 0.149213 0.523813 0.968094
O O18 0.180505 0.750000 0.071262
O O19 0.689452 0.250000 0.660630
O O20 0.919584 0.250000 0.445146
O O21 0.000000 0.000000 0.500000
#
# Coordination Sequence:
#
# PCOD8068989 Si02
#       8
#     4   4   4   4   4   4   4   4
#     4  10  20  34  48  63  85 116 152 188 222 258
#     4  11  20  29  42  63  91 121 150 181 218 261
#     4   8  16  29  47  66  85 110 141 178 219 263
#     4  10  19  33  49  66  87 114 148 184 222 262
#     4   8  15  27  43  61  82 109 142 179 218 258
#     4   9  16  26  41  61  85 114 145 177 214 257
#     4  10  18  30  46  66  90 116 146 180 220 264
#     4  12  24  36  48  64  87 118 153 188 223 257
#
# _framework density 16.036453999999999
#
# number of rings (size 3 to 8) (size 9 to 14) (size 15 to 20)
#    0.000    2.250    0.000    5.250    0.000    4.500 
#    0.000    0.000    0.000    0.000    0.000    0.000 
#    0.000    1.000    0.000    3.000    0.000    4.250 
#
# Total GULP energy -396510.009465 kJ/mol
# GULP energy per Si atom -12390.937796 kJ/mol
# Density = 1.599995 g / cm^3
# Si number density = 16.036454 Si / 1000 Ang^3
#
#
#
# Elastic Constant Matrix: (Units=GPa)
#
#
# Indices 1 2 3 4 5 6 
#
# 1 75.5427 13.7730 31.2692 0.0000 16.7027 0.0000
# 2 13.7730 46.4587 14.2835 0.0000 10.0149 0.0000
# 3 31.2692 14.2835 90.0304 0.0000 13.9009 0.0000
# 4 0.0000 0.0000 0.0000 28.4138 0.0000 1.9131
# 5 16.7027 10.0149 13.9009 0.0000 17.3585 0.0000
# 6 0.0000 0.0000 0.0000 1.9131 0.0000 19.1227
#
#
#
# Elastic Compliance Matrix: (Units=1/GPa)
#
#
# Indices 1 2 3 4 5 6 
#
# 1 0.018106 -0.001224 -0.004009 0.000000 -0.013506 0.000000
# 2 -0.001224 0.024969 -0.001705 0.000000 -0.011863 0.000000
# 3 -0.004009 -0.001705 0.013719 0.000000 -0.006145 0.000000
# 4 0.000000 0.000000 0.000000 0.035433 0.000000 -0.003545
# 5 -0.013506 -0.011863 -0.006145 0.000000 0.082369 0.000000
# 6 0.000000 0.000000 0.000000 -0.003545 0.000000 0.052649
#
#
# Mechanical properties :
#
#
# Convention : Reuss Voigt Hill
#
# Bulk Modulus (GPa) = 23.29985 36.74257 30.02121
# Shear Modulus (GPa) = 19.57514 23.15941 21.36727
#
# Velocity S-wave (km/s) = 3.49759 3.80435 3.65419
# Velocity P-wave (km/s) = 5.55623 6.50070 6.04693
#
# Compressibility (1/GPa) = 0.04291872
#
# Stress axis : x y z
#
# Youngs Moduli (GPa) = 55.22938 40.05028 72.89106
#
# Poissons Ratio (x) = 0.04901 0.29224
# Poissons Ratio (y) = 0.06759 0.12425
# Poissons Ratio (z) = 0.22143 0.06827
#
# Static dielectric constant tensor:
#      x y z
#    x 3.393170 0.000000 0.364650 
#    y 0.000000 3.255090 0.000000 
#    z 0.364650 0.000000 3.166820 
# 
# 
# High freq. dielectric constant tensor:
#      x y z
#    x 1.578740 0.000000 0.027210 
#    y 0.000000 1.634070 0.000000 
#    z 0.027210 0.000000 1.606100 
# 
# From -- ./inp_files/51381.got.cif
#   From: 2010.06.25/outbox.cif.g09.slc.cpg/sg11_26_cif.got.tgz:51381.got - 2010.06.27 23:14:04.
