data_PCOD8068047
_publ_section_title
;
Structure prediction by ZEFSAII (Michael W. Deem and Ramdas Pophale) SiO2 
 PCOD8068047
Probable space group: P 2/M
;
_chemical_formula_sum "Si O2"
_cell_formula_units_Z 24
_cell_length_a 18.231025
_cell_length_b 17.470801
_cell_length_c 12.267291
_cell_angle_alpha 90.000000
_cell_angle_beta 19.270081
_cell_angle_gamma 90.000000
_cell_volume 1289.480612
_symmetry_space_group_name_H-M "P 2/M"
_symmetry_group_IT_number 10
_symmetry_cell_setting 'monoclinic'
loop_
_space_group_symop_operation_xyz
x,y,z
-x,y,-z
-x,-y,-z
x,-y,z
loop_
_atom_site_type_symbol
_atom_site_label
_atom_site_fract_x
_atom_site_fract_y
_atom_site_fract_z
Si Si1 0.859604 0.500000 0.981964
Si Si2 0.533205 0.804580 0.132210
Si Si3 0.644060 0.338496 0.512928
Si Si4 0.135958 0.804575 0.529439
Si Si5 0.041953 0.338500 0.115060
Si Si6 0.166965 0.085090 0.166088
Si Si7 0.457207 0.500000 0.384413
O O1 0.996584 0.421263 0.772610
O O2 0.660437 0.500000 0.179123
O O3 0.777560 0.500000 0.222420
O O4 0.525731 0.728732 0.217883
O O5 0.296722 0.825298 0.406538
O O6 0.717106 0.788715 0.782903
O O7 0.608848 0.872576 0.107043
O O8 0.859247 0.325060 0.281515
O O9 0.535005 0.421265 0.695765
O O10 0.714589 0.334869 0.285406
O O11 0.987034 0.728729 0.756565
O O12 0.959355 0.872573 0.756523
O O13 0.000000 0.079680 0.500000
O O14 0.233706 0.000000 0.032572
#
# Coordination Sequence:
#
# PCOD8068047 Si02
#       7
#     2   4   4   4   4   4   2
#     4   9  17  27  42  67  94 122 159 198 230 267
#     4   9  18  32  50  72  97 124 155 193 236 280
#     4   9  17  30  48  68  92 125 161 195 232 274
#     4   9  18  32  50  72  97 124 155 193 236 280
#     4   9  17  30  48  68  92 125 161 195 232 274
#     4   9  18  32  51  74  97 122 154 193 235 281
#     4   9  17  27  42  67  94 122 159 198 230 267
#
# _framework density 18.612145000000002
#
# number of rings (size 3 to 8) (size 9 to 14) (size 15 to 20)
#    0.000    3.000    0.000    0.500    2.333    2.667 
#    0.000    4.167    0.000    7.000    0.000    4.667 
#    0.000    0.000    0.000    0.000    0.000    0.000 
#
# Total GULP energy -297382.338779 kJ/mol
# GULP energy per Si atom -12390.930782 kJ/mol
# Density = 1.856978 g / cm^3
# Si number density = 18.612145 Si / 1000 Ang^3
#
#
#
# Elastic Constant Matrix: (Units=GPa)
#
#
# Indices 1 2 3 4 5 6 
#
# 1 64.0697 61.7574 26.7803 0.0000 -12.3193 0.0000
# 2 61.7574 203.2902 50.8393 0.0000 -9.6217 0.0000
# 3 26.7803 50.8393 41.7695 0.0000 -7.3340 0.0000
# 4 0.0000 0.0000 0.0000 29.4984 0.0000 -2.5409
# 5 -12.3193 -9.6217 -7.3340 0.0000 16.0410 0.0000
# 6 0.0000 0.0000 0.0000 -2.5409 0.0000 32.3968
#
#
#
# Elastic Compliance Matrix: (Units=1/GPa)
#
#
# Indices 1 2 3 4 5 6 
#
# 1 0.026955 -0.005492 -0.008200 0.000000 0.013658 0.000000
# 2 -0.005492 0.008192 -0.006880 0.000000 -0.002449 0.000000
# 3 -0.008200 -0.006880 0.038861 0.000000 0.007343 0.000000
# 4 0.000000 0.000000 0.000000 0.034131 0.000000 0.002677
# 5 0.013658 -0.002449 0.007343 0.000000 0.074718 0.000000
# 6 0.000000 0.000000 0.000000 0.002677 0.000000 0.031077
#
#
# Mechanical properties :
#
#
# Convention : Reuss Voigt Hill
#
# Bulk Modulus (GPa) = 30.42703 65.32039 47.87371
# Shear Modulus (GPa) = 18.79472 26.90407 22.84939
#
# Velocity S-wave (km/s) = 3.18120 3.80611 3.50760
# Velocity P-wave (km/s) = 5.46597 7.38154 6.49476
#
# Compressibility (1/GPa) = 0.03286552
#
# Stress axis : x y z
#
# Youngs Moduli (GPa) = 37.09889 122.07056 25.73244
#
# Poissons Ratio (x) = 0.67036 0.21100
# Poissons Ratio (y) = 0.20373 0.17704
# Poissons Ratio (z) = 0.30421 0.83984
#
# Static dielectric constant tensor:
#      x y z
#    x 3.380290 0.000000 -0.023460 
#    y 0.000000 3.924630 0.000000 
#    z -0.023460 0.000000 3.353350 
# 
# 
# High freq. dielectric constant tensor:
#      x y z
#    x 1.711930 0.000000 -0.024740 
#    y 0.000000 1.729140 0.000000 
#    z -0.024740 0.000000 1.683840 
# 
# From -- ./inp_files/54182.got.cif
#   From: 2010.06.25/outbox.cif.g09.slc.cpg/sg10_28_cif.got.tgz:54182.got - 2010.06.27 22:07:45.
