data_PCOD8068271
_publ_section_title
;
Structure prediction by ZEFSAII (Michael W. Deem and Ramdas Pophale) SiO2 
 PCOD8068271
Probable space group: P 21/M
;
_chemical_formula_sum "Si O2"
_cell_formula_units_Z 32
_cell_length_a 13.363162
_cell_length_b 8.801035
_cell_length_c 17.197661
_cell_angle_alpha 90.000000
_cell_angle_beta 100.681910
_cell_angle_gamma 90.000000
_cell_volume 1987.561921
_symmetry_space_group_name_H-M "P 21/M"
_symmetry_group_IT_number 11
_symmetry_cell_setting 'monoclinic'
loop_
_space_group_symop_operation_xyz
x,y,z
-x,1/2+y,-z
-x,-y,-z
x,1/2-y,z
loop_
_atom_site_type_symbol
_atom_site_label
_atom_site_fract_x
_atom_site_fract_y
_atom_site_fract_z
Si Si1 0.605899 0.075132 0.501817
Si Si2 0.892525 0.429097 0.965179
Si Si3 0.425807 0.423773 0.087708
Si Si4 0.626613 0.929398 0.181731
Si Si5 0.713005 0.429245 0.053111
Si Si6 0.356448 0.928881 0.326519
Si Si7 0.577772 0.070620 0.330930
Si Si8 0.760204 0.922551 0.822029
O O1 0.580810 0.250000 0.497910
O O2 0.675666 0.036459 0.587281
O O3 0.642668 0.031506 0.419617
O O4 0.500000 0.000000 0.500000
O O5 0.902399 0.250000 0.959371
O O6 0.853909 0.493605 0.877355
O O7 0.815487 0.476784 0.023073
O O8 0.000000 0.500000 0.000000
O O9 0.459392 0.250000 0.076731
O O10 0.517636 0.521095 0.133847
O O11 0.338258 0.431805 0.138725
O O12 0.386321 0.499094 0.002537
O O13 0.637501 0.750000 0.182790
O O14 0.715302 0.002126 0.140484
O O15 0.640084 0.990876 0.271049
O O16 0.699771 0.250000 0.053719
O O17 0.368612 0.750000 0.312485
O O18 0.462723 0.008357 0.319576
O O19 0.264069 0.994497 0.262531
O O20 0.570923 0.250000 0.313350
O O21 0.792638 0.750000 0.809858
#
# Coordination Sequence:
#
# PCOD8068271 Si02
#       8
#     4   4   4   4   4   4   4   4
#     4   8  16  27  40  58  83 118 156 193 229 267
#     4  10  21  37  56  73  92 117 147 187 234 280
#     4  10  19  31  45  62  89 121 154 190 227 266
#     4  12  22  30  43  63  90 122 157 194 228 266
#     4  10  21  35  49  66  88 116 151 186 226 273
#     4  10  17  27  43  64  90 119 156 196 231 269
#     4  10  18  29  42  59  87 124 161 193 230 270
#     4  10  19  30  47  69  93 123 157 190 228 272
#
# _framework density 16.100128000000002
#
# number of rings (size 3 to 8) (size 9 to 14) (size 15 to 20)
#    0.000    2.000    1.250    3.750    0.000    3.500 
#    0.000    0.000    0.000    0.000    0.000    0.000 
#    0.000    1.000    0.000    3.000    0.000    4.000 
#
# Total GULP energy -396615.050992 kJ/mol
# GULP energy per Si atom -12394.220344 kJ/mol
# Density = 1.606348 g / cm^3
# Si number density = 16.100128 Si / 1000 Ang^3
#
#
#
# Elastic Constant Matrix: (Units=GPa)
#
#
# Indices 1 2 3 4 5 6 
#
# 1 43.4014 24.2980 38.7655 0.0000 3.4244 0.0000
# 2 24.2980 84.0097 51.8828 0.0000 -2.9915 0.0000
# 3 38.7655 51.8828 146.6511 0.0000 -8.5064 0.0000
# 4 0.0000 0.0000 0.0000 26.7990 0.0000 -0.2891
# 5 3.4244 -2.9915 -8.5064 0.0000 18.3709 0.0000
# 6 0.0000 0.0000 0.0000 -0.2891 0.0000 19.5363
#
#
#
# Elastic Compliance Matrix: (Units=1/GPa)
#
#
# Indices 1 2 3 4 5 6 
#
# 1 0.033727 -0.005434 -0.007613 0.000000 -0.010697 0.000000
# 2 -0.005434 0.016107 -0.004163 0.000000 0.001708 0.000000
# 3 -0.007613 -0.004163 0.010633 0.000000 0.005665 0.000000
# 4 0.000000 0.000000 0.000000 0.037321 0.000000 0.000552
# 5 -0.010697 0.001708 0.005665 0.000000 0.059329 0.000000
# 6 0.000000 0.000000 0.000000 0.000552 0.000000 0.051195
#
#
# Mechanical properties :
#
#
# Convention : Reuss Voigt Hill
#
# Bulk Modulus (GPa) = 38.39318 55.99497 47.19407
# Shear Modulus (GPa) = 19.88756 23.54897 21.71827
#
# Velocity S-wave (km/s) = 3.51841 3.82862 3.67679
# Velocity P-wave (km/s) = 6.35641 7.37558 6.88488
#
# Compressibility (1/GPa) = 0.02604629
#
# Stress axis : x y z
#
# Youngs Moduli (GPa) = 29.64986 62.08588 94.04915
#
# Poissons Ratio (x) = 0.33736 0.71603
# Poissons Ratio (y) = 0.16111 0.39151
# Poissons Ratio (z) = 0.22574 0.25845
#
# Static dielectric constant tensor:
#      x y z
#    x 2.656650 0.000000 -0.213350 
#    y 0.000000 3.211280 0.000000 
#    z -0.213350 0.000000 3.807040 
# 
# 
# High freq. dielectric constant tensor:
#      x y z
#    x 1.555290 0.000000 -0.015180 
#    y 0.000000 1.639700 0.000000 
#    z -0.015180 0.000000 1.632070 
# 
# From -- ./inp_files/59891.got.cif
#   From: 2010.06.25/outbox.cif.g09.slc.cpg/sg11_30_cif.got.tgz:59891.got - 2010.06.27 23:14:04.
