data_PCOD8068572
_publ_section_title
;
Structure prediction by ZEFSAII (Michael W. Deem and Ramdas Pophale) SiO2 
 PCOD8068572
Probable space group: P 21/M
;
_chemical_formula_sum "Si O2"
_cell_formula_units_Z 28
_cell_length_a 16.276901
_cell_length_b 9.031968
_cell_length_c 16.029020
_cell_angle_alpha 90.000000
_cell_angle_beta 49.043685
_cell_angle_gamma 90.000000
_cell_volume 1779.625288
_symmetry_space_group_name_H-M "P 21/M"
_symmetry_group_IT_number 11
_symmetry_cell_setting 'monoclinic'
loop_
_space_group_symop_operation_xyz
x,y,z
-x,1/2+y,-z
-x,-y,-z
x,1/2-y,z
loop_
_atom_site_type_symbol
_atom_site_label
_atom_site_fract_x
_atom_site_fract_y
_atom_site_fract_z
Si Si1 0.981303 0.422185 0.384460
Si Si2 0.897433 0.580608 0.102779
Si Si3 0.622563 0.921960 0.826980
Si Si4 0.596977 0.921635 0.036415
Si Si5 0.807341 0.923049 0.995730
Si Si6 0.979152 0.924226 0.217366
Si Si7 0.835936 0.077633 0.639215
O O1 0.005313 0.250000 0.355791
O O2 0.939467 0.493300 0.326622
O O3 0.888268 0.451409 0.514235
O O4 0.094107 0.497785 0.335987
O O5 0.929640 0.750000 0.077637
O O6 0.885672 0.538928 0.208894
O O7 0.799444 0.548169 0.102288
O O8 0.000000 0.500000 0.000000
O O9 0.632276 0.750000 0.798751
O O10 0.507403 0.981278 0.870419
O O11 0.716159 0.009661 0.716266
O O12 0.634695 0.952996 0.917110
O O13 0.567110 0.750000 0.068661
O O14 0.693221 0.974052 0.033212
O O15 0.828663 0.750000 0.961907
O O16 0.903334 0.016849 0.889986
O O17 0.988304 0.750000 0.229092
O O18 0.830686 0.250000 0.664665
#
# Coordination Sequence:
#
# PCOD8068572 Si02
#       7
#     4   4   4   4   4   4   4
#     4  10  20  32  46  65  88 116 148 177 213 259
#     4   8  15  26  40  61  87 115 146 179 217 257
#     4  10  19  30  45  65  90 117 144 177 215 256
#     4   9  18  30  44  63  86 116 150 178 210 254
#     4   9  16  28  45  63  88 120 151 183 217 256
#     4  10  18  27  42  65  92 119 147 180 217 258
#     4  10  20  33  48  65  87 114 145 182 217 253
#
# _framework density 15.733649
#
# number of rings (size 3 to 8) (size 9 to 14) (size 15 to 20)
#    0.000    2.571    0.000    2.571    0.000    4.571 
#    0.000    0.000    0.000    0.000    0.000    1.000 
#    0.000    0.000    0.000    0.000    0.000    0.000 
#
# Total GULP energy -347032.058207 kJ/mol
# GULP energy per Si atom -12394.002079 kJ/mol
# Density = 1.569784 g / cm^3
# Si number density = 15.733649 Si / 1000 Ang^3
#
#
#
# Elastic Constant Matrix: (Units=GPa)
#
#
# Indices 1 2 3 4 5 6 
#
# 1 121.6428 42.1387 46.7022 0.0000 11.8130 0.0000
# 2 42.1387 76.5132 41.3230 0.0000 2.7100 0.0000
# 3 46.7022 41.3230 65.9260 0.0000 2.8165 0.0000
# 4 0.0000 0.0000 0.0000 25.9719 0.0000 -0.9043
# 5 11.8130 2.7100 2.8165 0.0000 26.0772 0.0000
# 6 0.0000 0.0000 0.0000 -0.9043 0.0000 22.8400
#
#
#
# Elastic Compliance Matrix: (Units=1/GPa)
#
#
# Indices 1 2 3 4 5 6 
#
# 1 0.012232 -0.003025 -0.006576 0.000000 -0.004517 0.000000
# 2 -0.003025 0.020520 -0.010736 0.000000 0.000397 0.000000
# 3 -0.006576 -0.010736 0.026504 0.000000 0.001232 0.000000
# 4 0.000000 0.000000 0.000000 0.038556 0.000000 0.001526
# 5 -0.004517 0.000397 0.001232 0.000000 0.040219 0.000000
# 6 0.000000 0.000000 0.000000 0.001526 0.000000 0.043843
#
#
# Mechanical properties :
#
#
# Convention : Reuss Voigt Hill
#
# Bulk Modulus (GPa) = 53.81752 58.26776 56.04264
# Shear Modulus (GPa) = 21.85858 23.90569 22.88213
#
# Velocity S-wave (km/s) = 3.73136 3.90218 3.81772
# Velocity P-wave (km/s) = 7.26937 7.57739 7.42498
#
# Compressibility (1/GPa) = 0.01858131
#
# Stress axis : x y z
#
# Youngs Moduli (GPa) = 81.75208 48.73322 37.73028
#
# Poissons Ratio (x) = 0.14742 0.24812
# Poissons Ratio (y) = 0.24731 0.40507
# Poissons Ratio (z) = 0.53762 0.52320
#
# Static dielectric constant tensor:
#      x y z
#    x 3.374200 0.000000 0.308540 
#    y 0.000000 3.065250 0.000000 
#    z 0.308540 0.000000 2.826230 
# 
# 
# High freq. dielectric constant tensor:
#      x y z
#    x 1.601040 0.000000 0.016620 
#    y 0.000000 1.618040 0.000000 
#    z 0.016620 0.000000 1.573160 
# 
# From -- ./inp_files/37468.got.cif
#   From: 2010.06.25/outbox.cif.g09.slc.cpg/sg11_19_cif.got.tgz:37468.got - 2010.06.27 23:14:04.
