data_PCOD8068792
_publ_section_title
;
Structure prediction by ZEFSAII (Michael W. Deem and Ramdas Pophale) SiO2 
 PCOD8068792
Probable space group: P 21/M
;
_chemical_formula_sum "Si O2"
_cell_formula_units_Z 32
_cell_length_a 24.221071
_cell_length_b 9.209479
_cell_length_c 17.703402
_cell_angle_alpha 90.000000
_cell_angle_beta 152.199873
_cell_angle_gamma 90.000000
_cell_volume 1841.760113
_symmetry_space_group_name_H-M "P 21/M"
_symmetry_group_IT_number 11
_symmetry_cell_setting 'monoclinic'
loop_
_space_group_symop_operation_xyz
x,y,z
-x,1/2+y,-z
-x,-y,-z
x,1/2-y,z
loop_
_atom_site_type_symbol
_atom_site_label
_atom_site_fract_x
_atom_site_fract_y
_atom_site_fract_z
Si Si1 0.622734 0.077765 0.982220
Si Si2 0.845333 0.917770 0.662995
Si Si3 0.188639 0.578092 0.908257
Si Si4 0.121156 0.419045 0.131416
Si Si5 0.885247 0.077180 0.019898
Si Si6 0.638657 0.577401 0.309768
Si Si7 0.288150 0.416320 0.763622
Si Si8 0.018029 0.415722 0.445722
O O1 0.630899 0.250000 0.000084
O O2 0.695038 0.022576 0.995956
O O3 0.680250 0.013976 0.127126
O O4 0.487322 0.025012 0.809273
O O5 0.851353 0.750000 0.648727
O O6 0.803776 0.938166 0.700294
O O7 0.745478 0.992282 0.488815
O O8 0.977992 0.978659 0.808809
O O9 0.185664 0.750000 0.905607
O O10 0.185903 0.524912 0.991709
O O11 0.070686 0.519168 0.724296
O O12 0.099372 0.250000 0.087560
O O13 0.179691 0.497219 0.129339
O O14 0.000000 0.500000 0.000000
O O15 0.880150 0.250000 0.000975
O O16 0.648257 0.750000 0.324819
O O17 0.643994 0.526841 0.228884
O O18 0.321007 0.250000 0.822495
O O19 0.150498 0.431383 0.575800
O O20 0.984654 0.250000 0.422310
O O21 0.000000 0.500000 0.500000
#
# Coordination Sequence:
#
# PCOD8068792 Si02
#       8
#     4   4   4   4   4   4   4   4
#     4  10  19  31  47  64  87 119 154 194 226 258
#     4   8  14  26  45  67  88 112 144 180 217 261
#     4   9  17  29  45  65  88 118 153 185 223 267
#     4   9  16  27  46  71  96 119 143 177 224 272
#     4   9  16  28  47  68  91 118 148 183 222 268
#     4   9  17  29  46  67  87 114 156 192 220 262
#     4  10  19  30  46  66  88 117 151 188 230 271
#     4  10  18  29  45  64  89 118 149 186 226 271
#
# _framework density 17.374684999999999
#
# number of rings (size 3 to 8) (size 9 to 14) (size 15 to 20)
#    0.000    2.750    1.250    2.250    0.000    3.000 
#    0.000    1.250    0.000   11.250    0.000    0.000 
#    0.000    0.000    0.000    0.000    0.000    0.500 
#
# Total GULP energy -396540.365881 kJ/mol
# GULP energy per Si atom -12391.886434 kJ/mol
# Density = 1.733514 g / cm^3
# Si number density = 17.374685 Si / 1000 Ang^3
#
#
#
# Elastic Constant Matrix: (Units=GPa)
#
#
# Indices 1 2 3 4 5 6 
#
# 1 154.0727 28.1589 49.5152 0.0000 -7.5508 0.0000
# 2 28.1589 34.1213 13.2660 0.0000 -3.8168 0.0000
# 3 49.5152 13.2660 51.0494 0.0000 2.3577 0.0000
# 4 0.0000 0.0000 0.0000 15.2452 0.0000 -5.9482
# 5 -7.5508 -3.8168 2.3577 0.0000 25.7922 0.0000
# 6 0.0000 0.0000 0.0000 -5.9482 0.0000 23.0220
#
#
#
# Elastic Compliance Matrix: (Units=1/GPa)
#
#
# Indices 1 2 3 4 5 6 
#
# 1 0.010406 -0.004730 -0.009011 0.000000 0.003170 0.000000
# 2 -0.004730 0.035584 -0.004859 0.000000 0.004325 0.000000
# 3 -0.009011 -0.004859 0.029873 0.000000 -0.006088 0.000000
# 4 0.000000 0.000000 0.000000 0.072948 0.000000 0.018848
# 5 0.003170 0.004325 -0.006088 0.000000 0.040896 0.000000
# 6 0.000000 0.000000 0.000000 0.018848 0.000000 0.048307
#
#
# Mechanical properties :
#
#
# Convention : Reuss Voigt Hill
#
# Bulk Modulus (GPa) = 25.86438 46.79150 36.32794
# Shear Modulus (GPa) = 17.35510 22.69876 20.02693
#
# Velocity S-wave (km/s) = 3.16392 3.61837 3.39875
# Velocity P-wave (km/s) = 5.31656 6.66680 6.02959
#
# Compressibility (1/GPa) = 0.03866321
#
# Stress axis : x y z
#
# Youngs Moduli (GPa) = 96.09809 28.10291 33.47554
#
# Poissons Ratio (x) = 0.13292 0.30163
# Poissons Ratio (y) = 0.45453 0.16266
# Poissons Ratio (z) = 0.86590 0.13655
#
# Static dielectric constant tensor:
#      x y z
#    x 3.803270 0.000000 -0.089530 
#    y 0.000000 2.790320 0.000000 
#    z -0.089530 0.000000 3.423980 
# 
# 
# High freq. dielectric constant tensor:
#      x y z
#    x 1.680030 0.000000 -0.009860 
#    y 0.000000 1.630440 0.000000 
#    z -0.009860 0.000000 1.651740 
# 
# From -- ./inp_files/61743.got.cif
#   From: 2010.06.25/outbox.cif.g09.slc.cpg/sg11_31_cif.got.tgz:61743.got - 2010.06.27 23:14:04.
