data_PCOD8068453
_publ_section_title
;
Structure prediction by ZEFSAII (Michael W. Deem and Ramdas Pophale) SiO2 
 PCOD8068453
Probable space group: P 21/M
;
_chemical_formula_sum "Si O2"
_cell_formula_units_Z 32
_cell_length_a 9.440566
_cell_length_b 14.035895
_cell_length_c 14.015842
_cell_angle_alpha 90.000000
_cell_angle_beta 61.877493
_cell_angle_gamma 90.000000
_cell_volume 1637.937216
_symmetry_space_group_name_H-M "P 21/M"
_symmetry_group_IT_number 11
_symmetry_cell_setting 'monoclinic'
loop_
_space_group_symop_operation_xyz
x,y,z
-x,1/2+y,-z
-x,-y,-z
x,1/2-y,z
loop_
_atom_site_type_symbol
_atom_site_label
_atom_site_fract_x
_atom_site_fract_y
_atom_site_fract_z
Si Si1 0.981276 0.892412 0.034322
Si Si2 0.636205 0.860120 0.234201
Si Si3 0.322603 0.948101 0.269291
Si Si4 0.126779 0.932544 0.507558
Si Si5 0.062301 0.852035 0.803926
Si Si6 0.206676 0.025359 0.666260
Si Si7 0.897552 0.359002 0.804368
Si Si8 0.156163 0.355797 0.293185
O O1 0.804604 0.865593 0.126346
O O2 0.105998 0.868857 0.079823
O O3 0.023626 0.834234 0.926997
O O4 0.000000 0.000000 0.000000
O O5 0.580685 0.750000 0.260148
O O6 0.511085 0.925697 0.216107
O O7 0.656802 0.904788 0.334618
O O8 0.241791 0.894589 0.386740
O O9 0.265461 0.900845 0.188724
O O10 0.282650 0.062108 0.284922
O O11 0.015424 0.854817 0.595618
O O12 0.241492 0.986970 0.548748
O O13 0.000000 0.000000 0.500000
O O14 0.131862 0.750000 0.745378
O O15 0.895033 0.874420 0.800656
O O16 0.188783 0.936792 0.746023
O O17 0.039668 0.081506 0.711126
O O18 0.919000 0.250000 0.767572
O O19 0.233815 0.250000 0.282225
#
# Coordination Sequence:
#
# PCOD8068453 Si02
#       8
#     4   4   4   4   4   4   4   4
#     4  11  19  37  61  83 108 149 191 242 284 339
#     4  11  24  38  56  84 122 156 189 233 294 348
#     4  11  21  39  54  83 124 157 183 243 292 338
#     4   9  17  34  59  85 112 145 192 234 282 330
#     4  10  17  32  60  84 106 139 186 242 287 325
#     4  10  18  37  57  84 113 144 191 239 277 334
#     4  11  20  33  56  84 114 149 199 236 275 342
#     4   9  18  34  58  86 112 147 197 243 284 344
#
# _framework density 19.536767999999999
#
# number of rings (size 3 to 8) (size 9 to 14) (size 15 to 20)
#    0.000    1.750    6.250    2.625    0.000    1.500 
#    0.000    3.750    0.000    1.500    0.000    0.000 
#    0.000    0.000    0.000    0.000    0.000    0.000 
#
# Total GULP energy -396473.383846 kJ/mol
# GULP energy per Si atom -12389.793245 kJ/mol
# Density = 1.949230 g / cm^3
# Si number density = 19.536768 Si / 1000 Ang^3
#
#
#
# Elastic Constant Matrix: (Units=GPa)
#
#
# Indices 1 2 3 4 5 6 
#
# 1 112.5704 36.3175 32.5651 0.0000 22.2834 0.0000
# 2 36.3175 135.7422 13.2028 0.0000 4.7667 0.0000
# 3 32.5651 13.2028 75.3734 0.0000 26.8408 0.0000
# 4 0.0000 0.0000 0.0000 10.6759 0.0000 0.0879
# 5 22.2834 4.7667 26.8408 0.0000 22.2650 0.0000
# 6 0.0000 0.0000 0.0000 0.0879 0.0000 25.3178
#
#
#
# Elastic Compliance Matrix: (Units=1/GPa)
#
#
# Indices 1 2 3 4 5 6 
#
# 1 0.012119 -0.002776 -0.001125 0.000000 -0.010178 0.000000
# 2 -0.002776 0.008130 -0.001041 0.000000 0.002293 0.000000
# 3 -0.001125 -0.001041 0.023577 0.000000 -0.027073 0.000000
# 4 0.000000 0.000000 0.000000 0.093672 0.000000 -0.000325
# 5 -0.010178 0.002293 -0.027073 0.000000 0.087246 0.000000
# 6 0.000000 0.000000 0.000000 -0.000325 0.000000 0.039499
#
#
# Mechanical properties :
#
#
# Convention : Reuss Voigt Hill
#
# Bulk Modulus (GPa) = 29.46252 54.20634 41.83443
# Shear Modulus (GPa) = 17.51672 27.75843 22.63758
#
# Velocity S-wave (km/s) = 2.99758 3.77348 3.40769
# Velocity P-wave (km/s) = 5.20518 6.84044 6.07806
#
# Compressibility (1/GPa) = 0.03394143
#
# Stress axis : x y z
#
# Youngs Moduli (GPa) = 82.51405 122.99686 42.41485
#
# Poissons Ratio (x) = 0.34139 0.04773
# Poissons Ratio (y) = 0.22902 0.04417
# Poissons Ratio (z) = 0.09286 0.12809
#
# Static dielectric constant tensor:
#      x y z
#    x 4.510870 0.000000 2.372180 
#    y 0.000000 3.585510 0.000000 
#    z 2.372180 0.000000 7.824790 
# 
# 
# High freq. dielectric constant tensor:
#      x y z
#    x 1.740280 0.000000 0.039210 
#    y 0.000000 1.775710 0.000000 
#    z 0.039210 0.000000 1.735100 
# 
# From -- ./inp_files/47603.got.cif
#   From: 2010.06.25/outbox.cif.g09.slc.cpg/sg11_24_cif.got.tgz:47603.got - 2010.06.27 23:14:04.
