data_PCOD8068779
_publ_section_title
;
Structure prediction by ZEFSAII (Michael W. Deem and Ramdas Pophale) SiO2 
 PCOD8068779
Probable space group: P 21/M
;
_chemical_formula_sum "Si O2"
_cell_formula_units_Z 28
_cell_length_a 13.567220
_cell_length_b 9.068051
_cell_length_c 16.109316
_cell_angle_alpha 90.000000
_cell_angle_beta 115.213228
_cell_angle_gamma 90.000000
_cell_volume 1793.082627
_symmetry_space_group_name_H-M "P 21/M"
_symmetry_group_IT_number 11
_symmetry_cell_setting 'monoclinic'
loop_
_space_group_symop_operation_xyz
x,y,z
-x,1/2+y,-z
-x,-y,-z
x,1/2-y,z
loop_
_atom_site_type_symbol
_atom_site_label
_atom_site_fract_x
_atom_site_fract_y
_atom_site_fract_z
Si Si1 0.290561 0.576581 0.802876
Si Si2 0.659923 0.080867 0.549502
Si Si3 0.131017 0.919778 0.475618
Si Si4 0.115897 0.078531 0.638067
Si Si5 0.400150 0.581864 0.001598
Si Si6 0.535431 0.920911 0.641234
Si Si7 0.499203 0.923355 0.200868
O O1 0.292256 0.750000 0.783420
O O2 0.177203 0.507383 0.733013
O O3 0.390595 0.502354 0.789715
O O4 0.296145 0.544957 0.905346
O O5 0.647613 0.250000 0.573878
O O6 0.782270 0.044003 0.564875
O O7 0.580190 0.048779 0.443730
O O8 0.632585 0.975970 0.616708
O O9 0.140338 0.750000 0.507917
O O10 0.012086 0.953863 0.396041
O O11 0.156579 0.021229 0.563607
O O12 0.143679 0.250000 0.654230
O O13 0.429998 0.750000 0.999832
O O14 0.397969 0.546645 0.099583
O O15 0.500000 0.500000 0.000000
O O16 0.553448 0.750000 0.667523
O O17 0.541070 0.011999 0.727395
O O18 0.523481 0.750000 0.219017
#
# Coordination Sequence:
#
# PCOD8068779 Si02
#       7
#     4   4   4   4   4   4   4
#     4  10  18  29  44  63  90 120 147 177 216 258
#     4   9  18  32  46  60  84 117 148 178 211 250
#     4   9  18  32  47  63  87 118 150 183 216 252
#     4  10  19  29  44  67  90 115 149 182 215 256
#     4   8  16  28  42  61  85 114 145 176 212 256
#     4  10  19  29  44  67  90 113 143 176 215 261
#     4  10  18  29  45  65  89 116 147 180 214 255
#
# _framework density 15.615565
#
# number of rings (size 3 to 8) (size 9 to 14) (size 15 to 20)
#    0.000    2.571    0.000    2.571    0.000    4.000 
#    0.000    0.000    0.000    0.000    0.000    1.000 
#    0.000    0.000    0.000    0.000    0.000    0.000 
#
# Total GULP energy -347022.106943 kJ/mol
# GULP energy per Si atom -12393.646677 kJ/mol
# Density = 1.558002 g / cm^3
# Si number density = 15.615565 Si / 1000 Ang^3
#
#
#
# Elastic Constant Matrix: (Units=GPa)
#
#
# Indices 1 2 3 4 5 6 
#
# 1 74.9229 34.9266 45.6045 0.0000 -0.4870 0.0000
# 2 34.9266 83.7570 60.7541 0.0000 -0.0144 0.0000
# 3 45.6045 60.7541 125.2203 0.0000 0.9656 0.0000
# 4 0.0000 0.0000 0.0000 25.5223 0.0000 -1.2851
# 5 -0.4870 -0.0144 0.9656 0.0000 17.4491 0.0000
# 6 0.0000 0.0000 0.0000 -1.2851 0.0000 23.2648
#
#
#
# Elastic Compliance Matrix: (Units=1/GPa)
#
#
# Indices 1 2 3 4 5 6 
#
# 1 0.018095 -0.004260 -0.004529 0.000000 0.000752 0.000000
# 2 -0.004260 0.019430 -0.007878 0.000000 0.000333 0.000000
# 3 -0.004529 -0.007878 0.013464 0.000000 -0.000878 0.000000
# 4 0.000000 0.000000 0.000000 0.039291 0.000000 0.002170
# 5 0.000752 0.000333 -0.000878 0.000000 0.057379 0.000000
# 6 0.000000 0.000000 0.000000 0.002170 0.000000 0.043103
#
#
# Mechanical properties :
#
#
# Convention : Reuss Voigt Hill
#
# Bulk Modulus (GPa) = 56.64163 62.94120 59.79141
# Shear Modulus (GPa) = 21.74082 22.75491 22.24786
#
# Velocity S-wave (km/s) = 3.73534 3.82146 3.77865
# Velocity P-wave (km/s) = 7.41316 7.73729 7.57696
#
# Compressibility (1/GPa) = 0.01765486
#
# Stress axis : x y z
#
# Youngs Moduli (GPa) = 55.26530 51.46556 74.27018
#
# Poissons Ratio (x) = 0.21926 0.33635
# Poissons Ratio (y) = 0.23545 0.58512
# Poissons Ratio (z) = 0.25028 0.40546
#
# Static dielectric constant tensor:
#      x y z
#    x 2.727420 0.000000 0.068720 
#    y 0.000000 3.114660 0.000000 
#    z 0.068720 0.000000 3.531990 
# 
# 
# High freq. dielectric constant tensor:
#      x y z
#    x 1.562740 0.000000 0.001420 
#    y 0.000000 1.615390 0.000000 
#    z 0.001420 0.000000 1.601060 
# 
# From -- ./inp_files/37487.got.cif
#   From: 2010.06.25/outbox.cif.g09.slc.cpg/sg11_19_cif.got.tgz:37487.got - 2010.06.27 23:14:04.
