data_PCOD8068169
_publ_section_title
;
Structure prediction by ZEFSAII (Michael W. Deem and Ramdas Pophale) SiO2 
 PCOD8068169
Probable space group: P 21/M
;
_chemical_formula_sum "Si O2"
_cell_formula_units_Z 32
_cell_length_a 10.782848
_cell_length_b 19.146441
_cell_length_c 11.200667
_cell_angle_alpha 90.000000
_cell_angle_beta 52.981224
_cell_angle_gamma 90.000000
_cell_volume 1846.319094
_symmetry_space_group_name_H-M "P 21/M"
_symmetry_group_IT_number 11
_symmetry_cell_setting 'monoclinic'
loop_
_space_group_symop_operation_xyz
x,y,z
-x,1/2+y,-z
-x,-y,-z
x,1/2-y,z
loop_
_atom_site_type_symbol
_atom_site_label
_atom_site_fract_x
_atom_site_fract_y
_atom_site_fract_z
Si Si1 0.683130 0.328752 0.669652
Si Si2 0.962329 0.986709 0.217805
Si Si3 0.682663 0.067295 0.466694
Si Si4 0.656476 0.827016 0.025078
Si Si5 0.819366 0.940062 0.079035
Si Si6 0.739368 0.444429 0.816205
Si Si7 0.557652 0.041869 0.290849
Si Si8 0.573065 0.917885 0.860771
O O1 0.754915 0.250000 0.629129
O O2 0.690308 0.358796 0.530762
O O3 0.511379 0.325347 0.819921
O O4 0.774606 0.383063 0.700916
O O5 0.862988 0.931276 0.194585
O O6 0.098677 0.948344 0.208374
O O7 0.848730 0.028005 0.373302
O O8 0.028435 0.042215 0.085216
O O9 0.629531 0.083174 0.361267
O O10 0.558605 0.018335 0.601571
O O11 0.726808 0.750000 0.971676
O O12 0.761091 0.868057 0.058124
O O13 0.657236 0.858153 0.889465
O O14 0.690808 0.001176 0.138448
O O15 0.693329 0.517541 0.781806
O O16 0.593512 0.430110 0.984046
O O17 0.470550 0.097397 0.253146
#
# Coordination Sequence:
#
# PCOD8068169 Si02
#       8
#     4   4   4   4   4   4   4   4
#     4  10  20  35  53  74 105 141 175 211 260 317
#     4  10  20  29  52  81 106 128 169 219 260 302
#     4  10  20  31  50  80 106 133 170 211 261 311
#     4  10  19  32  54  78 101 136 180 216 257 312
#     4  10  17  33  51  77 106 134 169 214 260 300
#     4  10  17  31  53  80 101 133 174 217 256 300
#     4  10  17  32  54  76 102 131 174 221 251 296
#     4  10  16  30  54  77 101 131 174 223 254 289
#
# _framework density 17.331779999999998
#
# number of rings (size 3 to 8) (size 9 to 14) (size 15 to 20)
#    0.000    2.000    5.000    0.750    0.000    0.500 
#    0.000    1.875    0.000    0.000    0.000    0.000 
#    0.000    0.000    0.000    0.000    0.000    0.000 
#
# Total GULP energy -396464.266559 kJ/mol
# GULP energy per Si atom -12389.508330 kJ/mol
# Density = 1.729233 g / cm^3
# Si number density = 17.331780 Si / 1000 Ang^3
#
#
#
# Elastic Constant Matrix: (Units=GPa)
#
#
# Indices 1 2 3 4 5 6 
#
# 1 101.6098 60.7667 32.6852 0.0000 21.7437 0.0000
# 2 60.7667 113.7613 30.0071 0.0000 23.0100 0.0000
# 3 32.6852 30.0071 38.4158 0.0000 11.1854 0.0000
# 4 0.0000 0.0000 0.0000 15.7913 0.0000 6.6793
# 5 21.7437 23.0100 11.1854 0.0000 31.7899 0.0000
# 6 0.0000 0.0000 0.0000 6.6793 0.0000 18.5740
#
#
#
# Elastic Compliance Matrix: (Units=1/GPa)
#
#
# Indices 1 2 3 4 5 6 
#
# 1 0.017133 -0.005998 -0.008628 0.000000 -0.004342 0.000000
# 2 -0.005998 0.014121 -0.004619 0.000000 -0.004494 0.000000
# 3 -0.008628 -0.004619 0.038202 0.000000 -0.004197 0.000000
# 4 0.000000 0.000000 0.000000 0.074686 0.000000 -0.026857
# 5 -0.004342 -0.004494 -0.004197 0.000000 0.039155 0.000000
# 6 0.000000 0.000000 0.000000 -0.026857 0.000000 0.063497
#
#
# Mechanical properties :
#
#
# Convention : Reuss Voigt Hill
#
# Bulk Modulus (GPa) = 32.29287 55.63387 43.96337
# Shear Modulus (GPa) = 16.91438 21.91956 19.41697
#
# Velocity S-wave (km/s) = 3.12736 3.56012 3.35073
# Velocity P-wave (km/s) = 5.63144 7.00488 6.35537
#
# Compressibility (1/GPa) = 0.03096659
#
# Stress axis : x y z
#
# Youngs Moduli (GPa) = 58.36706 70.81478 26.17666
#
# Poissons Ratio (x) = 0.42473 0.22586
# Poissons Ratio (y) = 0.35007 0.12091
# Poissons Ratio (z) = 0.50360 0.32709
#
# Static dielectric constant tensor:
#      x y z
#    x 3.458350 0.000000 0.152910 
#    y 0.000000 3.182570 0.000000 
#    z 0.152910 0.000000 3.253810 
# 
# 
# High freq. dielectric constant tensor:
#      x y z
#    x 1.679510 0.000000 0.010160 
#    y 0.000000 1.624030 0.000000 
#    z 0.010160 0.000000 1.665430 
# 
# From -- ./inp_files/36019.got.cif
#   From: 2010.06.25/outbox.cif.g09.slc.cpg/sg11_19_cif.got.tgz:36019.got - 2010.06.27 23:14:04.
