data_PCOD8068714
_publ_section_title
;
Structure prediction by ZEFSAII (Michael W. Deem and Ramdas Pophale) SiO2 
 PCOD8068714
Probable space group: P 21/M
;
_chemical_formula_sum "Si O2"
_cell_formula_units_Z 32
_cell_length_a 14.094090
_cell_length_b 8.769881
_cell_length_c 14.803074
_cell_angle_alpha 90.000000
_cell_angle_beta 88.727758
_cell_angle_gamma 90.000000
_cell_volume 1829.260586
_symmetry_space_group_name_H-M "P 21/M"
_symmetry_group_IT_number 11
_symmetry_cell_setting 'monoclinic'
loop_
_space_group_symop_operation_xyz
x,y,z
-x,1/2+y,-z
-x,-y,-z
x,1/2-y,z
loop_
_atom_site_type_symbol
_atom_site_label
_atom_site_fract_x
_atom_site_fract_y
_atom_site_fract_z
Si Si1 0.387160 0.070517 0.263161
Si Si2 0.514108 0.073897 0.095560
Si Si3 0.333107 0.927770 0.772531
Si Si4 0.691978 0.077011 0.474284
Si Si5 0.784666 0.077633 0.664927
Si Si6 0.463465 0.430155 0.619064
Si Si7 0.985868 0.070195 0.598385
Si Si8 0.181444 0.071830 0.676659
O O1 0.398273 0.250000 0.272451
O O2 0.438262 0.011494 0.170608
O O3 0.276201 0.021714 0.262114
O O4 0.435328 0.994150 0.350528
O O5 0.495713 0.250000 0.081580
O O6 0.621444 0.040995 0.129710
O O7 0.500000 0.000000 0.000000
O O8 0.345576 0.750000 0.748586
O O9 0.387987 0.030861 0.699043
O O10 0.223125 0.980877 0.763887
O O11 0.694968 0.250000 0.437461
O O12 0.726178 0.069329 0.574629
O O13 0.582615 0.013474 0.468997
O O14 0.762601 0.973054 0.414838
O O15 0.791761 0.250000 0.701314
O O16 0.889635 0.008084 0.647569
O O17 0.472168 0.250000 0.602124
O O18 0.976952 0.250000 0.583399
O O19 0.071661 0.026795 0.663674
O O20 0.000000 0.000000 0.500000
O O21 0.192136 0.250000 0.694463
#
# Coordination Sequence:
#
# PCOD8068714 Si02
#       8
#     4   4   4   4   4   4   4   4
#     4  10  21  36  50  69  97 126 158 196 239 291
#     4   9  19  34  54  79 102 125 152 187 235 294
#     4   9  17  30  47  71 102 129 157 194 238 288
#     4  10  18  29  45  64  91 127 166 206 245 282
#     4  10  21  34  47  66  93 129 169 207 247 287
#     4  10  18  29  46  66  91 125 164 200 238 283
#     4  10  20  33  48  69  96 128 173 218 252 287
#     4  10  18  28  46  70  96 128 168 210 248 284
#
# _framework density 17.493407000000001
#
# number of rings (size 3 to 8) (size 9 to 14) (size 15 to 20)
#    0.000    2.250    1.250    4.875    0.000    5.500 
#    0.000    0.000    0.000    0.000    0.000    0.875 
#    0.000    0.000    0.000    0.000    0.000    0.000 
#
# Total GULP energy -396572.012961 kJ/mol
# GULP energy per Si atom -12392.875405 kJ/mol
# Density = 1.745359 g / cm^3
# Si number density = 17.493407 Si / 1000 Ang^3
#
#
#
# Elastic Constant Matrix: (Units=GPa)
#
#
# Indices 1 2 3 4 5 6 
#
# 1 142.3094 35.4333 40.4181 0.0000 -0.6903 0.0000
# 2 35.4333 55.7991 15.8960 0.0000 4.7215 0.0000
# 3 40.4181 15.8960 49.9263 0.0000 9.2540 0.0000
# 4 0.0000 0.0000 0.0000 22.9356 0.0000 3.3347
# 5 -0.6903 4.7215 9.2540 0.0000 19.4174 0.0000
# 6 0.0000 0.0000 0.0000 3.3347 0.0000 24.5908
#
#
#
# Elastic Compliance Matrix: (Units=1/GPa)
#
#
# Indices 1 2 3 4 5 6 
#
# 1 0.010527 -0.004869 -0.007965 0.000000 0.005354 0.000000
# 2 -0.004869 0.022031 -0.002246 0.000000 -0.004460 0.000000
# 3 -0.007965 -0.002246 0.029774 0.000000 -0.013927 0.000000
# 4 0.000000 0.000000 0.000000 0.044477 0.000000 -0.006031
# 5 0.005354 -0.004460 -0.013927 0.000000 0.059412 0.000000
# 6 0.000000 0.000000 0.000000 -0.006031 0.000000 0.041484
#
#
# Mechanical properties :
#
#
# Convention : Reuss Voigt Hill
#
# Bulk Modulus (GPa) = 31.08241 47.94773 39.51507
# Shear Modulus (GPa) = 20.11360 23.80791 21.96075
#
# Velocity S-wave (km/s) = 3.39452 3.69313 3.54697
# Velocity P-wave (km/s) = 5.75937 6.75678 6.27792
#
# Compressibility (1/GPa) = 0.03217254
#
# Stress axis : x y z
#
# Youngs Moduli (GPa) = 94.99080 45.39147 33.58665
#
# Poissons Ratio (x) = 0.22102 0.26750
# Poissons Ratio (y) = 0.46252 0.07543
# Poissons Ratio (z) = 0.75656 0.10194
#
# Static dielectric constant tensor:
#      x y z
#    x 3.766980 0.000000 0.166130 
#    y 0.000000 3.563340 0.000000 
#    z 0.166130 0.000000 3.010210 
# 
# 
# High freq. dielectric constant tensor:
#      x y z
#    x 1.684240 0.000000 0.009910 
#    y 0.000000 1.680480 0.000000 
#    z 0.009910 0.000000 1.627410 
# 
# From -- ./inp_files/51190.got.cif
#   From: 2010.06.25/outbox.cif.g09.slc.cpg/sg11_26_cif.got.tgz:51190.got - 2010.06.27 23:14:04.
