data_PCOD8068835
_publ_section_title
;
Structure prediction by ZEFSAII (Michael W. Deem and Ramdas Pophale) SiO2 
 PCOD8068835
Probable space group: P 21/M
;
_chemical_formula_sum "Si O2"
_cell_formula_units_Z 32
_cell_length_a 20.345138
_cell_length_b 8.596544
_cell_length_c 28.993710
_cell_angle_alpha 90.000000
_cell_angle_beta 20.696251
_cell_angle_gamma 90.000000
_cell_volume 1792.138714
_symmetry_space_group_name_H-M "P 21/M"
_symmetry_group_IT_number 11
_symmetry_cell_setting 'monoclinic'
loop_
_space_group_symop_operation_xyz
x,y,z
-x,1/2+y,-z
-x,-y,-z
x,1/2-y,z
loop_
_atom_site_type_symbol
_atom_site_label
_atom_site_fract_x
_atom_site_fract_y
_atom_site_fract_z
Si Si1 0.565269 0.935024 0.807906
Si Si2 0.114846 0.066586 0.333996
Si Si3 0.204298 0.067318 0.690722
Si Si4 0.287213 0.066149 0.386328
Si Si5 0.173922 0.564602 0.099903
Si Si6 0.507459 0.930386 0.427434
Si Si7 0.939410 0.433008 0.725027
Si Si8 0.665767 0.069406 0.550849
O O1 0.561001 0.750000 0.811707
O O2 0.719299 0.995620 0.742724
O O3 0.615032 0.995686 0.724221
O O4 0.364866 0.004021 0.953913
O O5 0.087030 0.250000 0.356953
O O6 0.162830 0.021726 0.249793
O O7 0.927397 0.982750 0.473290
O O8 0.181173 0.250000 0.705115
O O9 0.295839 0.012344 0.679521
O O10 0.998536 0.996312 0.817274
O O11 0.337777 0.022134 0.561245
O O12 0.300769 0.250000 0.381479
O O13 0.396372 0.990685 0.358049
O O14 0.175754 0.750000 0.096810
O O15 0.153262 0.510508 0.166488
O O16 0.478040 0.750000 0.458899
O O17 0.501817 0.958082 0.375887
O O18 0.916613 0.250000 0.732611
O O19 0.156755 0.473965 0.583039
O O20 0.720917 0.250000 0.517776
#
# Coordination Sequence:
#
# PCOD8068835 Si02
#       8
#     4   4   4   4   4   4   4   4
#     4   9  19  33  48  68  91 121 158 195 233 272
#     4  10  19  32  50  69  93 120 149 193 243 279
#     4   9  16  28  47  70  94 124 154 183 220 268
#     4  10  19  32  51  70  89 116 158 202 233 268
#     4   9  17  30  48  68  95 125 155 189 224 271
#     4   9  17  27  44  71  99 122 149 184 226 272
#     4  10  18  29  47  71  95 121 154 189 226 274
#     4  10  18  29  46  69  99 125 148 187 235 277
#
# _framework density 17.855761999999999
#
# number of rings (size 3 to 8) (size 9 to 14) (size 15 to 20)
#    0.000    2.500    1.250    3.375    0.000    1.000 
#    0.000    1.875    0.000    9.000    0.000    0.000 
#    0.000    0.000    0.000    0.000    0.000    1.000 
#
# Total GULP energy -396629.003733 kJ/mol
# GULP energy per Si atom -12394.656367 kJ/mol
# Density = 1.781512 g / cm^3
# Si number density = 17.855762 Si / 1000 Ang^3
#
#
#
# Elastic Constant Matrix: (Units=GPa)
#
#
# Indices 1 2 3 4 5 6 
#
# 1 183.5154 16.4567 80.6880 0.0000 -1.2872 0.0000
# 2 16.4567 13.9404 2.5311 0.0000 -1.3971 0.0000
# 3 80.6880 2.5311 97.5003 0.0000 7.7736 0.0000
# 4 0.0000 0.0000 0.0000 12.1458 0.0000 -1.1099
# 5 -1.2872 -1.3971 7.7736 0.0000 20.7994 0.0000
# 6 0.0000 0.0000 0.0000 -1.1099 0.0000 19.7904
#
#
#
# Elastic Compliance Matrix: (Units=1/GPa)
#
#
# Indices 1 2 3 4 5 6 
#
# 1 0.009997 -0.009998 -0.008255 0.000000 0.003032 0.000000
# 2 -0.009998 0.082738 0.005909 0.000000 0.002730 0.000000
# 3 -0.008255 0.005909 0.017464 0.000000 -0.006641 0.000000
# 4 0.000000 0.000000 0.000000 0.082757 0.000000 0.004641
# 5 0.003032 0.002730 -0.006641 0.000000 0.050931 0.000000
# 6 0.000000 0.000000 0.000000 0.004641 0.000000 0.050790
#
#
# Mechanical properties :
#
#
# Convention : Reuss Voigt Hill
#
# Bulk Modulus (GPa) = 11.69465 54.92306 33.30885
# Shear Modulus (GPa) = 14.37323 23.56580 18.96951
#
# Velocity S-wave (km/s) = 2.84027 3.63683 3.26295
# Velocity P-wave (km/s) = 4.16171 6.96142 5.73504
#
# Compressibility (1/GPa) = 0.08550921
#
# Stress axis : x y z
#
# Youngs Moduli (GPa) = 100.03433 12.08638 57.26040
#
# Poissons Ratio (x) = 0.12084 0.47269
# Poissons Ratio (y) = 1.00017 -0.33833
# Poissons Ratio (z) = 0.82579 -0.07141
#
# Static dielectric constant tensor:
#      x y z
#    x 3.792990 0.000000 -0.121980 
#    y 0.000000 3.116040 0.000000 
#    z -0.121980 0.000000 3.294760 
# 
# 
# High freq. dielectric constant tensor:
#      x y z
#    x 1.710340 0.000000 -0.006100 
#    y 0.000000 1.674540 0.000000 
#    z -0.006100 0.000000 1.653760 
# 
# From -- ./inp_files/73622.got.cif
#   From: 2010.06.25/outbox.cif.g09.slc.cpg/sg11_37_cif.got.tgz:73622.got - 2010.06.27 23:14:04.
