data_PCOD8068756
_publ_section_title
;
Structure prediction by ZEFSAII (Michael W. Deem and Ramdas Pophale) SiO2 
 PCOD8068756
Probable space group: P 21/M
;
_chemical_formula_sum "Si O2"
_cell_formula_units_Z 32
_cell_length_a 22.213734
_cell_length_b 9.139768
_cell_length_c 15.320710
_cell_angle_alpha 90.000000
_cell_angle_beta 32.899922
_cell_angle_gamma 90.000000
_cell_volume 1689.561678
_symmetry_space_group_name_H-M "P 21/M"
_symmetry_group_IT_number 11
_symmetry_cell_setting 'monoclinic'
loop_
_space_group_symop_operation_xyz
x,y,z
-x,1/2+y,-z
-x,-y,-z
x,1/2-y,z
loop_
_atom_site_type_symbol
_atom_site_label
_atom_site_fract_x
_atom_site_fract_y
_atom_site_fract_z
Si Si1 0.231787 0.414661 0.887024
Si Si2 0.105831 0.923856 0.187537
Si Si3 0.765858 0.421074 0.797680
Si Si4 0.462300 0.918565 0.856798
Si Si5 0.128277 0.924526 0.508488
Si Si6 0.468613 0.415386 0.674572
Si Si7 0.712210 0.918974 0.556774
Si Si8 0.316204 0.081091 0.606935
O O1 0.189607 0.250000 0.959999
O O2 0.363057 0.426930 0.741085
O O3 0.220825 0.449555 0.796155
O O4 0.164221 0.530183 0.026217
O O5 0.091103 0.750000 0.205352
O O6 0.177430 0.981619 0.182828
O O7 0.988496 0.001115 0.334244
O O8 0.786189 0.250000 0.770683
O O9 0.823106 0.487495 0.642001
O O10 0.634014 0.457972 0.955904
O O11 0.452053 0.750000 0.840614
O O12 0.585636 0.949115 0.742697
O O13 0.434641 0.012910 0.806757
O O14 0.116432 0.750000 0.523619
O O15 0.209845 0.972050 0.486037
O O16 0.503435 0.250000 0.650780
O O17 0.573075 0.493472 0.503377
O O18 0.745072 0.750000 0.533805
O O19 0.727034 0.960892 0.436840
O O20 0.350965 0.250000 0.565014
#
# Coordination Sequence:
#
# PCOD8068756 Si02
#       8
#     4   4   4   4   4   4   4   4
#     4  10  20  34  53  82 114 144 180 224 276 324
#     4  11  22  38  60  83 110 143 184 227 272 333
#     4   9  19  36  59  85 110 142 180 222 278 335
#     4   9  17  34  57  80 112 149 182 219 272 330
#     4  11  23  39  58  79 109 146 185 232 279 323
#     4  10  18  28  48  82 118 144 177 222 269 324
#     4   9  19  36  57  80 109 147 189 225 262 321
#     4   9  19  35  55  77 110 152 185 219 267 326
#
# _framework density 18.939823000000001
#
# number of rings (size 3 to 8) (size 9 to 14) (size 15 to 20)
#    0.000    2.250    1.250    2.625    0.000    3.500 
#    0.000    3.750    0.000    0.000    0.000    0.000 
#    0.000    0.000    0.000    0.000    0.000    0.000 
#
# Total GULP energy -396692.194533 kJ/mol
# GULP energy per Si atom -12396.631079 kJ/mol
# Density = 1.889672 g / cm^3
# Si number density = 18.939823 Si / 1000 Ang^3
#
#
#
# Elastic Constant Matrix: (Units=GPa)
#
#
# Indices 1 2 3 4 5 6 
#
# 1 92.0945 41.8215 70.8659 0.0000 -1.7081 0.0000
# 2 41.8215 78.9937 54.5556 0.0000 -1.8796 0.0000
# 3 70.8659 54.5556 143.4876 0.0000 6.4888 0.0000
# 4 0.0000 0.0000 0.0000 25.5322 0.0000 -0.3851
# 5 -1.7081 -1.8796 6.4888 0.0000 28.7810 0.0000
# 6 0.0000 0.0000 0.0000 -0.3851 0.0000 24.3299
#
#
#
# Elastic Compliance Matrix: (Units=1/GPa)
#
#
# Indices 1 2 3 4 5 6 
#
# 1 0.018946 -0.004648 -0.007706 0.000000 0.002558 0.000000
# 2 -0.004648 0.018505 -0.004832 0.000000 0.002022 0.000000
# 3 -0.007706 -0.004832 0.012777 0.000000 -0.003653 0.000000
# 4 0.000000 0.000000 0.000000 0.039176 0.000000 0.000620
# 5 0.002558 0.002022 -0.003653 0.000000 0.035853 0.000000
# 6 0.000000 0.000000 0.000000 0.000620 0.000000 0.041112
#
#
# Mechanical properties :
#
#
# Convention : Reuss Voigt Hill
#
# Bulk Modulus (GPa) = 63.06080 72.11800 67.58940
# Shear Modulus (GPa) = 24.26899 25.55079 24.90989
#
# Velocity S-wave (km/s) = 3.58351 3.67693 3.63052
# Velocity P-wave (km/s) = 7.10561 7.49577 7.30329
#
# Compressibility (1/GPa) = 0.01585771
#
# Stress axis : x y z
#
# Youngs Moduli (GPa) = 52.78196 54.03933 78.26473
#
# Poissons Ratio (x) = 0.25117 0.60307
# Poissons Ratio (y) = 0.24533 0.37815
# Poissons Ratio (z) = 0.40671 0.26110
#
# Static dielectric constant tensor:
#      x y z
#    x 3.421290 0.000000 0.178550 
#    y 0.000000 3.380990 0.000000 
#    z 0.178550 0.000000 3.653580 
# 
# 
# High freq. dielectric constant tensor:
#      x y z
#    x 1.720950 0.000000 0.009150 
#    y 0.000000 1.726860 0.000000 
#    z 0.009150 0.000000 1.742250 
# 
# From -- ./inp_files/55554.got.cif
#   From: 2010.06.25/outbox.cif.g09.slc.cpg/sg11_28_cif.got.tgz:55554.got - 2010.06.27 23:14:04.
