data_PCOD8068165
_publ_section_title
;
Structure prediction by ZEFSAII (Michael W. Deem and Ramdas Pophale) SiO2 
 PCOD8068165
Probable space group: P 21/M
;
_chemical_formula_sum "Si O2"
_cell_formula_units_Z 24
_cell_length_a 12.182711
_cell_length_b 18.180718
_cell_length_c 15.822618
_cell_angle_alpha 90.000000
_cell_angle_beta 23.290049
_cell_angle_gamma 90.000000
_cell_volume 1385.653313
_symmetry_space_group_name_H-M "P 21/M"
_symmetry_group_IT_number 11
_symmetry_cell_setting 'monoclinic'
loop_
_space_group_symop_operation_xyz
x,y,z
-x,1/2+y,-z
-x,-y,-z
x,1/2-y,z
loop_
_atom_site_type_symbol
_atom_site_label
_atom_site_fract_x
_atom_site_fract_y
_atom_site_fract_z
Si Si1 0.907678 0.461334 0.150603
Si Si2 0.106522 0.665078 0.434984
Si Si3 0.320112 0.463124 0.526929
Si Si4 0.333956 0.454312 0.232235
Si Si5 0.505202 0.436077 0.740131
Si Si6 0.842721 0.080506 0.754524
O O1 0.610924 0.420391 0.343114
O O2 0.848848 0.517955 0.268790
O O3 0.000000 0.500000 0.000000
O O4 0.178461 0.411411 0.979971
O O5 0.057164 0.750000 0.488914
O O6 0.319376 0.634166 0.354246
O O7 0.218833 0.652294 0.259704
O O8 0.815332 0.622276 0.643109
O O9 0.400689 0.539352 0.420729
O O10 0.125243 0.410762 0.608118
O O11 0.455948 0.491774 0.229319
O O12 0.121354 0.510673 0.335424
O O13 0.584553 0.433601 0.995167
#
# Coordination Sequence:
#
# PCOD8068165 Si02
#       6
#     4   4   4   4   4   4
#     4   9  19  28  48  82 104 118 162 217 263 295
#     4  11  22  33  48  75 109 138 168 205 250 308
#     4  10  16  30  51  78 102 126 162 214 254 300
#     4  10  18  31  52  75 101 131 168 211 252 301
#     4  10  17  32  52  75 101 134 167 209 257 298
#     4  10  18  31  54  75  99 136 171 203 254 301
#
# _framework density 17.320349
#
# number of rings (size 3 to 8) (size 9 to 14) (size 15 to 20)
#    0.000    2.000    5.000    1.000    0.000    0.667 
#    0.000    0.000    0.000    1.000    0.000    9.333 
#    0.000    0.000    0.000    0.000    0.000    0.000 
#
# Total GULP energy -297338.097288 kJ/mol
# GULP energy per Si atom -12389.087387 kJ/mol
# Density = 1.728093 g / cm^3
# Si number density = 17.320349 Si / 1000 Ang^3
#
#
#
# Elastic Constant Matrix: (Units=GPa)
#
#
# Indices 1 2 3 4 5 6 
#
# 1 94.1778 24.1272 39.4664 0.0000 -9.4517 0.0000
# 2 24.1272 85.3627 24.3789 0.0000 -4.8450 0.0000
# 3 39.4664 24.3789 68.7531 0.0000 2.0216 0.0000
# 4 0.0000 0.0000 0.0000 11.2425 0.0000 -0.1614
# 5 -9.4517 -4.8450 2.0216 0.0000 43.7040 0.0000
# 6 0.0000 0.0000 0.0000 -0.1614 0.0000 12.5010
#
#
#
# Elastic Compliance Matrix: (Units=1/GPa)
#
#
# Indices 1 2 3 4 5 6 
#
# 1 0.014721 -0.001701 -0.007946 0.000000 0.003363 0.000000
# 2 -0.001701 0.013353 -0.003796 0.000000 0.001288 0.000000
# 3 -0.007946 -0.003796 0.020543 0.000000 -0.003090 0.000000
# 4 0.000000 0.000000 0.000000 0.088964 0.000000 0.001149
# 5 0.003363 0.001288 -0.003090 0.000000 0.023894 0.000000
# 6 0.000000 0.000000 0.000000 0.001149 0.000000 0.080009
#
#
# Mechanical properties :
#
#
# Convention : Reuss Voigt Hill
#
# Bulk Modulus (GPa) = 46.01800 47.13762 46.57781
# Shear Modulus (GPa) = 18.14125 24.17757 21.15941
#
# Velocity S-wave (km/s) = 3.23986 3.74024 3.49900
# Velocity P-wave (km/s) = 6.37354 6.77693 6.57833
#
# Compressibility (1/GPa) = 0.02173063
#
# Stress axis : x y z
#
# Youngs Moduli (GPa) = 67.92822 74.89120 48.67774
#
# Poissons Ratio (x) = 0.12736 0.38681
# Poissons Ratio (y) = 0.11552 0.18480
# Poissons Ratio (z) = 0.53979 0.28431
#
# Static dielectric constant tensor:
#      x y z
#    x 3.717380 0.000000 -0.128610 
#    y 0.000000 2.580250 0.000000 
#    z -0.128610 0.000000 3.677710 
# 
# 
# High freq. dielectric constant tensor:
#      x y z
#    x 1.692040 0.000000 -0.000470 
#    y 0.000000 1.579940 0.000000 
#    z -0.000470 0.000000 1.700860 
# 
# From -- ./inp_files/50327.got.cif
#   From: 2010.06.25/outbox.cif.g09.slc.cpg/sg11_26_cif.got.tgz:50327.got - 2010.06.27 23:14:04.
