data_PCOD8068804
_publ_section_title
;
Structure prediction by ZEFSAII (Michael W. Deem and Ramdas Pophale) SiO2 
 PCOD8068804
Probable space group: P 21/M
;
_chemical_formula_sum "Si O2"
_cell_formula_units_Z 32
_cell_length_a 11.406435
_cell_length_b 18.963008
_cell_length_c 21.610729
_cell_angle_alpha 90.000000
_cell_angle_beta 24.784542
_cell_angle_gamma 90.000000
_cell_volume 1959.545095
_symmetry_space_group_name_H-M "P 21/M"
_symmetry_group_IT_number 11
_symmetry_cell_setting 'monoclinic'
loop_
_space_group_symop_operation_xyz
x,y,z
-x,1/2+y,-z
-x,-y,-z
x,1/2-y,z
loop_
_atom_site_type_symbol
_atom_site_label
_atom_site_fract_x
_atom_site_fract_y
_atom_site_fract_z
Si Si1 0.781250 0.673685 0.484796
Si Si2 0.832037 0.471721 0.275849
Si Si3 0.103288 0.953484 0.508203
Si Si4 0.840760 0.389914 0.090397
Si Si5 0.745816 0.669214 0.643126
Si Si6 0.880219 0.172033 0.199988
Si Si7 0.254567 0.460962 0.806907
Si Si8 0.833920 0.535898 0.401395
O O1 0.913391 0.750000 0.406010
O O2 0.835760 0.652166 0.529542
O O3 0.450362 0.677120 0.636208
O O4 0.920715 0.617519 0.371257
O O5 0.972005 0.393462 0.200356
O O6 0.893932 0.522553 0.187829
O O7 0.958543 0.506954 0.277150
O O8 0.499498 0.466308 0.439456
O O9 0.429653 0.933855 0.349111
O O10 0.937985 0.880179 0.593042
O O11 0.036452 0.992460 0.604352
O O12 0.000000 0.000000 0.500000
O O13 0.580183 0.346751 0.187875
O O14 0.968893 0.347626 0.087365
O O15 0.729752 0.466885 0.162171
O O16 0.079409 0.399256 0.924245
O O17 0.804278 0.750000 0.632525
O O18 0.007427 0.250000 0.156472
#
# Coordination Sequence:
#
# PCOD8068804 Si02
#       8
#     4   4   4   4   4   4   4   4
#     4   8  13  22  39  62  84 109 149 194 226 269
#     4   8  15  26  40  64  92 121 155 191 229 271
#     4  11  17  29  46  71  98 122 148 193 242 280
#     4   9  15  27  45  69  88 119 153 195 233 270
#     4  10  18  29  45  67  95 124 156 189 235 293
#     4   8  13  23  40  62  85 112 152 192 227 267
#     4   9  17  27  46  70  94 117 152 198 234 274
#     4   9  15  25  43  63  91 125 154 187 230 277
#
# _framework density 16.33032
#
# number of rings (size 3 to 8) (size 9 to 14) (size 15 to 20)
#    0.000    3.000    2.500    2.625    0.000    0.000 
#    0.000    1.875    0.000    6.750    0.000    0.000 
#    0.000    0.000    0.000    0.000    0.000    0.000 
#
# Total GULP energy -396498.865001 kJ/mol
# GULP energy per Si atom -12390.589531 kJ/mol
# Density = 1.629315 g / cm^3
# Si number density = 16.330320 Si / 1000 Ang^3
#
#
#
# Elastic Constant Matrix: (Units=GPa)
#
#
# Indices 1 2 3 4 5 6 
#
# 1 76.8466 51.8346 28.5273 0.0000 18.3251 0.0000
# 2 51.8346 127.7377 39.3039 0.0000 15.5224 0.0000
# 3 28.5273 39.3039 47.7867 0.0000 14.2391 0.0000
# 4 0.0000 0.0000 0.0000 21.5472 0.0000 1.8987
# 5 18.3251 15.5224 14.2391 0.0000 18.5943 0.0000
# 6 0.0000 0.0000 0.0000 1.8987 0.0000 21.5882
#
#
#
# Elastic Compliance Matrix: (Units=1/GPa)
#
#
# Indices 1 2 3 4 5 6 
#
# 1 0.021711 -0.005925 -0.004128 0.000000 -0.013290 0.000000
# 2 -0.005925 0.012210 -0.006748 0.000000 0.000814 0.000000
# 3 -0.004128 -0.006748 0.033751 0.000000 -0.016145 0.000000
# 4 0.000000 0.000000 0.000000 0.046772 0.000000 -0.004114
# 5 -0.013290 0.000814 -0.016145 0.000000 0.078561 0.000000
# 6 0.000000 0.000000 0.000000 -0.004114 0.000000 0.046683
#
#
# Mechanical properties :
#
#
# Convention : Reuss Voigt Hill
#
# Bulk Modulus (GPa) = 29.35052 54.63363 41.99208
# Shear Modulus (GPa) = 17.56552 21.19295 19.37923
#
# Velocity S-wave (km/s) = 3.28325 3.60636 3.44859
# Velocity P-wave (km/s) = 5.69078 7.13226 6.45190
#
# Compressibility (1/GPa) = 0.03407095
#
# Stress axis : x y z
#
# Youngs Moduli (GPa) = 46.05983 81.89752 29.62838
#
# Poissons Ratio (x) = 0.48525 0.12229
# Poissons Ratio (y) = 0.27291 0.19994
# Poissons Ratio (z) = 0.19011 0.55266
#
# Static dielectric constant tensor:
#      x y z
#    x 2.976260 0.000000 0.235640 
#    y 0.000000 3.428290 0.000000 
#    z 0.235640 0.000000 2.818730 
# 
# 
# High freq. dielectric constant tensor:
#      x y z
#    x 1.598660 0.000000 0.013980 
#    y 0.000000 1.634470 0.000000 
#    z 0.013980 0.000000 1.584580 
# 
# From -- ./inp_files/64858.got.cif
#   From: 2010.06.25/outbox.cif.g09.slc.cpg/sg11_33_cif.got.tgz:64858.got - 2010.06.27 23:14:04.
