data_PCOD8068456
_publ_section_title
;
Structure prediction by ZEFSAII (Michael W. Deem and Ramdas Pophale) SiO2 
 PCOD8068456
Probable space group: P 21/M
;
_chemical_formula_sum "Si O2"
_cell_formula_units_Z 32
_cell_length_a 12.042168
_cell_length_b 19.169256
_cell_length_c 19.649576
_cell_angle_alpha 90.000000
_cell_angle_beta 155.792072
_cell_angle_gamma 90.000000
_cell_volume 1859.940853
_symmetry_space_group_name_H-M "P 21/M"
_symmetry_group_IT_number 11
_symmetry_cell_setting 'monoclinic'
loop_
_space_group_symop_operation_xyz
x,y,z
-x,1/2+y,-z
-x,-y,-z
x,1/2-y,z
loop_
_atom_site_type_symbol
_atom_site_label
_atom_site_fract_x
_atom_site_fract_y
_atom_site_fract_z
Si Si1 0.822621 0.597194 0.439077
Si Si2 0.303008 0.936077 0.616872
Si Si3 0.711082 0.076558 0.685600
Si Si4 0.079624 0.426856 0.012055
Si Si5 0.895639 0.829408 0.765036
Si Si6 0.235010 0.330946 0.456365
Si Si7 0.280748 0.669663 0.097957
Si Si8 0.578878 0.068648 0.464718
O O1 0.729408 0.517918 0.390377
O O2 0.895897 0.626303 0.554721
O O3 0.581359 0.639881 0.269764
O O4 0.088143 0.606678 0.541277
O O5 0.601787 0.913130 0.806971
O O6 0.253466 0.915934 0.510101
O O7 0.543281 0.144453 0.615438
O O8 0.771442 0.078922 0.638290
O O9 0.525910 0.010160 0.599160
O O10 0.991681 0.073434 0.883478
O O11 0.000000 0.500000 0.000000
O O12 0.922283 0.366375 0.963067
O O13 0.790764 0.750000 0.714972
O O14 0.940926 0.845783 0.710263
O O15 0.675207 0.880029 0.674293
O O16 0.176090 0.840985 0.961995
O O17 0.241041 0.250000 0.479152
O O18 0.288555 0.750000 0.123129
#
# Coordination Sequence:
#
# PCOD8068456 Si02
#       8
#     4   4   4   4   4   4   4   4
#     4  11  22  36  52  79 110 152 181 217 272 332
#     4  11  22  36  54  77 115 143 179 224 278 326
#     4  10  19  28  55  83 105 137 180 221 276 315
#     4  12  18  34  55  83 108 142 177 232 274 308
#     4   9  19  31  53  82 107 137 179 230 270 312
#     4  10  18  34  54  78 108 141 182 222 265 319
#     4  11  20  34  56  83 108 140 188 225 264 324
#     4  10  17  33  51  79 111 139 173 225 271 325
#
# _framework density 17.204848999999999
#
# number of rings (size 3 to 8) (size 9 to 14) (size 15 to 20)
#    0.000    1.500    6.250    0.375    0.000    0.000 
#    0.000    3.750    0.000    3.000    0.000    0.000 
#    0.000    0.000    0.000    0.000    0.000    0.000 
#
# Total GULP energy -396772.176412 kJ/mol
# GULP energy per Si atom -12399.130513 kJ/mol
# Density = 1.716569 g / cm^3
# Si number density = 17.204849 Si / 1000 Ang^3
#
#
#
# Elastic Constant Matrix: (Units=GPa)
#
#
# Indices 1 2 3 4 5 6 
#
# 1 136.9458 34.6446 77.0345 0.0000 -12.4187 0.0000
# 2 34.6446 80.4044 37.5426 0.0000 2.6283 0.0000
# 3 77.0345 37.5426 118.1401 0.0000 -8.2681 0.0000
# 4 0.0000 0.0000 0.0000 19.9690 0.0000 0.1749
# 5 -12.4187 2.6283 -8.2681 0.0000 32.4211 0.0000
# 6 0.0000 0.0000 0.0000 0.1749 0.0000 22.2731
#
#
#
# Elastic Compliance Matrix: (Units=1/GPa)
#
#
# Indices 1 2 3 4 5 6 
#
# 1 0.012010 -0.002012 -0.006983 0.000000 0.002982 0.000000
# 2 -0.002012 0.015128 -0.003702 0.000000 -0.002941 0.000000
# 3 -0.006983 -0.003702 0.014283 0.000000 0.001268 0.000000
# 4 0.000000 0.000000 0.000000 0.050081 0.000000 -0.000393
# 5 0.002982 -0.002941 0.001268 0.000000 0.032548 0.000000
# 6 0.000000 0.000000 0.000000 -0.000393 0.000000 0.044900
#
#
# Mechanical properties :
#
#
# Convention : Reuss Voigt Hill
#
# Bulk Modulus (GPa) = 62.38940 70.43708 66.41324
# Shear Modulus (GPa) = 25.03935 27.35055 26.19495
#
# Velocity S-wave (km/s) = 3.81906 3.99143 3.90620
# Velocity P-wave (km/s) = 7.46916 7.89121 7.68308
#
# Compressibility (1/GPa) = 0.01602836
#
# Stress axis : x y z
#
# Youngs Moduli (GPa) = 83.26687 66.10079 70.01399
#
# Poissons Ratio (x) = 0.13297 0.48891
# Poissons Ratio (y) = 0.16751 0.25916
# Poissons Ratio (z) = 0.58145 0.24468
#
# Static dielectric constant tensor:
#      x y z
#    x 3.444180 0.000000 -0.332990 
#    y 0.000000 3.334630 0.000000 
#    z -0.332990 0.000000 3.242520 
# 
# 
# High freq. dielectric constant tensor:
#      x y z
#    x 1.662500 0.000000 -0.034110 
#    y 0.000000 1.670290 0.000000 
#    z -0.034110 0.000000 1.644160 
# 
# From -- ./inp_files/64922.got.cif
#   From: 2010.06.25/outbox.cif.g09.slc.cpg/sg11_33_cif.got.tgz:64922.got - 2010.06.27 23:14:04.
