data_PCOD8068302
_publ_section_title
;
Structure prediction by ZEFSAII (Michael W. Deem and Ramdas Pophale) SiO2 
 PCOD8068302
Probable space group: P 21/M
;
_chemical_formula_sum "Si O2"
_cell_formula_units_Z 28
_cell_length_a 5.039728
_cell_length_b 27.926087
_cell_length_c 12.421585
_cell_angle_alpha 90.000000
_cell_angle_beta 90.971293
_cell_angle_gamma 90.000000
_cell_volume 1747.961221
_symmetry_space_group_name_H-M "P 21/M"
_symmetry_group_IT_number 11
_symmetry_cell_setting 'monoclinic'
loop_
_space_group_symop_operation_xyz
x,y,z
-x,1/2+y,-z
-x,-y,-z
x,1/2-y,z
loop_
_atom_site_type_symbol
_atom_site_label
_atom_site_fract_x
_atom_site_fract_y
_atom_site_fract_z
Si Si1 0.180536 0.853210 0.198284
Si Si2 0.212538 0.250000 0.664539
Si Si3 0.774162 0.006502 0.141135
Si Si4 0.273884 0.967231 0.622832
Si Si5 0.314708 0.147762 0.654342
Si Si6 0.281599 0.750000 0.200165
Si Si7 0.273869 0.948788 0.083992
Si Si8 0.223856 0.437411 0.498824
O O1 0.393281 0.859156 0.295321
O O2 0.209443 0.800537 0.140713
O O3 0.222289 0.893098 0.107383
O O4 0.893579 0.860103 0.250210
O O5 0.279479 0.200978 0.601970
O O6 0.405426 0.250000 0.771580
O O7 0.902247 0.250000 0.693608
O O8 0.745078 0.037158 0.249128
O O9 0.559122 0.964049 0.131926
O O10 0.739281 0.044317 0.044292
O O11 0.061764 0.982362 0.142010
O O12 0.561495 0.949230 0.590421
O O13 0.058126 0.934152 0.562396
O O14 0.224577 0.022462 0.591426
O O15 0.277883 0.112787 0.554648
#
# Coordination Sequence:
#
# PCOD8068302 Si02
#       8
#     4   2   4   4   4   2   4   4
#     4  10  17  28  45  65  90 113 138 173 213 256
#     4   8  16  28  42  62  88 112 136 172 214 250
#     4  10  20  32  44  63  89 113 145 181 209 249
#     4  10  19  30  41  60  88 112 141 177 204 243
#     4  10  18  29  45  66  90 114 141 174 211 257
#     4   8  16  26  40  64  88 110 134 168 214 258
#     4  10  19  30  47  65  83 116 147 171 216 259
#     4  10  19  28  43  62  82 115 145 166 209 250
#
# _framework density 16.018661999999999
#
# number of rings (size 3 to 8) (size 9 to 14) (size 15 to 20)
#    0.000    2.286    0.000    4.286    0.000    2.286 
#    0.000    0.000    0.000    0.000    0.000    2.000 
#    0.000    0.000    0.000    0.000    0.000    0.000 
#
# Total GULP energy -347130.907382 kJ/mol
# GULP energy per Si atom -12397.532407 kJ/mol
# Density = 1.598220 g / cm^3
# Si number density = 16.018662 Si / 1000 Ang^3
#
#
#
# Elastic Constant Matrix: (Units=GPa)
#
#
# Indices 1 2 3 4 5 6 
#
# 1 58.0992 -6.4034 8.5047 0.0000 1.3183 0.0000
# 2 -6.4034 94.8831 35.0645 0.0000 3.4931 0.0000
# 3 8.5047 35.0645 66.2785 0.0000 -7.4735 0.0000
# 4 0.0000 0.0000 0.0000 21.0907 0.0000 -0.1646
# 5 1.3183 3.4931 -7.4735 0.0000 14.3272 0.0000
# 6 0.0000 0.0000 0.0000 -0.1646 0.0000 16.7100
#
#
#
# Elastic Compliance Matrix: (Units=1/GPa)
#
#
# Indices 1 2 3 4 5 6 
#
# 1 0.018323 0.003085 -0.004525 0.000000 -0.004798 0.000000
# 2 0.003085 0.014366 -0.008950 0.000000 -0.008455 0.000000
# 3 -0.004525 -0.008950 0.021990 0.000000 0.014069 0.000000
# 4 0.000000 0.000000 0.000000 0.047418 0.000000 0.000467
# 5 -0.004798 -0.008455 0.014069 0.000000 0.079639 0.000000
# 6 0.000000 0.000000 0.000000 0.000467 0.000000 0.059849
#
#
# Mechanical properties :
#
#
# Convention : Reuss Voigt Hill
#
# Bulk Modulus (GPa) = 29.49750 32.62138 31.05944
# Shear Modulus (GPa) = 18.27065 22.56523 20.41794
#
# Velocity S-wave (km/s) = 3.38092 3.75732 3.57408
# Velocity P-wave (km/s) = 5.80476 6.26355 6.03851
#
# Compressibility (1/GPa) = 0.03390117
#
# Stress axis : x y z
#
# Youngs Moduli (GPa) = 54.57571 69.60801 45.47604
#
# Poissons Ratio (x) = -0.21476 0.20576
# Poissons Ratio (y) = -0.16838 0.40699
# Poissons Ratio (z) = 0.24693 0.62297
#
# Static dielectric constant tensor:
#      x y z
#    x 3.298140 0.000000 0.025200 
#    y 0.000000 3.179970 0.000000 
#    z 0.025200 0.000000 2.684850 
# 
# 
# High freq. dielectric constant tensor:
#      x y z
#    x 1.644180 0.000000 0.003520 
#    y 0.000000 1.610380 0.000000 
#    z 0.003520 0.000000 1.568720 
# 
# From -- ./inp_files/5234.got.cif
#   From: 2010.06.25/outbox.cif.g09.slc.cpg/sg11_3_cif.got.tgz:5234.got - 2010.06.27 23:14:04.
