data_PCOD8068395
_publ_section_title
;
Structure prediction by ZEFSAII (Michael W. Deem and Ramdas Pophale) SiO2 
 PCOD8068395
Probable space group: P 21/M
;
_chemical_formula_sum "Si O2"
_cell_formula_units_Z 32
_cell_length_a 11.804915
_cell_length_b 12.881294
_cell_length_c 12.655016
_cell_angle_alpha 90.000000
_cell_angle_beta 65.621282
_cell_angle_gamma 90.000000
_cell_volume 1752.773262
_symmetry_space_group_name_H-M "P 21/M"
_symmetry_group_IT_number 11
_symmetry_cell_setting 'monoclinic'
loop_
_space_group_symop_operation_xyz
x,y,z
-x,1/2+y,-z
-x,-y,-z
x,1/2-y,z
loop_
_atom_site_type_symbol
_atom_site_label
_atom_site_fract_x
_atom_site_fract_y
_atom_site_fract_z
Si Si1 0.286127 0.868309 0.058641
Si Si2 0.521606 0.373688 0.191068
Si Si3 0.276149 0.000955 0.273863
Si Si4 0.677009 0.368237 0.322758
Si Si5 0.987072 0.134909 0.918646
Si Si6 0.239670 0.626701 0.487495
Si Si7 0.962672 0.867416 0.650849
Si Si8 0.947400 0.419856 0.163483
O O1 0.312452 0.750000 0.083848
O O2 0.159565 0.876076 0.042183
O O3 0.275959 0.938182 0.165799
O O4 0.394792 0.910737 0.940219
O O5 0.521737 0.250000 0.195148
O O6 0.383264 0.413682 0.228201
O O7 0.577407 0.419642 0.280519
O O8 0.145907 0.057449 0.346771
O O9 0.301078 0.922788 0.360765
O O10 0.637971 0.250000 0.353323
O O11 0.687619 0.418175 0.436372
O O12 0.810496 0.373181 0.215689
O O13 0.034085 0.250000 0.866308
O O14 0.016470 0.115927 0.030496
O O15 0.058225 0.046200 0.824597
O O16 0.253191 0.750000 0.476595
O O17 0.093979 0.596296 0.550794
O O18 0.931206 0.750000 0.628246
O O19 0.971005 0.872494 0.774205
#
# Coordination Sequence:
#
# PCOD8068395 Si02
#       8
#     4   4   4   4   4   4   4   4
#     4  10  20  35  52  76 109 142 177 210 252 316
#     4  10  21  36  55  76 103 138 179 220 256 302
#     4  12  21  34  52  79 109 140 171 211 264 316
#     4   9  17  34  57  78  99 133 179 219 254 302
#     4  10  18  29  49  78 106 135 175 219 262 306
#     4   9  20  36  56  77 100 133 176 219 261 314
#     4  10  20  34  52  79 107 134 171 217 265 312
#     4  10  17  30  53  76 102 134 175 220 258 304
#
# _framework density 18.256782999999999
#
# number of rings (size 3 to 8) (size 9 to 14) (size 15 to 20)
#    0.000    2.000    2.500    3.375    0.000    0.500 
#    0.000    0.000    0.000    4.500    0.000    0.000 
#    0.000    0.000    0.000    0.000    0.000    0.000 
#
# Total GULP energy -396685.113601 kJ/mol
# GULP energy per Si atom -12396.409800 kJ/mol
# Density = 1.821523 g / cm^3
# Si number density = 18.256783 Si / 1000 Ang^3
#
#
#
# Elastic Constant Matrix: (Units=GPa)
#
#
# Indices 1 2 3 4 5 6 
#
# 1 44.0819 18.5663 13.8182 0.0000 7.4917 0.0000
# 2 18.5663 53.3989 29.1371 0.0000 8.4510 0.0000
# 3 13.8182 29.1371 84.2381 0.0000 9.0542 0.0000
# 4 0.0000 0.0000 0.0000 13.8960 0.0000 0.3621
# 5 7.4917 8.4510 9.0542 0.0000 16.2266 0.0000
# 6 0.0000 0.0000 0.0000 0.3621 0.0000 21.3958
#
#
#
# Elastic Compliance Matrix: (Units=1/GPa)
#
#
# Indices 1 2 3 4 5 6 
#
# 1 0.027660 -0.007799 -0.000961 0.000000 -0.008172 0.000000
# 2 -0.007799 0.026315 -0.007167 0.000000 -0.006106 0.000000
# 3 -0.000961 -0.007167 0.014956 0.000000 -0.004169 0.000000
# 4 0.000000 0.000000 0.000000 0.071995 0.000000 -0.001218
# 5 -0.008172 -0.006106 -0.004169 0.000000 0.070906 0.000000
# 6 0.000000 0.000000 0.000000 -0.001218 0.000000 0.046759
#
#
# Mechanical properties :
#
#
# Convention : Reuss Voigt Hill
#
# Bulk Modulus (GPa) = 26.97088 33.86243 30.41666
# Shear Modulus (GPa) = 16.51231 18.31685 17.41458
#
# Velocity S-wave (km/s) = 3.01067 3.17091 3.09183
# Velocity P-wave (km/s) = 5.18562 5.65636 5.42609
#
# Compressibility (1/GPa) = 0.03707703
#
# Stress axis : x y z
#
# Youngs Moduli (GPa) = 36.15318 38.00044 66.86402
#
# Poissons Ratio (x) = 0.29638 0.06427
# Poissons Ratio (y) = 0.28197 0.47919
# Poissons Ratio (z) = 0.03475 0.27233
#
# Static dielectric constant tensor:
#      x y z
#    x 3.349850 0.000000 0.206990 
#    y 0.000000 3.349450 0.000000 
#    z 0.206990 0.000000 3.295800 
# 
# 
# High freq. dielectric constant tensor:
#      x y z
#    x 1.696130 0.000000 0.019680 
#    y 0.000000 1.698090 0.000000 
#    z 0.019680 0.000000 1.701350 
# 
# From -- ./inp_files/35038.got.cif
#   From: 2010.06.25/outbox.cif.g09.slc.cpg/sg11_18_cif.got.tgz:35038.got - 2010.06.27 23:14:04.
