data_PCOD8068534
_publ_section_title
;
Structure prediction by ZEFSAII (Michael W. Deem and Ramdas Pophale) SiO2 
 PCOD8068534
Probable space group: P 21/M
;
_chemical_formula_sum "Si O2"
_cell_formula_units_Z 32
_cell_length_a 21.333397
_cell_length_b 9.392970
_cell_length_c 30.872351
_cell_angle_alpha 90.000000
_cell_angle_beta 161.145976
_cell_angle_gamma 90.000000
_cell_volume 1999.160947
_symmetry_space_group_name_H-M "P 21/M"
_symmetry_group_IT_number 11
_symmetry_cell_setting 'monoclinic'
loop_
_space_group_symop_operation_xyz
x,y,z
-x,1/2+y,-z
-x,-y,-z
x,1/2-y,z
loop_
_atom_site_type_symbol
_atom_site_label
_atom_site_fract_x
_atom_site_fract_y
_atom_site_fract_z
Si Si1 0.512897 0.089529 0.573680
Si Si2 0.878938 0.582991 0.385433
Si Si3 0.342459 0.596745 0.876505
Si Si4 0.010726 0.090809 0.638824
Si Si5 0.227872 0.910275 0.438225
Si Si6 0.519360 0.406160 0.128853
Si Si7 0.787895 0.588937 0.701022
Si Si8 0.073466 0.084192 0.832832
O O1 0.573876 0.250000 0.626460
O O2 0.372293 0.091940 0.440866
O O3 0.402188 0.017272 0.541558
O O4 0.703815 0.997590 0.687183
O O5 0.868510 0.750000 0.389579
O O6 0.994841 0.556157 0.415938
O O7 0.658523 0.521800 0.242990
O O8 0.000000 0.500000 0.500000
O O9 0.334016 0.750000 0.894634
O O10 0.138645 0.520642 0.748683
O O11 0.388605 0.618559 0.857121
O O12 0.500000 0.500000 0.000000
O O13 0.097630 0.250000 0.701213
O O14 0.809424 0.079595 0.534052
O O15 0.293976 0.750000 0.469268
O O16 0.033333 0.946506 0.282918
O O17 0.522138 0.250000 0.154354
O O18 0.299287 0.462689 0.979241
O O19 0.841498 0.750000 0.750150
O O20 0.978417 0.508374 0.808825
O O21 0.054532 0.250000 0.832476
#
# Coordination Sequence:
#
# PCOD8068534 Si02
#       8
#     4   4   4   4   4   4   4   4
#     4   9  16  25  37  55  80 112 150 183 210 242
#     4  10  20  34  51  67  84 108 139 178 222 265
#     4  10  18  27  40  58  83 114 144 173 206 247
#     4   9  18  31  45  62  83 109 142 177 214 257
#     4   9  16  27  42  60  86 117 146 176 211 249
#     4   9  18  31  45  62  84 111 143 177 215 257
#     4   9  16  25  37  54  79 113 150 182 210 242
#     4   9  16  26  41  60  85 116 145 176 212 248
#
# _framework density 16.006715
#
# number of rings (size 3 to 8) (size 9 to 14) (size 15 to 20)
#    0.000    2.750    0.000    2.250    0.000    7.000 
#    0.000    2.500    0.000    0.000    0.000    0.000 
#    0.000    1.000    0.000    3.000    0.000    4.000 
#
# Total GULP energy -396481.933883 kJ/mol
# GULP energy per Si atom -12390.060434 kJ/mol
# Density = 1.597028 g / cm^3
# Si number density = 16.006715 Si / 1000 Ang^3
#
#
#
# Elastic Constant Matrix: (Units=GPa)
#
#
# Indices 1 2 3 4 5 6 
#
# 1 75.9167 44.0146 25.0041 0.0000 16.3399 0.0000
# 2 44.0146 108.7753 23.7993 0.0000 3.1169 0.0000
# 3 25.0041 23.7993 32.8346 0.0000 5.0497 0.0000
# 4 0.0000 0.0000 0.0000 22.5493 0.0000 4.6002
# 5 16.3399 3.1169 5.0497 0.0000 22.1118 0.0000
# 6 0.0000 0.0000 0.0000 4.6002 0.0000 24.2853
#
#
#
# Elastic Compliance Matrix: (Units=1/GPa)
#
#
# Indices 1 2 3 4 5 6 
#
# 1 0.023780 -0.006811 -0.011004 0.000000 -0.014100 0.000000
# 2 -0.006811 0.012878 -0.004812 0.000000 0.004316 0.000000
# 3 -0.011004 -0.004812 0.042459 0.000000 -0.000887 0.000000
# 4 0.000000 0.000000 0.000000 0.046130 0.000000 -0.008738
# 5 -0.014100 0.004316 -0.000887 0.000000 0.055238 0.000000
# 6 0.000000 0.000000 0.000000 -0.008738 0.000000 0.042832
#
#
# Mechanical properties :
#
#
# Convention : Reuss Voigt Hill
#
# Bulk Modulus (GPa) = 29.52919 44.79584 37.16251
# Shear Modulus (GPa) = 17.86613 22.10318 19.98466
#
# Velocity S-wave (km/s) = 3.34453 3.72004 3.53727
# Velocity P-wave (km/s) = 5.77949 6.81894 6.32062
#
# Compressibility (1/GPa) = 0.03386480
#
# Stress axis : x y z
#
# Youngs Moduli (GPa) = 42.05219 77.65040 23.55190
#
# Poissons Ratio (x) = 0.52885 0.25916
# Poissons Ratio (y) = 0.28640 0.11333
# Poissons Ratio (z) = 0.46274 0.37364
#
# Static dielectric constant tensor:
#      x y z
#    x 2.006050 0.000000 1.860460 
#    y 0.000000 3.555410 0.000000 
#    z 1.860460 0.000000 -0.177280 
# 
# 
# High freq. dielectric constant tensor:
#      x y z
#    x 1.597060 0.000000 0.029090 
#    y 0.000000 1.633930 0.000000 
#    z 0.029090 0.000000 1.562950 
# 
# From -- ./inp_files/42417.got.cif
#   From: 2010.06.25/outbox.cif.g09.slc.cpg/sg11_22_cif.got.tgz:42417.got - 2010.06.27 23:14:04.
