data_PCOD8068309
_publ_section_title
;
Structure prediction by ZEFSAII (Michael W. Deem and Ramdas Pophale) SiO2 
 PCOD8068309
Probable space group: P 21/M
;
_chemical_formula_sum "Si O2"
_cell_formula_units_Z 24
_cell_length_a 11.978777
_cell_length_b 8.424161
_cell_length_c 13.769223
_cell_angle_alpha 90.000000
_cell_angle_beta 107.706930
_cell_angle_gamma 90.000000
_cell_volume 1323.641608
_symmetry_space_group_name_H-M "P 21/M"
_symmetry_group_IT_number 11
_symmetry_cell_setting 'monoclinic'
loop_
_space_group_symop_operation_xyz
x,y,z
-x,1/2+y,-z
-x,-y,-z
x,1/2-y,z
loop_
_atom_site_type_symbol
_atom_site_label
_atom_site_fract_x
_atom_site_fract_y
_atom_site_fract_z
Si Si1 0.543761 0.434746 0.612740
Si Si2 0.591860 0.433151 0.248497
Si Si3 0.612755 0.066103 0.919265
Si Si4 0.995770 0.435015 0.107515
Si Si5 0.252401 0.065553 0.215882
Si Si6 0.761218 0.438507 0.136871
O O1 0.500000 0.500000 0.500000
O O2 0.568826 0.250000 0.611439
O O3 0.442931 0.463964 0.667003
O O4 0.666249 0.521393 0.670721
O O5 0.595023 0.250000 0.281207
O O6 0.496645 0.456184 0.138014
O O7 0.716771 0.487467 0.233733
O O8 0.575057 0.250000 0.912572
O O9 0.713061 0.045065 0.864894
O O10 0.665003 0.001469 0.033849
O O11 0.973525 0.250000 0.090659
O O12 0.115168 0.469823 0.198999
O O13 0.888870 0.510100 0.142966
O O14 0.000000 0.500000 0.000000
O O15 0.272229 0.250000 0.195378
O O16 0.765592 0.250000 0.131900
#
# Coordination Sequence:
#
# PCOD8068309 Si02
#       6
#     4   4   4   4   4   4
#     4  11  22  38  59  79 100 125 161 213 265 313
#     4  10  19  32  49  72 102 133 169 209 255 306
#     4  10  17  28  46  68 101 139 174 210 248 294
#     4  10  19  32  49  72 105 144 181 211 243 289
#     4  10  19  31  50  77 105 135 173 213 251 297
#     4   9  18  30  46  69 103 143 174 206 248 293
#
# _framework density 18.131796000000001
#
# number of rings (size 3 to 8) (size 9 to 14) (size 15 to 20)
#    0.000    2.000    1.667    5.500    0.000    0.667 
#    0.000    4.167    0.000    1.000    0.000    0.000 
#    0.000    0.000    0.000    0.000    0.000    0.000 
#
# Total GULP energy -297433.490744 kJ/mol
# GULP energy per Si atom -12393.062114 kJ/mol
# Density = 1.809053 g / cm^3
# Si number density = 18.131796 Si / 1000 Ang^3
#
#
#
# Elastic Constant Matrix: (Units=GPa)
#
#
# Indices 1 2 3 4 5 6 
#
# 1 133.2149 12.1173 53.1992 0.0000 -11.6108 0.0000
# 2 12.1173 44.2286 12.5512 0.0000 1.5778 0.0000
# 3 53.1992 12.5512 100.0766 0.0000 0.2864 0.0000
# 4 0.0000 0.0000 0.0000 25.4557 0.0000 -1.0517
# 5 -11.6108 1.5778 0.2864 0.0000 11.7170 0.0000
# 6 0.0000 0.0000 0.0000 -1.0517 0.0000 20.0437
#
#
#
# Elastic Compliance Matrix: (Units=1/GPa)
#
#
# Indices 1 2 3 4 5 6 
#
# 1 0.010873 -0.001791 -0.005587 0.000000 0.011152 0.000000
# 2 -0.001791 0.023851 -0.002025 0.000000 -0.004937 0.000000
# 3 -0.005587 -0.002025 0.013232 0.000000 -0.005587 0.000000
# 4 0.000000 0.000000 0.000000 0.039369 0.000000 0.002066
# 5 0.011152 -0.004937 -0.005587 0.000000 0.097198 0.000000
# 6 0.000000 0.000000 0.000000 0.002066 0.000000 0.049999
#
#
# Mechanical properties :
#
#
# Convention : Reuss Voigt Hill
#
# Bulk Modulus (GPa) = 34.30549 48.13950 41.22249
# Shear Modulus (GPa) = 19.00804 24.75343 21.88073
#
# Velocity S-wave (km/s) = 3.24130 3.69886 3.47761
# Velocity P-wave (km/s) = 5.74188 6.69698 6.23774
#
# Compressibility (1/GPa) = 0.02914985
#
# Stress axis : x y z
#
# Youngs Moduli (GPa) = 91.97282 41.92635 75.57258
#
# Poissons Ratio (x) = 0.07510 0.42223
# Poissons Ratio (y) = 0.16474 0.15304
# Poissons Ratio (z) = 0.51386 0.08490
#
# Static dielectric constant tensor:
#      x y z
#    x 3.829130 0.000000 -0.013170 
#    y 0.000000 3.250760 0.000000 
#    z -0.013170 0.000000 3.157160 
# 
# 
# High freq. dielectric constant tensor:
#      x y z
#    x 1.708300 0.000000 -0.004120 
#    y 0.000000 1.696770 0.000000 
#    z -0.004120 0.000000 1.666600 
# 
# From -- ./inp_files/44549.got.cif
#   From: 2010.06.25/outbox.cif.g09.slc.cpg/sg11_23_cif.got.tgz:44549.got - 2010.06.27 23:14:04.
