data_PCOD8068301
_publ_section_title
;
Structure prediction by ZEFSAII (Michael W. Deem and Ramdas Pophale) SiO2 
 PCOD8068301
Probable space group: P 21/M
;
_chemical_formula_sum "Si O2"
_cell_formula_units_Z 32
_cell_length_a 26.538925
_cell_length_b 9.146392
_cell_length_c 14.580166
_cell_angle_alpha 90.000000
_cell_angle_beta 145.106696
_cell_angle_gamma 90.000000
_cell_volume 2024.555151
_symmetry_space_group_name_H-M "P 21/M"
_symmetry_group_IT_number 11
_symmetry_cell_setting 'monoclinic'
loop_
_space_group_symop_operation_xyz
x,y,z
-x,1/2+y,-z
-x,-y,-z
x,1/2-y,z
loop_
_atom_site_type_symbol
_atom_site_label
_atom_site_fract_x
_atom_site_fract_y
_atom_site_fract_z
Si Si1 0.581407 0.075199 0.568881
Si Si2 0.103874 0.421837 0.566223
Si Si3 0.909733 0.078781 0.264115
Si Si4 0.734344 0.078092 0.925801
Si Si5 0.555471 0.913935 0.348473
Si Si6 0.284169 0.080920 0.757751
Si Si7 0.574149 0.921259 0.170742
Si Si8 0.646928 0.087516 0.974053
O O1 0.568526 0.250000 0.552766
O O2 0.673752 0.020405 0.752598
O O3 0.500000 0.000000 0.500000
O O4 0.592632 0.022378 0.481149
O O5 0.106839 0.250000 0.588789
O O6 0.118465 0.499270 0.684816
O O7 0.181918 0.471503 0.612798
O O8 0.008690 0.467052 0.381181
O O9 0.905276 0.250000 0.279013
O O10 0.839297 0.038838 0.077649
O O11 0.718885 0.250000 0.906549
O O12 0.702024 0.012386 0.974646
O O13 0.595341 0.750000 0.419511
O O14 0.577427 0.978404 0.280241
O O15 0.451961 0.906742 0.208638
O O16 0.288726 0.250000 0.787635
O O17 0.328016 0.048216 0.724486
O O18 0.346318 0.005393 0.924494
O O19 0.549942 0.750000 0.134439
O O20 0.500000 0.000000 0.000000
O O21 0.681919 0.250000 0.048657
#
# Coordination Sequence:
#
# PCOD8068301 Si02
#       8
#     4   4   4   4   4   4   4   4
#     4  11  21  33  48  67  90 117 151 189 225 267
#     4   9  17  27  41  65  93 115 143 182 220 262
#     4   9  16  28  45  62  86 120 149 176 216 266
#     4   9  17  29  44  63  86 116 151 179 212 260
#     4  10  20  34  46  62  89 121 155 189 222 261
#     4  10  19  29  42  67  95 119 149 186 225 262
#     4  10  20  32  47  65  91 122 154 189 224 266
#     4  10  17  28  45  63  89 122 152 182 215 262
#
# _framework density 15.805941000000001
#
# number of rings (size 3 to 8) (size 9 to 14) (size 15 to 20)
#    0.000    2.250    3.750    0.375    0.000    1.000 
#    0.000    1.250    0.000    0.000    0.000    0.875 
#    0.000    0.000    0.000    0.000    0.000    0.000 
#
# Total GULP energy -396481.538731 kJ/mol
# GULP energy per Si atom -12390.048085 kJ/mol
# Density = 1.576997 g / cm^3
# Si number density = 15.805941 Si / 1000 Ang^3
#
#
#
# Elastic Constant Matrix: (Units=GPa)
#
#
# Indices 1 2 3 4 5 6 
#
# 1 92.5756 27.7057 57.2355 0.0000 0.2843 0.0000
# 2 27.7057 34.0947 30.9938 0.0000 -1.7367 0.0000
# 3 57.2355 30.9938 122.6700 0.0000 3.0920 0.0000
# 4 0.0000 0.0000 0.0000 18.8237 0.0000 -3.9923
# 5 0.2843 -1.7367 3.0920 0.0000 26.8225 0.0000
# 6 0.0000 0.0000 0.0000 -3.9923 0.0000 18.8086
#
#
#
# Elastic Compliance Matrix: (Units=1/GPa)
#
#
# Indices 1 2 3 4 5 6 
#
# 1 0.016894 -0.008526 -0.005727 0.000000 -0.000071 0.000000
# 2 -0.008526 0.042725 -0.006909 0.000000 0.003653 0.000000
# 3 -0.005727 -0.006909 0.012616 0.000000 -0.001841 0.000000
# 4 0.000000 0.000000 0.000000 0.055629 0.000000 0.011808
# 5 -0.000071 0.003653 -0.001841 0.000000 0.037732 0.000000
# 6 0.000000 0.000000 0.000000 0.011808 0.000000 0.055674
#
#
# Mechanical properties :
#
#
# Convention : Reuss Voigt Hill
#
# Bulk Modulus (GPa) = 33.43146 53.46780 43.44963
# Shear Modulus (GPa) = 18.27728 21.78464 20.03096
#
# Velocity S-wave (km/s) = 3.40421 3.71652 3.56379
# Velocity P-wave (km/s) = 6.05381 7.23310 6.66957
#
# Compressibility (1/GPa) = 0.02991195
#
# Stress axis : x y z
#
# Youngs Moduli (GPa) = 59.19107 23.40539 79.26564
#
# Poissons Ratio (x) = 0.19957 0.45392
# Poissons Ratio (y) = 0.50469 0.54763
# Poissons Ratio (z) = 0.33896 0.16170
#
# Static dielectric constant tensor:
#      x y z
#    x 3.143480 0.000000 0.192660 
#    y 0.000000 3.194070 0.000000 
#    z 0.192660 0.000000 3.159620 
# 
# 
# High freq. dielectric constant tensor:
#      x y z
#    x 1.590100 0.000000 0.013340 
#    y 0.000000 1.596990 0.000000 
#    z 0.013340 0.000000 1.596010 
# 
# From -- ./inp_files/56466.got.cif
#   From: 2010.06.25/outbox.cif.g09.slc.cpg/sg11_29_cif.got.tgz:56466.got - 2010.06.27 23:14:04.
