data_PCOD8068841
_publ_section_title
;
Structure prediction by ZEFSAII (Michael W. Deem and Ramdas Pophale) SiO2 
 PCOD8068841
Probable space group: P 21/M
;
_chemical_formula_sum "Si O2"
_cell_formula_units_Z 32
_cell_length_a 17.526998
_cell_length_b 8.753873
_cell_length_c 23.462922
_cell_angle_alpha 90.000000
_cell_angle_beta 31.451471
_cell_angle_gamma 90.000000
_cell_volume 1878.339711
_symmetry_space_group_name_H-M "P 21/M"
_symmetry_group_IT_number 11
_symmetry_cell_setting 'monoclinic'
loop_
_space_group_symop_operation_xyz
x,y,z
-x,1/2+y,-z
-x,-y,-z
x,1/2-y,z
loop_
_atom_site_type_symbol
_atom_site_label
_atom_site_fract_x
_atom_site_fract_y
_atom_site_fract_z
Si Si1 0.840236 0.572801 0.737494
Si Si2 0.932524 0.929167 0.486436
Si Si3 0.351522 0.929271 0.808345
Si Si4 0.619660 0.428872 0.688858
Si Si5 0.106681 0.926668 0.887727
Si Si6 0.552667 0.572251 0.850004
Si Si7 0.264854 0.427395 0.072669
Si Si8 0.863221 0.927355 0.964791
O O1 0.879718 0.750000 0.704685
O O2 0.692906 0.531189 0.798074
O O3 0.821937 0.527877 0.815091
O O4 0.972430 0.473113 0.628975
O O5 0.930763 0.750000 0.496301
O O6 0.769095 0.985289 0.580551
O O7 0.000000 0.000000 0.500000
O O8 0.387521 0.750000 0.788159
O O9 0.272706 0.978551 0.798055
O O10 0.502241 0.022605 0.715808
O O11 0.246345 0.969941 0.928473
O O12 0.648474 0.250000 0.667986
O O13 0.554743 0.473202 0.791525
O O14 0.103491 0.750000 0.903007
O O15 0.035807 0.962184 0.870567
O O16 0.000000 0.000000 0.000000
O O17 0.548804 0.750000 0.836185
O O18 0.410635 0.528150 0.976759
O O19 0.311091 0.250000 0.044635
O O20 0.157658 0.465069 0.088288
O O21 0.826308 0.750000 0.001143
#
# Coordination Sequence:
#
# PCOD8068841 Si02
#       8
#     4   4   4   4   4   4   4   4
#     4  10  22  38  53  73 102 138 175 213 252 298
#     4  12  24  39  58  77  98 129 169 214 260 304
#     4  10  18  29  46  71 102 133 168 210 251 299
#     4  12  23  35  53  75 101 134 170 210 258 306
#     4   8  15  26  42  66  98 134 167 200 245 297
#     4  11  21  33  51  73 103 137 173 211 251 299
#     4  10  20  33  51  75 106 140 175 209 248 298
#     4   9  16  28  46  70 102 138 170 202 245 301
#
# _framework density 17.036321999999998
#
# number of rings (size 3 to 8) (size 9 to 14) (size 15 to 20)
#    0.000    1.750    2.500    3.375    0.000    1.500 
#    0.000    0.000    0.000    0.000    0.000    0.875 
#    0.000    0.000    0.000    0.000    0.000    0.000 
#
# Total GULP energy -396657.461170 kJ/mol
# GULP energy per Si atom -12395.545662 kJ/mol
# Density = 1.699755 g / cm^3
# Si number density = 17.036322 Si / 1000 Ang^3
#
#
#
# Elastic Constant Matrix: (Units=GPa)
#
#
# Indices 1 2 3 4 5 6 
#
# 1 94.9757 31.2141 55.0420 0.0000 -25.0588 0.0000
# 2 31.2141 75.6810 37.8656 0.0000 -8.4184 0.0000
# 3 55.0420 37.8656 93.9304 0.0000 -9.9083 0.0000
# 4 0.0000 0.0000 0.0000 26.1702 0.0000 -3.4947
# 5 -25.0588 -8.4184 -9.9083 0.0000 24.3156 0.0000
# 6 0.0000 0.0000 0.0000 -3.4947 0.0000 18.7898
#
#
#
# Elastic Compliance Matrix: (Units=1/GPa)
#
#
# Indices 1 2 3 4 5 6 
#
# 1 0.021594 -0.001945 -0.010024 0.000000 0.017496 0.000000
# 2 -0.001945 0.016961 -0.005527 0.000000 0.001616 0.000000
# 3 -0.010024 -0.005527 0.018241 0.000000 -0.004811 0.000000
# 4 0.000000 0.000000 0.000000 0.039185 0.000000 0.007288
# 5 0.017496 0.001616 -0.004811 0.000000 0.057755 0.000000
# 6 0.000000 0.000000 0.000000 0.007288 0.000000 0.054576
#
#
# Mechanical properties :
#
#
# Convention : Reuss Voigt Hill
#
# Bulk Modulus (GPa) = 45.86521 56.98117 51.42319
# Shear Modulus (GPa) = 19.95450 23.21949 21.58699
#
# Velocity S-wave (km/s) = 3.42613 3.69581 3.56352
# Velocity P-wave (km/s) = 6.52929 7.19246 6.86888
#
# Compressibility (1/GPa) = 0.02180302
#
# Stress axis : x y z
#
# Youngs Moduli (GPa) = 46.31008 58.96022 54.82211
#
# Poissons Ratio (x) = 0.11466 0.54954
# Poissons Ratio (y) = 0.09006 0.30302
# Poissons Ratio (z) = 0.46422 0.32589
#
# Static dielectric constant tensor:
#      x y z
#    x 3.734610 0.000000 -0.255710 
#    y 0.000000 3.223770 0.000000 
#    z -0.255710 0.000000 3.009750 
# 
# 
# High freq. dielectric constant tensor:
#      x y z
#    x 1.666070 0.000000 -0.022690 
#    y 0.000000 1.664740 0.000000 
#    z -0.022690 0.000000 1.620180 
# 
# From -- ./inp_files/42895.got.cif
#   From: 2010.06.25/outbox.cif.g09.slc.cpg/sg11_22_cif.got.tgz:42895.got - 2010.06.27 23:14:04.
