data_PCOD8068111
_publ_section_title
;
Structure prediction by ZEFSAII (Michael W. Deem and Ramdas Pophale) SiO2 
 PCOD8068111
Probable space group: P 2/M
;
_chemical_formula_sum "Si O2"
_cell_formula_units_Z 28
_cell_length_a 15.000000
_cell_length_b 12.000000
_cell_length_c 9.000000
_cell_angle_alpha 90.000000
_cell_angle_beta 110.000000
_cell_angle_gamma 90.000000
_cell_volume 1522.302046
_symmetry_space_group_name_H-M "P 2/M"
_symmetry_group_IT_number 10
_symmetry_cell_setting 'monoclinic'
loop_
_space_group_symop_operation_xyz
x,y,z
-x,y,-z
-x,-y,-z
x,-y,z
loop_
_atom_site_type_symbol
_atom_site_label
_atom_site_fract_x
_atom_site_fract_y
_atom_site_fract_z
Si Si1 0.386333 0.869204 0.260886
Si Si2 0.215507 0.803798 0.656582
Si Si3 0.397863 0.870081 0.612202
Si Si4 0.104875 0.000000 0.111709
Si Si5 0.097838 0.000000 0.461110
Si Si6 0.086906 0.378857 0.445770
Si Si7 0.950738 0.376497 0.125247
Si Si8 0.206405 0.195358 0.994979
O O1 0.374800 0.842554 0.428062
O O2 0.494693 0.838513 0.279577
O O3 0.365577 0.000000 0.218009
O O4 0.313479 0.793105 0.122923
O O5 0.325679 0.799868 0.671957
O O6 0.167952 0.687197 0.582088
O O7 0.211590 0.840634 0.826154
O O8 0.157006 0.892023 0.531190
O O9 0.381122 0.000000 0.632028
O O10 0.091823 0.000000 0.280607
O O11 0.156162 0.108305 0.075542
O O12 0.000000 0.000000 0.000000
O O13 0.000000 0.000000 0.500000
O O14 0.130493 0.500000 0.423281
O O15 0.000000 0.401464 0.500000
O O16 0.033477 0.318302 0.275073
O O17 0.924417 0.500000 0.174405
O O18 0.853236 0.309169 0.045816
O O19 0.000000 0.392330 0.000000
#
# Coordination Sequence:
#
# PCOD8068111 Si02
#       8
#     4   4   4   2   2   4   4   4
#     4   9  19  37  58  79 110 150 191 233 284 338
#     4  12  23  35  57  87 113 150 190 234 278 343
#     4   9  19  37  58  80 109 150 193 233 279 338
#     4  12  26  38  51  78 119 158 184 227 284 339
#     4  12  26  38  53  78 119 154 190 227 278 341
#     4  10  21  40  60  80 112 154 193 234 279 330
#     4  10  23  40  59  84 113 151 197 238 278 332
#     4  12  23  36  57  86 117 149 188 231 287 338
#
# _framework density 18.393196
#
# number of rings (size 3 to 8) (size 9 to 14) (size 15 to 20)
#    0.000    1.429    2.857    3.857    6.000    0.571 
#    0.000    1.429    0.000    0.857    0.000    4.000 
#    0.000    0.000    0.000    0.000    0.000    0.000 
#
# Total GULP energy -346868.718964 kJ/mol
# GULP energy per Si atom -12388.168534 kJ/mol
# Density = 1.835133 g / cm^3
# Si number density = 18.393196 Si / 1000 Ang^3
#
#
#
# Elastic Constant Matrix: (Units=GPa)
#
#
# Indices 1 2 3 4 5 6 
#
# 1 131.0431 39.2873 57.6441 0.0000 8.0907 0.0000
# 2 39.2873 62.9245 35.5691 0.0000 6.6974 0.0000
# 3 57.6441 35.5691 147.8912 0.0000 11.2182 0.0000
# 4 0.0000 0.0000 0.0000 27.1984 0.0000 8.3140
# 5 8.0907 6.6974 11.2182 0.0000 38.6367 0.0000
# 6 0.0000 0.0000 0.0000 8.3140 0.0000 69.2441
#
#
#
# Elastic Compliance Matrix: (Units=1/GPa)
#
#
# Indices 1 2 3 4 5 6 
#
# 1 0.010352 -0.004803 -0.002841 0.000000 -0.000510 0.000000
# 2 -0.004803 0.020765 -0.002991 0.000000 -0.001725 0.000000
# 3 -0.002841 -0.002991 0.008696 0.000000 -0.001411 0.000000
# 4 0.000000 0.000000 0.000000 0.038168 0.000000 -0.004583
# 5 -0.000510 -0.001725 -0.001411 0.000000 0.026698 0.000000
# 6 0.000000 0.000000 0.000000 -0.004583 0.000000 0.014992
#
#
# Mechanical properties :
#
#
# Convention : Reuss Voigt Hill
#
# Bulk Modulus (GPa) = 53.93105 67.42886 60.67996
# Shear Modulus (GPa) = 33.98519 40.97307 37.47913
#
# Velocity S-wave (km/s) = 4.30316 4.72489 4.51895
# Velocity P-wave (km/s) = 7.35353 8.15508 7.76466
#
# Compressibility (1/GPa) = 0.01854219
#
# Stress axis : x y z
#
# Youngs Moduli (GPa) = 96.59595 48.15686 115.00056
#
# Poissons Ratio (x) = 0.23131 0.32673
# Poissons Ratio (y) = 0.46397 0.34399
# Poissons Ratio (z) = 0.27444 0.14405
#
# Static dielectric constant tensor:
#      x y z
#    x 3.378060 0.000000 0.025520 
#    y 0.000000 3.214870 0.000000 
#    z 0.025520 0.000000 3.560510 
# 
# 
# High freq. dielectric constant tensor:
#      x y z
#    x 1.714310 0.000000 0.001410 
#    y 0.000000 1.682360 0.000000 
#    z 0.001410 0.000000 1.737040 
# 
# From -- ./inp_files/28380.got.cif
#   From: 2010.06.25/outbox.ucp.g09.slc.cvg/sg10_15_cif.got.tgz:28380.got - 2010.06.28 13:37:52.
