data_PCOD8068673
_publ_section_title
;
Structure prediction by ZEFSAII (Michael W. Deem and Ramdas Pophale) SiO2 
 PCOD8068673
Probable space group: P 21/M
;
_chemical_formula_sum "Si O2"
_cell_formula_units_Z 32
_cell_length_a 20.112700
_cell_length_b 9.525583
_cell_length_c 28.037350
_cell_angle_alpha 90.000000
_cell_angle_beta 20.581715
_cell_angle_gamma 90.000000
_cell_volume 1888.327155
_symmetry_space_group_name_H-M "P 21/M"
_symmetry_group_IT_number 11
_symmetry_cell_setting 'monoclinic'
loop_
_space_group_symop_operation_xyz
x,y,z
-x,1/2+y,-z
-x,-y,-z
x,1/2-y,z
loop_
_atom_site_type_symbol
_atom_site_label
_atom_site_fract_x
_atom_site_fract_y
_atom_site_fract_z
Si Si1 0.672670 0.914885 0.904897
Si Si2 0.461702 0.589435 0.634561
Si Si3 0.822198 0.916142 0.904673
Si Si4 0.311371 0.085973 0.903142
Si Si5 0.075744 0.595026 0.599203
Si Si6 0.217583 0.594360 0.611389
Si Si7 0.403630 0.085627 0.349853
Si Si8 0.961053 0.411820 0.072711
O O1 0.625121 0.750000 0.936884
O O2 0.709488 0.971165 0.934039
O O3 0.854975 0.946702 0.749317
O O4 0.500000 0.000000 0.000000
O O5 0.509558 0.750000 0.591804
O O6 0.595677 0.500611 0.509491
O O7 0.495868 0.555470 0.667285
O O8 0.245357 0.551419 0.767564
O O9 0.843372 0.750000 0.885655
O O10 0.040065 0.972324 0.759756
O O11 0.710514 0.959491 0.027107
O O12 0.364422 0.250000 0.862115
O O13 0.476493 0.990819 0.771323
O O14 0.113376 0.052619 0.010615
O O15 0.099942 0.750000 0.559624
O O16 0.154338 0.601490 0.599453
O O17 0.192579 0.479929 0.490684
O O18 0.269873 0.750000 0.595105
O O19 0.389583 0.250000 0.347735
O O20 0.968198 0.250000 0.052299
O O21 0.000000 0.500000 0.000000
#
# Coordination Sequence:
#
# PCOD8068673 Si02
#       8
#     4   4   4   4   4   4   4   4
#     4   9  17  31  53  78 102 123 149 189 231 275
#     4   9  17  28  41  62  92 119 149 197 247 276
#     4   8  16  32  50  70  95 123 157 192 226 275
#     4  10  19  31  49  67  89 128 166 192 230 284
#     4   8  15  28  46  69  94 121 155 189 223 273
#     4   8  14  27  47  65  84 116 157 193 225 270
#     4  10  18  28  44  67  96 124 154 199 242 271
#     4  10  19  30  44  64  91 123 160 201 239 278
#
# _framework density 16.946214999999999
#
# number of rings (size 3 to 8) (size 9 to 14) (size 15 to 20)
#    0.000    3.000    1.250    1.875    0.000    1.500 
#    0.000    3.750    0.000    0.750    0.000    0.000 
#    0.000    0.000    0.000    0.000    0.000    0.000 
#
# Total GULP energy -396657.845898 kJ/mol
# GULP energy per Si atom -12395.557684 kJ/mol
# Density = 1.690764 g / cm^3
# Si number density = 16.946215 Si / 1000 Ang^3
#
#
#
# Elastic Constant Matrix: (Units=GPa)
#
#
# Indices 1 2 3 4 5 6 
#
# 1 58.8328 34.2185 48.4465 0.0000 2.2841 0.0000
# 2 34.2185 75.5889 68.8690 0.0000 3.4795 0.0000
# 3 48.4465 68.8690 136.8076 0.0000 -0.1658 0.0000
# 4 0.0000 0.0000 0.0000 32.8733 0.0000 -3.0154
# 5 2.2841 3.4795 -0.1658 0.0000 22.0058 0.0000
# 6 0.0000 0.0000 0.0000 -3.0154 0.0000 14.2933
#
#
#
# Elastic Compliance Matrix: (Units=1/GPa)
#
#
# Indices 1 2 3 4 5 6 
#
# 1 0.025502 -0.005974 -0.006025 0.000000 -0.001748 0.000000
# 2 -0.005974 0.026187 -0.011071 0.000000 -0.003604 0.000000
# 3 -0.006025 -0.011071 0.015020 0.000000 0.002489 0.000000
# 4 0.000000 0.000000 0.000000 0.031020 0.000000 0.006544
# 5 -0.001748 -0.003604 0.002489 0.000000 0.046213 0.000000
# 6 0.000000 0.000000 0.000000 0.006544 0.000000 0.071343
#
#
# Mechanical properties :
#
#
# Convention : Reuss Voigt Hill
#
# Bulk Modulus (GPa) = 48.62319 63.81081 56.21700
# Shear Modulus (GPa) = 18.63717 21.81416 20.22566
#
# Velocity S-wave (km/s) = 3.31990 3.59173 3.45849
# Velocity P-wave (km/s) = 6.59170 7.41197 7.01384
#
# Compressibility (1/GPa) = 0.02056632
#
# Stress axis : x y z
#
# Youngs Moduli (GPa) = 39.21337 38.18717 66.57998
#
# Poissons Ratio (x) = 0.22814 0.40117
# Poissons Ratio (y) = 0.23427 0.73712
# Poissons Ratio (z) = 0.23627 0.42278
#
# Static dielectric constant tensor:
#      x y z
#    x 2.682040 0.000000 0.060230 
#    y 0.000000 3.166640 0.000000 
#    z 0.060230 0.000000 3.399240 
# 
# 
# High freq. dielectric constant tensor:
#      x y z
#    x 1.611200 0.000000 0.002850 
#    y 0.000000 1.640940 0.000000 
#    z 0.002850 0.000000 1.664120 
# 
# From -- ./inp_files/40693.got.cif
#   From: 2010.06.25/outbox.cif.g09.slc.cpg/sg11_21_cif.got.tgz:40693.got - 2010.06.27 23:14:04.
