data_PCOD8068154
_publ_section_title
;
Structure prediction by ZEFSAII (Michael W. Deem and Ramdas Pophale) SiO2 
 PCOD8068154
Probable space group: P 21/M
;
_chemical_formula_sum "Si O2"
_cell_formula_units_Z 32
_cell_length_a 11.567189
_cell_length_b 20.632947
_cell_length_c 19.191360
_cell_angle_alpha 90.000000
_cell_angle_beta 156.808210
_cell_angle_gamma 90.000000
_cell_volume 1803.772695
_symmetry_space_group_name_H-M "P 21/M"
_symmetry_group_IT_number 11
_symmetry_cell_setting 'monoclinic'
loop_
_space_group_symop_operation_xyz
x,y,z
-x,1/2+y,-z
-x,-y,-z
x,1/2-y,z
loop_
_atom_site_type_symbol
_atom_site_label
_atom_site_fract_x
_atom_site_fract_y
_atom_site_fract_z
Si Si1 0.651312 0.821860 0.999368
Si Si2 0.253031 0.459974 0.902142
Si Si3 0.985389 0.675954 0.040804
Si Si4 0.064224 0.820429 0.592649
Si Si5 0.412990 0.880187 0.677155
Si Si6 0.441306 0.998926 0.797661
Si Si7 0.853493 0.023024 0.561670
Si Si8 0.531870 0.586799 0.313517
O O1 0.694179 0.750000 0.057950
O O2 0.318531 0.829801 0.790311
O O3 0.709588 0.881571 0.084365
O O4 0.869219 0.827402 0.054838
O O5 0.943938 0.477510 0.693496
O O6 0.500000 0.500000 0.000000
O O7 0.280506 0.482722 0.997801
O O8 0.063166 0.750000 0.063029
O O9 0.265706 0.630129 0.191874
O O10 0.741244 0.648119 0.851886
O O11 0.919083 0.750000 0.519283
O O12 0.823571 0.872414 0.474813
O O13 0.198739 0.825043 0.589091
O O14 0.292760 0.907010 0.537090
O O15 0.388555 0.937488 0.720287
O O16 0.532164 0.059474 0.799482
O O17 0.141186 0.012970 0.672838
O O18 0.599840 0.970188 0.406626
#
# Coordination Sequence:
#
# PCOD8068154 Si02
#       8
#     4   4   4   4   4   4   4   4
#     4   9  18  35  54  75 105 141 176 216 262 315
#     4  10  18  32  54  81 107 135 174 218 263 307
#     4  10  21  34  53  77 105 138 179 214 256 319
#     4  10  16  27  52  75  97 132 173 213 256 305
#     4  10  16  33  51  74 101 127 171 212 264 295
#     4  10  17  31  54  76 109 131 163 218 265 309
#     4  10  19  30  53  80 105 130 167 225 259 308
#     4  11  19  32  51  79 107 131 170 219 267 304
#
# _framework density 17.740594000000002
#
# number of rings (size 3 to 8) (size 9 to 14) (size 15 to 20)
#    0.000    2.000    5.000    3.000    0.000    2.000 
#    0.000    1.875    0.000    0.000    0.000    0.000 
#    0.000    0.000    0.000    0.000    0.000    0.000 
#
# Total GULP energy -396512.532671 kJ/mol
# GULP energy per Si atom -12391.016646 kJ/mol
# Density = 1.770022 g / cm^3
# Si number density = 17.740594 Si / 1000 Ang^3
#
#
#
# Elastic Constant Matrix: (Units=GPa)
#
#
# Indices 1 2 3 4 5 6 
#
# 1 33.8800 25.3703 29.0320 0.0000 -10.9263 0.0000
# 2 25.3703 110.8285 37.1046 0.0000 -2.4692 0.0000
# 3 29.0320 37.1046 80.9831 0.0000 -4.7825 0.0000
# 4 0.0000 0.0000 0.0000 55.8311 0.0000 2.3114
# 5 -10.9263 -2.4692 -4.7825 0.0000 24.1882 0.0000
# 6 0.0000 0.0000 0.0000 2.3114 0.0000 24.2715
#
#
#
# Elastic Compliance Matrix: (Units=1/GPa)
#
#
# Indices 1 2 3 4 5 6 
#
# 1 0.054355 -0.006929 -0.015079 0.000000 0.020864 0.000000
# 2 -0.006929 0.011542 -0.002954 0.000000 -0.002536 0.000000
# 3 -0.015079 -0.002954 0.018908 0.000000 -0.003374 0.000000
# 4 0.000000 0.000000 0.000000 0.017982 0.000000 -0.001712
# 5 0.020864 -0.002536 -0.003374 0.000000 0.049841 0.000000
# 6 0.000000 0.000000 0.000000 -0.001712 0.000000 0.041364
#
#
# Mechanical properties :
#
#
# Convention : Reuss Voigt Hill
#
# Bulk Modulus (GPa) = 28.66937 45.41172 37.04054
# Shear Modulus (GPa) = 19.56623 29.80381 24.68502
#
# Velocity S-wave (km/s) = 3.32461 4.10320 3.73425
# Velocity P-wave (km/s) = 5.56172 6.93553 6.28627
#
# Compressibility (1/GPa) = 0.03488044
#
# Stress axis : x y z
#
# Youngs Moduli (GPa) = 18.39759 86.64327 52.88768
#
# Poissons Ratio (x) = 0.60039 0.79749
# Poissons Ratio (y) = 0.12749 0.15621
# Poissons Ratio (z) = 0.27742 0.25592
#
# Static dielectric constant tensor:
#      x y z
#    x 3.104770 0.000000 -0.279410 
#    y 0.000000 3.594400 0.000000 
#    z -0.279410 0.000000 3.502060 
# 
# 
# High freq. dielectric constant tensor:
#      x y z
#    x 1.636560 0.000000 -0.005240 
#    y 0.000000 1.703110 0.000000 
#    z -0.005240 0.000000 1.681130 
# 
# From -- ./inp_files/19406.got.cif
#   From: 2010.06.25/outbox.cif.g09.slc.cpg/sg11_10_cif.got.tgz:19406.got - 2010.06.27 23:14:04.
