data_PCOD8068934
_publ_section_title
;
Structure prediction by ZEFSAII (Michael W. Deem and Ramdas Pophale) SiO2 
 PCOD8068934
Probable space group: P 21/M
;
_chemical_formula_sum "Si O2"
_cell_formula_units_Z 32
_cell_length_a 27.708152
_cell_length_b 8.885379
_cell_length_c 19.951926
_cell_angle_alpha 90.000000
_cell_angle_beta 20.945971
_cell_angle_gamma 90.000000
_cell_volume 1756.018676
_symmetry_space_group_name_H-M "P 21/M"
_symmetry_group_IT_number 11
_symmetry_cell_setting 'monoclinic'
loop_
_space_group_symop_operation_xyz
x,y,z
-x,1/2+y,-z
-x,-y,-z
x,1/2-y,z
loop_
_atom_site_type_symbol
_atom_site_label
_atom_site_fract_x
_atom_site_fract_y
_atom_site_fract_z
Si Si1 0.131060 0.582246 0.190684
Si Si2 0.163723 0.575362 0.578371
Si Si3 0.864529 0.075587 0.539853
Si Si4 0.598844 0.571641 0.175278
Si Si5 0.574159 0.572126 0.710648
Si Si6 0.601615 0.071715 0.316219
Si Si7 0.100526 0.583408 0.071713
Si Si8 0.578032 0.426100 0.959385
O O1 0.152521 0.750000 0.191961
O O2 0.115697 0.585392 0.131472
O O3 0.994088 0.514081 0.399650
O O4 0.261412 0.483159 0.040265
O O5 0.192680 0.750000 0.554082
O O6 0.171312 0.533655 0.490205
O O7 0.271772 0.474241 0.476730
O O8 0.015349 0.533641 0.799808
O O9 0.901224 0.250000 0.497108
O O10 0.736507 0.030965 0.751496
O O11 0.599764 0.750000 0.179828
O O12 0.475229 0.516034 0.290472
O O13 0.576303 0.501904 0.277295
O O14 0.564186 0.750000 0.711805
O O15 0.482595 0.518176 0.891868
O O16 0.579738 0.250000 0.338161
O O17 0.500000 0.000000 0.500000
O O18 0.753144 0.035510 0.146798
O O19 0.060214 0.750000 0.098463
O O20 0.558319 0.250000 0.975691
O O21 0.500000 0.500000 0.000000
#
# Coordination Sequence:
#
# PCOD8068934 Si02
#       8
#     4   4   4   4   4   4   4   4
#     4   9  17  31  51  74 100 133 174 219 268 319
#     4  10  18  29  49  75 104 137 178 223 264 309
#     4   9  17  30  48  73 102 132 174 226 273 317
#     4  11  22  37  56  78 107 141 178 219 263 315
#     4  11  22  35  52  74 105 144 181 221 270 322
#     4  10  20  36  60  89 116 141 173 211 257 310
#     4   8  16  30  49  76 108 137 170 211 254 304
#     4  10  20  33  50  73 103 138 179 227 274 320
#
# _framework density 18.223040999999998
#
# number of rings (size 3 to 8) (size 9 to 14) (size 15 to 20)
#    0.000    2.250    1.250    3.375    0.000    5.000 
#    0.000    0.625    0.000    0.750    0.000    0.000 
#    0.000    0.000    0.000    0.000    0.000    0.000 
#
# Total GULP energy -396786.766092 kJ/mol
# GULP energy per Si atom -12399.586440 kJ/mol
# Density = 1.818156 g / cm^3
# Si number density = 18.223041 Si / 1000 Ang^3
#
#
#
# Elastic Constant Matrix: (Units=GPa)
#
#
# Indices 1 2 3 4 5 6 
#
# 1 59.4103 39.0053 40.8006 0.0000 -5.3550 0.0000
# 2 39.0053 100.9316 51.1988 0.0000 -5.2044 0.0000
# 3 40.8006 51.1988 127.9958 0.0000 -4.5760 0.0000
# 4 0.0000 0.0000 0.0000 34.5322 0.0000 -5.1516
# 5 -5.3550 -5.2044 -4.5760 0.0000 18.2076 0.0000
# 6 0.0000 0.0000 0.0000 -5.1516 0.0000 24.4440
#
#
#
# Elastic Compliance Matrix: (Units=1/GPa)
#
#
# Indices 1 2 3 4 5 6 
#
# 1 0.025301 -0.006960 -0.005132 0.000000 0.004162 0.000000
# 2 -0.006960 0.014442 -0.003516 0.000000 0.001198 0.000000
# 3 -0.005132 -0.003516 0.010863 0.000000 0.000216 0.000000
# 4 0.000000 0.000000 0.000000 0.029898 0.000000 0.006301
# 5 0.004162 0.001198 0.000216 0.000000 0.056543 0.000000
# 6 0.000000 0.000000 0.000000 0.006301 0.000000 0.042238
#
#
# Mechanical properties :
#
#
# Convention : Reuss Voigt Hill
#
# Bulk Modulus (GPa) = 51.57063 61.14966 56.36014
# Shear Modulus (GPa) = 23.04518 25.92562 24.48540
#
# Velocity S-wave (km/s) = 3.56000 3.77594 3.66956
# Velocity P-wave (km/s) = 6.72750 7.25530 6.99638
#
# Compressibility (1/GPa) = 0.01939088
#
# Stress axis : x y z
#
# Youngs Moduli (GPa) = 39.52362 69.24050 92.05710
#
# Poissons Ratio (x) = 0.48189 0.47248
# Poissons Ratio (y) = 0.27507 0.32365
# Poissons Ratio (z) = 0.20285 0.24343
#
# Static dielectric constant tensor:
#      x y z
#    x 2.958190 0.000000 0.031550 
#    y 0.000000 3.441800 0.000000 
#    z 0.031550 0.000000 3.359390 
# 
# 
# High freq. dielectric constant tensor:
#      x y z
#    x 1.663170 0.000000 -0.015020 
#    y 0.000000 1.714250 0.000000 
#    z -0.015020 0.000000 1.715480 
# 
# From -- ./inp_files/42897.got.cif
#   From: 2010.06.25/outbox.cif.g09.slc.cpg/sg11_22_cif.got.tgz:42897.got - 2010.06.27 23:14:04.
