data_PCOD8068551
_publ_section_title
;
Structure prediction by ZEFSAII (Michael W. Deem and Ramdas Pophale) SiO2 
 PCOD8068551
Probable space group: P 21/M
;
_chemical_formula_sum "Si O2"
_cell_formula_units_Z 32
_cell_length_a 30.569183
_cell_length_b 8.985613
_cell_length_c 21.045388
_cell_angle_alpha 90.000000
_cell_angle_beta 19.766015
_cell_angle_gamma 90.000000
_cell_volume 1954.952062
_symmetry_space_group_name_H-M "P 21/M"
_symmetry_group_IT_number 11
_symmetry_cell_setting 'monoclinic'
loop_
_space_group_symop_operation_xyz
x,y,z
-x,1/2+y,-z
-x,-y,-z
x,1/2-y,z
loop_
_atom_site_type_symbol
_atom_site_label
_atom_site_fract_x
_atom_site_fract_y
_atom_site_fract_z
Si Si1 0.603310 0.075638 0.537633
Si Si2 0.804301 0.585232 0.761802
Si Si3 0.821072 0.572644 0.934305
Si Si4 0.032158 0.586223 0.550761
Si Si5 0.630281 0.073329 0.095949
Si Si6 0.444218 0.413142 0.518580
Si Si7 0.108229 0.925494 0.894297
Si Si8 0.843123 0.912693 0.048406
O O1 0.586595 0.250000 0.571002
O O2 0.754192 0.030385 0.326249
O O3 0.518606 0.987334 0.706033
O O4 0.530062 0.023446 0.574380
O O5 0.745332 0.750000 0.832046
O O6 0.850304 0.521326 0.630487
O O7 0.927531 0.595648 0.638260
O O8 0.698176 0.477670 0.938010
O O9 0.796158 0.750000 0.963735
O O10 0.958858 0.528644 0.714194
O O11 0.704855 0.491730 0.055929
O O12 0.830677 0.518060 0.994505
O O13 0.090883 0.750000 0.482594
O O14 0.630276 0.250000 0.100022
O O15 0.500000 0.500000 0.500000
O O16 0.510148 0.250000 0.417915
O O17 0.295230 0.385489 0.732965
O O18 0.091071 0.750000 0.917823
O O19 0.087236 0.978916 0.996121
O O20 0.000000 0.000000 0.000000
O O21 0.913300 0.750000 0.949003
#
# Coordination Sequence:
#
# PCOD8068551 Si02
#       8
#     4   4   4   4   4   4   4   4
#     4  10  20  33  46  62  85 113 145 180 219 263
#     4   9  16  26  39  55  81 118 155 188 221 256
#     4   9  17  29  44  63  91 125 154 185 222 258
#     4   8  14  24  38  57  82 115 155 189 217 251
#     4  11  20  28  42  64  90 120 153 189 223 259
#     4  10  18  27  41  61  86 117 148 178 211 251
#     4  10  21  36  54  70  86 110 140 179 224 268
#     4   9  18  31  46  64  87 114 145 179 217 260
#
# _framework density 16.368687999999999
#
# number of rings (size 3 to 8) (size 9 to 14) (size 15 to 20)
#    0.000    2.500    0.000    4.125    0.000    6.500 
#    0.000    0.000    0.000    0.000    0.000    0.000 
#    0.000    1.000    0.000    3.000    0.000    4.250 
#
# Total GULP energy -396447.247528 kJ/mol
# GULP energy per Si atom -12388.976485 kJ/mol
# Density = 1.633143 g / cm^3
# Si number density = 16.368688 Si / 1000 Ang^3
#
#
#
# Elastic Constant Matrix: (Units=GPa)
#
#
# Indices 1 2 3 4 5 6 
#
# 1 37.1224 32.5846 31.9820 0.0000 4.2343 0.0000
# 2 32.5846 100.7117 49.9243 0.0000 0.4628 0.0000
# 3 31.9820 49.9243 86.7920 0.0000 15.8614 0.0000
# 4 0.0000 0.0000 0.0000 26.7636 0.0000 3.8129
# 5 4.2343 0.4628 15.8614 0.0000 23.5522 0.0000
# 6 0.0000 0.0000 0.0000 3.8129 0.0000 20.4359
#
#
#
# Elastic Compliance Matrix: (Units=1/GPa)
#
#
# Indices 1 2 3 4 5 6 
#
# 1 0.044364 -0.008769 -0.011264 0.000000 -0.000218 0.000000
# 2 -0.008769 0.016361 -0.007309 0.000000 0.006177 0.000000
# 3 -0.011264 -0.007309 0.022214 0.000000 -0.012792 0.000000
# 4 0.000000 0.000000 0.000000 0.038384 0.000000 -0.007162
# 5 -0.000218 0.006177 -0.012792 0.000000 0.050991 0.000000
# 6 0.000000 0.000000 0.000000 -0.007162 0.000000 0.050270
#
#
# Mechanical properties :
#
#
# Convention : Reuss Voigt Hill
#
# Bulk Modulus (GPa) = 35.39053 50.40088 42.89570
# Shear Modulus (GPa) = 17.44061 21.49268 19.46664
#
# Velocity S-wave (km/s) = 3.26772 3.62752 3.45231
# Velocity P-wave (km/s) = 5.99209 6.95723 6.49262
#
# Compressibility (1/GPa) = 0.02825615
#
# Stress axis : x y z
#
# Youngs Moduli (GPa) = 22.54079 61.12007 45.01606
#
# Poissons Ratio (x) = 0.53597 0.50705
# Poissons Ratio (y) = 0.19766 0.32902
# Poissons Ratio (z) = 0.25389 0.44672
#
# Static dielectric constant tensor:
#      x y z
#    x 2.797220 0.000000 0.374880 
#    y 0.000000 2.930650 0.000000 
#    z 0.374880 0.000000 2.997340 
# 
# 
# High freq. dielectric constant tensor:
#      x y z
#    x 1.578060 0.000000 0.032810 
#    y 0.000000 1.642370 0.000000 
#    z 0.032810 0.000000 1.620030 
# 
# From -- ./inp_files/67412.got.cif
#   From: 2010.06.25/outbox.cif.g09.slc.cpg/sg11_34_cif.got.tgz:67412.got - 2010.06.27 23:14:04.
