data_PCOD8068262
_publ_section_title
;
Structure prediction by ZEFSAII (Michael W. Deem and Ramdas Pophale) SiO2 
 PCOD8068262
Probable space group: P 21/M
;
_chemical_formula_sum "Si O2"
_cell_formula_units_Z 28
_cell_length_a 23.123597
_cell_length_b 8.644485
_cell_length_c 16.658356
_cell_angle_alpha 90.000000
_cell_angle_beta 149.309695
_cell_angle_gamma 90.000000
_cell_volume 1699.554604
_symmetry_space_group_name_H-M "P 21/M"
_symmetry_group_IT_number 11
_symmetry_cell_setting 'monoclinic'
loop_
_space_group_symop_operation_xyz
x,y,z
-x,1/2+y,-z
-x,-y,-z
x,1/2-y,z
loop_
_atom_site_type_symbol
_atom_site_label
_atom_site_fract_x
_atom_site_fract_y
_atom_site_fract_z
Si Si1 0.951240 0.926969 0.066575
Si Si2 0.154593 0.430258 0.215851
Si Si3 0.538845 0.068180 0.163458
Si Si4 0.932316 0.931135 0.658066
Si Si5 0.919186 0.433914 0.470855
Si Si6 0.276829 0.932412 0.494687
Si Si7 0.335868 0.932344 0.845375
O O1 0.951725 0.750000 0.095848
O O2 0.957723 0.033822 0.153699
O O3 0.842861 0.959363 0.877992
O O4 0.060704 0.958784 0.142516
O O5 0.127639 0.250000 0.201215
O O6 0.269913 0.480937 0.399607
O O7 0.525515 0.250000 0.140396
O O8 0.602831 0.021842 0.321961
O O9 0.613355 0.004288 0.177851
O O10 0.413363 0.994189 0.011307
O O11 0.910015 0.750000 0.626785
O O12 0.959673 0.998038 0.603757
O O13 0.823071 0.015029 0.564777
O O14 0.926323 0.250000 0.482553
O O15 0.792289 0.492724 0.299184
O O16 0.000000 0.500000 0.500000
O O17 0.267619 0.750000 0.471595
O O18 0.336808 0.750000 0.848282
#
# Coordination Sequence:
#
# PCOD8068262 Si02
#       7
#     4   4   4   4   4   4   4
#     4   9  16  26  39  55  82 116 147 184 223 261
#     4   9  16  24  36  58  84 114 150 182 217 265
#     4   9  17  29  45  66  90 118 151 185 224 270
#     4  11  20  29  44  64  85 116 155 188 224 271
#     4  11  22  37  51  67  91 118 153 192 233 270
#     4  10  17  27  42  62  91 122 149 185 225 265
#     4   9  18  32  47  64  88 116 148 188 228 267
#
# _framework density 16.474903999999999
#
# number of rings (size 3 to 8) (size 9 to 14) (size 15 to 20)
#    0.000    2.286    1.429    4.714    0.000    4.000 
#    0.000    0.000    0.000    0.000    0.000    0.000 
#    0.000    1.143    0.000    3.714    0.000    6.000 
#
# Total GULP energy -346972.600951 kJ/mol
# GULP energy per Si atom -12391.878605 kJ/mol
# Density = 1.643741 g / cm^3
# Si number density = 16.474904 Si / 1000 Ang^3
#
#
#
# Elastic Constant Matrix: (Units=GPa)
#
#
# Indices 1 2 3 4 5 6 
#
# 1 60.0976 19.9790 57.6474 0.0000 -15.3523 0.0000
# 2 19.9790 50.7458 36.6079 0.0000 -10.8808 0.0000
# 3 57.6474 36.6079 135.0349 0.0000 -29.4838 0.0000
# 4 0.0000 0.0000 0.0000 28.6726 0.0000 -6.4476
# 5 -15.3523 -10.8808 -29.4838 0.0000 25.9978 0.0000
# 6 0.0000 0.0000 0.0000 -6.4476 0.0000 20.0636
#
#
#
# Elastic Compliance Matrix: (Units=1/GPa)
#
#
# Indices 1 2 3 4 5 6 
#
# 1 0.028809 -0.002812 -0.010738 0.000000 0.003658 0.000000
# 2 -0.002812 0.025030 -0.004865 0.000000 0.003298 0.000000
# 3 -0.010738 -0.004865 0.015257 0.000000 0.008926 0.000000
# 4 0.000000 0.000000 0.000000 0.037593 0.000000 0.012081
# 5 0.003658 0.003298 0.008926 0.000000 0.052128 0.000000
# 6 0.000000 0.000000 0.000000 0.012081 0.000000 0.053724
#
#
# Mechanical properties :
#
#
# Convention : Reuss Voigt Hill
#
# Bulk Modulus (GPa) = 30.99167 52.70522 41.84844
# Shear Modulus (GPa) = 19.22146 23.72307 21.47226
#
# Velocity S-wave (km/s) = 3.41942 3.79879 3.61408
# Velocity P-wave (km/s) = 5.86875 7.16252 6.54767
#
# Compressibility (1/GPa) = 0.03226674
#
# Stress axis : x y z
#
# Youngs Moduli (GPa) = 34.71172 39.95220 65.54181
#
# Poissons Ratio (x) = 0.11233 0.70377
# Poissons Ratio (y) = 0.09760 0.31888
# Poissons Ratio (z) = 0.37273 0.19438
#
# Static dielectric constant tensor:
#      x y z
#    x 2.794800 0.000000 -0.535250 
#    y 0.000000 3.121230 0.000000 
#    z -0.535250 0.000000 3.682870 
# 
# 
# High freq. dielectric constant tensor:
#      x y z
#    x 1.568610 0.000000 -0.044800 
#    y 0.000000 1.645280 0.000000 
#    z -0.044800 0.000000 1.641180 
# 
# From -- ./inp_files/61705.got.cif
#   From: 2010.06.25/outbox.cif.g09.slc.cpg/sg11_31_cif.got.tgz:61705.got - 2010.06.27 23:14:04.
