data_PCOD8068941
_publ_section_title
;
Structure prediction by ZEFSAII (Michael W. Deem and Ramdas Pophale) SiO2 
 PCOD8068941
Probable space group: P 21/M
;
_chemical_formula_sum "Si O2"
_cell_formula_units_Z 28
_cell_length_a 10.442715
_cell_length_b 14.162777
_cell_length_c 15.326974
_cell_angle_alpha 90.000000
_cell_angle_beta 41.345688
_cell_angle_gamma 90.000000
_cell_volume 1497.466705
_symmetry_space_group_name_H-M "P 21/M"
_symmetry_group_IT_number 11
_symmetry_cell_setting 'monoclinic'
loop_
_space_group_symop_operation_xyz
x,y,z
-x,1/2+y,-z
-x,-y,-z
x,1/2-y,z
loop_
_atom_site_type_symbol
_atom_site_label
_atom_site_fract_x
_atom_site_fract_y
_atom_site_fract_z
Si Si1 0.296802 0.483447 0.499850
Si Si2 0.720299 0.358203 0.049522
Si Si3 0.279019 0.449664 0.699890
Si Si4 0.022704 0.139940 0.316357
Si Si5 0.881548 0.965275 0.898221
Si Si6 0.888431 0.646290 0.059235
Si Si7 0.301482 0.142491 0.336180
O O1 0.280884 0.420606 0.596486
O O2 0.519246 0.508643 0.371679
O O3 0.227454 0.421465 0.453870
O O4 0.172891 0.579689 0.570858
O O5 0.718731 0.250000 0.014184
O O6 0.514663 0.386620 0.194983
O O7 0.775849 0.432004 0.942862
O O8 0.882866 0.371395 0.041153
O O9 0.226756 0.363318 0.790364
O O10 0.112426 0.528338 0.795113
O O11 0.969889 0.250000 0.326506
O O12 0.151945 0.099227 0.169874
O O13 0.151468 0.127690 0.335506
O O14 0.800206 0.919957 0.029129
O O15 0.854308 0.750000 0.040496
O O16 0.303294 0.250000 0.367953
#
# Coordination Sequence:
#
# PCOD8068941 Si02
#       7
#     4   4   4   4   4   4   4
#     4  10  19  35  54  72 100 136 168 207 255 296
#     4   9  18  32  52  76 100 128 164 208 254 300
#     4   9  19  32  50  76 102 128 165 208 250 304
#     4  10  22  36  51  73 100 135 176 210 243 292
#     4  10  18  33  53  74 104 133 162 204 256 307
#     4  10  18  29  49  76 104 131 159 200 255 308
#     4  10  20  35  54  75 100 133 174 211 244 292
#
# _framework density 18.698245
#
# number of rings (size 3 to 8) (size 9 to 14) (size 15 to 20)
#    0.000    2.286    0.000    4.286    0.000    1.714 
#    0.000    9.286    0.000    0.857    0.000    0.000 
#    0.000    0.000    0.000    0.000    0.000    0.000 
#
# Total GULP energy -347010.325741 kJ/mol
# GULP energy per Si atom -12393.225919 kJ/mol
# Density = 1.865569 g / cm^3
# Si number density = 18.698245 Si / 1000 Ang^3
#
#
#
# Elastic Constant Matrix: (Units=GPa)
#
#
# Indices 1 2 3 4 5 6 
#
# 1 62.5362 38.6357 36.5233 0.0000 15.0311 0.0000
# 2 38.6357 108.3506 48.8863 0.0000 17.1084 0.0000
# 3 36.5233 48.8863 89.6989 0.0000 7.3256 0.0000
# 4 0.0000 0.0000 0.0000 29.9572 0.0000 5.4973
# 5 15.0311 17.1084 7.3256 0.0000 24.5893 0.0000
# 6 0.0000 0.0000 0.0000 5.4973 0.0000 22.5679
#
#
#
# Elastic Compliance Matrix: (Units=1/GPa)
#
#
# Indices 1 2 3 4 5 6 
#
# 1 0.025230 -0.004110 -0.007182 0.000000 -0.010423 0.000000
# 2 -0.004110 0.014086 -0.005543 0.000000 -0.005636 0.000000
# 3 -0.007182 -0.005543 0.016829 0.000000 0.003233 0.000000
# 4 0.000000 0.000000 0.000000 0.034943 0.000000 -0.008512
# 5 -0.010423 -0.005636 0.003233 0.000000 0.049998 0.000000
# 6 0.000000 0.000000 0.000000 -0.008512 0.000000 0.046384
#
#
# Mechanical properties :
#
#
# Convention : Reuss Voigt Hill
#
# Bulk Modulus (GPa) = 44.49301 56.51959 50.50630
# Shear Modulus (GPa) = 21.86923 24.52557 23.19740
#
# Velocity S-wave (km/s) = 3.42363 3.62560 3.52606
# Velocity P-wave (km/s) = 6.28294 6.91516 6.60662
#
# Compressibility (1/GPa) = 0.02247544
#
# Stress axis : x y z
#
# Youngs Moduli (GPa) = 39.63570 70.99323 59.41968
#
# Poissons Ratio (x) = 0.29181 0.42672
# Poissons Ratio (y) = 0.16292 0.32936
# Poissons Ratio (z) = 0.28465 0.39351
#
# Static dielectric constant tensor:
#      x y z
#    x 3.280600 0.000000 0.072280 
#    y 0.000000 3.509500 0.000000 
#    z 0.072280 0.000000 3.489940 
# 
# 
# High freq. dielectric constant tensor:
#      x y z
#    x 1.711220 0.000000 0.004310 
#    y 0.000000 1.721280 0.000000 
#    z 0.004310 0.000000 1.726910 
# 
# From -- ./inp_files/47575.got.cif
#   From: 2010.06.25/outbox.cif.g09.slc.cpg/sg11_24_cif.got.tgz:47575.got - 2010.06.27 23:14:04.
