data_PCOD8068643
_publ_section_title
;
Structure prediction by ZEFSAII (Michael W. Deem and Ramdas Pophale) SiO2 
 PCOD8068643
Probable space group: P 21/M
;
_chemical_formula_sum "Si O2"
_cell_formula_units_Z 28
_cell_length_a 10.299567
_cell_length_b 9.402816
_cell_length_c 32.043652
_cell_angle_alpha 90.000000
_cell_angle_beta 147.083918
_cell_angle_gamma 90.000000
_cell_volume 1686.345719
_symmetry_space_group_name_H-M "P 21/M"
_symmetry_group_IT_number 11
_symmetry_cell_setting 'monoclinic'
loop_
_space_group_symop_operation_xyz
x,y,z
-x,1/2+y,-z
-x,-y,-z
x,1/2-y,z
loop_
_atom_site_type_symbol
_atom_site_label
_atom_site_fract_x
_atom_site_fract_y
_atom_site_fract_z
Si Si1 0.548969 0.913503 0.971992
Si Si2 0.779762 0.414195 0.193661
Si Si3 0.187957 0.906945 0.332703
Si Si4 0.467666 0.085965 0.801342
Si Si5 0.369031 0.416565 0.501154
Si Si6 0.001083 0.914625 0.042790
Si Si7 0.966487 0.907963 0.364967
O O1 0.581169 0.750000 0.993220
O O2 0.326328 0.934307 0.880914
O O3 0.792240 0.971540 0.016480
O O4 0.500000 0.000000 0.000000
O O5 0.797762 0.250000 0.211279
O O6 0.604054 0.490046 0.178748
O O7 0.047375 0.480375 0.266167
O O8 0.152403 0.750000 0.303615
O O9 0.473473 0.939880 0.414073
O O10 0.083216 0.911467 0.350869
O O11 0.416408 0.250000 0.800012
O O12 0.311118 0.047464 0.717690
O O13 0.745566 0.062452 0.865599
O O14 0.500000 0.500000 0.500000
O O15 0.351235 0.250000 0.485209
O O16 0.101629 0.482846 0.432764
O O17 0.954682 0.750000 0.019220
O O18 0.000000 0.000000 0.000000
O O19 0.985612 0.750000 0.389633
#
# Coordination Sequence:
#
# PCOD8068643 Si02
#       7
#     4   4   4   4   4   4   4
#     4  10  22  36  49  69  95 123 157 195 234 280
#     4  10  18  28  43  65  89 112 150 195 227 266
#     4   8  15  25  36  53  79 113 150 180 218 272
#     4   9  17  28  44  64  88 119 149 183 229 275
#     4   9  15  22  32  49  76 111 146 178 214 260
#     4  10  19  33  51  71  94 120 156 196 233 278
#     4   8  14  23  34  53  80 110 144 176 214 266
#
# _framework density 16.603950999999999
#
# number of rings (size 3 to 8) (size 9 to 14) (size 15 to 20)
#    0.000    2.857    1.429    2.571    0.000    7.429 
#    0.000    0.000    0.000    0.000    0.000    0.000 
#    0.000    1.143    0.000    2.571    0.000    5.857 
#
# Total GULP energy -346960.138383 kJ/mol
# GULP energy per Si atom -12391.433514 kJ/mol
# Density = 1.656616 g / cm^3
# Si number density = 16.603951 Si / 1000 Ang^3
#
#
#
# Elastic Constant Matrix: (Units=GPa)
#
#
# Indices 1 2 3 4 5 6 
#
# 1 58.8864 36.3882 41.1034 0.0000 3.4437 0.0000
# 2 36.3882 96.8918 66.9510 0.0000 2.1234 0.0000
# 3 41.1034 66.9510 144.2174 0.0000 18.4651 0.0000
# 4 0.0000 0.0000 0.0000 32.6034 0.0000 -1.0609
# 5 3.4437 2.1234 18.4651 0.0000 12.2605 0.0000
# 6 0.0000 0.0000 0.0000 -1.0609 0.0000 16.2128
#
#
#
# Elastic Compliance Matrix: (Units=1/GPa)
#
#
# Indices 1 2 3 4 5 6 
#
# 1 0.023464 -0.006140 -0.003877 0.000000 0.000312 0.000000
# 2 -0.006140 0.017838 -0.007875 0.000000 0.010495 0.000000
# 3 -0.003877 -0.007875 0.014100 0.000000 -0.018782 0.000000
# 4 0.000000 0.000000 0.000000 0.030737 0.000000 0.002011
# 5 0.000312 0.010495 -0.018782 0.000000 0.107945 0.000000
# 6 0.000000 0.000000 0.000000 0.002011 0.000000 0.061811
#
#
# Mechanical properties :
#
#
# Convention : Reuss Voigt Hill
#
# Bulk Modulus (GPa) = 50.97386 65.43119 58.20253
# Shear Modulus (GPa) = 16.76625 22.58552 19.67589
#
# Velocity S-wave (km/s) = 3.18114 3.69216 3.44614
# Velocity P-wave (km/s) = 6.65277 7.59398 7.13891
#
# Compressibility (1/GPa) = 0.01961790
#
# Stress axis : x y z
#
# Youngs Moduli (GPa) = 42.61874 56.05954 70.92368
#
# Poissons Ratio (x) = 0.34420 0.27497
# Poissons Ratio (y) = 0.26167 0.55853
# Poissons Ratio (z) = 0.16523 0.44147
#
# Static dielectric constant tensor:
#      x y z
#    x 2.541090 0.000000 0.416710 
#    y 0.000000 3.304030 0.000000 
#    z 0.416710 0.000000 4.137090 
# 
# 
# High freq. dielectric constant tensor:
#      x y z
#    x 1.555910 0.000000 0.021240 
#    y 0.000000 1.645750 0.000000 
#    z 0.021240 0.000000 1.665930 
# 
# From -- ./inp_files/72752.got.cif
#   From: 2010.06.25/outbox.cif.g09.slc.cpg/sg11_37_cif.got.tgz:72752.got - 2010.06.27 23:14:04.
