data_PCOD8068578
_publ_section_title
;
Structure prediction by ZEFSAII (Michael W. Deem and Ramdas Pophale) SiO2 
 PCOD8068578
Probable space group: P 21/M
;
_chemical_formula_sum "Si O2"
_cell_formula_units_Z 32
_cell_length_a 17.004185
_cell_length_b 9.282929
_cell_length_c 12.705843
_cell_angle_alpha 90.000000
_cell_angle_beta 90.371180
_cell_angle_gamma 90.000000
_cell_volume 2005.557978
_symmetry_space_group_name_H-M "P 21/M"
_symmetry_group_IT_number 11
_symmetry_cell_setting 'monoclinic'
loop_
_space_group_symop_operation_xyz
x,y,z
-x,1/2+y,-z
-x,-y,-z
x,1/2-y,z
loop_
_atom_site_type_symbol
_atom_site_label
_atom_site_fract_x
_atom_site_fract_y
_atom_site_fract_z
Si Si1 0.416009 0.083031 0.390196
Si Si2 0.315989 0.081384 0.186684
Si Si3 0.167870 0.416872 0.894896
Si Si4 0.827860 0.419160 0.885332
Si Si5 0.323352 0.417098 0.781630
Si Si6 0.403072 0.918305 0.598131
Si Si7 0.002233 0.913488 0.105061
Si Si8 0.419221 0.082304 0.989960
O O1 0.404461 0.250000 0.418966
O O2 0.368206 0.037714 0.286838
O O3 0.507232 0.048814 0.368347
O O4 0.383614 0.988592 0.485714
O O5 0.297029 0.250000 0.185228
O O6 0.234344 0.994709 0.192270
O O7 0.361401 0.032386 0.082276
O O8 0.179237 0.250000 0.929968
O O9 0.233711 0.457074 0.810219
O O10 0.081825 0.441521 0.837595
O O11 0.177753 0.514293 0.998038
O O12 0.809333 0.250000 0.892137
O O13 0.915362 0.449416 0.834841
O O14 0.332076 0.250000 0.751089
O O15 0.345703 0.513930 0.683304
O O16 0.379301 0.456435 0.879439
O O17 0.385739 0.750000 0.590322
O O18 0.006715 0.750000 0.068551
O O19 0.000000 0.000000 0.000000
O O20 0.437681 0.250000 0.001263
O O21 0.500000 0.000000 0.000000
#
# Coordination Sequence:
#
# PCOD8068578 Si02
#       8
#     4   4   4   4   4   4   4   4
#     4   9  19  35  53  69  89 120 159 197 232 279
#     4  10  19  33  49  66  93 128 160 187 226 280
#     4   9  16  30  47  63  91 129 160 188 226 278
#     4  10  18  27  42  69  98 122 154 195 232 271
#     4  10  19  31  48  68  93 125 159 189 224 278
#     4  10  20  34  52  71  92 117 152 201 245 274
#     4   8  15  26  42  63  89 122 156 188 227 271
#     4  10  20  32  45  65  93 125 157 188 226 275
#
# _framework density 15.955659000000001
#
# number of rings (size 3 to 8) (size 9 to 14) (size 15 to 20)
#    0.000    2.500    1.250    1.500    0.000    4.000 
#    0.000    0.000    0.000    0.000    0.000    0.875 
#    0.000    0.000    0.000    0.000    0.000    0.000 
#
# Total GULP energy -396619.024203 kJ/mol
# GULP energy per Si atom -12394.344506 kJ/mol
# Density = 1.591934 g / cm^3
# Si number density = 15.955659 Si / 1000 Ang^3
#
#
#
# Elastic Constant Matrix: (Units=GPa)
#
#
# Indices 1 2 3 4 5 6 
#
# 1 111.1425 41.0902 32.3080 0.0000 -9.0623 0.0000
# 2 41.0902 54.7333 32.1827 0.0000 -4.3847 0.0000
# 3 32.3080 32.1827 66.6536 0.0000 -9.2607 0.0000
# 4 0.0000 0.0000 0.0000 20.1821 0.0000 1.1094
# 5 -9.0623 -4.3847 -9.2607 0.0000 17.5558 0.0000
# 6 0.0000 0.0000 0.0000 1.1094 0.0000 25.8693
#
#
#
# Elastic Compliance Matrix: (Units=1/GPa)
#
#
# Indices 1 2 3 4 5 6 
#
# 1 0.012889 -0.008391 -0.001687 0.000000 0.003668 0.000000
# 2 -0.008391 0.030976 -0.011240 0.000000 -0.002524 0.000000
# 3 -0.001687 -0.011240 0.022377 0.000000 0.008126 0.000000
# 4 0.000000 0.000000 0.000000 0.049666 0.000000 -0.002130
# 5 0.003668 -0.002524 0.008126 0.000000 0.062510 0.000000
# 6 0.000000 0.000000 0.000000 -0.002130 0.000000 0.038747
#
#
# Mechanical properties :
#
#
# Convention : Reuss Voigt Hill
#
# Bulk Modulus (GPa) = 42.35972 49.29901 45.82936
# Shear Modulus (GPa) = 18.67979 21.18469 19.93224
#
# Velocity S-wave (km/s) = 3.42531 3.64775 3.53827
# Velocity P-wave (km/s) = 6.49997 6.97897 6.74372
#
# Compressibility (1/GPa) = 0.02360733
#
# Stress axis : x y z
#
# Youngs Moduli (GPa) = 77.58633 32.28263 44.68970
#
# Poissons Ratio (x) = 0.27087 0.07537
# Poissons Ratio (y) = 0.65100 0.50232
# Poissons Ratio (z) = 0.13085 0.36286
#
# Static dielectric constant tensor:
#      x y z
#    x 3.536500 0.000000 0.001860 
#    y 0.000000 3.047450 0.000000 
#    z 0.001860 0.000000 2.724960 
# 
# 
# High freq. dielectric constant tensor:
#      x y z
#    x 1.625020 0.000000 0.000170 
#    y 0.000000 1.618750 0.000000 
#    z 0.000170 0.000000 1.573260 
# 
# From -- ./inp_files/40684.got.cif
#   From: 2010.06.25/outbox.cif.g09.slc.cpg/sg11_21_cif.got.tgz:40684.got - 2010.06.27 23:14:04.
