data_PCOD8068410
_publ_section_title
;
Structure prediction by ZEFSAII (Michael W. Deem and Ramdas Pophale) SiO2 
 PCOD8068410
Probable space group: P 21/M
;
_chemical_formula_sum "Si O2"
_cell_formula_units_Z 32
_cell_length_a 20.405673
_cell_length_b 19.696677
_cell_length_c 9.023702
_cell_angle_alpha 90.000000
_cell_angle_beta 27.852254
_cell_angle_gamma 90.000000
_cell_volume 1694.435854
_symmetry_space_group_name_H-M "P 21/M"
_symmetry_group_IT_number 11
_symmetry_cell_setting 'monoclinic'
loop_
_space_group_symop_operation_xyz
x,y,z
-x,1/2+y,-z
-x,-y,-z
x,1/2-y,z
loop_
_atom_site_type_symbol
_atom_site_label
_atom_site_fract_x
_atom_site_fract_y
_atom_site_fract_z
Si Si1 0.044026 0.823757 0.468594
Si Si2 0.734080 0.881449 0.614356
Si Si3 0.936213 0.620742 0.975868
Si Si4 0.310386 0.066639 0.727493
Si Si5 0.803743 0.466846 0.528527
Si Si6 0.490661 0.930586 0.932528
Si Si7 0.746167 0.672986 0.920960
Si Si8 0.849182 0.034081 0.773836
O O1 0.115097 0.750000 0.300258
O O2 0.146847 0.884318 0.214320
O O3 0.006525 0.827277 0.719133
O O4 0.909064 0.830431 0.634406
O O5 0.579937 0.873784 0.845036
O O6 0.725149 0.853152 0.796284
O O7 0.781719 0.960012 0.497040
O O8 0.853702 0.842098 0.277189
O O9 0.053633 0.569835 0.807902
O O10 0.822124 0.579231 0.111534
O O11 0.451054 0.060467 0.351080
O O12 0.336373 0.125353 0.798425
O O13 0.274005 0.994787 0.876664
O O14 0.805756 0.484749 0.696408
O O15 0.675242 0.414619 0.748515
O O16 0.500000 0.000000 0.000000
O O17 0.688988 0.750000 0.048448
O O18 0.000000 0.000000 0.500000
#
# Coordination Sequence:
#
# PCOD8068410 Si02
#       8
#     4   4   4   4   4   4   4   4
#     4   9  18  31  48  76 109 131 166 215 262 315
#     4  10  18  32  49  76 109 133 170 220 260 313
#     4   9  18  29  53  75 102 137 170 209 265 316
#     4  10  18  34  54  79 107 134 177 223 266 321
#     4  10  17  31  50  78 104 137 173 215 266 310
#     4   9  21  35  48  77 110 137 172 223 267 312
#     4  10  19  32  53  79 106 137 177 225 267 311
#     4  11  16  30  55  81 103 135 175 217 269 313
#
# _framework density 18.885339999999999
#
# number of rings (size 3 to 8) (size 9 to 14) (size 15 to 20)
#    0.000    2.250    5.000    0.375    0.000    1.000 
#    0.000    1.875    0.000    6.000    0.000    0.875 
#    0.000    0.000    0.000    0.000    0.000    0.000 
#
# Total GULP energy -396464.363581 kJ/mol
# GULP energy per Si atom -12389.511362 kJ/mol
# Density = 1.884236 g / cm^3
# Si number density = 18.885340 Si / 1000 Ang^3
#
#
#
# Elastic Constant Matrix: (Units=GPa)
#
#
# Indices 1 2 3 4 5 6 
#
# 1 94.8123 17.7904 38.2682 0.0000 9.5353 0.0000
# 2 17.7904 97.4993 29.7939 0.0000 12.3746 0.0000
# 3 38.2682 29.7939 76.6245 0.0000 12.5695 0.0000
# 4 0.0000 0.0000 0.0000 12.1006 0.0000 1.8948
# 5 9.5353 12.3746 12.5695 0.0000 33.2625 0.0000
# 6 0.0000 0.0000 0.0000 1.8948 0.0000 15.5186
#
#
#
# Elastic Compliance Matrix: (Units=1/GPa)
#
#
# Indices 1 2 3 4 5 6 
#
# 1 0.013279 -0.000336 -0.006287 0.000000 -0.001306 0.000000
# 2 -0.000336 0.011897 -0.003995 0.000000 -0.002820 0.000000
# 3 -0.006287 -0.003995 0.018342 0.000000 -0.003642 0.000000
# 4 0.000000 0.000000 0.000000 0.084252 0.000000 -0.010287
# 5 -0.001306 -0.002820 -0.003642 0.000000 0.032864 0.000000
# 6 0.000000 0.000000 0.000000 -0.010287 0.000000 0.065695
#
#
# Mechanical properties :
#
#
# Convention : Reuss Voigt Hill
#
# Bulk Modulus (GPa) = 44.88260 48.96012 46.92136
# Shear Modulus (GPa) = 19.60852 24.38191 21.99522
#
# Velocity S-wave (km/s) = 3.22575 3.59702 3.41643
# Velocity P-wave (km/s) = 6.13933 6.57515 6.36097
#
# Compressibility (1/GPa) = 0.02228035
#
# Stress axis : x y z
#
# Youngs Moduli (GPa) = 75.30615 84.05770 54.52098
#
# Poissons Ratio (x) = 0.02825 0.34278
# Poissons Ratio (y) = 0.02531 0.21783
# Poissons Ratio (z) = 0.47345 0.33584
#
# Static dielectric constant tensor:
#      x y z
#    x 3.825100 0.000000 0.033290 
#    y 0.000000 3.460480 0.000000 
#    z 0.033290 0.000000 3.622430 
# 
# 
# High freq. dielectric constant tensor:
#      x y z
#    x 1.745290 0.000000 0.010060 
#    y 0.000000 1.702020 0.000000 
#    z 0.010060 0.000000 1.712760 
# 
# From -- ./inp_files/27103.got.cif
#   From: 2010.06.25/outbox.cif.g09.slc.cpg/sg11_14_cif.got.tgz:27103.got - 2010.06.27 23:14:04.
