data_PCOD8068880
_publ_section_title
;
Structure prediction by ZEFSAII (Michael W. Deem and Ramdas Pophale) SiO2 
 PCOD8068880
Probable space group: P 21/M
;
_chemical_formula_sum "Si O2"
_cell_formula_units_Z 28
_cell_length_a 30.061900
_cell_length_b 8.835294
_cell_length_c 10.255890
_cell_angle_alpha 90.000000
_cell_angle_beta 34.171554
_cell_angle_gamma 90.000000
_cell_volume 1530.009360
_symmetry_space_group_name_H-M "P 21/M"
_symmetry_group_IT_number 11
_symmetry_cell_setting 'monoclinic'
loop_
_space_group_symop_operation_xyz
x,y,z
-x,1/2+y,-z
-x,-y,-z
x,1/2-y,z
loop_
_atom_site_type_symbol
_atom_site_label
_atom_site_fract_x
_atom_site_fract_y
_atom_site_fract_z
Si Si1 0.842031 0.927786 0.384171
Si Si2 0.913633 0.429086 0.962447
Si Si3 0.674904 0.574298 0.680018
Si Si4 0.185470 0.429269 0.025227
Si Si5 0.336704 0.927670 0.571371
Si Si6 0.494775 0.424741 0.875028
Si Si7 0.907545 0.570721 0.499266
O O1 0.859776 0.750000 0.324473
O O2 0.749219 0.964803 0.590770
O O3 0.866088 0.988483 0.468205
O O4 0.895037 0.019287 0.153649
O O5 0.904943 0.250000 0.971933
O O6 0.001927 0.484607 0.712947
O O7 0.852555 0.507788 0.014062
O O8 0.676877 0.750000 0.631391
O O9 0.677901 0.472940 0.543597
O O10 0.594375 0.541082 0.961814
O O11 0.182223 0.250000 0.029188
O O12 0.276436 0.483759 0.811675
O O13 0.139133 0.495227 0.262869
O O14 0.320583 0.750000 0.625312
O O15 0.427153 0.974803 0.397286
O O16 0.506531 0.250000 0.872657
O O17 0.500000 0.500000 0.000000
O O18 0.903682 0.750000 0.510605
#
# Coordination Sequence:
#
# PCOD8068880 Si02
#       7
#     4   4   4   4   4   4   4
#     4  10  19  34  55  77 102 132 166 204 248 301
#     4  11  21  35  54  76 101 128 166 213 258 299
#     4   9  16  28  49  74 100 129 164 199 244 301
#     4  11  21  35  53  72  99 135 174 210 247 296
#     4  10  18  29  47  72 103 130 162 206 253 294
#     4   8  15  26  42  69 100 129 157 197 246 293
#     4   9  21  37  52  73 101 134 170 208 249 299
#
# _framework density 18.300540999999999
#
# number of rings (size 3 to 8) (size 9 to 14) (size 15 to 20)
#    0.000    2.286    1.429    2.143    0.000    0.571 
#    0.000    4.286    0.000    0.857    0.000    0.000 
#    0.000    0.000    0.000    0.000    0.000    0.857 
#
# Total GULP energy -346984.704140 kJ/mol
# GULP energy per Si atom -12392.310862 kJ/mol
# Density = 1.825889 g / cm^3
# Si number density = 18.300541 Si / 1000 Ang^3
#
#
#
# Elastic Constant Matrix: (Units=GPa)
#
#
# Indices 1 2 3 4 5 6 
#
# 1 42.7079 16.7494 51.1084 0.0000 -4.2199 0.0000
# 2 16.7494 45.7954 32.0951 0.0000 -5.9530 0.0000
# 3 51.1084 32.0951 144.8840 0.0000 -25.5768 0.0000
# 4 0.0000 0.0000 0.0000 23.8534 0.0000 -4.1527
# 5 -4.2199 -5.9530 -25.5768 0.0000 32.5392 0.0000
# 6 0.0000 0.0000 0.0000 -4.1527 0.0000 12.7017
#
#
#
# Elastic Compliance Matrix: (Units=1/GPa)
#
#
# Indices 1 2 3 4 5 6 
#
# 1 0.043326 -0.006134 -0.015246 0.000000 -0.007487 0.000000
# 2 -0.006134 0.026720 -0.003521 0.000000 0.001325 0.000000
# 3 -0.015246 -0.003521 0.014627 0.000000 0.008876 0.000000
# 4 0.000000 0.000000 0.000000 0.044453 0.000000 0.014534
# 5 -0.007487 0.001325 0.008876 0.000000 0.036980 0.000000
# 6 0.000000 0.000000 0.000000 0.014534 0.000000 0.083481
#
#
# Mechanical properties :
#
#
# Convention : Reuss Voigt Hill
#
# Bulk Modulus (GPa) = 28.67853 48.14369 38.41111
# Shear Modulus (GPa) = 16.07640 22.71449 19.39544
#
# Velocity S-wave (km/s) = 2.96711 3.52688 3.25903
# Velocity P-wave (km/s) = 5.23862 6.55359 5.93265
#
# Compressibility (1/GPa) = 0.03486930
#
# Stress axis : x y z
#
# Youngs Moduli (GPa) = 23.08076 37.42524 68.36575
#
# Poissons Ratio (x) = 0.22958 1.04233
# Poissons Ratio (y) = 0.14159 0.24073
# Poissons Ratio (z) = 0.35190 0.13178
#
# Static dielectric constant tensor:
#      x y z
#    x 3.376640 0.000000 -0.459150 
#    y 0.000000 3.198640 0.000000 
#    z -0.459150 0.000000 3.958310 
# 
# 
# High freq. dielectric constant tensor:
#      x y z
#    x 1.682770 0.000000 -0.033840 
#    y 0.000000 1.699630 0.000000 
#    z -0.033840 0.000000 1.721880 
# 
# From -- ./inp_files/28282.got.cif
#   From: 2010.06.25/outbox.cif.g09.slc.cpg/sg11_15_cif.got.tgz:28282.got - 2010.06.27 23:14:04.
