data_PCOD8068664
_publ_section_title
;
Structure prediction by ZEFSAII (Michael W. Deem and Ramdas Pophale) SiO2 
 PCOD8068664
Probable space group: P 21/M
;
_chemical_formula_sum "Si O2"
_cell_formula_units_Z 28
_cell_length_a 16.596177
_cell_length_b 8.683597
_cell_length_c 21.695404
_cell_angle_alpha 90.000000
_cell_angle_beta 31.582950
_cell_angle_gamma 90.000000
_cell_volume 1637.513631
_symmetry_space_group_name_H-M "P 21/M"
_symmetry_group_IT_number 11
_symmetry_cell_setting 'monoclinic'
loop_
_space_group_symop_operation_xyz
x,y,z
-x,1/2+y,-z
-x,-y,-z
x,1/2-y,z
loop_
_atom_site_type_symbol
_atom_site_label
_atom_site_fract_x
_atom_site_fract_y
_atom_site_fract_z
Si Si1 0.483875 0.573532 0.411859
Si Si2 0.037163 0.932072 0.732617
Si Si3 0.606476 0.932116 0.845834
Si Si4 0.280179 0.069981 0.648315
Si Si5 0.753473 0.930006 0.509193
Si Si6 0.164549 0.432161 0.407561
Si Si7 0.698819 0.931878 0.920536
O O1 0.464163 0.750000 0.404934
O O2 0.660475 0.541219 0.319771
O O3 0.377909 0.538765 0.539737
O O4 0.424464 0.469295 0.393569
O O5 0.045203 0.750000 0.735912
O O6 0.862541 0.989930 0.838943
O O7 0.104474 0.016357 0.750381
O O8 0.131103 0.978562 0.610343
O O9 0.597387 0.750000 0.849089
O O10 0.712722 0.996820 0.721700
O O11 0.678677 0.990095 0.863335
O O12 0.434617 0.997848 0.949673
O O13 0.301229 0.250000 0.617357
O O14 0.783929 0.750000 0.481769
O O15 0.781113 0.986447 0.560528
O O16 0.153716 0.250000 0.410286
O O17 0.000000 0.500000 0.500000
O O18 0.687101 0.750000 0.930887
#
# Coordination Sequence:
#
# PCOD8068664 Si02
#       7
#     4   4   4   4   4   4   4
#     4   9  16  26  40  59  86 119 150 180 219 263
#     4  10  18  28  44  66  93 121 148 181 223 266
#     4   9  18  33  49  64  87 117 148 182 220 260
#     4   9  16  25  39  61  88 116 148 183 218 262
#     4  10  19  29  43  65  92 120 152 184 216 262
#     4  10  21  34  48  68  92 120 151 183 220 261
#     4   9  18  31  47  67  88 113 147 184 220 261
#
# _framework density 17.099094000000001
#
# number of rings (size 3 to 8) (size 9 to 14) (size 15 to 20)
#    0.000    2.571    0.000    4.286    0.000    5.714 
#    0.000    2.857    0.000    0.000    0.000    1.000 
#    0.000    0.000    0.000    0.000    0.000    0.000 
#
# Total GULP energy -347005.711227 kJ/mol
# GULP energy per Si atom -12393.061115 kJ/mol
# Density = 1.706018 g / cm^3
# Si number density = 17.099094 Si / 1000 Ang^3
#
#
#
# Elastic Constant Matrix: (Units=GPa)
#
#
# Indices 1 2 3 4 5 6 
#
# 1 148.4540 28.0963 66.2169 0.0000 -25.9480 0.0000
# 2 28.0963 31.1206 18.9228 0.0000 -6.5250 0.0000
# 3 66.2169 18.9228 99.7205 0.0000 -15.9853 0.0000
# 4 0.0000 0.0000 0.0000 22.0035 0.0000 -6.6252
# 5 -25.9480 -6.5250 -15.9853 0.0000 27.2559 0.0000
# 6 0.0000 0.0000 0.0000 -6.6252 0.0000 27.0909
#
#
#
# Elastic Compliance Matrix: (Units=1/GPa)
#
#
# Indices 1 2 3 4 5 6 
#
# 1 0.011318 -0.005594 -0.005454 0.000000 0.006237 0.000000
# 2 -0.005594 0.039752 -0.003485 0.000000 0.002147 0.000000
# 3 -0.005454 -0.003485 0.014730 0.000000 0.002612 0.000000
# 4 0.000000 0.000000 0.000000 0.049060 0.000000 0.011998
# 5 0.006237 0.002147 0.002612 0.000000 0.044673 0.000000
# 6 0.000000 0.000000 0.000000 0.011998 0.000000 0.039847
#
#
# Mechanical properties :
#
#
# Convention : Reuss Voigt Hill
#
# Bulk Modulus (GPa) = 27.22223 56.19634 41.70929
# Shear Modulus (GPa) = 20.77368 26.34065 23.55716
#
# Velocity S-wave (km/s) = 3.48932 3.92914 3.71574
# Velocity P-wave (km/s) = 5.67351 7.31578 6.54635
#
# Compressibility (1/GPa) = 0.03673468
#
# Stress axis : x y z
#
# Youngs Moduli (GPa) = 88.35836 25.15570 67.89063
#
# Poissons Ratio (x) = 0.14072 0.37027
# Poissons Ratio (y) = 0.49426 0.23658
# Poissons Ratio (z) = 0.48190 0.08766
#
# Static dielectric constant tensor:
#      x y z
#    x 3.808220 0.000000 -0.342280 
#    y 0.000000 3.133990 0.000000 
#    z -0.342280 0.000000 3.039860 
# 
# 
# High freq. dielectric constant tensor:
#      x y z
#    x 1.669550 0.000000 -0.029640 
#    y 0.000000 1.663600 0.000000 
#    z -0.029640 0.000000 1.613190 
# 
# From -- ./inp_files/61294.got.cif
#   From: 2010.06.25/outbox.cif.g09.slc.cpg/sg11_31_cif.got.tgz:61294.got - 2010.06.27 23:14:04.
