data_PCOD8068031
_publ_section_title
;
Structure prediction by ZEFSAII (Michael W. Deem and Ramdas Pophale) SiO2 
 PCOD8068031
Probable space group: P 2/M
;
_chemical_formula_sum "Si O2"
_cell_formula_units_Z 28
_cell_length_a 14.609601
_cell_length_b 7.864186
_cell_length_c 15.525568
_cell_angle_alpha 90.000000
_cell_angle_beta 100.202936
_cell_angle_gamma 90.000000
_cell_volume 1755.565540
_symmetry_space_group_name_H-M "P 2/M"
_symmetry_group_IT_number 10
_symmetry_cell_setting 'monoclinic'
loop_
_space_group_symop_operation_xyz
x,y,z
-x,y,-z
-x,-y,-z
x,-y,z
loop_
_atom_site_type_symbol
_atom_site_label
_atom_site_fract_x
_atom_site_fract_y
_atom_site_fract_z
Si Si1 0.951578 0.303217 0.078219
Si Si2 0.427597 0.200228 0.055630
Si Si3 0.776193 0.804260 0.974804
Si Si4 0.281505 0.805399 0.337732
Si Si5 0.464177 0.500000 0.630350
Si Si6 0.870037 0.800860 0.819990
Si Si7 0.351189 0.500000 0.450440
Si Si8 0.535023 0.193701 0.742254
O O1 0.932556 0.500000 0.069125
O O2 0.021987 0.260839 0.168697
O O3 0.848865 0.218120 0.066781
O O4 0.000000 0.229813 0.000000
O O5 0.324410 0.278479 0.021221
O O6 0.459882 0.243852 0.157248
O O7 0.425084 0.000000 0.040288
O O8 0.500000 0.283627 0.000000
O O9 0.820068 0.717791 0.895824
O O10 0.757241 0.000000 0.952158
O O11 0.185228 0.750876 0.275539
O O12 0.295341 0.672863 0.418091
O O13 0.362428 0.788786 0.280515
O O14 0.277647 0.000000 0.372583
O O15 0.371597 0.500000 0.556004
O O16 0.553605 0.500000 0.585273
O O17 0.464205 0.327341 0.686806
O O18 0.868960 0.000000 0.831550
O O19 0.498122 0.000000 0.722946
#
# Coordination Sequence:
#
# PCOD8068031 Si02
#       8
#     4   4   4   4   2   4   2   4
#     4   9  17  25  33  53  76 101 137 170 203 238
#     4   9  16  27  44  63  81 107 146 183 213 243
#     4   9  15  26  40  53  75 106 138 174 208 238
#     4   9  16  26  41  60  82 110 140 170 207 249
#     4   9  18  30  41  60  79 105 141 173 210 257
#     4   9  15  24  38  55  76 106 141 169 199 244
#     4   9  18  28  40  60  82 104 137 174 212 248
#     4   9  16  29  44  59  80 110 141 174 213 247
#
# _framework density 15.949275
#
# number of rings (size 3 to 8) (size 9 to 14) (size 15 to 20)
#    0.000    3.000    1.429    0.429    1.000    2.286 
#    1.286    3.214    0.000    0.000    0.000    0.000 
#    0.000    0.000    0.000    2.571    0.000   21.571 
#
# Total GULP energy -346932.501505 kJ/mol
# GULP energy per Si atom -12390.446482 kJ/mol
# Density = 1.591297 g / cm^3
# Si number density = 15.949275 Si / 1000 Ang^3
#
#
#
# Elastic Constant Matrix: (Units=GPa)
#
#
# Indices 1 2 3 4 5 6 
#
# 1 79.9607 26.7505 53.3526 0.0000 22.8461 0.0000
# 2 26.7505 65.2672 46.0203 0.0000 18.0394 0.0000
# 3 53.3526 46.0203 90.4816 0.0000 27.9170 0.0000
# 4 0.0000 0.0000 0.0000 21.1153 0.0000 7.2541
# 5 22.8461 18.0394 27.9170 0.0000 21.7623 0.0000
# 6 0.0000 0.0000 0.0000 7.2541 0.0000 7.9743
#
#
#
# Elastic Compliance Matrix: (Units=1/GPa)
#
#
# Indices 1 2 3 4 5 6 
#
# 1 0.022086 0.001220 -0.010225 0.000000 -0.011081 0.000000
# 2 0.001220 0.024614 -0.010837 0.000000 -0.007781 0.000000
# 3 -0.010225 -0.010837 0.027325 0.000000 -0.015335 0.000000
# 4 0.000000 0.000000 0.000000 0.068888 0.000000 -0.062667
# 5 -0.011081 -0.007781 -0.015335 0.000000 0.083705 0.000000
# 6 0.000000 0.000000 0.000000 -0.062667 0.000000 0.182411
#
#
# Mechanical properties :
#
#
# Convention : Reuss Voigt Hill
#
# Bulk Modulus (GPa) = 29.12057 54.21738 41.66897
# Shear Modulus (GPa) = 10.86576 17.47611 14.17094
#
# Velocity S-wave (km/s) = 2.61295 3.31377 2.98401
# Velocity P-wave (km/s) = 5.23462 6.97918 6.16888
#
# Compressibility (1/GPa) = 0.03433999
#
# Stress axis : x y z
#
# Youngs Moduli (GPa) = 45.27671 40.62740 36.59710
#
# Poissons Ratio (x) = -0.04956 0.37420
# Poissons Ratio (y) = -0.05523 0.39662
# Poissons Ratio (z) = 0.46295 0.44030
#
# Static dielectric constant tensor:
#      x y z
#    x 3.035500 0.000000 0.352770 
#    y 0.000000 2.975010 0.000000 
#    z 0.352770 0.000000 2.932680 
# 
# 
# High freq. dielectric constant tensor:
#      x y z
#    x 1.575490 0.000000 0.044580 
#    y 0.000000 1.613440 0.000000 
#    z 0.044580 0.000000 1.575080 
# 
# From -- ./inp_files/49434.got.cif
#   From: 2010.06.25/outbox.cif.g09.slc.cpg/sg10_25_cif.got.tgz:49434.got - 2010.06.27 22:07:45.
