data_PCOD8068481
_publ_section_title
;
Structure prediction by ZEFSAII (Michael W. Deem and Ramdas Pophale) SiO2 
 PCOD8068481
Probable space group: P 21/M
;
_chemical_formula_sum "Si O2"
_cell_formula_units_Z 32
_cell_length_a 16.121197
_cell_length_b 21.346200
_cell_length_c 8.885670
_cell_angle_alpha 90.000000
_cell_angle_beta 147.076474
_cell_angle_gamma 90.000000
_cell_volume 1661.968911
_symmetry_space_group_name_H-M "P 21/M"
_symmetry_group_IT_number 11
_symmetry_cell_setting 'monoclinic'
loop_
_space_group_symop_operation_xyz
x,y,z
-x,1/2+y,-z
-x,-y,-z
x,1/2-y,z
loop_
_atom_site_type_symbol
_atom_site_label
_atom_site_fract_x
_atom_site_fract_y
_atom_site_fract_z
Si Si1 0.816752 0.132387 0.443083
Si Si2 0.003962 0.681091 0.546128
Si Si3 0.374050 0.025986 0.695189
Si Si4 0.890562 0.056128 0.810121
Si Si5 0.345339 0.956015 0.039551
Si Si6 0.720901 0.908032 0.173259
Si Si7 0.768503 0.371857 0.878333
Si Si8 0.572996 0.321983 0.312449
O O1 0.916935 0.180155 0.497843
O O2 0.937329 0.098745 0.739437
O O3 0.686378 0.165741 0.344501
O O4 0.748904 0.079580 0.231626
O O5 0.930167 0.750000 0.454746
O O6 0.877136 0.627171 0.368563
O O7 0.140930 0.674640 0.874734
O O8 0.472841 0.056062 0.710388
O O9 0.270650 0.074255 0.634605
O O10 0.280720 0.968447 0.483449
O O11 0.500000 0.000000 0.000000
O O12 0.896050 0.096102 0.969256
O O13 0.000000 0.000000 0.000000
O O14 0.314059 0.927456 0.155279
O O15 0.297109 0.029477 0.956861
O O16 0.577754 0.863332 0.929059
O O17 0.650665 0.334855 0.592681
O O18 0.522796 0.250000 0.230397
#
# Coordination Sequence:
#
# PCOD8068481 Si02
#       8
#     4   4   4   4   4   4   4   4
#     4  10  20  38  61  84 113 154 193 239 282 350
#     4  11  24  40  58  84 118 158 201 238 282 344
#     4  10  17  35  58  83 121 145 181 235 287 358
#     4  11  21  33  54  89 120 143 180 234 304 354
#     4  10  19  36  62  90 114 143 196 238 304 340
#     4  11  21  35  64  88 117 149 189 251 292 345
#     4  10  23  36  59  87 116 153 189 244 291 342
#     4  11  22  40  61  83 113 159 203 231 279 346
#
# _framework density 19.254270000000002
#
# number of rings (size 3 to 8) (size 9 to 14) (size 15 to 20)
#    0.000    1.500    3.750    4.125    1.750    3.000 
#    0.000    0.000    0.000    0.000    0.000    0.000 
#    0.000    0.000    0.000    0.000    0.000    0.000 
#
# Total GULP energy -396600.614420 kJ/mol
# GULP energy per Si atom -12393.769201 kJ/mol
# Density = 1.921045 g / cm^3
# Si number density = 19.254270 Si / 1000 Ang^3
#
#
#
# Elastic Constant Matrix: (Units=GPa)
#
#
# Indices 1 2 3 4 5 6 
#
# 1 101.3493 37.7596 32.6817 0.0000 -12.1577 0.0000
# 2 37.7596 116.6224 18.7772 0.0000 -2.7834 0.0000
# 3 32.6817 18.7772 51.6097 0.0000 -2.4365 0.0000
# 4 0.0000 0.0000 0.0000 23.0452 0.0000 4.7355
# 5 -12.1577 -2.7834 -2.4365 0.0000 28.7583 0.0000
# 6 0.0000 0.0000 0.0000 4.7355 0.0000 22.8549
#
#
#
# Elastic Compliance Matrix: (Units=1/GPa)
#
#
# Indices 1 2 3 4 5 6 
#
# 1 0.014095 -0.003235 -0.007513 0.000000 0.005009 0.000000
# 2 -0.003235 0.009861 -0.001565 0.000000 -0.000546 0.000000
# 3 -0.007513 -0.001565 0.024644 0.000000 -0.001240 0.000000
# 4 0.000000 0.000000 0.000000 0.045323 0.000000 -0.009391
# 5 0.005009 -0.000546 -0.001240 0.000000 0.036732 0.000000
# 6 0.000000 0.000000 0.000000 -0.009391 0.000000 0.045700
#
#
# Mechanical properties :
#
#
# Convention : Reuss Voigt Hill
#
# Bulk Modulus (GPa) = 41.70811 49.77982 45.74397
# Shear Modulus (GPa) = 23.92658 26.95588 25.44123
#
# Velocity S-wave (km/s) = 3.52897 3.74571 3.63895
# Velocity P-wave (km/s) = 6.18980 6.67961 6.43936
#
# Compressibility (1/GPa) = 0.02397615
#
# Stress axis : x y z
#
# Youngs Moduli (GPa) = 70.94486 101.40998 40.57711
#
# Poissons Ratio (x) = 0.32802 0.30484
# Poissons Ratio (y) = 0.22948 0.06351
# Poissons Ratio (z) = 0.53298 0.15872
#
# Static dielectric constant tensor:
#      x y z
#    x 4.076890 0.000000 -0.036470 
#    y 0.000000 3.503670 0.000000 
#    z -0.036470 0.000000 3.148580 
# 
# 
# High freq. dielectric constant tensor:
#      x y z
#    x 1.756940 0.000000 -0.005900 
#    y 0.000000 1.747370 0.000000 
#    z -0.005900 0.000000 1.737530 
# 
# From -- ./inp_files/23131.got.cif
#   From: 2010.06.25/outbox.cif.g09.slc.cpg/sg11_12_cif.got.tgz:23131.got - 2010.06.27 23:14:04.
