data_PCOD8068827
_publ_section_title
;
Structure prediction by ZEFSAII (Michael W. Deem and Ramdas Pophale) SiO2 
 PCOD8068827
Probable space group: P 21/M
;
_chemical_formula_sum "Si O2"
_cell_formula_units_Z 32
_cell_length_a 5.168095
_cell_length_b 12.079909
_cell_length_c 32.342739
_cell_angle_alpha 90.000000
_cell_angle_beta 71.362289
_cell_angle_gamma 90.000000
_cell_volume 1913.272698
_symmetry_space_group_name_H-M "P 21/M"
_symmetry_group_IT_number 11
_symmetry_cell_setting 'monoclinic'
loop_
_space_group_symop_operation_xyz
x,y,z
-x,1/2+y,-z
-x,-y,-z
x,1/2-y,z
loop_
_atom_site_type_symbol
_atom_site_label
_atom_site_fract_x
_atom_site_fract_y
_atom_site_fract_z
Si Si1 0.850470 0.003175 0.942714
Si Si2 0.465218 0.118517 0.649226
Si Si3 0.862628 0.118478 0.701069
Si Si4 0.333096 0.618478 0.201069
Si Si5 0.621324 0.496825 0.557286
Si Si6 0.827133 0.378946 0.468003
Si Si7 0.937879 0.618517 0.149226
Si Si8 0.300855 0.621054 0.968003
O O1 0.574657 0.944116 0.941795
O O2 0.059270 0.912052 0.949329
O O3 0.984583 0.066244 0.898066
O O4 0.784914 0.094494 0.980735
O O5 0.473553 0.250000 0.643964
O O6 0.653216 0.076883 0.677121
O O7 0.162139 0.074808 0.674215
O O8 0.576846 0.066244 0.601934
O O9 0.862994 0.250000 0.703419
O O10 0.771926 0.069180 0.750000
O O11 0.323330 0.750000 0.203419
O O12 0.638302 0.576883 0.177121
O O13 0.141002 0.574808 0.174215
O O14 0.707853 0.405506 0.519265
O O15 0.341839 0.555884 0.558205
O O16 0.856587 0.587948 0.550671
O O17 0.798514 0.250000 0.460811
O O18 0.950593 0.750000 0.143964
O O19 0.358240 0.750000 0.960811
#
# Coordination Sequence:
#
# PCOD8068827 Si02
#       8
#     4   4   4   4   4   4   4   4
#     4  10  20  32  49  71  93 124 161 190 225 276
#     4  10  18  29  46  68  97 126 155 189 223 272
#     4   9  17  28  43  65  95 128 153 181 228 279
#     4   9  17  28  43  65  95 128 153 181 228 279
#     4  10  20  32  49  71  93 124 161 190 225 276
#     4  10  20  34  49  67  96 126 155 194 233 267
#     4  10  18  29  46  68  97 126 155 189 223 272
#     4  10  20  34  49  67  96 126 155 194 233 267
#
# _framework density 16.725268
#
# number of rings (size 3 to 8) (size 9 to 14) (size 15 to 20)
#    0.000    2.250    0.000    3.750    0.000    3.000 
#    0.000    7.500    0.000    0.000    0.000    0.000 
#    0.000   70.000    0.000    0.000    0.000    0.000 
#
# Total GULP energy -396871.420409 kJ/mol
# GULP energy per Si atom -12402.231888 kJ/mol
# Density = 1.668720 g / cm^3
# Si number density = 16.725268 Si / 1000 Ang^3
#
#
#
# Elastic Constant Matrix: (Units=GPa)
#
#
# Indices 1 2 3 4 5 6 
#
# 1 105.6491 10.9293 37.4146 0.0000 0.4942 0.0000
# 2 10.9293 41.4504 24.9578 0.0000 -0.3829 0.0000
# 3 37.4146 24.9578 114.7615 0.0000 -0.7429 0.0000
# 4 0.0000 0.0000 0.0000 17.8810 0.0000 -0.2416
# 5 0.4942 -0.3829 -0.7429 0.0000 25.0987 0.0000
# 6 0.0000 0.0000 0.0000 -0.2416 0.0000 9.0289
#
#
#
# Elastic Compliance Matrix: (Units=1/GPa)
#
#
# Indices 1 2 3 4 5 6 
#
# 1 0.010728 -0.000834 -0.003318 0.000000 -0.000322 0.000000
# 2 -0.000834 0.027827 -0.005778 0.000000 0.000270 0.000000
# 3 -0.003318 -0.005778 0.011054 0.000000 0.000304 0.000000
# 4 0.000000 0.000000 0.000000 0.055946 0.000000 0.001497
# 5 -0.000322 0.000270 0.000304 0.000000 0.039862 0.000000
# 6 0.000000 0.000000 0.000000 0.001497 0.000000 0.110795
#
#
# Mechanical properties :
#
#
# Convention : Reuss Voigt Hill
#
# Bulk Modulus (GPa) = 33.61489 45.38493 39.49991
# Shear Modulus (GPa) = 17.48323 22.97235 20.22779
#
# Velocity S-wave (km/s) = 3.23665 3.71011 3.48144
# Velocity P-wave (km/s) = 5.84035 6.74890 6.31100
#
# Compressibility (1/GPa) = 0.02974872
#
# Stress axis : x y z
#
# Youngs Moduli (GPa) = 93.21208 35.93686 90.46382
#
# Poissons Ratio (x) = 0.02996 0.30020
# Poissons Ratio (y) = 0.07771 0.52271
# Poissons Ratio (z) = 0.30932 0.20765
#
# Static dielectric constant tensor:
#      x y z
#    x 3.474290 0.000000 0.008100 
#    y 0.000000 2.687000 0.000000 
#    z 0.008100 0.000000 3.177610 
# 
# 
# High freq. dielectric constant tensor:
#      x y z
#    x 1.669910 0.000000 0.000570 
#    y 0.000000 1.596650 0.000000 
#    z 0.000570 0.000000 1.648950 
# 
# From -- ./inp_files/72638.got.cif
#   From: 2010.06.25/outbox.cif.g09.slc.cpg/sg11_37_cif.got.tgz:72638.got - 2010.06.27 23:14:04.
