data_PCOD8068037
_publ_section_title
;
Structure prediction by ZEFSAII (Michael W. Deem and Ramdas Pophale) SiO2 
 PCOD8068037
Probable space group: P 2/M
;
_chemical_formula_sum "Si O2"
_cell_formula_units_Z 20
_cell_length_a 29.442749
_cell_length_b 7.824546
_cell_length_c 15.495049
_cell_angle_alpha 90.000000
_cell_angle_beta 161.818073
_cell_angle_gamma 90.000000
_cell_volume 1113.868999
_symmetry_space_group_name_H-M "P 2/M"
_symmetry_group_IT_number 10
_symmetry_cell_setting 'monoclinic'
loop_
_space_group_symop_operation_xyz
x,y,z
-x,y,-z
-x,-y,-z
x,-y,z
loop_
_atom_site_type_symbol
_atom_site_label
_atom_site_fract_x
_atom_site_fract_y
_atom_site_fract_z
Si Si1 0.614055 0.000000 0.830524
Si Si2 0.448062 0.202530 0.813716
Si Si3 0.447049 0.310588 0.171908
Si Si4 0.134348 0.797470 0.186288
Si Si5 0.283534 0.000000 0.169481
Si Si6 0.775137 0.310588 0.828084
O O1 0.647342 0.168956 0.947675
O O2 0.448654 0.000000 0.500002
O O3 0.722762 0.000000 0.945523
O O4 0.556210 0.279024 0.936722
O O5 0.282773 0.264635 0.500002
O O6 0.458765 0.000000 0.827250
O O7 0.500000 0.271723 0.000000
O O8 0.385131 0.500000 0.080752
O O9 0.612059 0.292454 0.499996
O O10 0.119491 0.720975 0.063284
O O11 0.131517 0.000000 0.172754
O O12 0.000000 0.728277 0.000000
O O13 0.199669 0.168957 0.052331
O O14 0.804373 0.500000 0.919237
#
# Coordination Sequence:
#
# PCOD8068037 Si02
#       6
#     2   4   4   4   2   4
#     4   9  16  26  39  56  81 111 143 179 216 257
#     4   9  16  27  43  62  87 118 148 178 213 255
#     4   9  16  26  40  58  82 112 143 175 215 259
#     4   9  16  27  43  62  87 118 148 178 213 255
#     4   9  16  26  39  56  81 111 143 179 216 257
#     4   9  16  26  40  58  82 112 143 175 215 259
#
# _framework density 17.955432999999999
#
# number of rings (size 3 to 8) (size 9 to 14) (size 15 to 20)
#    0.000    3.000    2.000    0.000    0.000    1.600 
#    0.000    4.000    0.000    0.000    0.000    0.000 
#    0.000    3.200    0.000    3.600    0.000    4.000 
#
# Total GULP energy -247909.215805 kJ/mol
# GULP energy per Si atom -12395.460790 kJ/mol
# Density = 1.791457 g / cm^3
# Si number density = 17.955433 Si / 1000 Ang^3
#
#
#
# Elastic Constant Matrix: (Units=GPa)
#
#
# Indices 1 2 3 4 5 6 
#
# 1 169.5379 86.5640 27.8271 0.0000 6.6397 0.0000
# 2 86.5640 121.9023 13.7025 0.0000 4.5529 0.0000
# 3 27.8271 13.7025 24.3297 0.0000 2.4336 0.0000
# 4 0.0000 0.0000 0.0000 5.5842 0.0000 0.5001
# 5 6.6397 4.5529 2.4336 0.0000 17.9876 0.0000
# 6 0.0000 0.0000 0.0000 0.5001 0.0000 13.5844
#
#
#
# Elastic Compliance Matrix: (Units=1/GPa)
#
#
# Indices 1 2 3 4 5 6 
#
# 1 0.010696 -0.006609 -0.008397 0.000000 -0.001139 0.000000
# 2 -0.006609 0.012885 0.000389 0.000000 -0.000875 0.000000
# 3 -0.008397 0.000389 0.050875 0.000000 -0.003882 0.000000
# 4 0.000000 0.000000 0.000000 0.179670 0.000000 -0.006614
# 5 -0.001139 -0.000875 -0.003882 0.000000 0.056761 0.000000
# 6 0.000000 0.000000 0.000000 -0.006614 0.000000 0.073857
#
#
# Mechanical properties :
#
#
# Convention : Reuss Voigt Hill
#
# Bulk Modulus (GPa) = 22.11266 63.55079 42.83173
# Shear Modulus (GPa) = 11.65361 19.94299 15.79830
#
# Velocity S-wave (km/s) = 2.55037 3.33632 2.96946
# Velocity P-wave (km/s) = 4.58416 7.09309 5.97187
#
# Compressibility (1/GPa) = 0.04522296
#
# Stress axis : x y z
#
# Youngs Moduli (GPa) = 93.49719 77.60955 19.65586
#
# Poissons Ratio (x) = 0.51289 0.16505
# Poissons Ratio (y) = 0.61788 -0.00765
# Poissons Ratio (z) = 0.78511 -0.03020
#
# Static dielectric constant tensor:
#      x y z
#    x 3.500120 0.000000 0.047910 
#    y 0.000000 3.442010 0.000000 
#    z 0.047910 0.000000 2.733480 
# 
# 
# High freq. dielectric constant tensor:
#      x y z
#    x 1.699650 0.000000 0.005610 
#    y 0.000000 1.705480 0.000000 
#    z 0.005610 0.000000 1.609800 
# 
# From -- ./inp_files/48413.got.cif
#   From: 2010.06.25/outbox.cif.g09.slc.cpg/sg10_25_cif.got.tgz:48413.got - 2010.06.27 22:07:45.
