data_PCOD8068698
_publ_section_title
;
Structure prediction by ZEFSAII (Michael W. Deem and Ramdas Pophale) SiO2 
 PCOD8068698
Probable space group: P 21/M
;
_chemical_formula_sum "Si O2"
_cell_formula_units_Z 24
_cell_length_a 11.288655
_cell_length_b 9.156702
_cell_length_c 20.040700
_cell_angle_alpha 90.000000
_cell_angle_beta 43.445800
_cell_angle_gamma 90.000000
_cell_volume 1424.534717
_symmetry_space_group_name_H-M "P 21/M"
_symmetry_group_IT_number 11
_symmetry_cell_setting 'monoclinic'
loop_
_space_group_symop_operation_xyz
x,y,z
-x,1/2+y,-z
-x,-y,-z
x,1/2-y,z
loop_
_atom_site_type_symbol
_atom_site_label
_atom_site_fract_x
_atom_site_fract_y
_atom_site_fract_z
Si Si1 0.898206 0.416545 0.986606
Si Si2 0.677174 0.579500 0.414260
Si Si3 0.872468 0.918682 0.466242
Si Si4 0.203566 0.420948 0.778641
Si Si5 0.751096 0.079556 0.641664
Si Si6 0.415934 0.578140 0.807160
O O1 0.921550 0.250000 0.996533
O O2 0.996463 0.448610 0.876272
O O3 0.695032 0.454688 0.079096
O O4 0.000000 0.500000 0.000000
O O5 0.500000 0.500000 0.500000
O O6 0.637814 0.750000 0.428427
O O7 0.813917 0.540671 0.415865
O O8 0.758535 0.525076 0.311513
O O9 0.835696 0.750000 0.498855
O O10 0.074896 0.953535 0.388787
O O11 0.763859 0.016933 0.561665
O O12 0.248634 0.250000 0.769345
O O13 0.321036 0.512930 0.781071
O O14 0.710302 0.250000 0.653419
O O15 0.598400 0.999529 0.743578
O O16 0.443975 0.750000 0.784275
#
# Coordination Sequence:
#
# PCOD8068698 Si02
#       6
#     4   4   4   4   4   4
#     4   8  15  27  43  64  89 116 146 181 220 260
#     4  10  20  32  47  67  91 118 146 178 218 265
#     4   9  19  34  48  65  90 118 149 184 222 261
#     4   9  17  30  47  67  91 119 150 182 219 265
#     4  10  19  31  48  67  88 117 151 186 221 260
#     4  10  18  28  45  69  94 118 146 183 225 263
#
# _framework density 16.847605999999999
#
# number of rings (size 3 to 8) (size 9 to 14) (size 15 to 20)
#    0.000    2.667    0.000    2.000    0.000    5.333 
#    0.000    0.000    0.000    1.000    0.000    0.000 
#    0.000    0.000    0.000    0.000    0.000    1.333 
#
# Total GULP energy -297392.340037 kJ/mol
# GULP energy per Si atom -12391.347502 kJ/mol
# Density = 1.680926 g / cm^3
# Si number density = 16.847606 Si / 1000 Ang^3
#
#
#
# Elastic Constant Matrix: (Units=GPa)
#
#
# Indices 1 2 3 4 5 6 
#
# 1 72.0493 28.0674 56.9308 0.0000 -1.4476 0.0000
# 2 28.0674 59.7939 53.3705 0.0000 -8.1042 0.0000
# 3 56.9308 53.3705 170.0429 0.0000 -10.2795 0.0000
# 4 0.0000 0.0000 0.0000 26.7756 0.0000 -5.1794
# 5 -1.4476 -8.1042 -10.2795 0.0000 24.1519 0.0000
# 6 0.0000 0.0000 0.0000 -5.1794 0.0000 21.2330
#
#
#
# Elastic Compliance Matrix: (Units=1/GPa)
#
#
# Indices 1 2 3 4 5 6 
#
# 1 0.019944 -0.005036 -0.005262 0.000000 -0.002734 0.000000
# 2 -0.005036 0.025063 -0.005841 0.000000 0.005622 0.000000
# 3 -0.005262 -0.005841 0.009585 0.000000 0.001804 0.000000
# 4 0.000000 0.000000 0.000000 0.039197 0.000000 0.009561
# 5 -0.002734 0.005622 0.001804 0.000000 0.043895 0.000000
# 6 0.000000 0.000000 0.000000 0.009561 0.000000 0.049429
#
#
# Mechanical properties :
#
#
# Convention : Reuss Voigt Hill
#
# Bulk Modulus (GPa) = 44.81205 64.29149 54.55177
# Shear Modulus (GPa) = 22.04314 25.33325 23.68819
#
# Velocity S-wave (km/s) = 3.62108 3.88193 3.75377
# Velocity P-wave (km/s) = 6.64373 7.63780 7.15804
#
# Compressibility (1/GPa) = 0.02231543
#
# Stress axis : x y z
#
# Youngs Moduli (GPa) = 50.14035 39.89944 104.33107
#
# Poissons Ratio (x) = 0.20091 0.54900
# Poissons Ratio (y) = 0.25248 0.60936
# Poissons Ratio (z) = 0.26384 0.23304
#
# Static dielectric constant tensor:
#      x y z
#    x 2.940640 0.000000 -0.118410 
#    y 0.000000 3.186720 0.000000 
#    z -0.118410 0.000000 3.881770 
# 
# 
# High freq. dielectric constant tensor:
#      x y z
#    x 1.610740 0.000000 -0.014160 
#    y 0.000000 1.656310 0.000000 
#    z -0.014160 0.000000 1.666430 
# 
# From -- ./inp_files/36966.got.cif
#   From: 2010.06.25/outbox.cif.g09.slc.cpg/sg11_19_cif.got.tgz:36966.got - 2010.06.27 23:14:04.
