data_PCOD8068245
_publ_section_title
;
Structure prediction by ZEFSAII (Michael W. Deem and Ramdas Pophale) SiO2 
 PCOD8068245
Probable space group: P 21/M
;
_chemical_formula_sum "Si O2"
_cell_formula_units_Z 32
_cell_length_a 16.588557
_cell_length_b 8.775187
_cell_length_c 14.267340
_cell_angle_alpha 90.000000
_cell_angle_beta 98.627791
_cell_angle_gamma 90.000000
_cell_volume 2053.361379
_symmetry_space_group_name_H-M "P 21/M"
_symmetry_group_IT_number 11
_symmetry_cell_setting 'monoclinic'
loop_
_space_group_symop_operation_xyz
x,y,z
-x,1/2+y,-z
-x,-y,-z
x,1/2-y,z
loop_
_atom_site_type_symbol
_atom_site_label
_atom_site_fract_x
_atom_site_fract_y
_atom_site_fract_z
Si Si1 0.390628 0.578718 0.052832
Si Si2 0.761251 0.928889 0.046282
Si Si3 0.022215 0.069324 0.714946
Si Si4 0.831415 0.069281 0.376938
Si Si5 0.055610 0.070835 0.930871
Si Si6 0.303719 0.428247 0.761160
Si Si7 0.926132 0.931893 0.546668
Si Si8 0.542175 0.078267 0.144863
O O1 0.384527 0.750000 0.089043
O O2 0.450571 0.488001 0.133264
O O3 0.300436 0.506753 0.037847
O O4 0.426285 0.571510 0.955231
O O5 0.753613 0.750000 0.030299
O O6 0.852015 0.990244 0.041837
O O7 0.738957 0.972512 0.148594
O O8 0.023672 0.250000 0.699084
O O9 0.020061 0.025209 0.823552
O O10 0.103818 0.000761 0.684207
O O11 0.940714 0.995062 0.654536
O O12 0.841137 0.250000 0.382132
O O13 0.741280 0.021776 0.328460
O O14 0.844666 0.998597 0.483747
O O15 0.055723 0.250000 0.943035
O O16 0.000000 0.000000 0.000000
O O17 0.297383 0.250000 0.738797
O O18 0.398329 0.478054 0.779494
O O19 0.925562 0.750000 0.545698
O O20 0.000000 0.000000 0.500000
O O21 0.540967 0.250000 0.182902
#
# Coordination Sequence:
#
# PCOD8068245 Si02
#       8
#     4   4   4   4   4   4   4   4
#     4   9  16  25  38  56  75 101 136 171 205 244
#     4   9  17  30  43  56  76 106 138 174 217 253
#     4  10  18  32  46  59  80 107 138 176 217 255
#     4  11  19  27  41  62  84 110 141 173 208 252
#     4  10  21  34  47  63  83 109 142 182 225 260
#     4  10  17  27  41  57  82 111 140 174 209 246
#     4  10  18  28  42  61  81 105 136 171 209 251
#     4   9  16  25  36  55  79 105 136 168 203 244
#
# _framework density 15.584203
#
# number of rings (size 3 to 8) (size 9 to 14) (size 15 to 20)
#    0.000    2.250    1.250    5.250    0.000    5.000 
#    0.000    0.000    0.000    0.000    0.000    0.000 
#    0.000    0.000    0.000    1.125    0.000   15.250 
#
# Total GULP energy -396706.561750 kJ/mol
# GULP energy per Si atom -12397.080055 kJ/mol
# Density = 1.554873 g / cm^3
# Si number density = 15.584203 Si / 1000 Ang^3
#
#
#
# Elastic Constant Matrix: (Units=GPa)
#
#
# Indices 1 2 3 4 5 6 
#
# 1 96.0315 42.4702 53.5017 0.0000 30.0769 0.0000
# 2 42.4702 97.9936 39.4321 0.0000 17.6762 0.0000
# 3 53.5017 39.4321 73.1157 0.0000 22.5636 0.0000
# 4 0.0000 0.0000 0.0000 21.7365 0.0000 8.8092
# 5 30.0769 17.6762 22.5636 0.0000 24.6799 0.0000
# 6 0.0000 0.0000 0.0000 8.8092 0.0000 26.7169
#
#
#
# Elastic Compliance Matrix: (Units=1/GPa)
#
#
# Indices 1 2 3 4 5 6 
#
# 1 0.022067 -0.002765 -0.009707 0.000000 -0.016038 0.000000
# 2 -0.002765 0.013677 -0.004694 0.000000 -0.002134 0.000000
# 3 -0.009707 -0.004694 0.025943 0.000000 -0.008527 0.000000
# 4 0.000000 0.000000 0.000000 0.053101 0.000000 -0.017509
# 5 -0.016038 -0.002134 -0.008527 0.000000 0.069388 0.000000
# 6 0.000000 0.000000 0.000000 -0.017509 0.000000 0.043203
#
#
# Mechanical properties :
#
#
# Convention : Reuss Voigt Hill
#
# Bulk Modulus (GPa) = 36.55668 59.77211 48.16440
# Shear Modulus (GPa) = 18.46182 23.40912 20.93547
#
# Velocity S-wave (km/s) = 3.44561 3.87991 3.66919
# Velocity P-wave (km/s) = 6.27201 7.64913 6.99454
#
# Compressibility (1/GPa) = 0.02735478
#
# Stress axis : x y z
#
# Youngs Moduli (GPa) = 45.31648 73.11538 38.54622
#
# Poissons Ratio (x) = 0.20215 0.37416
# Poissons Ratio (y) = 0.12529 0.18095
# Poissons Ratio (z) = 0.43988 0.34323
#
# Static dielectric constant tensor:
#      x y z
#    x 2.966670 0.000000 0.566410 
#    y 0.000000 3.069710 0.000000 
#    z 0.566410 0.000000 2.998360 
# 
# 
# High freq. dielectric constant tensor:
#      x y z
#    x 1.574780 0.000000 0.052750 
#    y 0.000000 1.614150 0.000000 
#    z 0.052750 0.000000 1.555130 
# 
# From -- ./inp_files/51342.got.cif
#   From: 2010.06.25/outbox.cif.g09.slc.cpg/sg11_26_cif.got.tgz:51342.got - 2010.06.27 23:14:04.
