data_PCOD8068903
_publ_section_title
;
Structure prediction by ZEFSAII (Michael W. Deem and Ramdas Pophale) SiO2 
 PCOD8068903
Probable space group: P 21/M
;
_chemical_formula_sum "Si O2"
_cell_formula_units_Z 28
_cell_length_a 9.501839
_cell_length_b 9.329504
_cell_length_c 28.295168
_cell_angle_alpha 90.000000
_cell_angle_beta 38.718255
_cell_angle_gamma 90.000000
_cell_volume 1568.916236
_symmetry_space_group_name_H-M "P 21/M"
_symmetry_group_IT_number 11
_symmetry_cell_setting 'monoclinic'
loop_
_space_group_symop_operation_xyz
x,y,z
-x,1/2+y,-z
-x,-y,-z
x,1/2-y,z
loop_
_atom_site_type_symbol
_atom_site_label
_atom_site_fract_x
_atom_site_fract_y
_atom_site_fract_z
Si Si1 0.908067 0.084900 0.091807
Si Si2 0.690297 0.416158 0.048334
Si Si3 0.268142 0.585224 0.178801
Si Si4 0.759004 0.583962 0.296956
Si Si5 0.561735 0.419242 0.263266
Si Si6 0.806355 0.415880 0.693570
Si Si7 0.312433 0.415803 0.576982
O O1 0.981530 0.250000 0.075426
O O2 0.764130 0.055304 0.082663
O O3 0.758211 0.038026 0.175389
O O4 0.131781 0.988598 0.033783
O O5 0.674978 0.250000 0.039557
O O6 0.446176 0.486375 0.104688
O O7 0.340297 0.750000 0.153894
O O8 0.264753 0.543711 0.234739
O O9 0.024562 0.557630 0.219885
O O10 0.701199 0.750000 0.302540
O O11 0.619715 0.483305 0.298813
O O12 0.688269 0.538179 0.368117
O O13 0.532495 0.250000 0.274941
O O14 0.326295 0.484976 0.308139
O O15 0.751696 0.250000 0.697643
O O16 0.070084 0.447681 0.617378
O O17 0.500000 0.500000 0.500000
O O18 0.370683 0.250000 0.557622
#
# Coordination Sequence:
#
# PCOD8068903 Si02
#       7
#     4   4   4   4   4   4   4
#     4   9  19  32  45  69 105 137 170 218 265 307
#     4  10  18  29  48  74 101 132 175 223 266 306
#     4   9  17  32  53  74  99 135 177 218 260 308
#     4   9  20  37  55  77 107 141 173 208 257 316
#     4  11  21  34  52  79 109 137 174 219 262 304
#     4   9  18  33  55  79 104 138 174 209 255 312
#     4   9  19  37  60  85 109 135 171 211 253 305
#
# _framework density 17.846715
#
# number of rings (size 3 to 8) (size 9 to 14) (size 15 to 20)
#    0.000    2.571    1.429    2.571    0.000    3.429 
#    0.000    4.286    0.000    0.000    0.000    0.000 
#    0.000    0.000    0.000    0.000    0.000    0.000 
#
# Total GULP energy -347247.642798 kJ/mol
# GULP energy per Si atom -12401.701529 kJ/mol
# Density = 1.780609 g / cm^3
# Si number density = 17.846715 Si / 1000 Ang^3
#
#
#
# Elastic Constant Matrix: (Units=GPa)
#
#
# Indices 1 2 3 4 5 6 
#
# 1 98.8442 53.5830 39.8469 0.0000 -3.6514 0.0000
# 2 53.5830 87.2392 56.8766 0.0000 -8.6081 0.0000
# 3 39.8469 56.8766 104.0326 0.0000 -10.0939 0.0000
# 4 0.0000 0.0000 0.0000 35.4793 0.0000 -4.7239
# 5 -3.6514 -8.6081 -10.0939 0.0000 18.9427 0.0000
# 6 0.0000 0.0000 0.0000 -4.7239 0.0000 27.5793
#
#
#
# Elastic Compliance Matrix: (Units=1/GPa)
#
#
# Indices 1 2 3 4 5 6 
#
# 1 0.015301 -0.008759 -0.001236 0.000000 -0.001689 0.000000
# 2 -0.008759 0.022996 -0.008823 0.000000 0.004060 0.000000
# 3 -0.001236 -0.008823 0.015288 0.000000 0.003899 0.000000
# 4 0.000000 0.000000 0.000000 0.028843 0.000000 0.004940
# 5 -0.001689 0.004060 0.003899 0.000000 0.056387 0.000000
# 6 0.000000 0.000000 0.000000 0.004940 0.000000 0.037105
#
#
# Mechanical properties :
#
#
# Convention : Reuss Voigt Hill
#
# Bulk Modulus (GPa) = 62.70317 65.63654 64.16985
# Shear Modulus (GPa) = 22.84436 25.72092 24.28264
#
# Velocity S-wave (km/s) = 3.58163 3.80045 3.69266
# Velocity P-wave (km/s) = 7.23289 7.49104 7.36310
#
# Compressibility (1/GPa) = 0.01594816
#
# Stress axis : x y z
#
# Youngs Moduli (GPa) = 65.35568 43.48656 65.41123
#
# Poissons Ratio (x) = 0.38089 0.08084
# Poissons Ratio (y) = 0.57244 0.57715
# Poissons Ratio (z) = 0.08077 0.38370
#
# Static dielectric constant tensor:
#      x y z
#    x 3.115700 0.000000 -0.090030 
#    y 0.000000 3.216800 0.000000 
#    z -0.090030 0.000000 3.180890 
# 
# 
# High freq. dielectric constant tensor:
#      x y z
#    x 1.676190 0.000000 -0.011550 
#    y 0.000000 1.691560 0.000000 
#    z -0.011550 0.000000 1.682270 
# 
# From -- ./inp_files/24160.got.cif
#   From: 2010.06.25/outbox.cif.g09.slc.cpg/sg11_13_cif.got.tgz:24160.got - 2010.06.27 23:14:04.
