data_PCOD8068980
_publ_section_title
;
Structure prediction by ZEFSAII (Michael W. Deem and Ramdas Pophale) SiO2 
 PCOD8068980
Probable space group: P 21/M
;
_chemical_formula_sum "Si O2"
_cell_formula_units_Z 28
_cell_length_a 16.839972
_cell_length_b 9.143942
_cell_length_c 14.236237
_cell_angle_alpha 90.000000
_cell_angle_beta 129.002646
_cell_angle_gamma 90.000000
_cell_volume 1703.555902
_symmetry_space_group_name_H-M "P 21/M"
_symmetry_group_IT_number 11
_symmetry_cell_setting 'monoclinic'
loop_
_space_group_symop_operation_xyz
x,y,z
-x,1/2+y,-z
-x,-y,-z
x,1/2-y,z
loop_
_atom_site_type_symbol
_atom_site_label
_atom_site_fract_x
_atom_site_fract_y
_atom_site_fract_z
Si Si1 0.726988 0.419202 0.938467
Si Si2 0.107026 0.921702 0.090365
Si Si3 0.359781 0.918201 0.570979
Si Si4 0.413200 0.085929 0.300290
Si Si5 0.589430 0.080374 0.181083
Si Si6 0.252763 0.082895 0.337977
Si Si7 0.642116 0.919872 0.040164
O O1 0.713372 0.250000 0.951420
O O2 0.831065 0.451350 0.959582
O O3 0.631358 0.469154 0.804996
O O4 0.727452 0.507007 0.036786
O O5 0.092735 0.750000 0.098101
O O6 0.164613 0.990602 0.222089
O O7 0.000000 0.000000 0.000000
O O8 0.325996 0.750000 0.538025
O O9 0.467142 0.943690 0.597772
O O10 0.369361 0.966336 0.686399
O O11 0.273864 0.016444 0.456702
O O12 0.396410 0.250000 0.245718
O O13 0.358345 0.071314 0.359361
O O14 0.609152 0.250000 0.175240
O O15 0.651336 0.987475 0.150730
O O16 0.468985 0.045988 0.086224
O O17 0.215767 0.250000 0.320275
O O18 0.665941 0.750000 0.065392
#
# Coordination Sequence:
#
# PCOD8068980 Si02
#       7
#     4   4   4   4   4   4   4
#     4  10  19  30  48  72  97 125 160 199 241 289
#     4  10  21  37  55  75  97 123 156 199 247 292
#     4  10  18  30  45  64  96 133 166 199 236 278
#     4   9  17  30  44  63  94 130 165 198 233 276
#     4   9  18  30  44  64  94 132 169 205 239 273
#     4  10  20  31  47  70  96 126 161 199 238 287
#     4  10  18  30  46  66  94 129 167 204 241 281
#
# _framework density 16.436208000000001
#
# number of rings (size 3 to 8) (size 9 to 14) (size 15 to 20)
#    0.000    2.286    1.429    2.143    0.000    4.000 
#    0.000    0.000    0.000    0.000    0.000    1.000 
#    0.000    0.000    0.000    0.000    0.000    0.000 
#
# Total GULP energy -347219.767034 kJ/mol
# GULP energy per Si atom -12400.705965 kJ/mol
# Density = 1.639880 g / cm^3
# Si number density = 16.436208 Si / 1000 Ang^3
#
#
#
# Elastic Constant Matrix: (Units=GPa)
#
#
# Indices 1 2 3 4 5 6 
#
# 1 67.0869 55.6100 52.9654 0.0000 -11.3226 0.0000
# 2 55.6100 106.7792 62.3812 0.0000 -8.1813 0.0000
# 3 52.9654 62.3812 100.7451 0.0000 -11.9933 0.0000
# 4 0.0000 0.0000 0.0000 30.4283 0.0000 -3.9672
# 5 -11.3226 -8.1813 -11.9933 0.0000 21.8352 0.0000
# 6 0.0000 0.0000 0.0000 -3.9672 0.0000 25.9171
#
#
#
# Elastic Compliance Matrix: (Units=1/GPa)
#
#
# Indices 1 2 3 4 5 6 
#
# 1 0.032796 -0.010894 -0.009585 0.000000 0.007660 0.000000
# 2 -0.010894 0.018297 -0.005841 0.000000 -0.002001 0.000000
# 3 -0.009585 -0.005841 0.018970 0.000000 0.003261 0.000000
# 4 0.000000 0.000000 0.000000 0.033533 0.000000 0.005133
# 5 0.007660 -0.002001 0.003261 0.000000 0.050811 0.000000
# 6 0.000000 0.000000 0.000000 0.005133 0.000000 0.039370
#
#
# Mechanical properties :
#
#
# Convention : Reuss Voigt Hill
#
# Bulk Modulus (GPa) = 57.38917 68.50272 62.94594
# Shear Modulus (GPa) = 19.82358 22.54643 21.18500
#
# Velocity S-wave (km/s) = 3.47665 3.70774 3.59405
# Velocity P-wave (km/s) = 7.14900 7.75230 7.45676
#
# Compressibility (1/GPa) = 0.01742489
#
# Stress axis : x y z
#
# Youngs Moduli (GPa) = 30.49131 54.65288 52.71488
#
# Poissons Ratio (x) = 0.59536 0.50527
# Poissons Ratio (y) = 0.33216 0.30789
# Poissons Ratio (z) = 0.29226 0.31921
#
# Static dielectric constant tensor:
#      x y z
#    x 3.024050 0.000000 -0.173040 
#    y 0.000000 3.205500 0.000000 
#    z -0.173040 0.000000 2.836290 
# 
# 
# High freq. dielectric constant tensor:
#      x y z
#    x 1.611060 0.000000 -0.023320 
#    y 0.000000 1.645840 0.000000 
#    z -0.023320 0.000000 1.605600 
# 
# From -- ./inp_files/51115.got.cif
#   From: 2010.06.25/outbox.cif.g09.slc.cpg/sg11_26_cif.got.tgz:51115.got - 2010.06.27 23:14:04.
