data_PCOD8068817
_publ_section_title
;
Structure prediction by ZEFSAII (Michael W. Deem and Ramdas Pophale) SiO2 
 PCOD8068817
Probable space group: P 21/M
;
_chemical_formula_sum "Si O2"
_cell_formula_units_Z 32
_cell_length_a 30.203543
_cell_length_b 8.836910
_cell_length_c 16.838366
_cell_angle_alpha 90.000000
_cell_angle_beta 25.809590
_cell_angle_gamma 90.000000
_cell_volume 1956.719279
_symmetry_space_group_name_H-M "P 21/M"
_symmetry_group_IT_number 11
_symmetry_cell_setting 'monoclinic'
loop_
_space_group_symop_operation_xyz
x,y,z
-x,1/2+y,-z
-x,-y,-z
x,1/2-y,z
loop_
_atom_site_type_symbol
_atom_site_label
_atom_site_fract_x
_atom_site_fract_y
_atom_site_fract_z
Si Si1 0.343129 0.074114 0.216857
Si Si2 0.405648 0.572861 0.605514
Si Si3 0.558632 0.076975 0.799615
Si Si4 0.226289 0.570670 0.000567
Si Si5 0.322167 0.572946 0.003610
Si Si6 0.186277 0.570372 0.364652
Si Si7 0.530778 0.077620 0.669274
Si Si8 0.005550 0.569742 0.402458
O O1 0.317853 0.250000 0.253469
O O2 0.368199 0.028866 0.266952
O O3 0.240927 0.984115 0.357114
O O4 0.440035 0.031071 0.004759
O O5 0.500000 0.500000 0.500000
O O6 0.416444 0.750000 0.604140
O O7 0.295968 0.512649 0.814503
O O8 0.403710 0.536008 0.514441
O O9 0.573242 0.250000 0.803929
O O10 0.591321 0.056365 0.654434
O O11 0.230140 0.750000 0.997056
O O12 0.277984 0.499543 0.995198
O O13 0.109191 0.518547 0.189994
O O14 0.305133 0.750000 0.030178
O O15 0.260006 0.506272 0.177274
O O16 0.439368 0.537909 0.821151
O O17 0.171794 0.750000 0.389288
O O18 0.078574 0.492499 0.522165
O O19 0.490389 0.250000 0.728584
O O20 0.998199 0.750000 0.423508
O O21 0.000000 0.500000 0.500000
#
# Coordination Sequence:
#
# PCOD8068817 Si02
#       8
#     4   4   4   4   4   4   4   4
#     4  10  19  31  48  70  95 126 161 195 237 287
#     4  10  19  31  48  69  95 127 162 196 233 278
#     4   9  18  31  45  67  99 127 156 195 237 283
#     4   9  18  33  47  65  95 129 162 198 236 277
#     4  10  18  29  46  66  95 131 162 192 233 280
#     4  11  21  33  48  70  97 129 164 197 240 285
#     4  10  19  30  46  71  97 126 163 198 233 275
#     4  11  21  34  50  69  95 128 166 203 239 282
#
# _framework density 16.353905000000001
#
# number of rings (size 3 to 8) (size 9 to 14) (size 15 to 20)
#    0.000    2.000    3.750    1.125    0.000    1.500 
#    0.000    1.250    0.000    0.000    0.000    0.875 
#    0.000    0.000    0.000    0.000    0.000    0.000 
#
# Total GULP energy -396595.483687 kJ/mol
# GULP energy per Si atom -12393.608865 kJ/mol
# Density = 1.631668 g / cm^3
# Si number density = 16.353905 Si / 1000 Ang^3
#
#
#
# Elastic Constant Matrix: (Units=GPa)
#
#
# Indices 1 2 3 4 5 6 
#
# 1 108.8771 29.7252 54.3022 0.0000 2.1448 0.0000
# 2 29.7252 44.8112 28.3884 0.0000 -2.1476 0.0000
# 3 54.3022 28.3884 114.7182 0.0000 0.6808 0.0000
# 4 0.0000 0.0000 0.0000 14.4091 0.0000 -6.9282
# 5 2.1448 -2.1476 0.6808 0.0000 24.3623 0.0000
# 6 0.0000 0.0000 0.0000 -6.9282 0.0000 25.0128
#
#
#
# Elastic Compliance Matrix: (Units=1/GPa)
#
#
# Indices 1 2 3 4 5 6 
#
# 1 0.013188 -0.005779 -0.004804 0.000000 -0.001536 0.000000
# 2 -0.005779 0.029152 -0.004498 0.000000 0.003204 0.000000
# 3 -0.004804 -0.004498 0.012106 0.000000 -0.000312 0.000000
# 4 0.000000 0.000000 0.000000 0.080063 0.000000 0.022177
# 5 -0.001536 0.003204 -0.000312 0.000000 0.041473 0.000000
# 6 0.000000 0.000000 0.000000 0.022177 0.000000 0.046122
#
#
# Mechanical properties :
#
#
# Convention : Reuss Voigt Hill
#
# Bulk Modulus (GPa) = 41.17610 54.80425 47.99017
# Shear Modulus (GPa) = 19.20413 23.15624 21.18019
#
# Velocity S-wave (km/s) = 3.43050 3.76699 3.60267
# Velocity P-wave (km/s) = 6.39718 7.24599 6.83478
#
# Compressibility (1/GPa) = 0.02428593
#
# Stress axis : x y z
#
# Youngs Moduli (GPa) = 75.82377 34.30285 82.60616
#
# Poissons Ratio (x) = 0.19824 0.39681
# Poissons Ratio (y) = 0.43818 0.37152
# Poissons Ratio (z) = 0.36423 0.15428
#
# Static dielectric constant tensor:
#      x y z
#    x 3.119250 0.000000 0.129520 
#    y 0.000000 2.988150 0.000000 
#    z 0.129520 0.000000 3.226210 
# 
# 
# High freq. dielectric constant tensor:
#      x y z
#    x 1.623490 0.000000 0.003480 
#    y 0.000000 1.624140 0.000000 
#    z 0.003480 0.000000 1.603680 
# 
# From -- ./inp_files/56169.got.cif
#   From: 2010.06.25/outbox.cif.g09.slc.cpg/sg11_29_cif.got.tgz:56169.got - 2010.06.27 23:14:04.
