data_PCOD8068993
_publ_section_title
;
Structure prediction by ZEFSAII (Michael W. Deem and Ramdas Pophale) SiO2 
 PCOD8068993
Probable space group: P 21/M
;
_chemical_formula_sum "Si O2"
_cell_formula_units_Z 32
_cell_length_a 30.527404
_cell_length_b 8.855926
_cell_length_c 21.312377
_cell_angle_alpha 90.000000
_cell_angle_beta 160.592682
_cell_angle_gamma 90.000000
_cell_volume 1914.529386
_symmetry_space_group_name_H-M "P 21/M"
_symmetry_group_IT_number 11
_symmetry_cell_setting 'monoclinic'
loop_
_space_group_symop_operation_xyz
x,y,z
-x,1/2+y,-z
-x,-y,-z
x,1/2-y,z
loop_
_atom_site_type_symbol
_atom_site_label
_atom_site_fract_x
_atom_site_fract_y
_atom_site_fract_z
Si Si1 0.546144 0.577059 0.972797
Si Si2 0.368975 0.425547 0.050203
Si Si3 0.779538 0.927480 0.948079
Si Si4 0.016996 0.072860 0.331884
Si Si5 0.451838 0.571893 0.283362
Si Si6 0.611068 0.576165 0.610587
Si Si7 0.291194 0.575297 0.704968
Si Si8 0.915042 0.072079 0.330541
O O1 0.583918 0.750000 0.039277
O O2 0.651325 0.471550 0.149804
O O3 0.552537 0.543852 0.907787
O O4 0.398605 0.541164 0.796322
O O5 0.338218 0.250000 0.018533
O O6 0.462861 0.486776 0.232184
O O7 0.233050 0.514715 0.866268
O O8 0.769427 0.750000 0.949460
O O9 0.749743 0.959869 0.832992
O O10 0.925233 0.987224 0.157993
O O11 0.677505 0.015490 0.854603
O O12 0.001066 0.250000 0.300119
O O13 0.978365 0.024042 0.349989
O O14 0.165350 0.024081 0.517886
O O15 0.436529 0.750000 0.250879
O O16 0.587357 0.530774 0.505365
O O17 0.500000 0.500000 0.500000
O O18 0.578965 0.750000 0.572337
O O19 0.251010 0.750000 0.653362
O O20 0.916657 0.250000 0.341614
O O21 0.000000 0.000000 0.500000
#
# Coordination Sequence:
#
# PCOD8068993 Si02
#       8
#     4   4   4   4   4   4   4   4
#     4   9  20  37  53  72  97 124 160 209 252 285
#     4  11  21  33  50  71  98 130 164 199 240 289
#     4  10  18  30  48  70  96 130 167 197 234 288
#     4  11  22  34  48  70 101 131 160 201 246 285
#     4  10  18  30  46  69 101 131 160 198 241 283
#     4   8  16  28  44  66  94 127 161 196 234 280
#     4  10  20  35  55  74  93 123 165 207 248 293
#     4  11  23  35  47  66  97 131 163 197 239 289
#
# _framework density 16.714289999999998
#
# number of rings (size 3 to 8) (size 9 to 14) (size 15 to 20)
#    0.000    2.000    1.250    3.000    0.000    7.000 
#    0.000    0.000    0.000    0.000    0.000    0.875 
#    0.000    0.000    0.000    0.000    0.000    0.000 
#
# Total GULP energy -396670.424633 kJ/mol
# GULP energy per Si atom -12395.950770 kJ/mol
# Density = 1.667625 g / cm^3
# Si number density = 16.714290 Si / 1000 Ang^3
#
#
#
# Elastic Constant Matrix: (Units=GPa)
#
#
# Indices 1 2 3 4 5 6 
#
# 1 83.3600 30.7843 59.7424 0.0000 -16.4894 0.0000
# 2 30.7843 46.8870 34.5014 0.0000 -8.5930 0.0000
# 3 59.7424 34.5014 108.4431 0.0000 -22.6543 0.0000
# 4 0.0000 0.0000 0.0000 27.5046 0.0000 -3.1933
# 5 -16.4894 -8.5930 -22.6543 0.0000 27.7225 0.0000
# 6 0.0000 0.0000 0.0000 -3.1933 0.0000 22.9800
#
#
#
# Elastic Compliance Matrix: (Units=1/GPa)
#
#
# Indices 1 2 3 4 5 6 
#
# 1 0.021723 -0.006994 -0.009039 0.000000 0.003366 0.000000
# 2 -0.006994 0.030164 -0.005619 0.000000 0.000598 0.000000
# 3 -0.009039 -0.005619 0.017487 0.000000 0.007172 0.000000
# 4 0.000000 0.000000 0.000000 0.036954 0.000000 0.005135
# 5 0.003366 0.000598 0.007172 0.000000 0.044120 0.000000
# 6 0.000000 0.000000 0.000000 0.005135 0.000000 0.044230
#
#
# Mechanical properties :
#
#
# Convention : Reuss Voigt Hill
#
# Bulk Modulus (GPa) = 38.35768 54.30514 46.33141
# Shear Modulus (GPa) = 20.26987 23.21888 21.74438
#
# Velocity S-wave (km/s) = 3.48620 3.73119 3.61077
# Velocity P-wave (km/s) = 6.26128 7.15005 6.72037
#
# Compressibility (1/GPa) = 0.02607040
#
# Stress axis : x y z
#
# Youngs Moduli (GPa) = 46.03402 33.15204 57.18584
#
# Poissons Ratio (x) = 0.23188 0.51690
# Poissons Ratio (y) = 0.32198 0.32130
# Poissons Ratio (z) = 0.41610 0.18627
#
# Static dielectric constant tensor:
#      x y z
#    x 3.152580 0.000000 -0.323090 
#    y 0.000000 3.265230 0.000000 
#    z -0.323090 0.000000 3.247300 
# 
# 
# High freq. dielectric constant tensor:
#      x y z
#    x 1.619830 0.000000 -0.026330 
#    y 0.000000 1.660950 0.000000 
#    z -0.026330 0.000000 1.639170 
# 
# From -- ./inp_files/40666.got.cif
#   From: 2010.06.25/outbox.cif.g09.slc.cpg/sg11_21_cif.got.tgz:40666.got - 2010.06.27 23:14:04.
