data_PCOD8068757
_publ_section_title
;
Structure prediction by ZEFSAII (Michael W. Deem and Ramdas Pophale) SiO2 
 PCOD8068757
Probable space group: P 21/M
;
_chemical_formula_sum "Si O2"
_cell_formula_units_Z 32
_cell_length_a 11.446682
_cell_length_b 14.429767
_cell_length_c 11.065243
_cell_angle_alpha 90.000000
_cell_angle_beta 84.401642
_cell_angle_gamma 90.000000
_cell_volume 1818.961205
_symmetry_space_group_name_H-M "P 21/M"
_symmetry_group_IT_number 11
_symmetry_cell_setting 'monoclinic'
loop_
_space_group_symop_operation_xyz
x,y,z
-x,1/2+y,-z
-x,-y,-z
x,1/2-y,z
loop_
_atom_site_type_symbol
_atom_site_label
_atom_site_fract_x
_atom_site_fract_y
_atom_site_fract_z
Si Si1 0.958208 0.860696 0.972573
Si Si2 0.048249 0.565414 0.596407
Si Si3 0.379186 0.520964 0.738274
Si Si4 0.865975 0.493870 0.156522
Si Si5 0.831937 0.643847 0.746683
Si Si6 0.478760 0.354627 0.587031
Si Si7 0.414179 0.140756 0.317836
Si Si8 0.715472 0.146093 0.459657
O O1 0.972119 0.750000 0.987496
O O2 0.863942 0.888961 0.878633
O O3 0.083052 0.904723 0.920396
O O4 0.915092 0.908831 0.099835
O O5 0.096381 0.508338 0.706762
O O6 0.149200 0.626695 0.520073
O O7 0.000000 0.500000 0.500000
O O8 0.941031 0.630232 0.646680
O O9 0.275864 0.507987 0.847561
O O10 0.422623 0.419908 0.692877
O O11 0.488698 0.584266 0.770825
O O12 0.315592 0.572750 0.637186
O O13 0.800882 0.750000 0.753678
O O14 0.711978 0.598046 0.708500
O O15 0.439475 0.250000 0.621500
O O16 0.434215 0.382354 0.457230
O O17 0.621441 0.364558 0.578371
O O18 0.429389 0.250000 0.291553
O O19 0.703915 0.250000 0.407760
#
# Coordination Sequence:
#
# PCOD8068757 Si02
#       8
#     4   4   4   4   4   4   4   4
#     4   9  18  37  57  69  93 128 165 212 251 284
#     4  10  20  29  48  74 105 133 160 204 252 298
#     4  10  18  28  49  71  99 130 158 207 246 293
#     4   9  20  34  50  79  95 123 173 203 240 306
#     4   9  18  31  49  70  94 128 167 208 250 291
#     4   9  18  29  44  67 100 138 168 196 238 300
#     4   9  17  28  45  72  99 126 165 203 242 292
#     4   9  17  30  45  65  97 137 173 197 232 291
#
# _framework density 17.592459000000002
#
# number of rings (size 3 to 8) (size 9 to 14) (size 15 to 20)
#    0.000    2.750    0.000    3.000    5.250    4.000 
#    0.000    1.875    0.000    0.000    0.000    0.000 
#    0.000    0.000    0.000    0.000    0.000    0.000 
#
# Total GULP energy -396477.907045 kJ/mol
# GULP energy per Si atom -12389.934595 kJ/mol
# Density = 1.755242 g / cm^3
# Si number density = 17.592459 Si / 1000 Ang^3
#
#
#
# Elastic Constant Matrix: (Units=GPa)
#
#
# Indices 1 2 3 4 5 6 
#
# 1 139.4675 39.9366 39.6433 0.0000 -29.9403 0.0000
# 2 39.9366 86.9314 29.6285 0.0000 -16.8181 0.0000
# 3 39.6433 29.6285 50.6737 0.0000 -17.7503 0.0000
# 4 0.0000 0.0000 0.0000 16.0380 0.0000 -2.8828
# 5 -29.9403 -16.8181 -17.7503 0.0000 24.4221 0.0000
# 6 0.0000 0.0000 0.0000 -2.8828 0.0000 28.6456
#
#
#
# Elastic Compliance Matrix: (Units=1/GPa)
#
#
# Indices 1 2 3 4 5 6 
#
# 1 0.010814 -0.001779 -0.004300 0.000000 0.008907 0.000000
# 2 -0.001779 0.015145 -0.006136 0.000000 0.003788 0.000000
# 3 -0.004300 -0.006136 0.031337 0.000000 0.013279 0.000000
# 4 0.000000 0.000000 0.000000 0.063501 0.000000 0.006391
# 5 0.008907 0.003788 0.013279 0.000000 0.064127 0.000000
# 6 0.000000 0.000000 0.000000 0.006391 0.000000 0.035553
#
#
# Mechanical properties :
#
#
# Convention : Reuss Voigt Hill
#
# Bulk Modulus (GPa) = 30.42675 55.05437 42.74056
# Shear Modulus (GPa) = 19.54183 25.01208 22.27696
#
# Velocity S-wave (km/s) = 3.33649 3.77470 3.56234
# Velocity P-wave (km/s) = 5.67237 7.09648 6.42401
#
# Compressibility (1/GPa) = 0.03286581
#
# Stress axis : x y z
#
# Youngs Moduli (GPa) = 92.47339 66.02836 31.91098
#
# Poissons Ratio (x) = 0.11749 0.13721
# Poissons Ratio (y) = 0.16454 0.19581
# Poissons Ratio (z) = 0.39760 0.40516
#
# Static dielectric constant tensor:
#      x y z
#    x 3.824420 0.000000 -0.107820 
#    y 0.000000 3.346170 0.000000 
#    z -0.107820 0.000000 2.635450 
# 
# 
# High freq. dielectric constant tensor:
#      x y z
#    x 1.691160 0.000000 -0.026480 
#    y 0.000000 1.680610 0.000000 
#    z -0.026480 0.000000 1.634380 
# 
# From -- ./inp_files/35494.got.cif
#   From: 2010.06.25/outbox.cif.g09.slc.cpg/sg11_18_cif.got.tgz:35494.got - 2010.06.27 23:14:04.
