data_PCOD8068516
_publ_section_title
;
Structure prediction by ZEFSAII (Michael W. Deem and Ramdas Pophale) SiO2 
 PCOD8068516
Probable space group: P 21/M
;
_chemical_formula_sum "Si O2"
_cell_formula_units_Z 28
_cell_length_a 16.588484
_cell_length_b 9.426625
_cell_length_c 23.088291
_cell_angle_alpha 90.000000
_cell_angle_beta 30.297204
_cell_angle_gamma 90.000000
_cell_volume 1821.391880
_symmetry_space_group_name_H-M "P 21/M"
_symmetry_group_IT_number 11
_symmetry_cell_setting 'monoclinic'
loop_
_space_group_symop_operation_xyz
x,y,z
-x,1/2+y,-z
-x,-y,-z
x,1/2-y,z
loop_
_atom_site_type_symbol
_atom_site_label
_atom_site_fract_x
_atom_site_fract_y
_atom_site_fract_z
Si Si1 0.805387 0.413887 0.065831
Si Si2 0.834904 0.587939 0.162442
Si Si3 0.080414 0.087078 0.536101
Si Si4 0.325399 0.913642 0.443353
Si Si5 0.209384 0.588256 0.351433
Si Si6 0.535921 0.585367 0.420506
Si Si7 0.528201 0.590351 0.202180
O O1 0.762181 0.250000 0.099698
O O2 0.790976 0.485648 0.137250
O O3 0.678065 0.485323 0.101310
O O4 0.982949 0.435847 0.929749
O O5 0.808837 0.750000 0.157102
O O6 0.718521 0.554697 0.288186
O O7 0.130064 0.250000 0.513336
O O8 0.885755 0.070418 0.650883
O O9 0.158323 0.999889 0.540810
O O10 0.147919 0.029599 0.433791
O O11 0.279688 0.750000 0.476686
O O12 0.416862 0.966321 0.443747
O O13 0.437999 0.942770 0.318432
O O14 0.178413 0.750000 0.394458
O O15 0.401943 0.567780 0.227390
O O16 0.500000 0.500000 0.500000
O O17 0.509835 0.750000 0.449905
O O18 0.595393 0.750000 0.160604
#
# Coordination Sequence:
#
# PCOD8068516 Si02
#       7
#     4   4   4   4   4   4   4
#     4  10  18  26  43  66  84 106 143 179 203 244
#     4   9  18  33  45  57  83 115 138 168 219 259
#     4   9  15  23  37  56  77 103 141 178 199 234
#     4   9  17  29  42  55  79 114 141 165 212 261
#     4   8  15  25  35  51  79 114 139 161 204 251
#     4  10  20  34  48  61  82 112 145 179 215 254
#     4   9  15  26  41  56  83 117 141 162 205 257
#
# _framework density 15.372858000000001
#
# number of rings (size 3 to 8) (size 9 to 14) (size 15 to 20)
#    0.000    2.857    1.429    1.714    0.000    4.571 
#    0.000    0.000    0.000    0.000    0.000    0.000 
#    0.000    1.143    0.000    2.571    0.000    4.857 
#
# Total GULP energy -346932.509520 kJ/mol
# GULP energy per Si atom -12390.446769 kJ/mol
# Density = 1.533787 g / cm^3
# Si number density = 15.372858 Si / 1000 Ang^3
#
#
#
# Elastic Constant Matrix: (Units=GPa)
#
#
# Indices 1 2 3 4 5 6 
#
# 1 99.5257 50.6622 52.0972 0.0000 -30.7496 0.0000
# 2 50.6622 79.5945 42.6924 0.0000 -20.1225 0.0000
# 3 52.0972 42.6924 68.5975 0.0000 -18.3695 0.0000
# 4 0.0000 0.0000 0.0000 20.1429 0.0000 -5.8448
# 5 -30.7496 -20.1225 -18.3695 0.0000 27.0476 0.0000
# 6 0.0000 0.0000 0.0000 -5.8448 0.0000 27.5157
#
#
#
# Elastic Compliance Matrix: (Units=1/GPa)
#
#
# Indices 1 2 3 4 5 6 
#
# 1 0.022484 -0.005276 -0.009776 0.000000 0.014997 0.000000
# 2 -0.005276 0.021395 -0.008131 0.000000 0.004396 0.000000
# 3 -0.009776 -0.008131 0.027461 0.000000 0.001487 0.000000
# 4 0.000000 0.000000 0.000000 0.052906 0.000000 0.011238
# 5 0.014997 0.004396 0.001487 0.000000 0.058302 0.000000
# 6 0.000000 0.000000 0.000000 0.011238 0.000000 0.038730
#
#
# Mechanical properties :
#
#
# Convention : Reuss Voigt Hill
#
# Bulk Modulus (GPa) = 40.04288 59.84682 49.94485
# Shear Modulus (GPa) = 18.11796 21.75895 19.93845
#
# Velocity S-wave (km/s) = 3.43675 3.76628 3.60528
# Velocity P-wave (km/s) = 6.46936 7.61103 7.06330
#
# Compressibility (1/GPa) = 0.02497323
#
# Stress axis : x y z
#
# Youngs Moduli (GPa) = 44.47535 46.74075 36.41527
#
# Poissons Ratio (x) = 0.24662 0.35601
# Poissons Ratio (y) = 0.23466 0.29608
# Poissons Ratio (z) = 0.43481 0.38004
#
# Static dielectric constant tensor:
#      x y z
#    x 3.185210 0.000000 -0.563740 
#    y 0.000000 3.038640 0.000000 
#    z -0.563740 0.000000 2.740100 
# 
# 
# High freq. dielectric constant tensor:
#      x y z
#    x 1.580910 0.000000 -0.050550 
#    y 0.000000 1.599190 0.000000 
#    z -0.050550 0.000000 1.538390 
# 
# From -- ./inp_files/42366.got.cif
#   From: 2010.06.25/outbox.cif.g09.slc.cpg/sg11_22_cif.got.tgz:42366.got - 2010.06.27 23:14:04.
