data_PCOD8068522
_publ_section_title
;
Structure prediction by ZEFSAII (Michael W. Deem and Ramdas Pophale) SiO2 
 PCOD8068522
Probable space group: P 21/M
;
_chemical_formula_sum "Si O2"
_cell_formula_units_Z 24
_cell_length_a 14.893032
_cell_length_b 9.398610
_cell_length_c 12.154535
_cell_angle_alpha 90.000000
_cell_angle_beta 117.277924
_cell_angle_gamma 90.000000
_cell_volume 1512.119651
_symmetry_space_group_name_H-M "P 21/M"
_symmetry_group_IT_number 11
_symmetry_cell_setting 'monoclinic'
loop_
_space_group_symop_operation_xyz
x,y,z
-x,1/2+y,-z
-x,-y,-z
x,1/2-y,z
loop_
_atom_site_type_symbol
_atom_site_label
_atom_site_fract_x
_atom_site_fract_y
_atom_site_fract_z
Si Si1 0.175630 0.089167 0.919595
Si Si2 0.551488 0.914634 0.625269
Si Si3 0.779501 0.585117 0.801766
Si Si4 0.963644 0.084391 0.873886
Si Si5 0.344816 0.914275 0.928950
Si Si6 0.496922 0.412982 0.160012
O O1 0.206668 0.250000 0.908612
O O2 0.054426 0.069002 0.835923
O O3 0.234254 0.986100 0.868188
O O4 0.209315 0.052204 0.062754
O O5 0.542227 0.750000 0.590810
O O6 0.668289 0.959359 0.701095
O O7 0.493040 0.950151 0.705892
O O8 0.500000 0.000000 0.500000
O O9 0.802744 0.750000 0.790971
O O10 0.858933 0.488854 0.776232
O O11 0.945584 0.250000 0.892197
O O12 0.000000 0.000000 0.000000
O O13 0.333452 0.750000 0.953010
O O14 0.394315 0.935713 0.836359
O O15 0.414152 0.985902 0.060022
O O16 0.459340 0.250000 0.124174
#
# Coordination Sequence:
#
# PCOD8068522 Si02
#       6
#     4   4   4   4   4   4
#     4   9  16  28  43  62  93 125 144 173 231 276
#     4  10  20  34  49  65  90 123 156 189 228 268
#     4   9  17  30  45  61  88 123 150 183 229 267
#     4   9  17  27  41  62  89 120 150 181 222 271
#     4  10  18  26  45  70  89 117 154 185 217 269
#     4   9  18  33  45  60  92 124 147 183 233 269
#
# _framework density 15.871760999999999
#
# number of rings (size 3 to 8) (size 9 to 14) (size 15 to 20)
#    0.000    2.667    1.667    2.000    0.000    5.333 
#    0.000    0.000    0.000    0.000    0.000    1.167 
#    0.000    0.000    0.000    0.000    0.000    0.000 
#
# Total GULP energy -297482.254601 kJ/mol
# GULP energy per Si atom -12395.093942 kJ/mol
# Density = 1.583564 g / cm^3
# Si number density = 15.871761 Si / 1000 Ang^3
#
#
#
# Elastic Constant Matrix: (Units=GPa)
#
#
# Indices 1 2 3 4 5 6 
#
# 1 138.0986 77.0249 48.3319 0.0000 0.5513 0.0000
# 2 77.0249 95.4839 36.3187 0.0000 -2.4850 0.0000
# 3 48.3319 36.3187 64.7155 0.0000 -0.3874 0.0000
# 4 0.0000 0.0000 0.0000 21.1765 0.0000 2.7411
# 5 0.5513 -2.4850 -0.3874 0.0000 16.6235 0.0000
# 6 0.0000 0.0000 0.0000 2.7411 0.0000 34.6869
#
#
#
# Elastic Compliance Matrix: (Units=1/GPa)
#
#
# Indices 1 2 3 4 5 6 
#
# 1 0.014596 -0.009761 -0.005435 0.000000 -0.002070 0.000000
# 2 -0.009761 0.019897 -0.003858 0.000000 0.003208 0.000000
# 3 -0.005435 -0.003858 0.021677 0.000000 0.000109 0.000000
# 4 0.000000 0.000000 0.000000 0.047710 0.000000 -0.003770
# 5 -0.002070 0.003208 0.000109 0.000000 0.060706 0.000000
# 6 0.000000 0.000000 0.000000 -0.003770 0.000000 0.029127
#
#
# Mechanical properties :
#
#
# Convention : Reuss Voigt Hill
#
# Bulk Modulus (GPa) = 55.36173 69.07211 62.21692
# Shear Modulus (GPa) = 21.02229 23.60554 22.31392
#
# Velocity S-wave (km/s) = 3.64333 3.86069 3.75358
# Velocity P-wave (km/s) = 7.25636 7.96785 7.62042
#
# Compressibility (1/GPa) = 0.01806302
#
# Stress axis : x y z
#
# Youngs Moduli (GPa) = 68.51341 50.25764 46.13124
#
# Poissons Ratio (x) = 0.49054 0.25074
# Poissons Ratio (y) = 0.66873 0.17797
# Poissons Ratio (z) = 0.37239 0.19389
#
# Static dielectric constant tensor:
#      x y z
#    x 3.608000 0.000000 0.036390 
#    y 0.000000 3.172570 0.000000 
#    z 0.036390 0.000000 2.530330 
# 
# 
# High freq. dielectric constant tensor:
#      x y z
#    x 1.627460 0.000000 0.001680 
#    y 0.000000 1.619680 0.000000 
#    z 0.001680 0.000000 1.542070 
# 
# From -- ./inp_files/36990.got.cif
#   From: 2010.06.25/outbox.cif.g09.slc.cpg/sg11_19_cif.got.tgz:36990.got - 2010.06.27 23:14:04.
