data_PCOD8068100
_publ_section_title
;
Structure prediction by ZEFSAII (Michael W. Deem and Ramdas Pophale) SiO2 
 PCOD8068100
Probable space group: P 2/M
;
_chemical_formula_sum "Si O2"
_cell_formula_units_Z 28
_cell_length_a 24.000000
_cell_length_b 12.000000
_cell_length_c 30.000000
_cell_angle_alpha 90.000000
_cell_angle_beta 170.000000
_cell_angle_gamma 90.000000
_cell_volume 1500.320255
_symmetry_space_group_name_H-M "P 2/M"
_symmetry_group_IT_number 10
_symmetry_cell_setting 'monoclinic'
loop_
_space_group_symop_operation_xyz
x,y,z
-x,y,-z
-x,-y,-z
x,-y,z
loop_
_atom_site_type_symbol
_atom_site_label
_atom_site_fract_x
_atom_site_fract_y
_atom_site_fract_z
Si Si1 0.860650 0.127653 0.661417
Si Si2 0.846947 0.129320 0.922700
Si Si3 0.086135 0.128224 0.929769
Si Si4 0.267266 0.500000 0.671749
Si Si5 0.275030 0.733456 0.864396
Si Si6 0.468043 0.740227 0.110781
Si Si7 0.852010 0.500000 0.257613
Si Si8 0.260139 0.131229 0.599472
O O1 0.534618 0.146616 0.378219
O O2 0.805562 0.145018 0.671892
O O3 0.988946 0.000000 0.755434
O O4 0.111568 0.218725 0.842496
O O5 0.942539 0.000000 0.995548
O O6 0.980897 0.184147 0.074519
O O7 0.000000 0.189957 0.000000
O O8 0.145031 0.000000 0.987730
O O9 0.412836 0.173375 0.165548
O O10 0.493941 0.607995 0.853022
O O11 0.000000 0.500000 0.500000
O O12 0.107814 0.500000 0.498248
O O13 0.101153 0.612767 0.734958
O O14 0.023573 0.831461 0.656514
O O15 0.500000 0.720586 0.000000
O O16 0.496508 0.767041 0.080678
O O17 0.743081 0.806668 0.354847
O O18 0.500000 0.500000 0.000000
O O19 0.239098 0.000000 0.590859
#
# Coordination Sequence:
#
# PCOD8068100 Si02
#       8
#     4   4   4   2   4   4   2   4
#     4   9  18  33  51  73 106 144 177 211 256 316
#     4   9  16  26  45  75 108 142 176 210 250 301
#     4   8  15  28  44  64  97 136 172 206 245 297
#     4  12  22  38  62  81 104 131 176 238 288 323
#     4  11  22  36  53  73 101 133 174 224 276 323
#     4  11  22  36  58  79 103 141 180 224 276 327
#     4  10  20  38  54  77 101 126 165 219 283 333
#     4  10  21  36  53  75 105 145 182 214 261 322
#
# _framework density 18.662682
#
# number of rings (size 3 to 8) (size 9 to 14) (size 15 to 20)
#    0.000    2.143    1.429    4.286    0.000    3.143 
#    0.000    3.571    0.000    0.000    0.000    0.500 
#    0.000    4.571    0.000    0.000    0.000    0.000 
#
# Total GULP energy -346883.475969 kJ/mol
# GULP energy per Si atom -12388.695570 kJ/mol
# Density = 1.862021 g / cm^3
# Si number density = 18.662682 Si / 1000 Ang^3
#
#
#
# Elastic Constant Matrix: (Units=GPa)
#
#
# Indices 1 2 3 4 5 6 
#
# 1 109.0927 23.8488 12.2182 0.0000 -21.0929 0.0000
# 2 23.8488 86.7909 12.2576 0.0000 2.1938 0.0000
# 3 12.2182 12.2576 10.3017 0.0000 -11.2024 0.0000
# 4 0.0000 0.0000 0.0000 19.6050 0.0000 -8.3204
# 5 -21.0929 2.1938 -11.2024 0.0000 28.8667 0.0000
# 6 0.0000 0.0000 0.0000 -8.3204 0.0000 12.3045
#
#
#
# Elastic Compliance Matrix: (Units=1/GPa)
#
#
# Indices 1 2 3 4 5 6 
#
# 1 0.011602 -0.003329 -0.000529 0.000000 0.008525 0.000000
# 2 -0.003329 0.018267 -0.037962 0.000000 -0.018553 0.000000
# 3 -0.000529 -0.037962 0.251878 0.000000 0.100246 0.000000
# 4 0.000000 0.000000 0.000000 0.071537 0.000000 0.048374
# 5 0.008525 -0.018553 0.100246 0.000000 0.081184 0.000000
# 6 0.000000 0.000000 0.000000 0.048374 0.000000 0.113981
#
#
# Mechanical properties :
#
#
# Convention : Reuss Voigt Hill
#
# Bulk Modulus (GPa) = 5.04774 33.64827 19.34801
# Shear Modulus (GPa) = 7.16205 22.67930 14.92068
#
# Velocity S-wave (km/s) = 1.96111 3.48979 2.83060
# Velocity P-wave (km/s) = 2.79974 5.85722 4.59051
#
# Compressibility (1/GPa) = 0.19810833
#
# Stress axis : x y z
#
# Youngs Moduli (GPa) = 86.19377 54.74367 3.97018
#
# Poissons Ratio (x) = 0.18223 0.00210
# Poissons Ratio (y) = 0.28692 0.15071
# Poissons Ratio (z) = 0.04558 2.07816
#
# Static dielectric constant tensor:
#      x y z
#    x 3.867980 0.000000 -0.461850 
#    y 0.000000 3.513660 0.000000 
#    z -0.461850 0.000000 3.484890 
# 
# 
# High freq. dielectric constant tensor:
#      x y z
#    x 1.731910 0.000000 -0.035680 
#    y 0.000000 1.682720 0.000000 
#    z -0.035680 0.000000 1.710020 
# 
# From -- ./inp_files/79607.got.cif
#   From: 2010.06.25/outbox.ucp.g09.slc.cvg/sg10_40_cif.got.tgz:79607.got - 2010.06.28 13:37:52.
