data_PCOD8068284
_publ_section_title
;
Structure prediction by ZEFSAII (Michael W. Deem and Ramdas Pophale) SiO2 
 PCOD8068284
Probable space group: P 21/M
;
_chemical_formula_sum "Si O2"
_cell_formula_units_Z 32
_cell_length_a 11.595606
_cell_length_b 16.943275
_cell_length_c 10.576834
_cell_angle_alpha 90.000000
_cell_angle_beta 59.940068
_cell_angle_gamma 90.000000
_cell_volume 1798.516955
_symmetry_space_group_name_H-M "P 21/M"
_symmetry_group_IT_number 11
_symmetry_cell_setting 'monoclinic'
loop_
_space_group_symop_operation_xyz
x,y,z
-x,1/2+y,-z
-x,-y,-z
x,1/2-y,z
loop_
_atom_site_type_symbol
_atom_site_label
_atom_site_fract_x
_atom_site_fract_y
_atom_site_fract_z
Si Si1 0.234990 0.663104 0.873423
Si Si2 0.445628 0.553117 0.873917
Si Si3 0.935020 0.657666 0.760640
Si Si4 0.469769 0.553670 0.395657
Si Si5 0.226136 0.661568 0.578337
Si Si6 0.329767 0.411248 0.069974
Si Si7 0.697529 0.841864 0.185824
Si Si8 0.970436 0.908013 0.019033
O O1 0.261058 0.750000 0.911525
O O2 0.361970 0.612148 0.836612
O O3 0.220227 0.660917 0.732010
O O4 0.099049 0.631846 0.013979
O O5 0.526882 0.496432 0.734945
O O6 0.546825 0.604311 0.903710
O O7 0.343682 0.502181 0.016512
O O8 0.898612 0.750000 0.775683
O O9 0.809016 0.606220 0.777837
O O10 0.952810 0.630529 0.893291
O O11 0.075324 0.641954 0.610935
O O12 0.500000 0.500000 0.500000
O O13 0.325060 0.594393 0.475633
O O14 0.578525 0.623224 0.335015
O O15 0.267816 0.750000 0.509344
O O16 0.334150 0.354063 0.945615
O O17 0.713251 0.750000 0.206680
O O18 0.830115 0.888086 0.163658
O O19 0.000000 0.000000 0.000000
#
# Coordination Sequence:
#
# PCOD8068284 Si02
#       8
#     4   4   4   4   4   4   4   4
#     4  10  18  29  46  71 101 127 157 201 253 300
#     4  10  20  33  48  76 100 134 162 206 251 306
#     4   9  17  30  50  72  95 128 168 210 250 292
#     4  11  20  33  50  72 107 134 171 204 252 301
#     4   9  18  31  49  72  99 129 168 209 244 294
#     4   9  18  33  52  71 103 122 167 213 250 298
#     4  10  20  33  52  75 100 136 170 208 252 302
#     4  10  17  27  47  73 101 123 160 204 257 302
#
# _framework density 17.792435999999999
#
# number of rings (size 3 to 8) (size 9 to 14) (size 15 to 20)
#    0.000    2.250    1.250    5.625    1.750    1.000 
#    0.000    0.625    0.000    0.000    0.000    0.000 
#    0.000    0.000    0.000    0.000    0.000    0.000 
#
# Total GULP energy -396510.500624 kJ/mol
# GULP energy per Si atom -12390.953144 kJ/mol
# Density = 1.775194 g / cm^3
# Si number density = 17.792436 Si / 1000 Ang^3
#
#
#
# Elastic Constant Matrix: (Units=GPa)
#
#
# Indices 1 2 3 4 5 6 
#
# 1 87.0112 56.7021 36.1931 0.0000 -29.2418 0.0000
# 2 56.7021 111.8177 41.2769 0.0000 -29.5466 0.0000
# 3 36.1931 41.2769 63.6287 0.0000 -28.9384 0.0000
# 4 0.0000 0.0000 0.0000 28.9446 0.0000 -11.0657
# 5 -29.2418 -29.5466 -28.9384 0.0000 33.1893 0.0000
# 6 0.0000 0.0000 0.0000 -11.0657 0.0000 21.7929
#
#
#
# Elastic Compliance Matrix: (Units=1/GPa)
#
#
# Indices 1 2 3 4 5 6 
#
# 1 0.020199 -0.006716 -0.002913 0.000000 0.009278 0.000000
# 2 -0.006716 0.014852 -0.004130 0.000000 0.003704 0.000000
# 3 -0.002913 -0.004130 0.028524 0.000000 0.018627 0.000000
# 4 0.000000 0.000000 0.000000 0.042871 0.000000 0.021768
# 5 0.009278 0.003704 0.018627 0.000000 0.057843 0.000000
# 6 0.000000 0.000000 0.000000 0.021768 0.000000 0.056940
#
#
# Mechanical properties :
#
#
# Convention : Reuss Voigt Hill
#
# Bulk Modulus (GPa) = 27.73431 58.97800 43.35615
# Shear Modulus (GPa) = 19.17422 25.33773 22.25597
#
# Velocity S-wave (km/s) = 3.28634 3.77778 3.54060
# Velocity P-wave (km/s) = 5.47919 7.22832 6.41366
#
# Compressibility (1/GPa) = 0.03605643
#
# Stress axis : x y z
#
# Youngs Moduli (GPa) = 49.50738 67.33115 35.05768
#
# Poissons Ratio (x) = 0.45219 0.10214
# Poissons Ratio (y) = 0.33248 0.14480
# Poissons Ratio (z) = 0.14424 0.27809
#
# Static dielectric constant tensor:
#      x y z
#    x 3.569390 0.000000 -0.559240 
#    y 0.000000 3.318090 0.000000 
#    z -0.559240 0.000000 3.309530 
# 
# 
# High freq. dielectric constant tensor:
#      x y z
#    x 1.680260 0.000000 -0.038920 
#    y 0.000000 1.695030 0.000000 
#    z -0.038920 0.000000 1.658560 
# 
# From -- ./inp_files/36010.got.cif
#   From: 2010.06.25/outbox.cif.g09.slc.cpg/sg11_19_cif.got.tgz:36010.got - 2010.06.27 23:14:04.
