data_PCOD8068814
_publ_section_title
;
Structure prediction by ZEFSAII (Michael W. Deem and Ramdas Pophale) SiO2 
 PCOD8068814
Probable space group: P 21/M
;
_chemical_formula_sum "Si O2"
_cell_formula_units_Z 32
_cell_length_a 19.613351
_cell_length_b 8.856383
_cell_length_c 14.477661
_cell_angle_alpha 90.000000
_cell_angle_beta 46.075635
_cell_angle_gamma 90.000000
_cell_volume 1811.313339
_symmetry_space_group_name_H-M "P 21/M"
_symmetry_group_IT_number 11
_symmetry_cell_setting 'monoclinic'
loop_
_space_group_symop_operation_xyz
x,y,z
-x,1/2+y,-z
-x,-y,-z
x,1/2-y,z
loop_
_atom_site_type_symbol
_atom_site_label
_atom_site_fract_x
_atom_site_fract_y
_atom_site_fract_z
Si Si1 0.651935 0.073024 0.114260
Si Si2 0.469034 0.424179 0.927818
Si Si3 0.215960 0.074445 0.438477
Si Si4 0.683940 0.080333 0.817219
Si Si5 0.617314 0.076444 0.640524
Si Si6 0.006618 0.070893 0.593591
Si Si7 0.823539 0.082652 0.857057
Si Si8 0.492190 0.922865 0.605021
O O1 0.640180 0.250000 0.095084
O O2 0.613854 0.052503 0.254483
O O3 0.591247 0.964157 0.106084
O O4 0.764034 0.023205 0.002552
O O5 0.451155 0.250000 0.970795
O O6 0.576636 0.451365 0.785112
O O7 0.426594 0.528819 0.053618
O O8 0.230257 0.250000 0.444998
O O9 0.105716 0.028338 0.548377
O O10 0.257196 0.036299 0.299308
O O11 0.273757 0.978102 0.459948
O O12 0.680001 0.250000 0.778281
O O13 0.741820 0.080900 0.857084
O O14 0.609515 0.250000 0.619795
O O15 0.566435 0.982611 0.609645
O O16 0.995740 0.250000 0.590970
O O17 0.920333 0.998034 0.736045
O O18 0.000000 0.000000 0.500000
O O19 0.859460 0.250000 0.844555
O O20 0.516110 0.750000 0.566630
O O21 0.500000 0.000000 0.500000
#
# Coordination Sequence:
#
# PCOD8068814 Si02
#       8
#     4   4   4   4   4   4   4   4
#     4   8  15  28  47  71  97 126 157 189 232 288
#     4   9  17  29  45  65  90 120 159 203 241 281
#     4  11  22  32  45  67  95 127 166 210 249 286
#     4  10  18  29  46  64  88 127 167 203 244 288
#     4  10  21  36  51  68  95 130 162 197 243 292
#     4  10  19  31  47  68  94 126 168 213 252 287
#     4   8  14  27  46  66  91 124 162 202 241 281
#     4  10  19  33  55  81 106 128 154 189 233 292
#
# _framework density 17.666740000000001
#
# number of rings (size 3 to 8) (size 9 to 14) (size 15 to 20)
#    0.000    2.500    1.250    2.625    0.000    3.000 
#    0.000    0.000    0.000    0.000    0.000    0.875 
#    0.000    0.000    0.000    0.000    0.000    0.000 
#
# Total GULP energy -396472.080949 kJ/mol
# GULP energy per Si atom -12389.752530 kJ/mol
# Density = 1.762653 g / cm^3
# Si number density = 17.666740 Si / 1000 Ang^3
#
#
#
# Elastic Constant Matrix: (Units=GPa)
#
#
# Indices 1 2 3 4 5 6 
#
# 1 61.6268 28.8493 59.4550 0.0000 -13.5633 0.0000
# 2 28.8493 69.6968 37.0227 0.0000 -5.2093 0.0000
# 3 59.4550 37.0227 134.1764 0.0000 -25.8663 0.0000
# 4 0.0000 0.0000 0.0000 20.4546 0.0000 4.1667
# 5 -13.5633 -5.2093 -25.8663 0.0000 36.3659 0.0000
# 6 0.0000 0.0000 0.0000 4.1667 0.0000 24.2780
#
#
#
# Elastic Compliance Matrix: (Units=1/GPa)
#
#
# Indices 1 2 3 4 5 6 
#
# 1 0.030790 -0.006521 -0.011369 0.000000 0.002463 0.000000
# 2 -0.006521 0.018227 -0.002440 0.000000 -0.001557 0.000000
# 3 -0.011369 -0.002440 0.014230 0.000000 0.005532 0.000000
# 4 0.000000 0.000000 0.000000 0.050660 0.000000 -0.008694
# 5 0.002463 -0.001557 0.005532 0.000000 0.032129 0.000000
# 6 0.000000 0.000000 0.000000 -0.008694 0.000000 0.042682
#
#
# Mechanical properties :
#
#
# Convention : Reuss Voigt Hill
#
# Bulk Modulus (GPa) = 44.27383 57.35044 50.81214
# Shear Modulus (GPa) = 21.10532 25.56457 23.33495
#
# Velocity S-wave (km/s) = 3.46010 3.80813 3.63828
# Velocity P-wave (km/s) = 6.40921 7.20199 6.81714
#
# Compressibility (1/GPa) = 0.02258671
#
# Stress axis : x y z
#
# Youngs Moduli (GPa) = 32.47782 54.86418 70.27268
#
# Poissons Ratio (x) = 0.35780 0.79895
# Poissons Ratio (y) = 0.21180 0.17144
# Poissons Ratio (z) = 0.36925 0.13385
#
# Static dielectric constant tensor:
#      x y z
#    x 3.258770 0.000000 -0.295190 
#    y 0.000000 3.261810 0.000000 
#    z -0.295190 0.000000 3.708830 
# 
# 
# High freq. dielectric constant tensor:
#      x y z
#    x 1.654360 0.000000 -0.024400 
#    y 0.000000 1.679070 0.000000 
#    z -0.024400 0.000000 1.683430 
# 
# From -- ./inp_files/51178.got.cif
#   From: 2010.06.25/outbox.cif.g09.slc.cpg/sg11_26_cif.got.tgz:51178.got - 2010.06.27 23:14:04.
