data_PCOD8068058
_publ_section_title
;
Structure prediction by ZEFSAII (Michael W. Deem and Ramdas Pophale) SiO2 
 PCOD8068058
Probable space group: P 2/M
;
_chemical_formula_sum "Si O2"
_cell_formula_units_Z 28
_cell_length_a 20.349863
_cell_length_b 9.322466
_cell_length_c 23.033815
_cell_angle_alpha 90.000000
_cell_angle_beta 18.988970
_cell_angle_gamma 90.000000
_cell_volume 1421.861205
_symmetry_space_group_name_H-M "P 2/M"
_symmetry_group_IT_number 10
_symmetry_cell_setting 'monoclinic'
loop_
_space_group_symop_operation_xyz
x,y,z
-x,y,-z
-x,-y,-z
x,-y,z
loop_
_atom_site_type_symbol
_atom_site_label
_atom_site_fract_x
_atom_site_fract_y
_atom_site_fract_z
Si Si1 0.164341 0.839426 0.639862
Si Si2 0.440696 0.667977 0.885734
Si Si3 0.935369 0.660097 0.991973
Si Si4 0.653345 0.339902 0.419314
Si Si5 0.251732 0.160574 0.944065
Si Si6 0.961408 0.667977 0.712162
Si Si7 0.111344 0.330376 0.462884
O O1 0.341902 0.760925 0.527851
O O2 0.124383 0.752220 0.614463
O O3 0.236592 0.000000 0.564001
O O4 0.963100 0.844492 0.845633
O O5 0.440108 0.500000 0.870959
O O6 0.407844 0.752219 0.853310
O O7 0.655127 0.719061 0.732243
O O8 0.267791 0.704729 0.077404
O O9 0.844978 0.500000 0.076848
O O10 0.125000 0.651000 0.791667
O O11 0.767357 0.760925 0.102395
O O12 0.000000 0.726557 0.000000
O O13 0.500000 0.273444 0.500000
O O14 0.579499 0.500000 0.498675
O O15 0.334815 0.000000 0.864592
O O16 0.006905 0.500000 0.682027
O O17 0.993019 0.719059 0.619612
O O18 0.102168 0.500000 0.465942
O O19 0.000000 0.261148 0.500000
#
# Coordination Sequence:
#
# PCOD8068058 Si02
#       7
#     4   4   4   4   4   4   4
#     4   9  17  30  49  70  94 127 165 206 248 292
#     4   9  17  31  52  75  99 131 168 204 247 298
#     4   9  17  30  47  67  93 125 161 202 248 297
#     4   9  17  30  47  67  93 125 161 202 248 297
#     4   9  17  30  49  70  94 127 165 206 248 292
#     4   9  17  31  52  75  99 131 168 204 247 298
#     4   9  18  32  51  79 109 131 161 209 255 297
#
# _framework density 19.692499000000002
#
# number of rings (size 3 to 8) (size 9 to 14) (size 15 to 20)
#    0.000    3.000    0.000    0.857    0.000    4.571 
#    2.571    3.571    0.000    1.714    0.000    4.000 
#    0.000    0.000    0.000    0.000    0.000    0.000 
#
# Total GULP energy -347117.073422 kJ/mol
# GULP energy per Si atom -12397.038337 kJ/mol
# Density = 1.964768 g / cm^3
# Si number density = 19.692499 Si / 1000 Ang^3
#
#
#
# Elastic Constant Matrix: (Units=GPa)
#
#
# Indices 1 2 3 4 5 6 
#
# 1 204.3354 75.8169 55.8522 0.0000 -18.4954 0.0000
# 2 75.8169 89.6875 27.1167 0.0000 -9.9174 0.0000
# 3 55.8522 27.1167 66.6376 0.0000 -9.5458 0.0000
# 4 0.0000 0.0000 0.0000 7.2428 0.0000 -0.0804
# 5 -18.4954 -9.9174 -9.5458 0.0000 30.6530 0.0000
# 6 0.0000 0.0000 0.0000 -0.0804 0.0000 7.6374
#
#
#
# Elastic Compliance Matrix: (Units=1/GPa)
#
#
# Indices 1 2 3 4 5 6 
#
# 1 0.008315 -0.005471 -0.004478 0.000000 0.001853 0.000000
# 2 -0.005471 0.016517 -0.001930 0.000000 0.001442 0.000000
# 3 -0.004478 -0.001930 0.019959 0.000000 0.002889 0.000000
# 4 0.000000 0.000000 0.000000 0.138085 0.000000 0.001454
# 5 0.001853 0.001442 0.002889 0.000000 0.035108 0.000000
# 6 0.000000 0.000000 0.000000 0.001454 0.000000 0.130950
#
#
# Mechanical properties :
#
#
# Convention : Reuss Voigt Hill
#
# Bulk Modulus (GPa) = 47.53932 75.35909 61.44921
# Shear Modulus (GPa) = 13.16821 22.56495 17.86658
#
# Velocity S-wave (km/s) = 2.58871 3.38874 3.01537
# Velocity P-wave (km/s) = 5.75573 7.32546 6.58752
#
# Compressibility (1/GPa) = 0.02103522
#
# Stress axis : x y z
#
# Youngs Moduli (GPa) = 120.25786 60.54268 50.10311
#
# Poissons Ratio (x) = 0.33121 0.22436
# Poissons Ratio (y) = 0.65789 0.09668
# Poissons Ratio (z) = 0.53852 0.11682
#
# Static dielectric constant tensor:
#      x y z
#    x 3.780180 0.000000 -0.059340 
#    y 0.000000 3.608660 0.000000 
#    z -0.059340 0.000000 3.488570 
# 
# 
# High freq. dielectric constant tensor:
#      x y z
#    x 1.768030 0.000000 -0.003150 
#    y 0.000000 1.741790 0.000000 
#    z -0.003150 0.000000 1.752550 
# 
# From -- ./inp_files/37962.got.cif
#   From: 2010.06.25/outbox.cif.g09.slc.cpg/sg10_19_cif.got.tgz:37962.got - 2010.06.27 22:07:45.
