data_PCOD8068517
_publ_section_title
;
Structure prediction by ZEFSAII (Michael W. Deem and Ramdas Pophale) SiO2 
 PCOD8068517
Probable space group: P 21/M
;
_chemical_formula_sum "Si O2"
_cell_formula_units_Z 28
_cell_length_a 18.285934
_cell_length_b 9.023318
_cell_length_c 29.441743
_cell_angle_alpha 90.000000
_cell_angle_beta 20.982458
_cell_angle_gamma 90.000000
_cell_volume 1739.520468
_symmetry_space_group_name_H-M "P 21/M"
_symmetry_group_IT_number 11
_symmetry_cell_setting 'monoclinic'
loop_
_space_group_symop_operation_xyz
x,y,z
-x,1/2+y,-z
-x,-y,-z
x,1/2-y,z
loop_
_atom_site_type_symbol
_atom_site_label
_atom_site_fract_x
_atom_site_fract_y
_atom_site_fract_z
Si Si1 0.171908 0.917863 0.501846
Si Si2 0.230432 0.423174 0.747290
Si Si3 0.337446 0.423490 0.490265
Si Si4 0.522402 0.075905 0.757694
Si Si5 0.842742 0.922337 0.624089
Si Si6 0.290228 0.420988 0.615285
Si Si7 0.907678 0.073661 0.009244
O O1 0.207798 0.750000 0.496887
O O2 0.334994 0.957664 0.368237
O O3 0.938999 0.938821 0.618729
O O4 0.199434 0.022158 0.528973
O O5 0.274731 0.250000 0.727826
O O6 0.438645 0.504535 0.640345
O O7 0.156470 0.460323 0.737866
O O8 0.048512 0.474080 0.885298
O O9 0.370528 0.250000 0.465644
O O10 0.210946 0.463024 0.610514
O O11 0.486603 0.250000 0.785719
O O12 0.626777 0.006441 0.742688
O O13 0.313054 0.992140 0.871497
O O14 0.818870 0.750000 0.624906
O O15 0.000000 0.000000 0.500000
O O16 0.500000 0.500000 0.500000
O O17 0.341785 0.250000 0.585918
O O18 0.895602 0.250000 0.022356
O O19 0.000000 0.000000 0.000000
#
# Coordination Sequence:
#
# PCOD8068517 Si02
#       7
#     4   4   4   4   4   4   4
#     4   9  18  30  44  64  91 119 143 171 217 268
#     4   9  18  32  46  59  85 122 152 178 216 263
#     4  10  18  26  43  69  91 112 143 183 222 256
#     4  10  20  33  47  64  89 121 152 184 220 260
#     4   9  17  30  47  66  88 116 149 183 219 263
#     4   8  15  28  43  61  84 111 144 180 217 260
#     4  11  22  33  46  65  89 121 155 185 217 256
#
# _framework density 16.09639
#
# number of rings (size 3 to 8) (size 9 to 14) (size 15 to 20)
#    0.000    2.571    0.000    3.429    0.000    8.571 
#    0.000    0.000    0.000    0.000    0.000    1.000 
#    0.000    0.000    0.000    0.000    0.000    0.000 
#
# Total GULP energy -346870.002604 kJ/mol
# GULP energy per Si atom -12388.214379 kJ/mol
# Density = 1.605975 g / cm^3
# Si number density = 16.096390 Si / 1000 Ang^3
#
#
#
# Elastic Constant Matrix: (Units=GPa)
#
#
# Indices 1 2 3 4 5 6 
#
# 1 123.5976 51.4896 61.5391 0.0000 0.0520 0.0000
# 2 51.4896 69.1409 38.6053 0.0000 -0.8011 0.0000
# 3 61.5391 38.6053 76.2843 0.0000 -5.5812 0.0000
# 4 0.0000 0.0000 0.0000 21.6745 0.0000 -5.4150
# 5 0.0520 -0.8011 -5.5812 0.0000 28.0725 0.0000
# 6 0.0000 0.0000 0.0000 -5.4150 0.0000 28.9130
#
#
#
# Elastic Compliance Matrix: (Units=1/GPa)
#
#
# Indices 1 2 3 4 5 6 
#
# 1 0.015360 -0.006216 -0.009397 0.000000 -0.002074 0.000000
# 2 -0.006216 0.022735 -0.006538 0.000000 -0.000640 0.000000
# 3 -0.009397 -0.006538 0.024340 0.000000 0.004670 0.000000
# 4 0.000000 0.000000 0.000000 0.048402 0.000000 0.009065
# 5 -0.002074 -0.000640 0.004670 0.000000 0.036536 0.000000
# 6 0.000000 0.000000 0.000000 0.009065 0.000000 0.036284
#
#
# Mechanical properties :
#
#
# Convention : Reuss Voigt Hill
#
# Bulk Modulus (GPa) = 55.14742 63.58785 59.36763
# Shear Modulus (GPa) = 21.36718 23.55794 22.46256
#
# Velocity S-wave (km/s) = 3.64737 3.82979 3.73970
# Velocity P-wave (km/s) = 7.21616 7.69068 7.45719
#
# Compressibility (1/GPa) = 0.01813322
#
# Stress axis : x y z
#
# Youngs Moduli (GPa) = 65.10498 43.98438 41.08456
#
# Poissons Ratio (x) = 0.27339 0.38607
# Poissons Ratio (y) = 0.40467 0.26862
# Poissons Ratio (z) = 0.61180 0.28758
#
# Static dielectric constant tensor:
#      x y z
#    x 3.659310 0.000000 0.156400 
#    y 0.000000 3.263400 0.000000 
#    z 0.156400 0.000000 2.978740 
# 
# 
# High freq. dielectric constant tensor:
#      x y z
#    x 1.626780 0.000000 -0.001690 
#    y 0.000000 1.633750 0.000000 
#    z -0.001690 0.000000 1.577170 
# 
# From -- ./inp_files/73447.got.cif
#   From: 2010.06.25/outbox.cif.g09.slc.cpg/sg11_37_cif.got.tgz:73447.got - 2010.06.27 23:14:04.
