data_PCOD8068585
_publ_section_title
;
Structure prediction by ZEFSAII (Michael W. Deem and Ramdas Pophale) SiO2 
 PCOD8068585
Probable space group: P 21/M
;
_chemical_formula_sum "Si O2"
_cell_formula_units_Z 32
_cell_length_a 13.596399
_cell_length_b 9.980916
_cell_length_c 15.506915
_cell_angle_alpha 90.000000
_cell_angle_beta 117.300868
_cell_angle_gamma 90.000000
_cell_volume 1869.954516
_symmetry_space_group_name_H-M "P 21/M"
_symmetry_group_IT_number 11
_symmetry_cell_setting 'monoclinic'
loop_
_space_group_symop_operation_xyz
x,y,z
-x,1/2+y,-z
-x,-y,-z
x,1/2-y,z
loop_
_atom_site_type_symbol
_atom_site_label
_atom_site_fract_x
_atom_site_fract_y
_atom_site_fract_z
Si Si1 0.915084 0.595556 0.514963
Si Si2 0.924418 0.599116 0.716513
Si Si3 0.250992 0.403924 0.692768
Si Si4 0.173942 0.895667 0.797171
Si Si5 0.664776 0.534041 0.020917
Si Si6 0.142856 0.395109 0.018954
Si Si7 0.098686 0.594582 0.145946
Si Si8 0.463264 0.396359 0.865268
O O1 0.956437 0.750000 0.524082
O O2 0.903716 0.553977 0.609683
O O3 0.793368 0.579344 0.422427
O O4 0.000000 0.500000 0.500000
O O5 0.876554 0.750000 0.712664
O O6 0.866767 0.487599 0.754060
O O7 0.053964 0.599443 0.792460
O O8 0.240842 0.250000 0.719640
O O9 0.174234 0.491806 0.724035
O O10 0.379556 0.449987 0.756437
O O11 0.192956 0.750000 0.761624
O O12 0.268151 0.911988 0.907952
O O13 0.570184 0.488965 0.915814
O O14 0.752988 0.619390 0.003041
O O15 0.605396 0.616312 0.072867
O O16 0.133375 0.250000 0.063404
O O17 0.032857 0.415923 0.918421
O O18 0.159051 0.518712 0.090936
O O19 0.138349 0.750000 0.167281
O O20 0.506766 0.250000 0.857752
#
# Coordination Sequence:
#
# PCOD8068585 Si02
#       8
#     4   4   4   4   4   4   4   4
#     4  10  19  30  46  68  93 125 163 198 239 289
#     4  10  19  31  45  66  97 128 158 194 237 286
#     4   9  18  31  45  64  93 126 160 200 238 278
#     4  10  18  27  43  66  94 127 160 193 232 277
#     4  10  18  30  47  69  96 132 165 195 234 282
#     4  10  20  34  51  70  97 130 163 199 238 284
#     4  10  21  34  49  72  97 127 164 200 239 284
#     4   9  18  30  45  68  98 129 164 198 233 279
#
# _framework density 17.112717
#
# number of rings (size 3 to 8) (size 9 to 14) (size 15 to 20)
#    0.000    2.250    2.500    1.125    0.000    3.000 
#    0.000    0.625    0.000    0.000    0.000    0.875 
#    0.000    0.000    0.000    0.000    0.000    0.000 
#
# Total GULP energy -396499.280943 kJ/mol
# GULP energy per Si atom -12390.602529 kJ/mol
# Density = 1.707377 g / cm^3
# Si number density = 17.112717 Si / 1000 Ang^3
#
#
#
# Elastic Constant Matrix: (Units=GPa)
#
#
# Indices 1 2 3 4 5 6 
#
# 1 42.3990 12.2359 19.1313 0.0000 0.7850 0.0000
# 2 12.2359 95.8671 37.0622 0.0000 -10.7307 0.0000
# 3 19.1313 37.0622 99.4821 0.0000 3.6981 0.0000
# 4 0.0000 0.0000 0.0000 23.8726 0.0000 -4.2053
# 5 0.7850 -10.7307 3.6981 0.0000 25.7883 0.0000
# 6 0.0000 0.0000 0.0000 -4.2053 0.0000 12.4904
#
#
#
# Elastic Compliance Matrix: (Units=1/GPa)
#
#
# Indices 1 2 3 4 5 6 
#
# 1 0.026060 -0.001756 -0.004324 0.000000 -0.000904 0.000000
# 2 -0.001756 0.013217 -0.004818 0.000000 0.006244 0.000000
# 3 -0.004324 -0.004818 0.012817 0.000000 -0.003711 0.000000
# 4 0.000000 0.000000 0.000000 0.044530 0.000000 0.014992
# 5 -0.000904 0.006244 -0.003711 0.000000 0.041935 0.000000
# 6 0.000000 0.000000 0.000000 0.014992 0.000000 0.085109
#
#
# Mechanical properties :
#
#
# Convention : Reuss Voigt Hill
#
# Bulk Modulus (GPa) = 33.00608 41.62300 37.31454
# Shear Modulus (GPa) = 19.56464 23.71818 21.64141
#
# Velocity S-wave (km/s) = 3.38491 3.72694 3.56003
# Velocity P-wave (km/s) = 5.88270 6.54948 6.22503
#
# Compressibility (1/GPa) = 0.03029745
#
# Stress axis : x y z
#
# Youngs Moduli (GPa) = 38.37311 75.66050 78.02337
#
# Poissons Ratio (x) = 0.13284 0.33736
# Poissons Ratio (y) = 0.06737 0.37595
# Poissons Ratio (z) = 0.16592 0.36457
#
# Static dielectric constant tensor:
#      x y z
#    x 2.833080 0.000000 0.141410 
#    y 0.000000 3.294810 0.000000 
#    z 0.141410 0.000000 3.280730 
# 
# 
# High freq. dielectric constant tensor:
#      x y z
#    x 1.614020 0.000000 0.008490 
#    y 0.000000 1.670570 0.000000 
#    z 0.008490 0.000000 1.650390 
# 
# From -- ./inp_files/52031.got.cif
#   From: 2010.06.25/outbox.cif.g09.slc.cpg/sg11_27_cif.got.tgz:52031.got - 2010.06.27 23:14:04.
