data_PCOD8068438
_publ_section_title
;
Structure prediction by ZEFSAII (Michael W. Deem and Ramdas Pophale) SiO2 
 PCOD8068438
Probable space group: P 21/M
;
_chemical_formula_sum "Si O2"
_cell_formula_units_Z 32
_cell_length_a 8.716007
_cell_length_b 19.102896
_cell_length_c 12.611607
_cell_angle_alpha 90.000000
_cell_angle_beta 118.621890
_cell_angle_gamma 90.000000
_cell_volume 1843.243877
_symmetry_space_group_name_H-M "P 21/M"
_symmetry_group_IT_number 11
_symmetry_cell_setting 'monoclinic'
loop_
_space_group_symop_operation_xyz
x,y,z
-x,1/2+y,-z
-x,-y,-z
x,1/2-y,z
loop_
_atom_site_type_symbol
_atom_site_label
_atom_site_fract_x
_atom_site_fract_y
_atom_site_fract_z
Si Si1 0.587914 0.539440 0.434619
Si Si2 0.052721 0.329780 0.892740
Si Si3 0.769173 0.441755 0.767826
Si Si4 0.982545 0.329886 0.109789
Si Si5 0.295988 0.429361 0.864060
Si Si6 0.846776 0.491029 0.367016
Si Si7 0.887149 0.923719 0.674306
Si Si8 0.702217 0.057661 0.981287
O O1 0.500000 0.500000 0.500000
O O2 0.430126 0.581437 0.326366
O O3 0.670412 0.481692 0.379024
O O4 0.740449 0.589458 0.533867
O O5 0.024922 0.250000 0.848178
O O6 0.228783 0.358897 0.897362
O O7 0.887306 0.373059 0.794529
O O8 0.075720 0.335844 0.026868
O O9 0.844927 0.502883 0.718771
O O10 0.770188 0.468288 0.889422
O O11 0.938493 0.250000 0.123672
O O12 0.114475 0.360467 0.242623
O O13 0.803026 0.372995 0.051769
O O14 0.194000 0.440955 0.719375
O O15 0.500338 0.421719 0.911537
O O16 0.254207 0.495386 0.924744
O O17 0.000000 0.500000 0.500000
O O18 0.917304 0.428350 0.314434
#
# Coordination Sequence:
#
# PCOD8068438 Si02
#       8
#     4   4   4   4   4   4   4   4
#     4   9  19  31  51  81 103 132 163 217 263 303
#     4  10  21  34  51  73 104 142 169 204 255 304
#     4  10  17  32  52  76 105 128 171 211 257 306
#     4  10  20  35  51  73 105 140 172 205 250 304
#     4  11  19  33  52  79 103 131 170 218 254 308
#     4  10  18  31  52  80 104 128 169 215 261 299
#     4  10  18  32  54  77 101 137 171 213 255 301
#     4  10  20  30  52  79 102 129 168 214 261 303
#
# _framework density 17.360696999999998
#
# number of rings (size 3 to 8) (size 9 to 14) (size 15 to 20)
#    0.000    2.000    3.750    0.750    0.000    2.500 
#    0.000    0.625    0.000    3.000    0.000    0.000 
#    0.000    0.000    0.000    0.000    0.000    0.000 
#
# Total GULP energy -396457.540892 kJ/mol
# GULP energy per Si atom -12389.298153 kJ/mol
# Density = 1.732118 g / cm^3
# Si number density = 17.360697 Si / 1000 Ang^3
#
#
#
# Elastic Constant Matrix: (Units=GPa)
#
#
# Indices 1 2 3 4 5 6 
#
# 1 91.9598 27.2058 26.7126 0.0000 -8.8298 0.0000
# 2 27.2058 85.0053 32.4330 0.0000 -2.1902 0.0000
# 3 26.7126 32.4330 93.8834 0.0000 5.6585 0.0000
# 4 0.0000 0.0000 0.0000 18.4333 0.0000 -2.9684
# 5 -8.8298 -2.1902 5.6585 0.0000 24.3804 0.0000
# 6 0.0000 0.0000 0.0000 -2.9684 0.0000 19.9584
#
#
#
# Elastic Compliance Matrix: (Units=1/GPa)
#
#
# Indices 1 2 3 4 5 6 
#
# 1 0.013116 -0.002903 -0.003042 0.000000 0.005195 0.000000
# 2 -0.002903 0.014325 -0.004196 0.000000 0.001209 0.000000
# 3 -0.003042 -0.004196 0.013241 0.000000 -0.004552 0.000000
# 4 0.000000 0.000000 0.000000 0.055581 0.000000 0.008267
# 5 0.005195 0.001209 -0.004552 0.000000 0.044063 0.000000
# 6 0.000000 0.000000 0.000000 0.008267 0.000000 0.051334
#
#
# Mechanical properties :
#
#
# Convention : Reuss Voigt Hill
#
# Bulk Modulus (GPa) = 49.01945 49.28347 49.15146
# Shear Modulus (GPa) = 22.85809 24.85422 23.85615
#
# Velocity S-wave (km/s) = 3.63251 3.78780 3.71097
# Velocity P-wave (km/s) = 6.77427 6.89779 6.83631
#
# Compressibility (1/GPa) = 0.02040007
#
# Stress axis : x y z
#
# Youngs Moduli (GPa) = 76.24465 69.80773 75.52421
#
# Poissons Ratio (x) = 0.20266 0.22974
# Poissons Ratio (y) = 0.22135 0.31687
# Poissons Ratio (z) = 0.23194 0.29288
#
# Static dielectric constant tensor:
#      x y z
#    x 3.765100 0.000000 -0.032470 
#    y 0.000000 2.891710 0.000000 
#    z -0.032470 0.000000 3.901900 
# 
# 
# High freq. dielectric constant tensor:
#      x y z
#    x 1.687020 0.000000 -0.006280 
#    y 0.000000 1.614660 0.000000 
#    z -0.006280 0.000000 1.690380 
# 
# From -- ./inp_files/32670.got.cif
#   From: 2010.06.25/outbox.cif.g09.slc.cpg/sg11_17_cif.got.tgz:32670.got - 2010.06.27 23:14:04.
