data_PCOD8068600
_publ_section_title
;
Structure prediction by ZEFSAII (Michael W. Deem and Ramdas Pophale) SiO2 
 PCOD8068600
Probable space group: P 21/M
;
_chemical_formula_sum "Si O2"
_cell_formula_units_Z 28
_cell_length_a 13.469612
_cell_length_b 9.502282
_cell_length_c 13.540459
_cell_angle_alpha 90.000000
_cell_angle_beta 57.567620
_cell_angle_gamma 90.000000
_cell_volume 1462.755315
_symmetry_space_group_name_H-M "P 21/M"
_symmetry_group_IT_number 11
_symmetry_cell_setting 'monoclinic'
loop_
_space_group_symop_operation_xyz
x,y,z
-x,1/2+y,-z
-x,-y,-z
x,1/2-y,z
loop_
_atom_site_type_symbol
_atom_site_label
_atom_site_fract_x
_atom_site_fract_y
_atom_site_fract_z
Si Si1 0.272239 0.591482 0.947086
Si Si2 0.328249 0.406574 0.637504
Si Si3 0.052709 0.912692 0.175965
Si Si4 0.529057 0.588410 0.243701
Si Si5 0.670990 0.591133 0.582511
Si Si6 0.132853 0.911382 0.823057
Si Si7 0.943863 0.585398 0.441845
O O1 0.324088 0.750000 0.917349
O O2 0.380145 0.483127 0.881554
O O3 0.179359 0.570152 0.908631
O O4 0.194226 0.564516 0.087409
O O5 0.271912 0.250000 0.679694
O O6 0.426544 0.429040 0.668044
O O7 0.383456 0.419586 0.498981
O O8 0.227382 0.522535 0.697977
O O9 0.020434 0.750000 0.173830
O O10 0.012182 0.960369 0.306110
O O11 0.988632 0.005722 0.126679
O O12 0.513543 0.750000 0.220382
O O13 0.402864 0.511096 0.305941
O O14 0.657799 0.750000 0.629759
O O15 0.806852 0.545164 0.507211
O O16 0.113509 0.750000 0.804369
O O17 0.960840 0.750000 0.452794
O O18 0.000000 0.500000 0.500000
#
# Coordination Sequence:
#
# PCOD8068600 Si02
#       7
#     4   4   4   4   4   4   4
#     4   9  19  33  50  74 107 146 180 209 249 312
#     4   9  17  31  48  70 105 146 179 211 253 312
#     4  10  19  35  55  73 102 142 178 213 264 321
#     4  10  20  31  49  78 110 142 175 214 256 303
#     4  10  19  34  54  73 102 141 177 214 261 317
#     4  10  18  27  45  77 109 139 176 217 255 301
#     4  10  22  39  59  81 103 133 174 224 275 316
#
# _framework density 19.141957000000001
#
# number of rings (size 3 to 8) (size 9 to 14) (size 15 to 20)
#    0.000    2.286    1.429    1.714    0.000    3.429 
#    0.000    0.000    0.000    0.857    0.000    0.000 
#    0.000    0.000    0.000    0.000    0.000    0.000 
#
# Total GULP energy -347126.151398 kJ/mol
# GULP energy per Si atom -12397.362550 kJ/mol
# Density = 1.909839 g / cm^3
# Si number density = 19.141957 Si / 1000 Ang^3
#
#
#
# Elastic Constant Matrix: (Units=GPa)
#
#
# Indices 1 2 3 4 5 6 
#
# 1 43.9375 33.9103 43.7744 0.0000 -11.7082 0.0000
# 2 33.9103 105.3911 66.0071 0.0000 -21.1897 0.0000
# 3 43.7744 66.0071 119.6117 0.0000 -31.3265 0.0000
# 4 0.0000 0.0000 0.0000 26.9052 0.0000 -6.4622
# 5 -11.7082 -21.1897 -31.3265 0.0000 22.3911 0.0000
# 6 0.0000 0.0000 0.0000 -6.4622 0.0000 28.8759
#
#
#
# Elastic Compliance Matrix: (Units=1/GPa)
#
#
# Indices 1 2 3 4 5 6 
#
# 1 0.037692 -0.005378 -0.011044 0.000000 -0.000832 0.000000
# 2 -0.005378 0.015497 -0.005491 0.000000 0.004170 0.000000
# 3 -0.011044 -0.005491 0.019822 0.000000 0.016761 0.000000
# 4 0.000000 0.000000 0.000000 0.039279 0.000000 0.008790
# 5 -0.000832 0.004170 0.016761 0.000000 0.071622 0.000000
# 6 0.000000 0.000000 0.000000 0.008790 0.000000 0.036598
#
#
# Mechanical properties :
#
#
# Convention : Reuss Voigt Hill
#
# Bulk Modulus (GPa) = 34.26562 61.81378 48.03970
# Shear Modulus (GPa) = 18.24391 23.98433 21.11412
#
# Velocity S-wave (km/s) = 3.09056 3.54357 3.32479
# Velocity P-wave (km/s) = 5.53851 7.00749 6.31585
#
# Compressibility (1/GPa) = 0.02918377
#
# Stress axis : x y z
#
# Youngs Moduli (GPa) = 26.53111 64.53052 50.44793
#
# Poissons Ratio (x) = 0.34703 0.55716
# Poissons Ratio (y) = 0.14268 0.27703
# Poissons Ratio (z) = 0.29302 0.35436
#
# Static dielectric constant tensor:
#      x y z
#    x 3.088530 0.000000 -0.151270 
#    y 0.000000 3.571820 0.000000 
#    z -0.151270 0.000000 3.478950 
# 
# 
# High freq. dielectric constant tensor:
#      x y z
#    x 1.701320 0.000000 -0.022900 
#    y 0.000000 1.747710 0.000000 
#    z -0.022900 0.000000 1.741000 
# 
# From -- ./inp_files/49155.got.cif
#   From: 2010.06.25/outbox.cif.g09.slc.cpg/sg11_25_cif.got.tgz:49155.got - 2010.06.27 23:14:04.
