data_PCOD8068739
_publ_section_title
;
Structure prediction by ZEFSAII (Michael W. Deem and Ramdas Pophale) SiO2 
 PCOD8068739
Probable space group: P 21/M
;
_chemical_formula_sum "Si O2"
_cell_formula_units_Z 24
_cell_length_a 13.714742
_cell_length_b 9.007942
_cell_length_c 25.989046
_cell_angle_alpha 90.000000
_cell_angle_beta 154.838196
_cell_angle_gamma 90.000000
_cell_volume 1365.124624
_symmetry_space_group_name_H-M "P 21/M"
_symmetry_group_IT_number 11
_symmetry_cell_setting 'monoclinic'
loop_
_space_group_symop_operation_xyz
x,y,z
-x,1/2+y,-z
-x,-y,-z
x,1/2-y,z
loop_
_atom_site_type_symbol
_atom_site_label
_atom_site_fract_x
_atom_site_fract_y
_atom_site_fract_z
Si Si1 0.628729 0.578032 0.251920
Si Si2 0.737808 0.424467 0.762898
Si Si3 0.100586 0.924625 0.996976
Si Si4 0.057802 0.583309 0.399596
Si Si5 0.436795 0.076028 0.522608
Si Si6 0.641638 0.080952 0.358542
O O1 0.654527 0.750000 0.280324
O O2 0.366527 0.536263 0.115074
O O3 0.728980 0.475280 0.345199
O O4 0.786517 0.546690 0.276490
O O5 0.779984 0.250000 0.786601
O O6 0.628863 0.471105 0.656098
O O7 0.568380 0.473437 0.727418
O O8 0.975666 0.510390 0.886359
O O9 0.058853 0.750000 0.981309
O O10 0.000000 0.000000 0.000000
O O11 0.096030 0.750000 0.396849
O O12 0.183874 0.473917 0.420251
O O13 0.156533 0.566250 0.504101
O O14 0.430923 0.250000 0.511507
O O15 0.500000 0.000000 0.500000
O O16 0.552748 0.250000 0.312570
#
# Coordination Sequence:
#
# PCOD8068739 Si02
#       6
#     4   4   4   4   4   4
#     4  10  20  32  47  69 104 143 173 208 253 300
#     4  10  20  34  51  74 104 136 173 214 256 302
#     4  11  21  32  49  73 105 145 182 213 248 295
#     4   9  19  34  50  73 103 134 169 210 259 311
#     4  10  21  37  59  82 102 128 164 215 270 315
#     4  10  18  28  47  72 100 136 174 210 250 301
#
# _framework density 17.580812000000002
#
# number of rings (size 3 to 8) (size 9 to 14) (size 15 to 20)
#    0.000    2.000    1.667    2.500    0.000    4.000 
#    0.000    0.000    0.000    1.000    0.000    0.000 
#    0.000    0.000    0.000    0.000    0.000    0.000 
#
# Total GULP energy -297571.743966 kJ/mol
# GULP energy per Si atom -12398.822665 kJ/mol
# Density = 1.754080 g / cm^3
# Si number density = 17.580812 Si / 1000 Ang^3
#
#
#
# Elastic Constant Matrix: (Units=GPa)
#
#
# Indices 1 2 3 4 5 6 
#
# 1 110.9465 52.5032 55.5892 0.0000 9.5426 0.0000
# 2 52.5032 81.0893 43.6418 0.0000 3.6462 0.0000
# 3 55.5892 43.6418 88.2491 0.0000 18.3582 0.0000
# 4 0.0000 0.0000 0.0000 27.3409 0.0000 -0.8382
# 5 9.5426 3.6462 18.3582 0.0000 22.8644 0.0000
# 6 0.0000 0.0000 0.0000 -0.8382 0.0000 29.7260
#
#
#
# Elastic Compliance Matrix: (Units=1/GPa)
#
#
# Indices 1 2 3 4 5 6 
#
# 1 0.015288 -0.006446 -0.006397 0.000000 -0.000216 0.000000
# 2 -0.006446 0.019972 -0.006859 0.000000 0.005012 0.000000
# 3 -0.006397 -0.006859 0.021574 0.000000 -0.013558 0.000000
# 4 0.000000 0.000000 0.000000 0.036607 0.000000 0.001032
# 5 -0.000216 0.005012 -0.013558 0.000000 0.053913 0.000000
# 6 0.000000 0.000000 0.000000 0.001032 0.000000 0.033670
#
#
# Mechanical properties :
#
#
# Convention : Reuss Voigt Hill
#
# Bulk Modulus (GPa) = 57.37617 64.86147 61.11882
# Shear Modulus (GPa) = 22.10082 24.55631 23.32856
#
# Velocity S-wave (km/s) = 3.54941 3.74139 3.64666
# Velocity P-wave (km/s) = 7.03592 7.45905 7.25057
#
# Compressibility (1/GPa) = 0.01742884
#
# Stress axis : x y z
#
# Youngs Moduli (GPa) = 65.41283 50.07125 46.35251
#
# Poissons Ratio (x) = 0.32274 0.29653
# Poissons Ratio (y) = 0.42162 0.31794
# Poissons Ratio (z) = 0.41847 0.34344
#
# Static dielectric constant tensor:
#      x y z
#    x 3.051180 0.000000 0.149860 
#    y 0.000000 3.353830 0.000000 
#    z 0.149860 0.000000 3.504550 
# 
# 
# High freq. dielectric constant tensor:
#      x y z
#    x 1.650980 0.000000 0.015940 
#    y 0.000000 1.690530 0.000000 
#    z 0.015940 0.000000 1.673920 
# 
# From -- ./inp_files/36890.got.cif
#   From: 2010.06.25/outbox.cif.g09.slc.cpg/sg11_19_cif.got.tgz:36890.got - 2010.06.27 23:14:04.
