data_PCOD8068145
_publ_section_title
;
Structure prediction by ZEFSAII (Michael W. Deem and Ramdas Pophale) SiO2 
 PCOD8068145
Probable space group: P 21/M
;
_chemical_formula_sum "Si O2"
_cell_formula_units_Z 32
_cell_length_a 11.286324
_cell_length_b 8.495702
_cell_length_c 19.186676
_cell_angle_alpha 90.000000
_cell_angle_beta 96.104638
_cell_angle_gamma 90.000000
_cell_volume 1829.286713
_symmetry_space_group_name_H-M "P 21/M"
_symmetry_group_IT_number 11
_symmetry_cell_setting 'monoclinic'
loop_
_space_group_symop_operation_xyz
x,y,z
-x,1/2+y,-z
-x,-y,-z
x,1/2-y,z
loop_
_atom_site_type_symbol
_atom_site_label
_atom_site_fract_x
_atom_site_fract_y
_atom_site_fract_z
Si Si1 0.014626 0.565982 0.793947
Si Si2 0.736630 0.934884 0.237337
Si Si3 0.814983 0.066006 0.375505
Si Si4 0.128744 0.063896 0.486236
Si Si5 0.582343 0.564149 0.101965
Si Si6 0.923179 0.063805 0.931846
Si Si7 0.666757 0.434962 0.968367
Si Si8 0.064843 0.566317 0.345453
O O1 0.041867 0.750000 0.790047
O O2 0.136549 0.472010 0.789721
O O3 0.962308 0.524759 0.865206
O O4 0.917807 0.515965 0.728764
O O5 0.726689 0.750000 0.249977
O O6 0.633437 0.997206 0.178883
O O7 0.717100 0.024262 0.310354
O O8 0.844793 0.250000 0.377384
O O9 0.777692 0.009127 0.451284
O O10 0.930362 0.965900 0.361214
O O11 0.133318 0.250000 0.489281
O O12 0.155906 0.005002 0.409146
O O13 0.000000 0.000000 0.500000
O O14 0.585129 0.750000 0.102199
O O15 0.447697 0.500508 0.082018
O O16 0.668793 0.507581 0.045574
O O17 0.940678 0.250000 0.924977
O O18 0.785887 0.016942 0.935551
O O19 0.000000 0.000000 0.000000
O O20 0.657641 0.250000 0.977291
O O21 0.089624 0.750000 0.339641
#
# Coordination Sequence:
#
# PCOD8068145 Si02
#       8
#     4   4   4   4   4   4   4   4
#     4  11  21  32  45  64  91 121 154 188 224 267
#     4  10  18  29  45  65  90 119 151 186 226 269
#     4  10  17  25  37  57  85 116 150 184 220 263
#     4  10  16  24  37  55  81 114 150 184 221 262
#     4   9  18  32  50  69  89 114 146 184 225 269
#     4  11  22  35  50  68  92 120 151 186 225 267
#     4   9  19  34  50  68  89 115 147 184 225 268
#     4  10  17  27  41  58  82 114 151 186 223 264
#
# _framework density 17.493157
#
# number of rings (size 3 to 8) (size 9 to 14) (size 15 to 20)
#    0.000    2.000    0.000    9.000    0.000    4.000 
#    0.000    0.000    0.000    0.000    0.000    0.000 
#    0.000    1.000    0.000    2.750    0.000    6.250 
#
# Total GULP energy -396643.685408 kJ/mol
# GULP energy per Si atom -12395.115169 kJ/mol
# Density = 1.745334 g / cm^3
# Si number density = 17.493157 Si / 1000 Ang^3
#
#
#
# Elastic Constant Matrix: (Units=GPa)
#
#
# Indices 1 2 3 4 5 6 
#
# 1 41.9050 10.4522 36.7835 0.0000 12.7050 0.0000
# 2 10.4522 66.0223 34.0107 0.0000 8.4536 0.0000
# 3 36.7835 34.0107 167.6411 0.0000 30.5115 0.0000
# 4 0.0000 0.0000 0.0000 34.4554 0.0000 2.6805
# 5 12.7050 8.4536 30.5115 0.0000 20.8168 0.0000
# 6 0.0000 0.0000 0.0000 2.6805 0.0000 13.2909
#
#
#
# Elastic Compliance Matrix: (Units=1/GPa)
#
#
# Indices 1 2 3 4 5 6 
#
# 1 0.031855 -0.001137 -0.004507 0.000000 -0.012374 0.000000
# 2 -0.001137 0.017051 -0.002831 0.000000 -0.002081 0.000000
# 3 -0.004507 -0.002831 0.009299 0.000000 -0.009730 0.000000
# 4 0.000000 0.000000 0.000000 0.029486 0.000000 -0.005947
# 5 -0.012374 -0.002081 -0.009730 0.000000 0.070696 0.000000
# 6 0.000000 0.000000 0.000000 -0.005947 0.000000 0.076439
#
#
# Mechanical properties :
#
#
# Convention : Reuss Voigt Hill
#
# Bulk Modulus (GPa) = 24.23915 48.67346 36.45631
# Shear Modulus (GPa) = 18.83046 26.66744 22.74895
#
# Velocity S-wave (km/s) = 3.28449 3.90866 3.61009
# Velocity P-wave (km/s) = 5.31698 6.94657 6.18567
#
# Compressibility (1/GPa) = 0.04125557
#
# Stress axis : x y z
#
# Youngs Moduli (GPa) = 31.39261 58.64665 107.53629
#
# Poissons Ratio (x) = 0.06668 0.48462
# Poissons Ratio (y) = 0.03569 0.30445
# Poissons Ratio (z) = 0.14147 0.16604
#
# Static dielectric constant tensor:
#      x y z
#    x 2.963510 0.000000 0.469430 
#    y 0.000000 3.300360 0.000000 
#    z 0.469430 0.000000 4.370300 
# 
# 
# High freq. dielectric constant tensor:
#      x y z
#    x 1.605340 0.000000 0.029230 
#    y 0.000000 1.689670 0.000000 
#    z 0.029230 0.000000 1.699040 
# 
# From -- ./inp_files/58701.got.cif
#   From: 2010.06.25/outbox.cif.g09.slc.cpg/sg11_30_cif.got.tgz:58701.got - 2010.06.27 23:14:04.
