data_PCOD8068669
_publ_section_title
;
Structure prediction by ZEFSAII (Michael W. Deem and Ramdas Pophale) SiO2 
 PCOD8068669
Probable space group: P 21/M
;
_chemical_formula_sum "Si O2"
_cell_formula_units_Z 24
_cell_length_a 14.102656
_cell_length_b 8.664517
_cell_length_c 26.504168
_cell_angle_alpha 90.000000
_cell_angle_beta 154.439682
_cell_angle_gamma 90.000000
_cell_volume 1397.336634
_symmetry_space_group_name_H-M "P 21/M"
_symmetry_group_IT_number 11
_symmetry_cell_setting 'monoclinic'
loop_
_space_group_symop_operation_xyz
x,y,z
-x,1/2+y,-z
-x,-y,-z
x,1/2-y,z
loop_
_atom_site_type_symbol
_atom_site_label
_atom_site_fract_x
_atom_site_fract_y
_atom_site_fract_z
Si Si1 0.007803 0.071945 0.423487
Si Si2 0.666689 0.929669 0.334006
Si Si3 0.833589 0.930474 0.246324
Si Si4 0.633402 0.929895 0.953577
Si Si5 0.737622 0.432672 0.101228
Si Si6 0.228009 0.430226 0.092446
O O1 0.983353 0.250000 0.397560
O O2 0.229517 0.037787 0.561105
O O3 0.794915 0.026833 0.353733
O O4 0.016562 0.975885 0.375673
O O5 0.685836 0.750000 0.329131
O O6 0.416025 0.984475 0.214917
O O7 0.832702 0.750000 0.236506
O O8 0.598384 0.983021 0.154959
O O9 0.895422 0.012330 0.222644
O O10 0.589497 0.750000 0.941599
O O11 0.744601 0.963730 0.953588
O O12 0.800276 0.995501 0.076735
O O13 0.735314 0.250000 0.096416
O O14 0.500000 0.500000 0.000000
O O15 0.237142 0.250000 0.109077
O O16 0.000000 0.500000 0.000000
#
# Coordination Sequence:
#
# PCOD8068669 Si02
#       6
#     4   4   4   4   4   4
#     4  10  19  31  48  72 101 132 163 201 247 297
#     4  10  20  33  50  71  98 130 167 205 247 296
#     4  11  19  28  46  71  99 132 163 198 242 298
#     4  10  19  32  47  67  96 129 163 205 247 291
#     4  10  18  28  44  66  95 128 160 199 242 296
#     4  11  23  36  53  72  99 133 171 211 247 290
#
# _framework density 17.175530999999999
#
# number of rings (size 3 to 8) (size 9 to 14) (size 15 to 20)
#    0.000    1.667    1.667    7.000    0.000    4.000 
#    0.000    0.000    0.000    0.000    0.000    1.167 
#    0.000    0.000    0.000    0.000    0.000    0.000 
#
# Total GULP energy -297592.561111 kJ/mol
# GULP energy per Si atom -12399.690046 kJ/mol
# Density = 1.713644 g / cm^3
# Si number density = 17.175531 Si / 1000 Ang^3
#
#
#
# Elastic Constant Matrix: (Units=GPa)
#
#
# Indices 1 2 3 4 5 6 
#
# 1 70.5656 38.1626 48.9308 0.0000 -21.7216 0.0000
# 2 38.1626 104.0866 36.8312 0.0000 -15.7702 0.0000
# 3 48.9308 36.8312 99.3324 0.0000 -17.6852 0.0000
# 4 0.0000 0.0000 0.0000 27.5075 0.0000 -7.4887
# 5 -21.7216 -15.7702 -17.6852 0.0000 32.7195 0.0000
# 6 0.0000 0.0000 0.0000 -7.4887 0.0000 27.3229
#
#
#
# Elastic Compliance Matrix: (Units=1/GPa)
#
#
# Indices 1 2 3 4 5 6 
#
# 1 0.026436 -0.004821 -0.009432 0.000000 0.010129 0.000000
# 2 -0.004821 0.012300 -0.001881 0.000000 0.001711 0.000000
# 3 -0.009432 -0.001881 0.015640 0.000000 0.001285 0.000000
# 4 0.000000 0.000000 0.000000 0.039285 0.000000 0.010767
# 5 0.010129 0.001711 0.001285 0.000000 0.038807 0.000000
# 6 0.000000 0.000000 0.000000 0.010767 0.000000 0.039550
#
#
# Mechanical properties :
#
#
# Convention : Reuss Voigt Hill
#
# Bulk Modulus (GPa) = 45.23153 57.98152 51.60653
# Shear Modulus (GPa) = 23.62347 27.51399 25.56873
#
# Velocity S-wave (km/s) = 3.71268 4.00675 3.86252
# Velocity P-wave (km/s) = 6.69109 7.43215 7.07134
#
# Compressibility (1/GPa) = 0.02210847
#
# Stress axis : x y z
#
# Youngs Moduli (GPa) = 37.82711 81.30220 63.94044
#
# Poissons Ratio (x) = 0.39192 0.60306
# Poissons Ratio (y) = 0.18235 0.12029
# Poissons Ratio (z) = 0.35677 0.15296
#
# Static dielectric constant tensor:
#      x y z
#    x 3.427480 0.000000 -0.667410 
#    y 0.000000 3.370440 0.000000 
#    z -0.667410 0.000000 3.239630 
# 
# 
# High freq. dielectric constant tensor:
#      x y z
#    x 1.638140 0.000000 -0.050050 
#    y 0.000000 1.685950 0.000000 
#    z -0.050050 0.000000 1.639290 
# 
# From -- ./inp_files/42263.got.cif
#   From: 2010.06.25/outbox.cif.g09.slc.cpg/sg11_22_cif.got.tgz:42263.got - 2010.06.27 23:14:04.
