data_PCOD8068123
_publ_section_title
;
Structure prediction by ZEFSAII (Michael W. Deem and Ramdas Pophale) SiO2 
 PCOD8068123
Probable space group: P 21/M
;
_chemical_formula_sum "Si O2"
_cell_formula_units_Z 32
_cell_length_a 17.184287
_cell_length_b 18.193213
_cell_length_c 11.077897
_cell_angle_alpha 90.000000
_cell_angle_beta 30.095098
_cell_angle_gamma 90.000000
_cell_volume 1736.658296
_symmetry_space_group_name_H-M "P 21/M"
_symmetry_group_IT_number 11
_symmetry_cell_setting 'monoclinic'
loop_
_space_group_symop_operation_xyz
x,y,z
-x,1/2+y,-z
-x,-y,-z
x,1/2-y,z
loop_
_atom_site_type_symbol
_atom_site_label
_atom_site_fract_x
_atom_site_fract_y
_atom_site_fract_z
Si Si1 0.056109 0.433577 0.222641
Si Si2 0.120851 0.066441 0.874809
Si Si3 0.013599 0.905152 0.262535
Si Si4 0.152178 0.333732 0.309810
Si Si5 0.272344 0.895087 0.445324
Si Si6 0.453705 0.332575 0.055762
Si Si7 0.871424 0.163175 0.124614
Si Si8 0.317160 0.443500 0.405230
O O1 0.135172 0.383856 0.216146
O O2 0.061322 0.517966 0.261335
O O3 0.887884 0.401347 0.412807
O O4 0.160081 0.434538 0.962851
O O5 0.290690 0.060384 0.585196
O O6 0.041748 0.144640 0.947865
O O7 0.000000 0.000000 0.000000
O O8 0.985378 0.847425 0.408505
O O9 0.853218 0.921259 0.410951
O O10 0.138540 0.873230 0.997203
O O11 0.143794 0.250000 0.278520
O O12 0.318352 0.353623 0.143927
O O13 0.380860 0.836583 0.232251
O O14 0.250588 0.871272 0.614881
O O15 0.362008 0.972960 0.313835
O O16 0.429933 0.250000 0.136471
O O17 0.446483 0.388020 0.180021
O O18 0.846252 0.250000 0.148197
#
# Coordination Sequence:
#
# PCOD8068123 Si02
#       8
#     4   4   4   4   4   4   4   4
#     4  10  18  31  55  76  97 129 165 210 260 296
#     4  10  15  31  49  76 104 126 157 214 254 293
#     4   9  16  31  49  71  99 130 164 205 250 302
#     4  10  21  33  46  70 103 133 166 205 249 302
#     4  10  18  32  52  77 100 127 167 214 252 297
#     4  10  21  34  48  70 104 140 172 205 246 302
#     4  10  17  26  49  78  99 125 165 211 256 292
#     4   9  16  30  52  72  97 133 168 205 254 297
#
# _framework density 18.426192
#
# number of rings (size 3 to 8) (size 9 to 14) (size 15 to 20)
#    0.000    2.250    5.000    1.500    0.000    5.500 
#    0.000    0.000    0.000    4.500    0.000    0.000 
#    0.000    0.000    0.000    0.000    0.000    0.000 
#
# Total GULP energy -396474.353635 kJ/mol
# GULP energy per Si atom -12389.823551 kJ/mol
# Density = 1.838425 g / cm^3
# Si number density = 18.426192 Si / 1000 Ang^3
#
#
#
# Elastic Constant Matrix: (Units=GPa)
#
#
# Indices 1 2 3 4 5 6 
#
# 1 36.0398 29.4318 20.4861 0.0000 12.3939 0.0000
# 2 29.4318 113.7558 33.0257 0.0000 8.5555 0.0000
# 3 20.4861 33.0257 92.8112 0.0000 18.1003 0.0000
# 4 0.0000 0.0000 0.0000 28.6755 0.0000 7.0396
# 5 12.3939 8.5555 18.1003 0.0000 18.4859 0.0000
# 6 0.0000 0.0000 0.0000 7.0396 0.0000 25.5618
#
#
#
# Elastic Compliance Matrix: (Units=1/GPa)
#
#
# Indices 1 2 3 4 5 6 
#
# 1 0.044475 -0.009163 -0.001938 0.000000 -0.023680 0.000000
# 2 -0.009163 0.011720 -0.002828 0.000000 0.003489 0.000000
# 3 -0.001938 -0.002828 0.014462 0.000000 -0.011552 0.000000
# 4 0.000000 0.000000 0.000000 0.037402 0.000000 -0.010300
# 5 -0.023680 0.003489 -0.011552 0.000000 0.079667 0.000000
# 6 0.000000 0.000000 0.000000 -0.010300 0.000000 0.041958
#
#
# Mechanical properties :
#
#
# Convention : Reuss Voigt Hill
#
# Bulk Modulus (GPa) = 23.36581 45.38820 34.37701
# Shear Modulus (GPa) = 18.39526 25.18887 21.79207
#
# Velocity S-wave (km/s) = 3.16305 3.70133 3.44272
# Velocity P-wave (km/s) = 5.10374 6.55380 5.87369
#
# Compressibility (1/GPa) = 0.04279758
#
# Stress axis : x y z
#
# Youngs Moduli (GPa) = 22.48437 85.32201 69.14872
#
# Poissons Ratio (x) = 0.78184 0.13403
# Poissons Ratio (y) = 0.20603 0.19557
# Poissons Ratio (z) = 0.04358 0.24131
#
# Static dielectric constant tensor:
#      x y z
#    x 2.994980 0.000000 0.447060 
#    y 0.000000 3.522830 0.000000 
#    z 0.447060 0.000000 3.612160 
# 
# 
# High freq. dielectric constant tensor:
#      x y z
#    x 1.656130 0.000000 0.039420 
#    y 0.000000 1.726740 0.000000 
#    z 0.039420 0.000000 1.714130 
# 
# From -- ./inp_files/43493.got.cif
#   From: 2010.06.25/outbox.cif.g09.slc.cpg/sg11_22_cif.got.tgz:43493.got - 2010.06.27 23:14:04.
