data_PCOD8068469
_publ_section_title
;
Structure prediction by ZEFSAII (Michael W. Deem and Ramdas Pophale) SiO2 
 PCOD8068469
Probable space group: P 21/M
;
_chemical_formula_sum "Si O2"
_cell_formula_units_Z 32
_cell_length_a 16.661520
_cell_length_b 22.264768
_cell_length_c 9.728024
_cell_angle_alpha 90.000000
_cell_angle_beta 150.827850
_cell_angle_gamma 90.000000
_cell_volume 1759.034676
_symmetry_space_group_name_H-M "P 21/M"
_symmetry_group_IT_number 11
_symmetry_cell_setting 'monoclinic'
loop_
_space_group_symop_operation_xyz
x,y,z
-x,1/2+y,-z
-x,-y,-z
x,1/2-y,z
loop_
_atom_site_type_symbol
_atom_site_label
_atom_site_fract_x
_atom_site_fract_y
_atom_site_fract_z
Si Si1 0.616723 0.317849 0.193820
Si Si2 0.854976 0.419736 0.830984
Si Si3 0.488628 0.877706 0.692864
Si Si4 0.667807 0.679956 0.709362
Si Si5 0.035252 0.681738 0.187661
Si Si6 0.613600 0.508228 0.034194
Si Si7 0.558895 0.897674 0.292136
Si Si8 0.844961 0.523776 0.602862
O O1 0.574268 0.250000 0.090794
O O2 0.562409 0.329753 0.268733
O O3 0.814040 0.329993 0.480390
O O4 0.514630 0.359086 0.940593
O O5 0.677550 0.402855 0.629260
O O6 0.951038 0.360465 0.924989
O O7 0.822071 0.461839 0.650120
O O8 0.965378 0.454229 0.108886
O O9 0.602020 0.843928 0.754822
O O10 0.587790 0.931887 0.909731
O O11 0.624237 0.750000 0.624603
O O12 0.580576 0.642818 0.458199
O O13 0.863411 0.669023 0.006652
O O14 0.041973 0.750000 0.142737
O O15 0.798361 0.511280 0.373526
O O16 0.500000 0.500000 0.000000
O O17 0.573344 0.451336 0.875985
O O18 0.733422 0.924855 0.506593
#
# Coordination Sequence:
#
# PCOD8068469 Si02
#       8
#     4   4   4   4   4   4   4   4
#     4  10  19  34  61  84 104 147 202 237 272 335
#     4  10  18  33  58  86 112 148 188 234 286 331
#     4  11  20  35  58  85 117 145 185 236 289 331
#     4  11  24  39  55  82 121 152 186 236 289 340
#     4   9  19  35  54  79 109 150 195 232 277 343
#     4  10  17  34  54  85 111 144 182 237 272 335
#     4  11  19  36  58  85 111 151 191 230 282 343
#     4  10  18  32  58  88 114 140 185 237 283 329
#
# _framework density 18.191796
#
# number of rings (size 3 to 8) (size 9 to 14) (size 15 to 20)
#    0.000    1.750    6.250    1.500    0.000    1.000 
#    0.000    1.250    0.000    2.250    0.000    0.000 
#    0.000    0.000    0.000    0.000    0.000    0.000 
#
# Total GULP energy -396655.835054 kJ/mol
# GULP energy per Si atom -12395.494845 kJ/mol
# Density = 1.815039 g / cm^3
# Si number density = 18.191796 Si / 1000 Ang^3
#
#
#
# Elastic Constant Matrix: (Units=GPa)
#
#
# Indices 1 2 3 4 5 6 
#
# 1 66.1410 31.8417 40.8023 0.0000 1.7356 0.0000
# 2 31.8417 104.0033 46.5875 0.0000 2.4847 0.0000
# 3 40.8023 46.5875 112.5575 0.0000 -1.6371 0.0000
# 4 0.0000 0.0000 0.0000 23.6252 0.0000 -2.4694
# 5 1.7356 2.4847 -1.6371 0.0000 15.7318 0.0000
# 6 0.0000 0.0000 0.0000 -2.4694 0.0000 28.1491
#
#
#
# Elastic Compliance Matrix: (Units=1/GPa)
#
#
# Indices 1 2 3 4 5 6 
#
# 1 0.020615 -0.003551 -0.006037 0.000000 -0.002342 0.000000
# 2 -0.003551 0.012505 -0.003917 0.000000 -0.001991 0.000000
# 3 -0.006037 -0.003917 0.012732 0.000000 0.002610 0.000000
# 4 0.000000 0.000000 0.000000 0.042719 0.000000 0.003748
# 5 -0.002342 -0.001991 0.002610 0.000000 0.064410 0.000000
# 6 0.000000 0.000000 0.000000 0.003748 0.000000 0.035854
#
#
# Mechanical properties :
#
#
# Convention : Reuss Voigt Hill
#
# Bulk Modulus (GPa) = 53.07791 57.90719 55.49255
# Shear Modulus (GPa) = 22.50979 24.39924 23.45451
#
# Velocity S-wave (km/s) = 3.52143 3.66624 3.59456
# Velocity P-wave (km/s) = 6.76566 7.05850 6.91363
#
# Compressibility (1/GPa) = 0.01884023
#
# Stress axis : x y z
#
# Youngs Moduli (GPa) = 48.50952 79.97069 78.54163
#
# Poissons Ratio (x) = 0.28399 0.47416
# Poissons Ratio (y) = 0.17226 0.30767
# Poissons Ratio (z) = 0.29285 0.31327
#
# Static dielectric constant tensor:
#      x y z
#    x 2.873160 0.000000 0.049170 
#    y 0.000000 3.701900 0.000000 
#    z 0.049170 0.000000 3.752400 
# 
# 
# High freq. dielectric constant tensor:
#      x y z
#    x 1.646350 0.000000 0.001850 
#    y 0.000000 1.727760 0.000000 
#    z 0.001850 0.000000 1.721430 
# 
# From -- ./inp_files/23401.got.cif
#   From: 2010.06.25/outbox.cif.g09.slc.cpg/sg11_12_cif.got.tgz:23401.got - 2010.06.27 23:14:04.
