data_PCOD8068703
_publ_section_title
;
Structure prediction by ZEFSAII (Michael W. Deem and Ramdas Pophale) SiO2 
 PCOD8068703
Probable space group: P 21/M
;
_chemical_formula_sum "Si O2"
_cell_formula_units_Z 32
_cell_length_a 19.632325
_cell_length_b 9.132390
_cell_length_c 14.452903
_cell_angle_alpha 90.000000
_cell_angle_beta 46.298091
_cell_angle_gamma 90.000000
_cell_volume 1873.337412
_symmetry_space_group_name_H-M "P 21/M"
_symmetry_group_IT_number 11
_symmetry_cell_setting 'monoclinic'
loop_
_space_group_symop_operation_xyz
x,y,z
-x,1/2+y,-z
-x,-y,-z
x,1/2-y,z
loop_
_atom_site_type_symbol
_atom_site_label
_atom_site_fract_x
_atom_site_fract_y
_atom_site_fract_z
Si Si1 0.150092 0.415321 0.045051
Si Si2 0.014627 0.076341 0.888030
Si Si3 0.687956 0.581624 0.979606
Si Si4 0.359391 0.078222 0.362416
Si Si5 0.778781 0.575680 0.357177
Si Si6 0.438133 0.578991 0.758957
Si Si7 0.594557 0.920488 0.881142
Si Si8 0.687758 0.582747 0.257054
O O1 0.110018 0.250000 0.086349
O O2 0.064748 0.527433 0.110493
O O3 0.205194 0.456133 0.088608
O O4 0.222522 0.431840 0.893261
O O5 0.011264 0.250000 0.905947
O O6 0.113524 0.023344 0.751489
O O7 0.000000 0.000000 0.000000
O O8 0.666583 0.750000 0.027354
O O9 0.676323 0.555765 0.880914
O O10 0.612902 0.482145 0.102395
O O11 0.346226 0.250000 0.363685
O O12 0.269143 0.014760 0.503287
O O13 0.451859 0.041840 0.335562
O O14 0.367085 0.011682 0.251567
O O15 0.775218 0.750000 0.357377
O O16 0.718186 0.516450 0.327195
O O17 0.418338 0.750000 0.773420
O O18 0.399949 0.508024 0.700446
O O19 0.569294 0.750000 0.893075
O O20 0.500000 0.000000 0.000000
O O21 0.654596 0.750000 0.296744
#
# Coordination Sequence:
#
# PCOD8068703 Si02
#       8
#     4   4   4   4   4   4   4   4
#     4   9  17  31  48  71  97 125 161 200 240 286
#     4  11  20  32  52  74  95 125 162 203 246 287
#     4   9  18  31  49  71  99 131 160 192 241 296
#     4   9  18  31  48  71  99 129 164 202 239 284
#     4   9  18  33  49  67  96 133 165 196 241 294
#     4  10  18  28  45  72 100 126 161 204 238 271
#     4  10  18  31  52  76  98 127 164 202 241 284
#     4   9  17  31  48  66  95 135 166 191 234 292
#
# _framework density 17.081814000000001
#
# number of rings (size 3 to 8) (size 9 to 14) (size 15 to 20)
#    0.000    2.500    2.500    1.500    0.000    2.500 
#    0.000    0.000    0.000    6.750    0.000    0.000 
#    0.000    0.000    0.000    0.000    0.000    0.375 
#
# Total GULP energy -396674.880757 kJ/mol
# GULP energy per Si atom -12396.090024 kJ/mol
# Density = 1.704293 g / cm^3
# Si number density = 17.081814 Si / 1000 Ang^3
#
#
#
# Elastic Constant Matrix: (Units=GPa)
#
#
# Indices 1 2 3 4 5 6 
#
# 1 124.8983 39.1910 72.2625 0.0000 6.2313 0.0000
# 2 39.1910 51.9138 31.4073 0.0000 -7.3109 0.0000
# 3 72.2625 31.4073 116.6903 0.0000 0.7938 0.0000
# 4 0.0000 0.0000 0.0000 15.2275 0.0000 -2.9491
# 5 6.2313 -7.3109 0.7938 0.0000 22.6895 0.0000
# 6 0.0000 0.0000 0.0000 -2.9491 0.0000 27.0283
#
#
#
# Elastic Compliance Matrix: (Units=1/GPa)
#
#
# Indices 1 2 3 4 5 6 
#
# 1 0.014868 -0.007856 -0.007049 0.000000 -0.006368 0.000000
# 2 -0.007856 0.028562 -0.002901 0.000000 0.011462 0.000000
# 3 -0.007049 -0.002901 0.013712 0.000000 0.000522 0.000000
# 4 0.000000 0.000000 0.000000 0.067089 0.000000 0.007320
# 5 -0.006368 0.011462 0.000522 0.000000 0.049497 0.000000
# 6 0.000000 0.000000 0.000000 0.007320 0.000000 0.037797
#
#
# Mechanical properties :
#
#
# Convention : Reuss Voigt Hill
#
# Bulk Modulus (GPa) = 46.44565 64.35820 55.40193
# Shear Modulus (GPa) = 19.66072 23.03184 21.34628
#
# Velocity S-wave (km/s) = 3.39628 3.67594 3.53887
# Velocity P-wave (km/s) = 6.52907 7.46826 7.01440
#
# Compressibility (1/GPa) = 0.02153054
#
# Stress axis : x y z
#
# Youngs Moduli (GPa) = 67.25896 35.01097 72.92726
#
# Poissons Ratio (x) = 0.27505 0.51409
# Poissons Ratio (y) = 0.52839 0.21153
# Poissons Ratio (z) = 0.47414 0.10155
#
# Static dielectric constant tensor:
#      x y z
#    x 3.503580 0.000000 0.089040 
#    y 0.000000 3.024040 0.000000 
#    z 0.089040 0.000000 3.206510 
# 
# 
# High freq. dielectric constant tensor:
#      x y z
#    x 1.668590 0.000000 0.003140 
#    y 0.000000 1.636990 0.000000 
#    z 0.003140 0.000000 1.633840 
# 
# From -- ./inp_files/54228.got.cif
#   From: 2010.06.25/outbox.cif.g09.slc.cpg/sg11_28_cif.got.tgz:54228.got - 2010.06.27 23:14:04.
