data_PCOD8068798
_publ_section_title
;
Structure prediction by ZEFSAII (Michael W. Deem and Ramdas Pophale) SiO2 
 PCOD8068798
Probable space group: P 21/M
;
_chemical_formula_sum "Si O2"
_cell_formula_units_Z 32
_cell_length_a 20.833846
_cell_length_b 8.759742
_cell_length_c 31.630159
_cell_angle_alpha 90.000000
_cell_angle_beta 159.909604
_cell_angle_gamma 90.000000
_cell_volume 1982.858670
_symmetry_space_group_name_H-M "P 21/M"
_symmetry_group_IT_number 11
_symmetry_cell_setting 'monoclinic'
loop_
_space_group_symop_operation_xyz
x,y,z
-x,1/2+y,-z
-x,-y,-z
x,1/2-y,z
loop_
_atom_site_type_symbol
_atom_site_label
_atom_site_fract_x
_atom_site_fract_y
_atom_site_fract_z
Si Si1 0.715206 0.081903 0.821563
Si Si2 0.047608 0.082084 0.093127
Si Si3 0.061562 0.431970 0.493877
Si Si4 0.238394 0.928484 0.757895
Si Si5 0.538094 0.070162 0.270188
Si Si6 0.253350 0.568320 0.029583
Si Si7 0.302592 0.929374 0.888778
Si Si8 0.658609 0.568969 0.003247
O O1 0.625550 0.250000 0.760731
O O2 0.779623 0.022697 0.815092
O O3 0.565245 0.968794 0.749786
O O4 0.895371 0.092567 0.962224
O O5 0.129428 0.250000 0.152930
O O6 0.942853 0.017582 0.070011
O O7 0.060705 0.250000 0.495656
O O8 0.263324 0.489835 0.605577
O O9 0.000000 0.500000 0.500000
O O10 0.916917 0.497216 0.369342
O O11 0.251509 0.750000 0.758366
O O12 0.178843 0.961896 0.770012
O O13 0.444987 0.992527 0.874443
O O14 0.562595 0.250000 0.280803
O O15 0.426475 0.009427 0.160524
O O16 0.278685 0.750000 0.048450
O O17 0.243773 0.511070 0.975948
O O18 0.320089 0.750000 0.908473
O O19 0.227123 0.013891 0.884198
O O20 0.500000 0.000000 0.000000
O O21 0.672556 0.750000 0.007567
#
# Coordination Sequence:
#
# PCOD8068798 Si02
#       8
#     4   4   4   4   4   4   4   4
#     4   9  16  27  43  61  81 110 147 181 215 258
#     4   8  15  26  40  60  85 111 141 177 217 258
#     4  11  21  34  48  64  87 117 154 191 224 258
#     4   8  17  31  46  61  82 113 148 185 220 255
#     4  11  21  32  44  61  87 119 152 187 224 260
#     4  10  19  30  44  64  89 119 151 181 216 262
#     4   9  16  29  46  64  84 110 144 181 222 264
#     4  10  18  29  45  67  91 115 143 178 223 269
#
# _framework density 16.138316
#
# number of rings (size 3 to 8) (size 9 to 14) (size 15 to 20)
#    0.000    2.500    0.000    5.250    0.000    4.500 
#    0.000    6.875    0.000    0.000    0.000    0.000 
#    0.000    1.000    0.000    3.000    0.000    4.250 
#
# Total GULP energy -396589.587852 kJ/mol
# GULP energy per Si atom -12393.424620 kJ/mol
# Density = 1.610158 g / cm^3
# Si number density = 16.138316 Si / 1000 Ang^3
#
#
#
# Elastic Constant Matrix: (Units=GPa)
#
#
# Indices 1 2 3 4 5 6 
#
# 1 137.0608 36.2990 43.0393 0.0000 -10.4787 0.0000
# 2 36.2990 72.6884 20.9889 0.0000 -4.0988 0.0000
# 3 43.0393 20.9889 49.4176 0.0000 -10.5559 0.0000
# 4 0.0000 0.0000 0.0000 16.0636 0.0000 0.5045
# 5 -10.4787 -4.0988 -10.5559 0.0000 20.6054 0.0000
# 6 0.0000 0.0000 0.0000 0.5045 0.0000 29.8844
#
#
#
# Elastic Compliance Matrix: (Units=1/GPa)
#
#
# Indices 1 2 3 4 5 6 
#
# 1 0.010596 -0.002999 -0.007782 0.000000 0.000805 0.000000
# 2 -0.002999 0.016531 -0.004528 0.000000 -0.000556 0.000000
# 3 -0.007782 -0.004528 0.031327 0.000000 0.011190 0.000000
# 4 0.000000 0.000000 0.000000 0.062286 0.000000 -0.001052
# 5 0.000805 -0.000556 0.011190 0.000000 0.054562 0.000000
# 6 0.000000 0.000000 0.000000 -0.001052 0.000000 0.033480
#
#
# Mechanical properties :
#
#
# Convention : Reuss Voigt Hill
#
# Bulk Modulus (GPa) = 35.92614 51.09124 43.50869
# Shear Modulus (GPa) = 20.10626 23.89999 22.00312
#
# Velocity S-wave (km/s) = 3.53352 3.85248 3.69644
# Velocity P-wave (km/s) = 6.24159 7.17746 6.72582
#
# Compressibility (1/GPa) = 0.02783488
#
# Stress axis : x y z
#
# Youngs Moduli (GPa) = 94.37955 60.49238 31.92107
#
# Poissons Ratio (x) = 0.18139 0.24842
# Poissons Ratio (y) = 0.28301 0.14455
# Poissons Ratio (z) = 0.73450 0.27394
#
# Static dielectric constant tensor:
#      x y z
#    x 3.386580 0.000000 -0.149990 
#    y 0.000000 3.219850 0.000000 
#    z -0.149990 0.000000 2.832630 
# 
# 
# High freq. dielectric constant tensor:
#      x y z
#    x 1.629410 0.000000 -0.001890 
#    y 0.000000 1.628570 0.000000 
#    z -0.001890 0.000000 1.562710 
# 
# From -- ./inp_files/51184.got.cif
#   From: 2010.06.25/outbox.cif.g09.slc.cpg/sg11_26_cif.got.tgz:51184.got - 2010.06.27 23:14:04.
