data_PCOD8068809
_publ_section_title
;
Structure prediction by ZEFSAII (Michael W. Deem and Ramdas Pophale) SiO2 
 PCOD8068809
Probable space group: P 21/M
;
_chemical_formula_sum "Si O2"
_cell_formula_units_Z 28
_cell_length_a 9.811068
_cell_length_b 9.255293
_cell_length_c 29.217600
_cell_angle_alpha 90.000000
_cell_angle_beta 141.988818
_cell_angle_gamma 90.000000
_cell_volume 1633.809584
_symmetry_space_group_name_H-M "P 21/M"
_symmetry_group_IT_number 11
_symmetry_cell_setting 'monoclinic'
loop_
_space_group_symop_operation_xyz
x,y,z
-x,1/2+y,-z
-x,-y,-z
x,1/2-y,z
loop_
_atom_site_type_symbol
_atom_site_label
_atom_site_fract_x
_atom_site_fract_y
_atom_site_fract_z
Si Si1 0.216818 0.421339 0.295547
Si Si2 0.790983 0.917574 0.201949
Si Si3 0.873335 0.581176 0.900901
Si Si4 0.682023 0.584059 0.576000
Si Si5 0.694245 0.414957 0.938706
Si Si6 0.821172 0.081892 0.302710
Si Si7 0.577597 0.920224 0.741926
O O1 0.176745 0.250000 0.284366
O O2 0.315673 0.469704 0.370640
O O3 0.380703 0.477068 0.298697
O O4 0.980349 0.497041 0.224845
O O5 0.857289 0.750000 0.224083
O O6 0.560213 0.936935 0.113066
O O7 0.754744 0.983022 0.242674
O O8 0.824163 0.750000 0.889940
O O9 0.742753 0.514634 0.908557
O O10 0.770280 0.518364 0.826543
O O11 0.136837 0.547038 0.974848
O O12 0.500000 0.500000 0.500000
O O13 0.614215 0.750000 0.556094
O O14 0.921959 0.557053 0.616414
O O15 0.733657 0.250000 0.933493
O O16 0.782574 0.250000 0.279254
O O17 0.666485 0.035140 0.304624
O O18 0.597186 0.750000 0.745079
#
# Coordination Sequence:
#
# PCOD8068809 Si02
#       7
#     4   4   4   4   4   4   4
#     4   9  19  34  51  71  94 124 160 197 233 277
#     4  10  18  29  45  68  98 130 160 197 237 280
#     4   9  16  27  46  68  91 124 161 199 236 275
#     4   9  18  32  51  72  96 121 151 190 230 278
#     4   9  17  27  41  67  98 124 157 199 241 275
#     4   9  17  31  52  75  93 120 161 198 228 273
#     4   9  16  30  52  73  93 121 162 203 235 270
#
# _framework density 17.13786
#
# number of rings (size 3 to 8) (size 9 to 14) (size 15 to 20)
#    0.000    2.857    1.429    1.286    0.000    2.857 
#    0.000    2.857    0.000    0.000    0.000    0.000 
#    0.000    0.000    0.000    0.000    0.000    0.000 
#
# Total GULP energy -346980.911305 kJ/mol
# GULP energy per Si atom -12392.175404 kJ/mol
# Density = 1.709885 g / cm^3
# Si number density = 17.137860 Si / 1000 Ang^3
#
#
#
# Elastic Constant Matrix: (Units=GPa)
#
#
# Indices 1 2 3 4 5 6 
#
# 1 133.4728 22.3307 60.5453 0.0000 4.4647 0.0000
# 2 22.3307 35.9691 27.7496 0.0000 3.0876 0.0000
# 3 60.5453 27.7496 120.0018 0.0000 7.3094 0.0000
# 4 0.0000 0.0000 0.0000 24.8156 0.0000 3.2538
# 5 4.4647 3.0876 7.3094 0.0000 19.2500 0.0000
# 6 0.0000 0.0000 0.0000 3.2538 0.0000 15.3642
#
#
#
# Elastic Compliance Matrix: (Units=1/GPa)
#
#
# Indices 1 2 3 4 5 6 
#
# 1 0.009943 -0.002793 -0.004359 0.000000 -0.000203 0.000000
# 2 -0.002793 0.034742 -0.006474 0.000000 -0.002466 0.000000
# 3 -0.004359 -0.006474 0.012186 0.000000 -0.002578 0.000000
# 4 0.000000 0.000000 0.000000 0.041448 0.000000 -0.008778
# 5 -0.000203 -0.002466 -0.002578 0.000000 0.053370 0.000000
# 6 0.000000 0.000000 0.000000 -0.008778 0.000000 0.066945
#
#
# Mechanical properties :
#
#
# Convention : Reuss Voigt Hill
#
# Bulk Modulus (GPa) = 33.76113 56.74386 45.25249
# Shear Modulus (GPa) = 19.54953 23.80717 21.67835
#
# Velocity S-wave (km/s) = 3.38112 3.73118 3.56046
# Velocity P-wave (km/s) = 5.91482 7.19336 6.58519
#
# Compressibility (1/GPa) = 0.02961986
#
# Stress axis : x y z
#
# Youngs Moduli (GPa) = 100.56965 28.78335 82.05848
#
# Poissons Ratio (x) = 0.08040 0.35765
# Poissons Ratio (y) = 0.28091 0.53128
# Poissons Ratio (z) = 0.43833 0.18636
#
# Static dielectric constant tensor:
#      x y z
#    x 3.398900 0.000000 0.082260 
#    y 0.000000 3.078170 0.000000 
#    z 0.082260 0.000000 3.290160 
# 
# 
# High freq. dielectric constant tensor:
#      x y z
#    x 1.642700 0.000000 0.016170 
#    y 0.000000 1.646790 0.000000 
#    z 0.016170 0.000000 1.658000 
# 
# From -- ./inp_files/29029.got.cif
#   From: 2010.06.25/outbox.cif.g09.slc.cpg/sg11_15_cif.got.tgz:29029.got - 2010.06.27 23:14:04.
