data_PCOD8068512
_publ_section_title
;
Structure prediction by ZEFSAII (Michael W. Deem and Ramdas Pophale) SiO2 
 PCOD8068512
Probable space group: P 21/M
;
_chemical_formula_sum "Si O2"
_cell_formula_units_Z 28
_cell_length_a 14.968011
_cell_length_b 8.992483
_cell_length_c 21.581170
_cell_angle_alpha 90.000000
_cell_angle_beta 40.598088
_cell_angle_gamma 90.000000
_cell_volume 1890.306092
_symmetry_space_group_name_H-M "P 21/M"
_symmetry_group_IT_number 11
_symmetry_cell_setting 'monoclinic'
loop_
_space_group_symop_operation_xyz
x,y,z
-x,1/2+y,-z
-x,-y,-z
x,1/2-y,z
loop_
_atom_site_type_symbol
_atom_site_label
_atom_site_fract_x
_atom_site_fract_y
_atom_site_fract_z
Si Si1 0.954523 0.077223 0.461588
Si Si2 0.707110 0.583328 0.018840
Si Si3 0.402844 0.924182 0.815751
Si Si4 0.135667 0.081836 0.949321
Si Si5 0.673322 0.080814 0.660178
Si Si6 0.646683 0.574836 0.915488
Si Si7 0.810635 0.075632 0.719257
O O1 0.995571 0.250000 0.441636
O O2 0.788903 0.058940 0.545659
O O3 0.000000 0.000000 0.500000
O O4 0.035817 0.996331 0.362860
O O5 0.644228 0.750000 0.055792
O O6 0.730047 0.540887 0.935314
O O7 0.598181 0.474061 0.110771
O O8 0.850697 0.576824 0.982202
O O9 0.387007 0.750000 0.817565
O O10 0.272545 0.001520 0.849659
O O11 0.545700 0.975664 0.710186
O O12 0.130275 0.250000 0.927242
O O13 0.000000 0.000000 0.000000
O O14 0.620940 0.250000 0.688628
O O15 0.734757 0.038987 0.694924
O O16 0.631481 0.750000 0.910815
O O17 0.727737 0.498706 0.817925
O O18 0.500000 0.500000 0.000000
O O19 0.824424 0.250000 0.724021
#
# Coordination Sequence:
#
# PCOD8068512 Si02
#       7
#     4   4   4   4   4   4   4
#     4   9  17  29  44  60  80 110 146 186 228 267
#     4   8  18  32  43  57  86 118 144 179 219 256
#     4  10  18  26  42  65  86 111 143 175 214 260
#     4   9  17  31  47  64  88 115 143 178 221 267
#     4   9  17  29  42  58  84 114 144 181 225 262
#     4  11  21  32  44  61  86 120 155 187 222 257
#     4  10  20  31  43  60  84 115 151 190 226 260
#
# _framework density 14.812415
#
# number of rings (size 3 to 8) (size 9 to 14) (size 15 to 20)
#    0.857    1.714    0.000    4.286    0.000    8.000 
#    0.000    0.000    0.000    0.000    0.000    0.000 
#    0.000    1.143    0.000    3.429    0.000    4.571 
#
# Total GULP energy -346877.651241 kJ/mol
# GULP energy per Si atom -12388.487544 kJ/mol
# Density = 1.477870 g / cm^3
# Si number density = 14.812415 Si / 1000 Ang^3
#
#
#
# Elastic Constant Matrix: (Units=GPa)
#
#
# Indices 1 2 3 4 5 6 
#
# 1 54.0125 37.6122 36.3789 0.0000 -13.7818 0.0000
# 2 37.6122 121.2241 62.4204 0.0000 -16.2283 0.0000
# 3 36.3789 62.4204 119.4601 0.0000 -13.4180 0.0000
# 4 0.0000 0.0000 0.0000 29.9117 0.0000 -4.7513
# 5 -13.7818 -16.2283 -13.4180 0.0000 19.5970 0.0000
# 6 0.0000 0.0000 0.0000 -4.7513 0.0000 20.9014
#
#
#
# Elastic Compliance Matrix: (Units=1/GPa)
#
#
# Indices 1 2 3 4 5 6 
#
# 1 0.028159 -0.004585 -0.004747 0.000000 0.012756 0.000000
# 2 -0.004585 0.012664 -0.004772 0.000000 0.003995 0.000000
# 3 -0.004747 -0.004772 0.012449 0.000000 0.001234 0.000000
# 4 0.000000 0.000000 0.000000 0.034684 0.000000 0.007884
# 5 0.012756 0.003995 0.001234 0.000000 0.064152 0.000000
# 6 0.000000 0.000000 0.000000 0.007884 0.000000 0.049636
#
#
# Mechanical properties :
#
#
# Convention : Reuss Voigt Hill
#
# Bulk Modulus (GPa) = 39.89819 63.05775 51.47797
# Shear Modulus (GPa) = 20.98147 24.63438 22.80793
#
# Velocity S-wave (km/s) = 3.76770 4.08252 3.92827
# Velocity P-wave (km/s) = 6.77654 8.05518 7.44337
#
# Compressibility (1/GPa) = 0.02506380
#
# Stress axis : x y z
#
# Youngs Moduli (GPa) = 35.51269 78.96493 80.33073
#
# Poissons Ratio (x) = 0.36206 0.38129
# Poissons Ratio (y) = 0.16283 0.38335
# Poissons Ratio (z) = 0.16856 0.37683
#
# Static dielectric constant tensor:
#      x y z
#    x 2.589170 0.000000 -0.084070 
#    y 0.000000 3.098710 0.000000 
#    z -0.084070 0.000000 3.031090 
# 
# 
# High freq. dielectric constant tensor:
#      x y z
#    x 1.519210 0.000000 -0.017470 
#    y 0.000000 1.585050 0.000000 
#    z -0.017470 0.000000 1.557680 
# 
# From -- ./inp_files/69369.got.cif
#   From: 2010.06.25/outbox.cif.g09.slc.cpg/sg11_35_cif.got.tgz:69369.got - 2010.06.27 23:14:04.
