data_PCOD8068931
_publ_section_title
;
Structure prediction by ZEFSAII (Michael W. Deem and Ramdas Pophale) SiO2 
 PCOD8068931
Probable space group: P 21/M
;
_chemical_formula_sum "Si O2"
_cell_formula_units_Z 28
_cell_length_a 14.937135
_cell_length_b 8.997093
_cell_length_c 18.951019
_cell_angle_alpha 90.000000
_cell_angle_beta 142.288988
_cell_angle_gamma 90.000000
_cell_volume 1557.850304
_symmetry_space_group_name_H-M "P 21/M"
_symmetry_group_IT_number 11
_symmetry_cell_setting 'monoclinic'
loop_
_space_group_symop_operation_xyz
x,y,z
-x,1/2+y,-z
-x,-y,-z
x,1/2-y,z
loop_
_atom_site_type_symbol
_atom_site_label
_atom_site_fract_x
_atom_site_fract_y
_atom_site_fract_z
Si Si1 0.211068 0.075552 0.077963
Si Si2 0.837998 0.075627 0.667886
Si Si3 0.119942 0.574081 0.886065
Si Si4 0.497438 0.581204 0.215150
Si Si5 0.434786 0.918946 0.025698
Si Si6 0.711679 0.422865 0.738686
Si Si7 0.621943 0.918502 0.434295
O O1 0.180830 0.250000 0.059167
O O2 0.376645 0.039821 0.159133
O O3 0.187331 0.010668 0.141917
O O4 0.103986 0.999141 0.953928
O O5 0.867933 0.250000 0.683537
O O6 0.756185 0.026507 0.688344
O O7 0.737816 0.030545 0.539525
O O8 0.990985 0.989142 0.756762
O O9 0.108056 0.750000 0.885926
O O10 0.272653 0.524577 0.945252
O O11 0.430775 0.750000 0.181497
O O12 0.542037 0.558065 0.160928
O O13 0.630526 0.564199 0.353800
O O14 0.425878 0.750000 0.996943
O O15 0.500000 0.000000 0.000000
O O16 0.741247 0.250000 0.769591
O O17 0.540818 0.461435 0.641692
O O18 0.659825 0.750000 0.480666
#
# Coordination Sequence:
#
# PCOD8068931 Si02
#       7
#     4   4   4   4   4   4   4
#     4  10  18  29  49  74  97 125 166 213 251 285
#     4  11  22  33  48  72 100 131 171 216 251 283
#     4  10  21  37  52  69 100 137 165 193 246 311
#     4   8  16  32  51  73 102 134 163 193 241 299
#     4   9  18  33  56  82 103 124 153 194 243 297
#     4   9  19  34  49  68  98 135 172 209 251 295
#     4   9  17  32  52  70  96 136 173 203 241 292
#
# _framework density 17.973486000000001
#
# number of rings (size 3 to 8) (size 9 to 14) (size 15 to 20)
#    0.000    2.571    0.000    4.286    0.000    6.857 
#    0.000    0.000    0.000    0.857    0.000    0.000 
#    0.000    0.000    0.000    0.000    0.000    0.000 
#
# Total GULP energy -347073.237127 kJ/mol
# GULP energy per Si atom -12395.472755 kJ/mol
# Density = 1.793258 g / cm^3
# Si number density = 17.973486 Si / 1000 Ang^3
#
#
#
# Elastic Constant Matrix: (Units=GPa)
#
#
# Indices 1 2 3 4 5 6 
#
# 1 81.7911 36.4955 53.8151 0.0000 -20.5901 0.0000
# 2 36.4955 78.5887 43.9164 0.0000 -3.9599 0.0000
# 3 53.8151 43.9164 111.1138 0.0000 -12.6249 0.0000
# 4 0.0000 0.0000 0.0000 32.0240 0.0000 -3.8681
# 5 -20.5901 -3.9599 -12.6249 0.0000 23.0701 0.0000
# 6 0.0000 0.0000 0.0000 -3.8681 0.0000 25.7587
#
#
#
# Elastic Compliance Matrix: (Units=1/GPa)
#
#
# Indices 1 2 3 4 5 6 
#
# 1 0.023865 -0.006208 -0.007257 0.000000 0.016263 0.000000
# 2 -0.006208 0.017959 -0.004661 0.000000 -0.005008 0.000000
# 3 -0.007257 -0.004661 0.014427 0.000000 0.000618 0.000000
# 4 0.000000 0.000000 0.000000 0.031803 0.000000 0.004776
# 5 0.016263 -0.005008 0.000618 0.000000 0.057339 0.000000
# 6 0.000000 0.000000 0.000000 0.004776 0.000000 0.039539
#
#
# Mechanical properties :
#
#
# Convention : Reuss Voigt Hill
#
# Bulk Modulus (GPa) = 49.99966 59.99418 54.99692
# Shear Modulus (GPa) = 21.94419 25.32167 23.63293
#
# Velocity S-wave (km/s) = 3.49796 3.75752 3.63006
# Velocity P-wave (km/s) = 6.64780 7.23028 6.94515
#
# Compressibility (1/GPa) = 0.02000014
#
# Stress axis : x y z
#
# Youngs Moduli (GPa) = 41.90235 55.68116 69.31519
#
# Poissons Ratio (x) = 0.34566 0.50302
# Poissons Ratio (y) = 0.26012 0.32306
# Poissons Ratio (z) = 0.30409 0.25951
#
# Static dielectric constant tensor:
#      x y z
#    x 3.095830 0.000000 -0.249340 
#    y 0.000000 3.222200 0.000000 
#    z -0.249340 0.000000 3.447430 
# 
# 
# High freq. dielectric constant tensor:
#      x y z
#    x 1.657630 0.000000 -0.020650 
#    y 0.000000 1.695780 0.000000 
#    z -0.020650 0.000000 1.698390 
# 
# From -- ./inp_files/37111.got.cif
#   From: 2010.06.25/outbox.cif.g09.slc.cpg/sg11_19_cif.got.tgz:37111.got - 2010.06.27 23:14:04.
