data_PCOD8068939
_publ_section_title
;
Structure prediction by ZEFSAII (Michael W. Deem and Ramdas Pophale) SiO2 
 PCOD8068939
Probable space group: P 21/M
;
_chemical_formula_sum "Si O2"
_cell_formula_units_Z 32
_cell_length_a 25.376702
_cell_length_b 9.036824
_cell_length_c 21.085145
_cell_angle_alpha 90.000000
_cell_angle_beta 22.053121
_cell_angle_gamma 90.000000
_cell_volume 1815.508468
_symmetry_space_group_name_H-M "P 21/M"
_symmetry_group_IT_number 11
_symmetry_cell_setting 'monoclinic'
loop_
_space_group_symop_operation_xyz
x,y,z
-x,1/2+y,-z
-x,-y,-z
x,1/2-y,z
loop_
_atom_site_type_symbol
_atom_site_label
_atom_site_fract_x
_atom_site_fract_y
_atom_site_fract_z
Si Si1 0.028084 0.418199 0.662772
Si Si2 0.617687 0.925801 0.826461
Si Si3 0.694353 0.075851 0.617961
Si Si4 0.071636 0.417926 0.477438
Si Si5 0.927024 0.417124 0.905928
Si Si6 0.404842 0.423399 0.520622
Si Si7 0.678867 0.923325 0.247095
Si Si8 0.748600 0.577753 0.434156
O O1 0.092880 0.250000 0.596404
O O2 0.907544 0.435718 0.850816
O O3 0.144158 0.540713 0.547443
O O4 0.976876 0.440290 0.647263
O O5 0.597909 0.750000 0.846232
O O6 0.769786 0.971503 0.685134
O O7 0.599492 0.992559 0.776116
O O8 0.500000 0.000000 0.000000
O O9 0.665045 0.250000 0.653416
O O10 0.661940 0.013751 0.583738
O O11 0.075236 0.250000 0.451795
O O12 0.000000 0.500000 0.500000
O O13 0.889579 0.250000 0.968153
O O14 0.086209 0.456489 0.746875
O O15 0.827934 0.528617 0.053352
O O16 0.433328 0.250000 0.487808
O O17 0.329896 0.472264 0.669563
O O18 0.554820 0.501553 0.345576
O O19 0.305063 0.474014 0.574695
O O20 0.663340 0.750000 0.256583
O O21 0.719068 0.750000 0.478950
#
# Coordination Sequence:
#
# PCOD8068939 Si02
#       8
#     4   4   4   4   4   4   4   4
#     4   8  16  32  50  69  97 133 168 200 239 294
#     4  10  20  35  53  74 101 135 172 208 246 293
#     4  10  18  29  49  76 102 129 161 202 253 300
#     4   9  18  32  51  74 100 129 164 204 244 289
#     4   9  17  31  52  74  97 128 165 203 244 293
#     4   9  19  36  54  70  95 134 171 200 242 299
#     4  10  20  33  50  74 102 130 163 204 248 295
#     4   9  18  34  54  74  97 129 168 205 242 292
#
# _framework density 17.625916
#
# number of rings (size 3 to 8) (size 9 to 14) (size 15 to 20)
#    0.000    2.750    0.000    3.375    0.000    6.000 
#    0.000    1.250    0.000    4.500    0.000    0.000 
#    0.000    0.000    0.000    0.000    0.000    0.000 
#
# Total GULP energy -396627.988417 kJ/mol
# GULP energy per Si atom -12394.624638 kJ/mol
# Density = 1.758580 g / cm^3
# Si number density = 17.625916 Si / 1000 Ang^3
#
#
#
# Elastic Constant Matrix: (Units=GPa)
#
#
# Indices 1 2 3 4 5 6 
#
# 1 132.2578 44.9854 55.2114 0.0000 14.6811 0.0000
# 2 44.9854 70.4015 43.2466 0.0000 8.9381 0.0000
# 3 55.2114 43.2466 98.3893 0.0000 18.5081 0.0000
# 4 0.0000 0.0000 0.0000 32.5014 0.0000 3.2632
# 5 14.6811 8.9381 18.5081 0.0000 19.9385 0.0000
# 6 0.0000 0.0000 0.0000 3.2632 0.0000 28.0743
#
#
#
# Elastic Compliance Matrix: (Units=1/GPa)
#
#
# Indices 1 2 3 4 5 6 
#
# 1 0.010874 -0.004342 -0.003699 0.000000 -0.002626 0.000000
# 2 -0.004342 0.021207 -0.006903 0.000000 0.000099 0.000000
# 3 -0.003699 -0.006903 0.017179 0.000000 -0.010128 0.000000
# 4 0.000000 0.000000 0.000000 0.031131 0.000000 -0.003618
# 5 -0.002626 0.000099 -0.010128 0.000000 0.061445 0.000000
# 6 0.000000 0.000000 0.000000 -0.003618 0.000000 0.036040
#
#
# Mechanical properties :
#
#
# Convention : Reuss Voigt Hill
#
# Bulk Modulus (GPa) = 51.62577 65.32617 58.47597
# Shear Modulus (GPa) = 23.34016 26.60985 24.97501
#
# Velocity S-wave (km/s) = 3.64290 3.88970 3.76832
# Velocity P-wave (km/s) = 6.85912 7.57074 7.22370
#
# Compressibility (1/GPa) = 0.01937017
#
# Stress axis : x y z
#
# Youngs Moduli (GPa) = 91.96497 47.15425 58.21062
#
# Poissons Ratio (x) = 0.20476 0.21533
# Poissons Ratio (y) = 0.39935 0.40184
# Poissons Ratio (z) = 0.34019 0.32552
#
# Static dielectric constant tensor:
#      x y z
#    x 3.429840 0.000000 0.310810 
#    y 0.000000 3.198190 0.000000 
#    z 0.310810 0.000000 3.181500 
# 
# 
# High freq. dielectric constant tensor:
#      x y z
#    x 1.677080 0.000000 0.027410 
#    y 0.000000 1.680970 0.000000 
#    z 0.027410 0.000000 1.663960 
# 
# From -- ./inp_files/67115.got.cif
#   From: 2010.06.25/outbox.cif.g09.slc.cpg/sg11_34_cif.got.tgz:67115.got - 2010.06.27 23:14:04.
