data_PCOD8068925
_publ_section_title
;
Structure prediction by ZEFSAII (Michael W. Deem and Ramdas Pophale) SiO2 
 PCOD8068925
Probable space group: P 21/M
;
_chemical_formula_sum "Si O2"
_cell_formula_units_Z 32
_cell_length_a 15.565819
_cell_length_b 9.070980
_cell_length_c 15.653084
_cell_angle_alpha 90.000000
_cell_angle_beta 55.631783
_cell_angle_gamma 90.000000
_cell_volume 1824.335253
_symmetry_space_group_name_H-M "P 21/M"
_symmetry_group_IT_number 11
_symmetry_cell_setting 'monoclinic'
loop_
_space_group_symop_operation_xyz
x,y,z
-x,1/2+y,-z
-x,-y,-z
x,1/2-y,z
loop_
_atom_site_type_symbol
_atom_site_label
_atom_site_fract_x
_atom_site_fract_y
_atom_site_fract_z
Si Si1 0.855987 0.425336 0.907881
Si Si2 0.466576 0.079694 0.143793
Si Si3 0.180981 0.924800 0.880967
Si Si4 0.654346 0.921456 0.959451
Si Si5 0.382563 0.925395 0.676611
Si Si6 0.726544 0.077839 0.431252
Si Si7 0.595894 0.923475 0.634233
Si Si8 0.935933 0.422837 0.219881
O O1 0.852004 0.250000 0.904272
O O2 0.761931 0.491778 0.906417
O O3 0.963442 0.484958 0.807993
O O4 0.849150 0.485238 0.009120
O O5 0.501954 0.250000 0.127317
O O6 0.384998 0.050331 0.114400
O O7 0.410610 0.032178 0.262811
O O8 0.570487 0.984025 0.073538
O O9 0.183030 0.750000 0.880126
O O10 0.295721 0.984417 0.792027
O O11 0.098731 0.976897 0.855285
O O12 0.671760 0.750000 0.968906
O O13 0.381751 0.750000 0.679767
O O14 0.352018 0.979227 0.598811
O O15 0.494212 0.987271 0.642388
O O16 0.712403 0.250000 0.453875
O O17 0.844861 0.041402 0.338680
O O18 0.698122 0.995998 0.535216
O O19 0.604858 0.750000 0.617980
O O20 0.962274 0.250000 0.205260
#
# Coordination Sequence:
#
# PCOD8068925 Si02
#       8
#     4   4   4   4   4   4   4   4
#     4  11  20  30  49  74  98 126 161 199 238 284
#     4   9  19  35  53  74  99 126 156 192 237 285
#     4   8  15  28  46  68  96 129 161 193 232 280
#     4  10  20  34  52  74 100 127 155 191 236 287
#     4   8  14  26  44  67  96 128 157 186 227 278
#     4   9  18  31  46  66  95 129 162 196 233 275
#     4  10  18  29  49  72  95 125 159 195 234 279
#     4   9  18  33  49  66  94 131 166 200 238 278
#
# _framework density 17.540635000000002
#
# number of rings (size 3 to 8) (size 9 to 14) (size 15 to 20)
#    0.000    2.750    0.000    3.750    0.000    3.500 
#    0.000    0.625    0.000    4.500    0.000    0.000 
#    0.000    0.000    0.000    0.000    0.000    0.000 
#
# Total GULP energy -396754.886945 kJ/mol
# GULP energy per Si atom -12398.590217 kJ/mol
# Density = 1.750071 g / cm^3
# Si number density = 17.540635 Si / 1000 Ang^3
#
#
#
# Elastic Constant Matrix: (Units=GPa)
#
#
# Indices 1 2 3 4 5 6 
#
# 1 94.5366 44.6166 56.5659 0.0000 -14.7460 0.0000
# 2 44.6166 57.3213 47.0899 0.0000 -7.0206 0.0000
# 3 56.5659 47.0899 127.9525 0.0000 -4.9681 0.0000
# 4 0.0000 0.0000 0.0000 28.1283 0.0000 -4.5038
# 5 -14.7460 -7.0206 -4.9681 0.0000 20.7009 0.0000
# 6 0.0000 0.0000 0.0000 -4.5038 0.0000 24.5826
#
#
#
# Elastic Compliance Matrix: (Units=1/GPa)
#
#
# Indices 1 2 3 4 5 6 
#
# 1 0.019664 -0.010484 -0.004470 0.000000 0.009379 0.000000
# 2 -0.010484 0.031446 -0.006878 0.000000 0.001546 0.000000
# 3 -0.004470 -0.006878 0.012223 0.000000 -0.002584 0.000000
# 4 0.000000 0.000000 0.000000 0.036626 0.000000 0.006710
# 5 0.009379 0.001546 -0.002584 0.000000 0.054892 0.000000
# 6 0.000000 0.000000 0.000000 0.006710 0.000000 0.041909
#
#
# Mechanical properties :
#
#
# Convention : Reuss Voigt Hill
#
# Bulk Modulus (GPa) = 50.84705 64.03947 57.44326
# Shear Modulus (GPa) = 20.24465 23.45155 21.84810
#
# Velocity S-wave (km/s) = 3.40097 3.66045 3.53309
# Velocity P-wave (km/s) = 6.66883 7.37927 7.03302
#
# Compressibility (1/GPa) = 0.01966683
#
# Stress axis : x y z
#
# Youngs Moduli (GPa) = 50.85509 31.80104 81.81565
#
# Poissons Ratio (x) = 0.33341 0.36575
# Poissons Ratio (y) = 0.53318 0.56271
# Poissons Ratio (z) = 0.22734 0.21872
#
# Static dielectric constant tensor:
#      x y z
#    x 3.204130 0.000000 -0.019520 
#    y 0.000000 2.972020 0.000000 
#    z -0.019520 0.000000 3.315780 
# 
# 
# High freq. dielectric constant tensor:
#      x y z
#    x 1.664840 0.000000 -0.008380 
#    y 0.000000 1.655890 0.000000 
#    z -0.008380 0.000000 1.675100 
# 
# From -- ./inp_files/51653.got.cif
#   From: 2010.06.25/outbox.cif.g09.slc.cpg/sg11_26_cif.got.tgz:51653.got - 2010.06.27 23:14:04.
