data_PCOD8068630
_publ_section_title
;
Structure prediction by ZEFSAII (Michael W. Deem and Ramdas Pophale) SiO2 
 PCOD8068630
Probable space group: P 21/M
;
_chemical_formula_sum "Si O2"
_cell_formula_units_Z 32
_cell_length_a 12.852226
_cell_length_b 8.977538
_cell_length_c 21.283466
_cell_angle_alpha 90.000000
_cell_angle_beta 53.668179
_cell_angle_gamma 90.000000
_cell_volume 1978.322430
_symmetry_space_group_name_H-M "P 21/M"
_symmetry_group_IT_number 11
_symmetry_cell_setting 'monoclinic'
loop_
_space_group_symop_operation_xyz
x,y,z
-x,1/2+y,-z
-x,-y,-z
x,1/2-y,z
loop_
_atom_site_type_symbol
_atom_site_label
_atom_site_fract_x
_atom_site_fract_y
_atom_site_fract_z
Si Si1 0.580920 0.073690 0.916579
Si Si2 0.727703 0.075522 0.664601
Si Si3 0.104570 0.921298 0.503654
Si Si4 0.974076 0.577558 0.910687
Si Si5 0.189885 0.423462 0.908773
Si Si6 0.523192 0.574326 0.178523
Si Si7 0.877107 0.425935 0.820831
Si Si8 0.055998 0.425430 0.327860
O O1 0.567792 0.250000 0.926506
O O2 0.525812 0.011506 0.870592
O O3 0.728871 0.022731 0.869373
O O4 0.500000 0.000000 0.000000
O O5 0.746578 0.250000 0.674313
O O6 0.757038 0.043142 0.579409
O O7 0.579867 0.027871 0.730847
O O8 0.821724 0.984658 0.676657
O O9 0.072921 0.750000 0.507627
O O10 0.079090 0.963716 0.585908
O O11 0.000000 0.000000 0.500000
O O12 0.987328 0.750000 0.888135
O O13 0.937806 0.484729 0.862876
O O14 0.110802 0.519276 0.887036
O O15 0.863747 0.551301 0.002012
O O16 0.181107 0.250000 0.893116
O O17 0.335640 0.488123 0.854716
O O18 0.535791 0.750000 0.168012
O O19 0.891237 0.250000 0.813428
O O20 0.956005 0.494360 0.734477
O O21 0.073125 0.250000 0.311116
#
# Coordination Sequence:
#
# PCOD8068630 Si02
#       8
#     4   4   4   4   4   4   4   4
#     4  10  20  32  45  65  93 125 156 187 226 275
#     4   9  15  28  46  65  93 126 158 189 227 277
#     4   8  15  25  41  63  89 123 156 187 225 272
#     4  10  20  34  51  69  92 120 156 202 242 272
#     4   9  18  33  52  70  91 120 156 195 236 280
#     4   9  16  29  48  68  92 122 155 189 226 273
#     4  11  21  33  49  68  93 126 161 192 231 281
#     4  10  18  28  42  66  97 125 156 192 231 272
#
# _framework density 16.175321
#
# number of rings (size 3 to 8) (size 9 to 14) (size 15 to 20)
#    0.000    2.500    1.250    1.875    0.000    3.000 
#    0.000    1.250    0.000    0.000    0.000    0.875 
#    0.000    0.000    0.000    0.000    0.000    0.000 
#
# Total GULP energy -396557.760699 kJ/mol
# GULP energy per Si atom -12392.430022 kJ/mol
# Density = 1.613850 g / cm^3
# Si number density = 16.175321 Si / 1000 Ang^3
#
#
#
# Elastic Constant Matrix: (Units=GPa)
#
#
# Indices 1 2 3 4 5 6 
#
# 1 86.8998 26.3545 62.9787 0.0000 -7.3470 0.0000
# 2 26.3545 45.2432 41.4014 0.0000 2.9673 0.0000
# 3 62.9787 41.4014 142.9233 0.0000 -11.3246 0.0000
# 4 0.0000 0.0000 0.0000 23.1313 0.0000 3.2956
# 5 -7.3470 2.9673 -11.3246 0.0000 17.4091 0.0000
# 6 0.0000 0.0000 0.0000 3.2956 0.0000 16.4323
#
#
#
# Elastic Compliance Matrix: (Units=1/GPa)
#
#
# Indices 1 2 3 4 5 6 
#
# 1 0.017797 -0.005188 -0.005983 0.000000 0.004503 0.000000
# 2 -0.005188 0.033889 -0.008606 0.000000 -0.013564 0.000000
# 3 -0.005983 -0.008606 0.012696 0.000000 0.007201 0.000000
# 4 0.000000 0.000000 0.000000 0.044503 0.000000 -0.008926
# 5 0.004503 -0.013564 0.007201 0.000000 0.066338 0.000000
# 6 0.000000 0.000000 0.000000 -0.008926 0.000000 0.062646
#
#
# Mechanical properties :
#
#
# Convention : Reuss Voigt Hill
#
# Bulk Modulus (GPa) = 40.27264 59.61506 49.94385
# Shear Modulus (GPa) = 17.50093 21.01665 19.25879
#
# Velocity S-wave (km/s) = 3.29287 3.60850 3.45429
# Velocity P-wave (km/s) = 6.27766 7.36867 6.84493
#
# Compressibility (1/GPa) = 0.02483075
#
# Stress axis : x y z
#
# Youngs Moduli (GPa) = 56.18785 29.50804 78.76188
#
# Poissons Ratio (x) = 0.15308 0.47122
# Poissons Ratio (y) = 0.29148 0.67780
# Poissons Ratio (z) = 0.33616 0.25394
#
# Static dielectric constant tensor:
#      x y z
#    x 2.888320 0.000000 -0.135080 
#    y 0.000000 2.972190 0.000000 
#    z -0.135080 0.000000 3.609680 
# 
# 
# High freq. dielectric constant tensor:
#      x y z
#    x 1.584860 0.000000 -0.003770 
#    y 0.000000 1.618520 0.000000 
#    z -0.003770 0.000000 1.635780 
# 
# From -- ./inp_files/40624.got.cif
#   From: 2010.06.25/outbox.cif.g09.slc.cpg/sg11_21_cif.got.tgz:40624.got - 2010.06.27 23:14:04.
