data_PCOD8068740
_publ_section_title
;
Structure prediction by ZEFSAII (Michael W. Deem and Ramdas Pophale) SiO2 
 PCOD8068740
Probable space group: P 21/M
;
_chemical_formula_sum "Si O2"
_cell_formula_units_Z 32
_cell_length_a 8.058811
_cell_length_b 17.523545
_cell_length_c 13.023389
_cell_angle_alpha 90.000000
_cell_angle_beta 100.457039
_cell_angle_gamma 90.000000
_cell_volume 1808.603228
_symmetry_space_group_name_H-M "P 21/M"
_symmetry_group_IT_number 11
_symmetry_cell_setting 'monoclinic'
loop_
_space_group_symop_operation_xyz
x,y,z
-x,1/2+y,-z
-x,-y,-z
x,1/2-y,z
loop_
_atom_site_type_symbol
_atom_site_label
_atom_site_fract_x
_atom_site_fract_y
_atom_site_fract_z
Si Si1 0.684453 0.942481 0.116441
Si Si2 0.032824 0.162302 0.368853
Si Si3 0.409126 0.528754 0.701179
Si Si4 0.856502 0.060625 0.497199
Si Si5 0.040236 0.949251 0.101998
Si Si6 0.210669 0.015683 0.312401
Si Si7 0.714344 0.167045 0.200700
Si Si8 0.665056 0.401629 0.988674
O O1 0.525726 0.887347 0.074319
O O2 0.867859 0.903405 0.114493
O O3 0.677286 0.965617 0.235518
O O4 0.674440 0.015936 0.042313
O O5 0.102170 0.250000 0.385901
O O6 0.177831 0.098898 0.362342
O O7 0.930041 0.141278 0.462698
O O8 0.905419 0.153912 0.259486
O O9 0.308175 0.534780 0.584254
O O10 0.600052 0.507849 0.703328
O O11 0.414105 0.608725 0.761917
O O12 0.811777 0.056693 0.612554
O O13 0.000000 0.000000 0.500000
O O14 0.198773 0.895052 0.089643
O O15 0.087157 0.004300 0.202368
O O16 0.000000 0.000000 0.000000
O O17 0.650430 0.250000 0.227194
O O18 0.711529 0.162078 0.077113
#
# Coordination Sequence:
#
# PCOD8068740 Si02
#       8
#     4   4   4   4   4   4   4   4
#     4   9  16  27  44  68  95 125 158 200 248 292
#     4   9  18  33  50  70  99 136 170 208 256 312
#     4  10  18  30  48  75 106 128 161 210 265 308
#     4   9  18  32  50  73  99 131 167 212 260 300
#     4  10  18  28  47  72 102 130 162 204 253 292
#     4  11  19  30  49  78 107 127 171 216 257 306
#     4   9  18  32  48  67  99 137 171 207 255 310
#     4   9  16  28  44  67  93 128 166 202 243 287
#
# _framework density 17.693213
#
# number of rings (size 3 to 8) (size 9 to 14) (size 15 to 20)
#    0.000    2.500    1.250    4.125    1.750    0.500 
#    0.000    0.000    0.000    0.750    0.000    7.000 
#    0.000    0.000    0.000    0.000    0.000    0.000 
#
# Total GULP energy -396432.410597 kJ/mol
# GULP energy per Si atom -12388.512831 kJ/mol
# Density = 1.765294 g / cm^3
# Si number density = 17.693213 Si / 1000 Ang^3
#
#
#
# Elastic Constant Matrix: (Units=GPa)
#
#
# Indices 1 2 3 4 5 6 
#
# 1 133.9470 15.2541 35.0335 0.0000 -11.9285 0.0000
# 2 15.2541 40.8504 29.0313 0.0000 -2.8283 0.0000
# 3 35.0335 29.0313 99.0928 0.0000 -6.2969 0.0000
# 4 0.0000 0.0000 0.0000 13.9719 0.0000 -0.5049
# 5 -11.9285 -2.8283 -6.2969 0.0000 26.6703 0.0000
# 6 0.0000 0.0000 0.0000 -0.5049 0.0000 14.3775
#
#
#
# Elastic Compliance Matrix: (Units=1/GPa)
#
#
# Indices 1 2 3 4 5 6 
#
# 1 0.008524 -0.001221 -0.002459 0.000000 0.003102 0.000000
# 2 -0.001221 0.031127 -0.008642 0.000000 0.000714 0.000000
# 3 -0.002459 -0.008642 0.013568 0.000000 0.001187 0.000000
# 4 0.000000 0.000000 0.000000 0.071663 0.000000 0.002517
# 5 0.003102 0.000714 0.001187 0.000000 0.039239 0.000000
# 6 0.000000 0.000000 0.000000 0.002517 0.000000 0.069641
#
#
# Mechanical properties :
#
#
# Convention : Reuss Voigt Hill
#
# Bulk Modulus (GPa) = 34.99520 48.05865 41.52693
# Shear Modulus (GPa) = 18.66154 23.97538 21.31846
#
# Velocity S-wave (km/s) = 3.25118 3.68511 3.47493
# Velocity P-wave (km/s) = 5.82369 6.73260 6.29457
#
# Compressibility (1/GPa) = 0.02857535
#
# Stress axis : x y z
#
# Youngs Moduli (GPa) = 117.31520 32.12677 73.70178
#
# Poissons Ratio (x) = 0.03922 0.18122
# Poissons Ratio (y) = 0.14322 0.63695
# Poissons Ratio (z) = 0.28846 0.27765
#
# Static dielectric constant tensor:
#      x y z
#    x 3.662990 0.000000 -0.119730 
#    y 0.000000 3.077900 0.000000 
#    z -0.119730 0.000000 3.201720 
# 
# 
# High freq. dielectric constant tensor:
#      x y z
#    x 1.694080 0.000000 -0.000690 
#    y 0.000000 1.622090 0.000000 
#    z -0.000690 0.000000 1.688560 
# 
# From -- ./inp_files/32526.got.cif
#   From: 2010.06.25/outbox.cif.g09.slc.cpg/sg11_17_cif.got.tgz:32526.got - 2010.06.27 23:14:04.
