data_PCOD8068391
_publ_section_title
;
Structure prediction by ZEFSAII (Michael W. Deem and Ramdas Pophale) SiO2 
 PCOD8068391
Probable space group: P 21/M
;
_chemical_formula_sum "Si O2"
_cell_formula_units_Z 28
_cell_length_a 21.398725
_cell_length_b 9.129035
_cell_length_c 25.449875
_cell_angle_alpha 90.000000
_cell_angle_beta 16.491764
_cell_angle_gamma 90.000000
_cell_volume 1411.332750
_symmetry_space_group_name_H-M "P 21/M"
_symmetry_group_IT_number 11
_symmetry_cell_setting 'monoclinic'
loop_
_space_group_symop_operation_xyz
x,y,z
-x,1/2+y,-z
-x,-y,-z
x,1/2-y,z
loop_
_atom_site_type_symbol
_atom_site_label
_atom_site_fract_x
_atom_site_fract_y
_atom_site_fract_z
Si Si1 0.369338 0.922977 0.559462
Si Si2 0.838528 0.086347 0.729487
Si Si3 0.498725 0.419905 0.659602
Si Si4 0.860066 0.579548 0.972242
Si Si5 0.264861 0.922739 0.028123
Si Si6 0.920455 0.076338 0.379887
Si Si7 0.412565 0.412041 0.146344
O O1 0.403665 0.750000 0.536870
O O2 0.462357 0.989651 0.429417
O O3 0.113631 0.966195 0.771145
O O4 0.500000 0.000000 0.500000
O O5 0.927345 0.250000 0.649153
O O6 0.775350 0.021222 0.723244
O O7 0.625798 0.083382 0.937545
O O8 0.029446 0.991843 0.603301
O O9 0.540973 0.250000 0.616715
O O10 0.676101 0.472956 0.559770
O O11 0.254959 0.453153 0.878580
O O12 0.832643 0.750000 0.978878
O O13 0.730229 0.480023 0.035153
O O14 0.210098 0.750000 0.075123
O O15 0.502956 0.954614 0.863329
O O16 0.078751 0.014122 0.207638
O O17 0.952493 0.250000 0.357717
O O18 0.309331 0.250000 0.229109
#
# Coordination Sequence:
#
# PCOD8068391 Si02
#       7
#     4   4   4   4   4   4   4
#     4  10  21  39  60  86 115 146 180 219 267 321
#     4   9  16  25  40  69 104 138 182 235 280 324
#     4   9  19  36  58  84 111 144 188 226 263 326
#     4  10  20  37  60  82 110 148 186 223 269 325
#     4  10  19  31  50  78 110 141 183 234 279 326
#     4  10  17  30  52  75 104 146 187 226 277 330
#     4   8  15  26  40  64 100 141 180 224 277 330
#
# _framework density 19.839403000000001
#
# number of rings (size 3 to 8) (size 9 to 14) (size 15 to 20)
#    0.000    2.571    1.429    2.143    0.000    5.143 
#    0.000    2.143    0.000    0.857    0.000    0.000 
#    0.000    0.000    0.000    0.000    0.000    0.000 
#
# Total GULP energy -347088.742362 kJ/mol
# GULP energy per Si atom -12396.026513 kJ/mol
# Density = 1.979425 g / cm^3
# Si number density = 19.839403 Si / 1000 Ang^3
#
#
#
# Elastic Constant Matrix: (Units=GPa)
#
#
# Indices 1 2 3 4 5 6 
#
# 1 167.5182 64.2109 66.8528 0.0000 -16.3280 0.0000
# 2 64.2109 90.9291 31.1830 0.0000 -6.1044 0.0000
# 3 66.8528 31.1830 81.6540 0.0000 6.9949 0.0000
# 4 0.0000 0.0000 0.0000 7.8868 0.0000 -5.2155
# 5 -16.3280 -6.1044 6.9949 0.0000 13.3767 0.0000
# 6 0.0000 0.0000 0.0000 -5.2155 0.0000 38.3640
#
#
#
# Elastic Compliance Matrix: (Units=1/GPa)
#
#
# Indices 1 2 3 4 5 6 
#
# 1 0.014897 -0.004803 -0.012283 0.000000 0.022415 0.000000
# 2 -0.004803 0.015248 -0.002078 0.000000 0.002183 0.000000
# 3 -0.012283 -0.002078 0.025609 0.000000 -0.029333 0.000000
# 4 0.000000 0.000000 0.000000 0.139319 0.000000 0.018940
# 5 0.022415 0.002183 -0.029333 0.000000 0.118452 0.000000
# 6 0.000000 0.000000 0.000000 0.018940 0.000000 0.028641
#
#
# Mechanical properties :
#
#
# Convention : Reuss Voigt Hill
#
# Bulk Modulus (GPa) = 57.37972 73.84385 65.61178
# Shear Modulus (GPa) = 12.94322 23.78246 18.36284
#
# Velocity S-wave (km/s) = 2.55698 3.46605 3.04563
# Velocity P-wave (km/s) = 6.14023 7.30203 6.74619
#
# Compressibility (1/GPa) = 0.01742776
#
# Stress axis : x y z
#
# Youngs Moduli (GPa) = 67.12787 65.58128 39.04809
#
# Poissons Ratio (x) = 0.31497 0.47962
# Poissons Ratio (y) = 0.32240 0.08114
# Poissons Ratio (z) = 0.82451 0.13628
#
# Static dielectric constant tensor:
#      x y z
#    x 3.810800 0.000000 -0.072980 
#    y 0.000000 3.526260 0.000000 
#    z -0.072980 0.000000 3.365940 
# 
# 
# High freq. dielectric constant tensor:
#      x y z
#    x 1.778840 0.000000 -0.005230 
#    y 0.000000 1.760270 0.000000 
#    z -0.005230 0.000000 1.749330 
# 
# From -- ./inp_files/69778.got.cif
#   From: 2010.06.25/outbox.cif.g09.slc.cpg/sg11_35_cif.got.tgz:69778.got - 2010.06.27 23:14:04.
