data_PCOD8068692
_publ_section_title
;
Structure prediction by ZEFSAII (Michael W. Deem and Ramdas Pophale) SiO2 
 PCOD8068692
Probable space group: P 21/M
;
_chemical_formula_sum "Si O2"
_cell_formula_units_Z 28
_cell_length_a 18.207145
_cell_length_b 9.057520
_cell_length_c 16.456246
_cell_angle_alpha 90.000000
_cell_angle_beta 142.337292
_cell_angle_gamma 90.000000
_cell_volume 1658.179770
_symmetry_space_group_name_H-M "P 21/M"
_symmetry_group_IT_number 11
_symmetry_cell_setting 'monoclinic'
loop_
_space_group_symop_operation_xyz
x,y,z
-x,1/2+y,-z
-x,-y,-z
x,1/2-y,z
loop_
_atom_site_type_symbol
_atom_site_label
_atom_site_fract_x
_atom_site_fract_y
_atom_site_fract_z
Si Si1 0.397444 0.086738 0.809472
Si Si2 0.671811 0.414577 0.105212
Si Si3 0.835054 0.422393 0.801459
Si Si4 0.095118 0.420009 0.982086
Si Si5 0.584217 0.425257 0.507635
Si Si6 0.492914 0.425318 0.724852
Si Si7 0.275180 0.078026 0.003140
O O1 0.342575 0.250000 0.770983
O O2 0.399893 0.039583 0.717021
O O3 0.315982 0.977943 0.792470
O O4 0.533567 0.086455 0.959445
O O5 0.726111 0.250000 0.151708
O O6 0.744229 0.515697 0.104733
O O7 0.835484 0.250000 0.817994
O O8 0.721426 0.467609 0.647859
O O9 0.956544 0.474845 0.861538
O O10 0.825628 0.496300 0.881471
O O11 0.101985 0.250000 0.012554
O O12 0.150217 0.446855 0.941279
O O13 0.500000 0.500000 0.500000
O O14 0.562084 0.250000 0.487528
O O15 0.557907 0.493004 0.397425
O O16 0.505068 0.250000 0.721040
O O17 0.623334 0.488824 0.859914
O O18 0.311350 0.250000 0.030206
#
# Coordination Sequence:
#
# PCOD8068692 Si02
#       7
#     4   4   4   4   4   4   4
#     4   8  15  27  41  59  86 120 152 182 220 267
#     4   9  16  25  40  63  91 120 149 184 224 268
#     4   9  19  34  49  66  89 118 151 187 227 266
#     4   9  18  32  49  68  89 116 151 188 225 266
#     4  11  22  34  49  68  93 123 153 187 225 268
#     4  10  20  32  46  66  94 124 154 188 225 269
#     4  10  18  28  45  68  94 122 152 186 225 271
#
# _framework density 16.885985999999999
#
# number of rings (size 3 to 8) (size 9 to 14) (size 15 to 20)
#    0.000    2.571    0.000    3.429    0.000    8.571 
#    0.000    0.000    0.000    0.000    0.000    1.000 
#    0.000    0.000    0.000    0.000    0.000    0.000 
#
# Total GULP energy -347116.573554 kJ/mol
# GULP energy per Si atom -12397.020484 kJ/mol
# Density = 1.684755 g / cm^3
# Si number density = 16.885986 Si / 1000 Ang^3
#
#
#
# Elastic Constant Matrix: (Units=GPa)
#
#
# Indices 1 2 3 4 5 6 
#
# 1 120.5429 58.5183 52.1121 0.0000 -21.7918 0.0000
# 2 58.5183 90.2854 41.9175 0.0000 -9.5484 0.0000
# 3 52.1121 41.9175 66.3218 0.0000 -13.3186 0.0000
# 4 0.0000 0.0000 0.0000 22.0454 0.0000 -8.1349
# 5 -21.7918 -9.5484 -13.3186 0.0000 24.5069 0.0000
# 6 0.0000 0.0000 0.0000 -8.1349 0.0000 29.8037
#
#
#
# Elastic Compliance Matrix: (Units=1/GPa)
#
#
# Indices 1 2 3 4 5 6 
#
# 1 0.015645 -0.006136 -0.006849 0.000000 0.007799 0.000000
# 2 -0.006136 0.018097 -0.007068 0.000000 -0.002246 0.000000
# 3 -0.006849 -0.007068 0.025987 0.000000 0.005279 0.000000
# 4 0.000000 0.000000 0.000000 0.050441 0.000000 0.013768
# 5 0.007799 -0.002246 0.005279 0.000000 0.049734 0.000000
# 6 0.000000 0.000000 0.000000 0.013768 0.000000 0.037311
#
#
# Mechanical properties :
#
#
# Convention : Reuss Voigt Hill
#
# Bulk Modulus (GPa) = 50.95845 64.69398 57.82622
# Shear Modulus (GPa) = 20.50354 23.57802 22.04078
#
# Velocity S-wave (km/s) = 3.48837 3.74077 3.61677
# Velocity P-wave (km/s) = 6.81677 7.55336 7.19450
#
# Compressibility (1/GPa) = 0.01962383
#
# Stress axis : x y z
#
# Youngs Moduli (GPa) = 63.91687 55.25884 38.48144
#
# Poissons Ratio (x) = 0.33906 0.26356
# Poissons Ratio (y) = 0.39218 0.27197
# Poissons Ratio (z) = 0.43777 0.39054
#
# Static dielectric constant tensor:
#      x y z
#    x 3.453320 0.000000 -0.150950 
#    y 0.000000 3.347930 0.000000 
#    z -0.150950 0.000000 2.951910 
# 
# 
# High freq. dielectric constant tensor:
#      x y z
#    x 1.656810 0.000000 -0.021010 
#    y 0.000000 1.664390 0.000000 
#    z -0.021010 0.000000 1.604930 
# 
# From -- ./inp_files/53270.got.cif
#   From: 2010.06.25/outbox.cif.g09.slc.cpg/sg11_27_cif.got.tgz:53270.got - 2010.06.27 23:14:04.
