data_PCOD8068182
_publ_section_title
;
Structure prediction by ZEFSAII (Michael W. Deem and Ramdas Pophale) SiO2 
 PCOD8068182
Probable space group: P 21/M
;
_chemical_formula_sum "Si O2"
_cell_formula_units_Z 32
_cell_length_a 16.923414
_cell_length_b 17.151797
_cell_length_c 11.322982
_cell_angle_alpha 90.000000
_cell_angle_beta 149.378650
_cell_angle_gamma 90.000000
_cell_volume 1674.114143
_symmetry_space_group_name_H-M "P 21/M"
_symmetry_group_IT_number 11
_symmetry_cell_setting 'monoclinic'
loop_
_space_group_symop_operation_xyz
x,y,z
-x,1/2+y,-z
-x,-y,-z
x,1/2-y,z
loop_
_atom_site_type_symbol
_atom_site_label
_atom_site_fract_x
_atom_site_fract_y
_atom_site_fract_z
Si Si1 0.786342 0.336389 0.008555
Si Si2 0.478953 0.618934 0.194068
Si Si3 0.152095 0.437904 0.017281
Si Si4 0.408517 0.438751 0.149529
Si Si5 0.202513 0.340086 0.294516
Si Si6 0.609318 0.926024 0.132297
Si Si7 0.368372 0.559101 0.376084
Si Si8 0.929622 0.939803 0.665393
O O1 0.845758 0.250000 0.052179
O O2 0.676927 0.331338 0.984295
O O3 0.670133 0.368550 0.757910
O O4 0.931380 0.392701 0.219902
O O5 0.429745 0.529936 0.152233
O O6 0.613903 0.643488 0.459115
O O7 0.541580 0.635236 0.141250
O O8 0.258928 0.423755 0.039369
O O9 0.143992 0.359969 0.085903
O O10 0.215605 0.505775 0.187862
O O11 0.984562 0.471025 0.761477
O O12 0.567151 0.407784 0.416385
O O13 0.389789 0.393155 0.000654
O O14 0.164512 0.250000 0.270199
O O15 0.109162 0.393342 0.265754
O O16 0.785157 0.947483 0.392165
O O17 0.500000 0.000000 0.000000
O O18 0.500000 0.500000 0.500000
#
# Coordination Sequence:
#
# PCOD8068182 Si02
#       8
#     4   4   4   4   4   4   4   4
#     4  11  20  33  57  84 109 147 190 233 286 338
#     4  10  17  33  52  80 112 141 185 223 272 327
#     4  10  18  32  57  82 109 143 182 226 286 335
#     4  10  16  33  54  82 111 140 178 236 268 330
#     4  11  21  33  53  82 115 145 179 225 284 343
#     4   9  21  34  55  82 109 140 184 233 280 328
#     4   9  15  29  52  78 114 134 170 230 276 322
#     4  10  21  37  54  80 114 145 184 239 284 323
#
# _framework density 19.114587
#
# number of rings (size 3 to 8) (size 9 to 14) (size 15 to 20)
#    0.000    2.000    5.000    1.875    0.000    0.500 
#    0.000    0.000    0.000    9.000    0.000    1.750 
#    0.000    0.000    0.000    0.000    0.000    0.000 
#
# Total GULP energy -396480.487360 kJ/mol
# GULP energy per Si atom -12390.015230 kJ/mol
# Density = 1.907108 g / cm^3
# Si number density = 19.114587 Si / 1000 Ang^3
#
#
#
# Elastic Constant Matrix: (Units=GPa)
#
#
# Indices 1 2 3 4 5 6 
#
# 1 106.5315 11.2533 54.0626 0.0000 -9.1126 0.0000
# 2 11.2533 49.2235 15.1727 0.0000 -2.7153 0.0000
# 3 54.0626 15.1727 120.0639 0.0000 -5.6395 0.0000
# 4 0.0000 0.0000 0.0000 10.0708 0.0000 -0.0071
# 5 -9.1126 -2.7153 -5.6395 0.0000 35.8624 0.0000
# 6 0.0000 0.0000 0.0000 -0.0071 0.0000 12.0773
#
#
#
# Elastic Compliance Matrix: (Units=1/GPa)
#
#
# Indices 1 2 3 4 5 6 
#
# 1 0.012403 -0.001065 -0.005345 0.000000 0.002230 0.000000
# 2 -0.001065 0.021281 -0.002163 0.000000 0.001001 0.000000
# 3 -0.005345 -0.002163 0.011019 0.000000 0.000211 0.000000
# 4 0.000000 0.000000 0.000000 0.099297 0.000000 0.000059
# 5 0.002230 0.001001 0.000211 0.000000 0.028560 0.000000
# 6 0.000000 0.000000 0.000000 0.000059 0.000000 0.082800
#
#
# Mechanical properties :
#
#
# Convention : Reuss Voigt Hill
#
# Bulk Modulus (GPa) = 36.28896 48.53288 42.41092
# Shear Modulus (GPa) = 17.74991 24.62412 21.18701
#
# Velocity S-wave (km/s) = 3.05061 3.59310 3.33291
# Velocity P-wave (km/s) = 5.60664 6.53142 6.08662
#
# Compressibility (1/GPa) = 0.02755659
#
# Stress axis : x y z
#
# Youngs Moduli (GPa) = 80.62648 46.99070 90.75162
#
# Poissons Ratio (x) = 0.05003 0.48511
# Poissons Ratio (y) = 0.08585 0.19628
# Poissons Ratio (z) = 0.43099 0.10163
#
# Static dielectric constant tensor:
#      x y z
#    x 4.035980 0.000000 -0.267830 
#    y 0.000000 3.164610 0.000000 
#    z -0.267830 0.000000 3.893260 
# 
# 
# High freq. dielectric constant tensor:
#      x y z
#    x 1.745880 0.000000 0.010860 
#    y 0.000000 1.698390 0.000000 
#    z 0.010860 0.000000 1.737110 
# 
# From -- ./inp_files/41847.got.cif
#   From: 2010.06.25/outbox.cif.g09.slc.cpg/sg11_21_cif.got.tgz:41847.got - 2010.06.27 23:14:04.
