data_PCOD8068675
_publ_section_title
;
Structure prediction by ZEFSAII (Michael W. Deem and Ramdas Pophale) SiO2 
 PCOD8068675
Probable space group: P 21/M
;
_chemical_formula_sum "Si O2"
_cell_formula_units_Z 32
_cell_length_a 25.352242
_cell_length_b 9.346520
_cell_length_c 16.681694
_cell_angle_alpha 90.000000
_cell_angle_beta 153.884122
_cell_angle_gamma 90.000000
_cell_volume 1739.981690
_symmetry_space_group_name_H-M "P 21/M"
_symmetry_group_IT_number 11
_symmetry_cell_setting 'monoclinic'
loop_
_space_group_symop_operation_xyz
x,y,z
-x,1/2+y,-z
-x,-y,-z
x,1/2-y,z
loop_
_atom_site_type_symbol
_atom_site_label
_atom_site_fract_x
_atom_site_fract_y
_atom_site_fract_z
Si Si1 0.720831 0.916671 0.528030
Si Si2 0.880796 0.078127 0.866087
Si Si3 0.899382 0.594520 0.326530
Si Si4 0.705881 0.591990 0.197852
Si Si5 0.859007 0.916746 0.553298
Si Si6 0.746915 0.413647 0.012551
Si Si7 0.551115 0.083113 0.871265
Si Si8 0.883512 0.415373 0.049866
O O1 0.730487 0.750000 0.566303
O O2 0.795777 0.947792 0.550931
O O3 0.584558 0.963754 0.327551
O O4 0.768930 0.018526 0.663621
O O5 0.891749 0.250000 0.871622
O O6 0.858194 0.026397 0.926549
O O7 0.000000 0.000000 0.000000
O O8 0.949651 0.750000 0.370250
O O9 0.794980 0.612066 0.246892
O O10 0.853411 0.514106 0.186141
O O11 0.000000 0.500000 0.500000
O O12 0.655218 0.750000 0.153036
O O13 0.776738 0.516866 0.369206
O O14 0.598723 0.494062 0.016892
O O15 0.865484 0.750000 0.541151
O O16 0.994276 0.982494 0.743561
O O17 0.776836 0.250000 0.075759
O O18 0.760969 0.436652 0.935402
O O19 0.621862 0.456739 0.884557
O O20 0.562044 0.250000 0.904325
O O21 0.915537 0.250000 0.084077
#
# Coordination Sequence:
#
# PCOD8068675 Si02
#       8
#     4   4   4   4   4   4   4   4
#     4  10  20  36  55  75 104 139 173 211 258 309
#     4  11  21  36  58  82 105 132 167 210 262 314
#     4  10  18  28  44  68  99 134 172 214 261 303
#     4   9  18  31  49  71  98 136 179 214 246 299
#     4   9  16  29  50  74  99 134 174 209 252 307
#     4   9  17  32  52  72  97 133 176 210 248 307
#     4   9  19  34  52  74 104 140 173 213 258 295
#     4   9  17  31  54  78 101 133 170 208 255 317
#
# _framework density 18.390999000000001
#
# number of rings (size 3 to 8) (size 9 to 14) (size 15 to 20)
#    0.000    2.500    1.250    1.500    0.000    3.500 
#    0.000    2.500    0.000    0.000    0.000    0.000 
#    0.000    0.000    0.000    0.000    0.000    0.000 
#
# Total GULP energy -396443.551806 kJ/mol
# GULP energy per Si atom -12388.860994 kJ/mol
# Density = 1.834914 g / cm^3
# Si number density = 18.390999 Si / 1000 Ang^3
#
#
#
# Elastic Constant Matrix: (Units=GPa)
#
#
# Indices 1 2 3 4 5 6 
#
# 1 66.0938 6.8191 28.2644 0.0000 -11.4697 0.0000
# 2 6.8191 51.8580 25.5225 0.0000 -4.3764 0.0000
# 3 28.2644 25.5225 109.9326 0.0000 -10.5269 0.0000
# 4 0.0000 0.0000 0.0000 29.3616 0.0000 -2.8946
# 5 -11.4697 -4.3764 -10.5269 0.0000 31.7374 0.0000
# 6 0.0000 0.0000 0.0000 -2.8946 0.0000 17.3532
#
#
#
# Elastic Compliance Matrix: (Units=1/GPa)
#
#
# Indices 1 2 3 4 5 6 
#
# 1 0.017754 0.000114 -0.004106 0.000000 0.005070 0.000000
# 2 0.000114 0.021830 -0.004963 0.000000 0.001405 0.000000
# 3 -0.004106 -0.004963 0.011461 0.000000 0.001633 0.000000
# 4 0.000000 0.000000 0.000000 0.034628 0.000000 0.005776
# 5 0.005070 0.001405 0.001633 0.000000 0.034076 0.000000
# 6 0.000000 0.000000 0.000000 0.005776 0.000000 0.058590
#
#
# Mechanical properties :
#
#
# Convention : Reuss Voigt Hill
#
# Bulk Modulus (GPa) = 30.17948 38.78850 34.48399
# Shear Modulus (GPa) = 24.12062 26.84232 25.48147
#
# Velocity S-wave (km/s) = 3.62545 3.82453 3.72632
# Velocity P-wave (km/s) = 5.82845 6.37491 6.10779
#
# Compressibility (1/GPa) = 0.03313509
#
# Stress axis : x y z
#
# Youngs Moduli (GPa) = 56.32593 45.80951 87.25514
#
# Poissons Ratio (x) = -0.00522 0.35823
# Poissons Ratio (y) = -0.00642 0.43303
# Poissons Ratio (z) = 0.23125 0.22734
#
# Static dielectric constant tensor:
#      x y z
#    x 3.419830 0.000000 -0.156100 
#    y 0.000000 3.500320 0.000000 
#    z -0.156100 0.000000 3.266530 
# 
# 
# High freq. dielectric constant tensor:
#      x y z
#    x 1.716580 0.000000 -0.004380 
#    y 0.000000 1.688860 0.000000 
#    z -0.004380 0.000000 1.702400 
# 
# From -- ./inp_files/55621.got.cif
#   From: 2010.06.25/outbox.cif.g09.slc.cpg/sg11_28_cif.got.tgz:55621.got - 2010.06.27 23:14:04.
