data_PCOD8068489
_publ_section_title
;
Structure prediction by ZEFSAII (Michael W. Deem and Ramdas Pophale) SiO2 
 PCOD8068489
Probable space group: P 21/M
;
_chemical_formula_sum "Si O2"
_cell_formula_units_Z 32
_cell_length_a 17.768881
_cell_length_b 14.670339
_cell_length_c 10.997661
_cell_angle_alpha 90.000000
_cell_angle_beta 32.924458
_cell_angle_gamma 90.000000
_cell_volume 1558.211205
_symmetry_space_group_name_H-M "P 21/M"
_symmetry_group_IT_number 11
_symmetry_cell_setting 'monoclinic'
loop_
_space_group_symop_operation_xyz
x,y,z
-x,1/2+y,-z
-x,-y,-z
x,1/2-y,z
loop_
_atom_site_type_symbol
_atom_site_label
_atom_site_fract_x
_atom_site_fract_y
_atom_site_fract_z
Si Si1 0.919542 0.523453 0.857159
Si Si2 0.233555 0.958211 0.163222
Si Si3 0.462452 0.462519 0.299205
Si Si4 0.163712 0.851345 0.465587
Si Si5 0.239050 0.356578 0.746117
Si Si6 0.066100 0.350395 0.744902
Si Si7 0.438560 0.650922 0.243815
Si Si8 0.677384 0.594545 0.754985
O O1 0.873764 0.506664 0.780882
O O2 0.060312 0.579872 0.672302
O O3 0.947958 0.425203 0.879923
O O4 0.801217 0.582425 0.083553
O O5 0.171591 0.866271 0.307805
O O6 0.252200 0.017566 0.259413
O O7 0.376681 0.938140 0.899307
O O8 0.380911 0.400230 0.504169
O O9 0.441401 0.572290 0.344188
O O10 0.420872 0.446464 0.215933
O O11 0.106147 0.750000 0.565431
O O12 0.312936 0.865693 0.322480
O O13 0.263362 0.250000 0.746993
O O14 0.119023 0.367260 0.809637
O O15 0.997643 0.250000 0.828069
O O16 0.197076 0.350148 0.476102
O O17 0.424269 0.750000 0.327650
O O18 0.580799 0.654810 0.973158
#
# Coordination Sequence:
#
# PCOD8068489 Si02
#       8
#     4   4   4   4   4   4   4   4
#     4  12  24  40  56  85 128 159 196 233 290 355
#     4  11  21  37  59  86 123 157 187 240 299 350
#     4  10  19  38  64  86 115 150 200 253 288 336
#     4  11  21  35  57  87 120 159 193 234 290 351
#     4  10  23  43  65  84 106 154 207 247 294 346
#     4  10  21  37  62  86 115 156 201 247 288 343
#     4  10  18  31  57  91 122 151 193 245 294 341
#     4  10  17  36  58  86 123 152 199 241 295 342
#
# _framework density 20.536370000000002
#
# number of rings (size 3 to 8) (size 9 to 14) (size 15 to 20)
#    0.000    1.500    3.750    3.000    0.000    2.000 
#    0.000    7.500    0.000    0.000    0.000    0.000 
#    0.000    0.000    0.000    0.000    0.000    0.000 
#
# Total GULP energy -396696.564380 kJ/mol
# GULP energy per Si atom -12396.767637 kJ/mol
# Density = 2.048963 g / cm^3
# Si number density = 20.536370 Si / 1000 Ang^3
#
#
#
# Elastic Constant Matrix: (Units=GPa)
#
#
# Indices 1 2 3 4 5 6 
#
# 1 21.9068 1.5574 -0.9980 0.0000 2.1744 0.0000
# 2 1.5574 120.9692 29.7119 0.0000 3.0588 0.0000
# 3 -0.9980 29.7119 54.7805 0.0000 6.0502 0.0000
# 4 0.0000 0.0000 0.0000 25.7264 0.0000 1.6625
# 5 2.1744 3.0588 6.0502 0.0000 18.4121 0.0000
# 6 0.0000 0.0000 0.0000 1.6625 0.0000 18.3795
#
#
#
# Elastic Compliance Matrix: (Units=1/GPa)
#
#
# Indices 1 2 3 4 5 6 
#
# 1 0.046401 -0.000941 0.002017 0.000000 -0.005986 0.000000
# 2 -0.000941 0.009556 -0.005227 0.000000 0.000241 0.000000
# 3 0.002017 -0.005227 0.021850 0.000000 -0.006550 0.000000
# 4 0.000000 0.000000 0.000000 0.039099 0.000000 -0.003537
# 5 -0.005986 0.000241 -0.006550 0.000000 0.057131 0.000000
# 6 0.000000 0.000000 0.000000 -0.003537 0.000000 0.054728
#
#
# Mechanical properties :
#
#
# Convention : Reuss Voigt Hill
#
# Bulk Modulus (GPa) = 14.38756 28.68880 21.53818
# Shear Modulus (GPa) = 19.21327 23.66261 21.43794
#
# Velocity S-wave (km/s) = 3.06203 3.39813 3.23445
# Velocity P-wave (km/s) = 4.41843 5.42185 4.94565
#
# Compressibility (1/GPa) = 0.06950449
#
# Stress axis : x y z
#
# Youngs Moduli (GPa) = 21.55128 104.64167 45.76689
#
# Poissons Ratio (x) = 0.09852 -0.09232
# Poissons Ratio (y) = 0.02029 0.23922
# Poissons Ratio (z) = -0.04347 0.54696
#
# Static dielectric constant tensor:
#      x y z
#    x 3.359150 0.000000 -0.036670 
#    y 0.000000 3.942460 0.000000 
#    z -0.036670 0.000000 3.684510 
# 
# 
# High freq. dielectric constant tensor:
#      x y z
#    x 1.768230 0.000000 -0.006350 
#    y 0.000000 1.813070 0.000000 
#    z -0.006350 0.000000 1.799590 
# 
# From -- ./inp_files/41627.got.cif
#   From: 2010.06.25/outbox.cif.g09.slc.cpg/sg11_21_cif.got.tgz:41627.got - 2010.06.27 23:14:04.
