data_PCOD8068846
_publ_section_title
;
Structure prediction by ZEFSAII (Michael W. Deem and Ramdas Pophale) SiO2 
 PCOD8068846
Probable space group: P 21/M
;
_chemical_formula_sum "Si O2"
_cell_formula_units_Z 24
_cell_length_a 13.229437
_cell_length_b 10.631276
_cell_length_c 18.542091
_cell_angle_alpha 90.000000
_cell_angle_beta 148.865263
_cell_angle_gamma 90.000000
_cell_volume 1348.403883
_symmetry_space_group_name_H-M "P 21/M"
_symmetry_group_IT_number 11
_symmetry_cell_setting 'monoclinic'
loop_
_space_group_symop_operation_xyz
x,y,z
-x,1/2+y,-z
-x,-y,-z
x,1/2-y,z
loop_
_atom_site_type_symbol
_atom_site_label
_atom_site_fract_x
_atom_site_fract_y
_atom_site_fract_z
Si Si1 0.947114 0.396436 0.724828
Si Si2 0.850298 0.384343 0.956745
Si Si3 0.602655 0.895040 0.014572
Si Si4 0.585353 0.607651 0.843067
Si Si5 0.393973 0.605433 0.581239
Si Si6 0.784764 0.495701 0.772994
O O1 0.937894 0.250000 0.735123
O O2 0.822032 0.435791 0.577315
O O3 0.847227 0.463876 0.730881
O O4 0.170674 0.436250 0.849997
O O5 0.769021 0.250000 0.936313
O O6 0.754336 0.504859 0.936622
O O7 0.816696 0.383262 0.849993
O O8 0.081399 0.389686 0.115447
O O9 0.579734 0.750000 0.029680
O O10 0.505425 0.904180 0.875663
O O11 0.500000 0.000000 0.000000
O O12 0.669829 0.750000 0.883975
O O13 0.414493 0.580463 0.680078
O O14 0.425376 0.750000 0.581953
O O15 0.557324 0.532358 0.635240
#
# Coordination Sequence:
#
# PCOD8068846 Si02
#       6
#     4   4   4   4   4   4
#     4  10  19  33  52  74 103 139 177 211 254 307
#     4  10  19  28  47  78 108 140 177 212 247 293
#     4  10  21  38  58  78  98 129 172 222 269 311
#     4   9  18  35  55  75 104 136 171 211 258 309
#     4   9  18  31  50  76 106 142 175 204 244 309
#     4  10  18  29  46  73 112 144 173 206 249 296
#
# _framework density 17.798821
#
# number of rings (size 3 to 8) (size 9 to 14) (size 15 to 20)
#    0.000    2.333    1.667    1.500    0.000    4.667 
#    0.000    0.833    0.000    6.000    0.000    0.000 
#    0.000    0.000    0.000    0.000    0.000    0.000 
#
# Total GULP energy -297327.788488 kJ/mol
# GULP energy per Si atom -12388.657854 kJ/mol
# Density = 1.775831 g / cm^3
# Si number density = 17.798821 Si / 1000 Ang^3
#
#
#
# Elastic Constant Matrix: (Units=GPa)
#
#
# Indices 1 2 3 4 5 6 
#
# 1 101.6747 51.4313 53.7818 0.0000 -5.3959 0.0000
# 2 51.4313 95.4091 25.8041 0.0000 -1.8737 0.0000
# 3 53.7818 25.8041 113.7965 0.0000 -11.0484 0.0000
# 4 0.0000 0.0000 0.0000 8.5155 0.0000 4.9288
# 5 -5.3959 -1.8737 -11.0484 0.0000 16.8684 0.0000
# 6 0.0000 0.0000 0.0000 4.9288 0.0000 26.2615
#
#
#
# Elastic Compliance Matrix: (Units=1/GPa)
#
#
# Indices 1 2 3 4 5 6 
#
# 1 0.016934 -0.007422 -0.006273 0.000000 0.000484 0.000000
# 2 -0.007422 0.014422 0.000174 0.000000 -0.000659 0.000000
# 3 -0.006273 0.000174 0.012302 0.000000 0.006070 0.000000
# 4 0.000000 0.000000 0.000000 0.131744 0.000000 -0.024726
# 5 0.000484 -0.000659 0.006070 0.000000 0.063340 0.000000
# 6 0.000000 0.000000 0.000000 -0.024726 0.000000 0.042719
#
#
# Mechanical properties :
#
#
# Convention : Reuss Voigt Hill
#
# Bulk Modulus (GPa) = 60.18704 63.65722 61.92213
# Shear Modulus (GPa) = 15.92136 22.31995 19.12065
#
# Velocity S-wave (km/s) = 2.99409 3.54505 3.28115
# Velocity P-wave (km/s) = 6.77063 7.25251 7.01571
#
# Compressibility (1/GPa) = 0.01661487
#
# Stress axis : x y z
#
# Youngs Moduli (GPa) = 59.05428 69.33710 81.28505
#
# Poissons Ratio (x) = 0.51463 0.50991
# Poissons Ratio (y) = 0.43831 -0.01410
# Poissons Ratio (z) = 0.37045 -0.01203
#
# Static dielectric constant tensor:
#      x y z
#    x 3.066740 0.000000 -0.261020 
#    y 0.000000 3.229150 0.000000 
#    z -0.261020 0.000000 3.635750 
# 
# 
# High freq. dielectric constant tensor:
#      x y z
#    x 1.659840 0.000000 -0.023880 
#    y 0.000000 1.680920 0.000000 
#    z -0.023880 0.000000 1.689860 
# 
# From -- ./inp_files/21001.got.cif
#   From: 2010.06.25/outbox.cif.g09.slc.cpg/sg11_11_cif.got.tgz:21001.got - 2010.06.27 23:14:04.
