data_PCOD8068967
_publ_section_title
;
Structure prediction by ZEFSAII (Michael W. Deem and Ramdas Pophale) SiO2 
 PCOD8068967
Probable space group: P 21/M
;
_chemical_formula_sum "Si O2"
_cell_formula_units_Z 32
_cell_length_a 26.657642
_cell_length_b 13.859284
_cell_length_c 8.807433
_cell_angle_alpha 90.000000
_cell_angle_beta 34.154597
_cell_angle_gamma 90.000000
_cell_volume 1826.862178
_symmetry_space_group_name_H-M "P 21/M"
_symmetry_group_IT_number 11
_symmetry_cell_setting 'monoclinic'
loop_
_space_group_symop_operation_xyz
x,y,z
-x,1/2+y,-z
-x,-y,-z
x,1/2-y,z
loop_
_atom_site_type_symbol
_atom_site_label
_atom_site_fract_x
_atom_site_fract_y
_atom_site_fract_z
Si Si1 0.568222 0.137352 0.611524
Si Si2 0.194885 0.858529 0.691962
Si Si3 0.568147 0.981452 0.197191
Si Si4 0.284491 0.532071 0.963473
Si Si5 0.141206 0.992242 0.090189
Si Si6 0.140400 0.861252 0.515447
Si Si7 0.004380 0.636573 0.608686
Si Si8 0.399215 0.642182 0.128029
O O1 0.586137 0.250000 0.552590
O O2 0.467898 0.111892 0.803949
O O3 0.644040 0.086172 0.320975
O O4 0.573876 0.103893 0.772137
O O5 0.166081 0.750000 0.818735
O O6 0.135163 0.900456 0.701567
O O7 0.293565 0.854103 0.378715
O O8 0.192876 0.936712 0.828973
O O9 0.500000 0.000000 0.500000
O O10 0.664680 0.965408 0.037588
O O11 0.563908 0.072360 0.094341
O O12 0.214390 0.474076 0.032255
O O13 0.224691 0.605725 0.206866
O O14 0.067608 0.915150 0.328577
O O15 0.094035 0.089833 0.150014
O O16 0.158343 0.750000 0.488548
O O17 0.046178 0.883068 0.670072
O O18 0.997873 0.750000 0.587388
O O19 0.438897 0.750000 0.001841
#
# Coordination Sequence:
#
# PCOD8068967 Si02
#       8
#     4   4   4   4   4   4   4   4
#     4  10  20  33  52  75 101 132 169 213 258 300
#     4  10  18  29  50  81 103 126 164 213 261 300
#     4  10  21  33  49  75 105 135 165 204 254 307
#     4  10  18  31  49  75 101 133 170 206 254 300
#     4  10  19  32  53  77 102 134 171 211 252 299
#     4   9  17  29  49  75 102 128 161 207 254 301
#     4   9  19  34  51  74 104 135 168 206 251 304
#     4  10  19  33  53  78 102 129 165 213 264 303
#
# _framework density 17.516373999999999
#
# number of rings (size 3 to 8) (size 9 to 14) (size 15 to 20)
#    0.000    2.250    2.500    1.125    0.000    3.500 
#    0.000    0.625    0.000    1.500    0.000    0.000 
#    0.000    0.000    0.000    0.000    0.000    0.000 
#
# Total GULP energy -396462.269217 kJ/mol
# GULP energy per Si atom -12389.445913 kJ/mol
# Density = 1.747651 g / cm^3
# Si number density = 17.516374 Si / 1000 Ang^3
#
#
#
# Elastic Constant Matrix: (Units=GPa)
#
#
# Indices 1 2 3 4 5 6 
#
# 1 144.0445 34.3615 29.8868 0.0000 -14.9233 0.0000
# 2 34.3615 46.4475 19.2291 0.0000 -9.0609 0.0000
# 3 29.8868 19.2291 43.0633 0.0000 -5.1943 0.0000
# 4 0.0000 0.0000 0.0000 20.9408 0.0000 -4.6741
# 5 -14.9233 -9.0609 -5.1943 0.0000 23.6717 0.0000
# 6 0.0000 0.0000 0.0000 -4.6741 0.0000 25.2056
#
#
#
# Elastic Compliance Matrix: (Units=1/GPa)
#
#
# Indices 1 2 3 4 5 6 
#
# 1 0.009174 -0.004526 -0.003962 0.000000 0.003182 0.000000
# 2 -0.004526 0.030096 -0.009504 0.000000 0.006582 0.000000
# 3 -0.003962 -0.009504 0.030277 0.000000 0.000508 0.000000
# 4 0.000000 0.000000 0.000000 0.049816 0.000000 0.009238
# 5 0.003182 0.006582 0.000508 0.000000 0.046881 0.000000
# 6 0.000000 0.000000 0.000000 0.009238 0.000000 0.041387
#
#
# Mechanical properties :
#
#
# Convention : Reuss Voigt Hill
#
# Bulk Modulus (GPa) = 29.79499 44.50112 37.14805
# Shear Modulus (GPa) = 19.62315 23.96881 21.79598
#
# Velocity S-wave (km/s) = 3.35068 3.70316 3.53132
# Velocity P-wave (km/s) = 5.65828 6.61401 6.15472
#
# Compressibility (1/GPa) = 0.03356269
#
# Stress axis : x y z
#
# Youngs Moduli (GPa) = 109.00905 33.22667 33.02883
#
# Poissons Ratio (x) = 0.15037 0.13086
# Poissons Ratio (y) = 0.49333 0.31391
# Poissons Ratio (z) = 0.43190 0.31579
#
# Static dielectric constant tensor:
#      x y z
#    x 3.950110 0.000000 -0.086470 
#    y 0.000000 3.135690 0.000000 
#    z -0.086470 0.000000 3.108730 
# 
# 
# High freq. dielectric constant tensor:
#      x y z
#    x 1.707340 0.000000 0.004420 
#    y 0.000000 1.642990 0.000000 
#    z 0.004420 0.000000 1.656140 
# 
# From -- ./inp_files/21840.got.cif
#   From: 2010.06.25/outbox.cif.g09.slc.cpg/sg11_11_cif.got.tgz:21840.got - 2010.06.27 23:14:04.
