data_PCOD8068399
_publ_section_title
;
Structure prediction by ZEFSAII (Michael W. Deem and Ramdas Pophale) SiO2 
 PCOD8068399
Probable space group: P 21/M
;
_chemical_formula_sum "Si O2"
_cell_formula_units_Z 32
_cell_length_a 11.829663
_cell_length_b 17.583016
_cell_length_c 23.469543
_cell_angle_alpha 90.000000
_cell_angle_beta 157.590663
_cell_angle_gamma 90.000000
_cell_volume 1861.003693
_symmetry_space_group_name_H-M "P 21/M"
_symmetry_group_IT_number 11
_symmetry_cell_setting 'monoclinic'
loop_
_space_group_symop_operation_xyz
x,y,z
-x,1/2+y,-z
-x,-y,-z
x,1/2-y,z
loop_
_atom_site_type_symbol
_atom_site_label
_atom_site_fract_x
_atom_site_fract_y
_atom_site_fract_z
Si Si1 0.791748 0.472419 0.726663
Si Si2 0.063861 0.573769 0.756327
Si Si3 0.832848 0.667634 0.815224
Si Si4 0.322758 0.598776 0.514228
Si Si5 0.910498 0.474838 0.020110
Si Si6 0.297606 0.450658 0.782961
Si Si7 0.368210 0.835477 0.982340
Si Si8 0.459282 0.659493 0.456778
O O1 0.478561 0.516602 0.580732
O O2 0.732051 0.384774 0.681056
O O3 0.995463 0.513659 0.774804
O O4 0.949678 0.476363 0.862384
O O5 0.193853 0.528006 0.764204
O O6 0.327353 0.629630 0.900400
O O7 0.790113 0.626046 0.609865
O O8 0.844653 0.750000 0.849592
O O9 0.495971 0.649928 0.640496
O O10 0.958897 0.609866 0.919625
O O11 0.035021 0.663370 0.852865
O O12 0.308828 0.641907 0.447310
O O13 0.989156 0.585551 0.381885
O O14 0.553728 0.472583 0.857692
O O15 0.000000 0.500000 0.000000
O O16 0.410540 0.387207 0.879202
O O17 0.496893 0.750000 0.039617
O O18 0.458596 0.750000 0.443995
#
# Coordination Sequence:
#
# PCOD8068399 Si02
#       8
#     4   4   4   4   4   4   4   4
#     4  10  18  35  53  75 108 141 177 208 265 331
#     4  11  17  32  53  76 112 148 171 202 268 340
#     4   9  17  33  55  77 106 141 175 217 270 318
#     4  10  17  30  53  82 107 138 174 212 265 324
#     4  10  22  39  57  76  98 143 193 227 265 317
#     4  11  20  32  53  80 110 139 176 228 265 312
#     4  10  19  29  46  77 112 143 171 211 266 318
#     4  11  19  29  51  83 117 146 171 208 263 334
#
# _framework density 17.195022999999999
#
# number of rings (size 3 to 8) (size 9 to 14) (size 15 to 20)
#    0.000    1.750    7.500    1.875    0.000    1.000 
#    0.000    3.125    0.000    1.500    0.000    0.000 
#    0.000    0.000    0.000    0.000    0.000    0.000 
#
# Total GULP energy -396613.367766 kJ/mol
# GULP energy per Si atom -12394.167743 kJ/mol
# Density = 1.715589 g / cm^3
# Si number density = 17.195023 Si / 1000 Ang^3
#
#
#
# Elastic Constant Matrix: (Units=GPa)
#
#
# Indices 1 2 3 4 5 6 
#
# 1 72.3425 41.6540 41.8388 0.0000 2.5537 0.0000
# 2 41.6540 125.7398 34.6000 0.0000 -1.0870 0.0000
# 3 41.8388 34.6000 92.8643 0.0000 17.8127 0.0000
# 4 0.0000 0.0000 0.0000 21.9608 0.0000 0.0606
# 5 2.5537 -1.0870 17.8127 0.0000 17.1399 0.0000
# 6 0.0000 0.0000 0.0000 0.0606 0.0000 13.0191
#
#
#
# Elastic Compliance Matrix: (Units=1/GPa)
#
#
# Indices 1 2 3 4 5 6 
#
# 1 0.021532 -0.004562 -0.009156 0.000000 0.006018 0.000000
# 2 -0.004562 0.010183 -0.002489 0.000000 0.003912 0.000000
# 3 -0.009156 -0.002489 0.019471 0.000000 -0.019029 0.000000
# 4 0.000000 0.000000 0.000000 0.045536 0.000000 -0.000212
# 5 0.006018 0.003912 -0.019029 0.000000 0.077471 0.000000
# 6 0.000000 0.000000 0.000000 -0.000212 0.000000 0.076811
#
#
# Mechanical properties :
#
#
# Convention : Reuss Voigt Hill
#
# Bulk Modulus (GPa) = 53.26874 58.57023 55.91949
# Shear Modulus (GPa) = 17.26070 21.94755 19.60412
#
# Velocity S-wave (km/s) = 3.17175 3.57654 3.38021
# Velocity P-wave (km/s) = 6.66781 7.15484 6.91562
#
# Compressibility (1/GPa) = 0.01877274
#
# Stress axis : x y z
#
# Youngs Moduli (GPa) = 46.44145 98.20409 51.35865
#
# Poissons Ratio (x) = 0.44797 0.47023
# Poissons Ratio (y) = 0.21185 0.12785
# Poissons Ratio (z) = 0.42521 0.24446
#
# Static dielectric constant tensor:
#      x y z
#    x 2.719490 0.000000 0.110090 
#    y 0.000000 3.476530 0.000000 
#    z 0.110090 0.000000 3.353250 
# 
# 
# High freq. dielectric constant tensor:
#      x y z
#    x 1.600590 0.000000 0.006890 
#    y 0.000000 1.667150 0.000000 
#    z 0.006890 0.000000 1.675360 
# 
# From -- ./inp_files/68700.got.cif
#   From: 2010.06.25/outbox.cif.g09.slc.cpg/sg11_35_cif.got.tgz:68700.got - 2010.06.27 23:14:04.
