data_PCOD8068749
_publ_section_title
;
Structure prediction by ZEFSAII (Michael W. Deem and Ramdas Pophale) SiO2 
 PCOD8068749
Probable space group: P 21/M
;
_chemical_formula_sum "Si O2"
_cell_formula_units_Z 32
_cell_length_a 13.963794
_cell_length_b 9.127904
_cell_length_c 20.776214
_cell_angle_alpha 90.000000
_cell_angle_beta 137.877926
_cell_angle_gamma 90.000000
_cell_volume 1776.140263
_symmetry_space_group_name_H-M "P 21/M"
_symmetry_group_IT_number 11
_symmetry_cell_setting 'monoclinic'
loop_
_space_group_symop_operation_xyz
x,y,z
-x,1/2+y,-z
-x,-y,-z
x,1/2-y,z
loop_
_atom_site_type_symbol
_atom_site_label
_atom_site_fract_x
_atom_site_fract_y
_atom_site_fract_z
Si Si1 0.655028 0.077428 0.954537
Si Si2 0.644660 0.076372 0.185123
Si Si3 0.344972 0.077428 0.545463
Si Si4 0.355340 0.423628 0.314877
Si Si5 0.330384 0.411473 0.162184
Si Si6 0.840939 0.923307 0.667884
Si Si7 0.669616 0.088527 0.337816
Si Si8 0.840939 0.076693 0.167884
O O1 0.631346 0.250000 0.939847
O O2 0.506203 0.002861 0.898180
O O3 0.718196 0.024069 0.917301
O O4 0.768926 0.030436 0.065065
O O5 0.616557 0.250000 0.165995
O O6 0.719546 0.038296 0.291281
O O7 0.748496 0.015748 0.181441
O O8 0.368654 0.250000 0.560153
O O9 0.231074 0.030436 0.434935
O O10 0.493797 0.002861 0.601820
O O11 0.281804 0.024069 0.582699
O O12 0.383443 0.250000 0.334005
O O13 0.280454 0.461704 0.208719
O O14 0.251504 0.484252 0.318559
O O15 0.269248 0.250000 0.115138
O O16 0.500000 0.404684 0.250000
O O17 0.849068 0.750000 0.678418
O O18 0.000000 0.991132 0.750000
O O19 0.730752 0.250000 0.384862
O O20 0.849068 0.250000 0.178418
#
# Coordination Sequence:
#
# PCOD8068749 Si02
#       8
#     4   4   4   4   4   4   4   4
#     4  10  18  28  48  74  95 117 148 192 235 266
#     4   9  17  31  51  70  90 121 156 187 223 272
#     4  10  18  28  48  74  95 117 148 192 235 266
#     4   9  17  31  51  70  90 121 156 187 223 272
#     4   8  15  28  46  68  93 121 151 183 223 273
#     4   9  18  32  48  67  92 123 158 190 223 269
#     4   8  15  28  46  68  93 121 151 183 223 273
#     4   9  18  32  48  67  92 123 158 190 223 269
#
# _framework density 18.016596
#
# number of rings (size 3 to 8) (size 9 to 14) (size 15 to 20)
#    0.000    3.000    0.000    3.000    0.000    4.500 
#    0.000    2.500    0.000    6.750    0.000    0.000 
#    0.000    0.000    0.000    0.000    0.000    0.000 
#
# Total GULP energy -396628.118816 kJ/mol
# GULP energy per Si atom -12394.628713 kJ/mol
# Density = 1.797559 g / cm^3
# Si number density = 18.016596 Si / 1000 Ang^3
#
#
#
# Elastic Constant Matrix: (Units=GPa)
#
#
# Indices 1 2 3 4 5 6 
#
# 1 79.0654 41.5662 89.9729 0.0000 -17.9025 0.0000
# 2 41.5662 53.6856 48.9080 0.0000 -7.7372 0.0000
# 3 89.9729 48.9080 133.6405 0.0000 -19.5344 0.0000
# 4 0.0000 0.0000 0.0000 19.7490 0.0000 -4.9664
# 5 -17.9025 -7.7372 -19.5344 0.0000 29.9179 0.0000
# 6 0.0000 0.0000 0.0000 -4.9664 0.0000 16.9409
#
#
#
# Elastic Compliance Matrix: (Units=1/GPa)
#
#
# Indices 1 2 3 4 5 6 
#
# 1 0.064018 -0.015275 -0.035915 0.000000 0.010907 0.000000
# 2 -0.015275 0.031598 -0.001572 0.000000 -0.001995 0.000000
# 3 -0.035915 -0.001572 0.032101 0.000000 -0.000938 0.000000
# 4 0.000000 0.000000 0.000000 0.054665 0.000000 0.016026
# 5 0.010907 -0.001995 -0.000938 0.000000 0.038823 0.000000
# 6 0.000000 0.000000 0.000000 0.016026 0.000000 0.063727
#
#
# Mechanical properties :
#
#
# Convention : Reuss Voigt Hill
#
# Bulk Modulus (GPa) = 45.06003 69.69841 57.37922
# Shear Modulus (GPa) = 12.56748 19.05118 15.80933
#
# Velocity S-wave (km/s) = 2.64398 3.25533 2.96545
# Velocity P-wave (km/s) = 5.86391 7.27319 6.60624
#
# Compressibility (1/GPa) = 0.02219262
#
# Stress axis : x y z
#
# Youngs Moduli (GPa) = 15.62070 31.64772 31.15208
#
# Poissons Ratio (x) = 0.48342 1.11883
# Poissons Ratio (y) = 0.23860 0.04896
# Poissons Ratio (z) = 0.56102 0.04974
#
# Static dielectric constant tensor:
#      x y z
#    x 3.727330 0.000000 -0.394080 
#    y 0.000000 3.109190 0.000000 
#    z -0.394080 0.000000 3.371620 
# 
# 
# High freq. dielectric constant tensor:
#      x y z
#    x 1.695270 0.000000 -0.030680 
#    y 0.000000 1.671280 0.000000 
#    z -0.030680 0.000000 1.686110 
# 
# From -- ./inp_files/65224.got.cif
#   From: 2010.06.25/outbox.cif.g09.slc.cpg/sg11_33_cif.got.tgz:65224.got - 2010.06.27 23:14:04.
