data_PCOD8068719
_publ_section_title
;
Structure prediction by ZEFSAII (Michael W. Deem and Ramdas Pophale) SiO2 
 PCOD8068719
Probable space group: P 21/M
;
_chemical_formula_sum "Si O2"
_cell_formula_units_Z 32
_cell_length_a 29.011317
_cell_length_b 8.920591
_cell_length_c 9.578296
_cell_angle_alpha 90.000000
_cell_angle_beta 133.220656
_cell_angle_gamma 90.000000
_cell_volume 1806.388179
_symmetry_space_group_name_H-M "P 21/M"
_symmetry_group_IT_number 11
_symmetry_cell_setting 'monoclinic'
loop_
_space_group_symop_operation_xyz
x,y,z
-x,1/2+y,-z
-x,-y,-z
x,1/2-y,z
loop_
_atom_site_type_symbol
_atom_site_label
_atom_site_fract_x
_atom_site_fract_y
_atom_site_fract_z
Si Si1 0.052728 0.574212 0.514847
Si Si2 0.361778 0.072637 0.254972
Si Si3 0.002938 0.571170 0.852015
Si Si4 0.455987 0.572071 0.652343
Si Si5 0.875007 0.076975 0.070948
Si Si6 0.255663 0.076344 0.239722
Si Si7 0.598068 0.573569 0.955513
Si Si8 0.636065 0.925163 0.330791
O O1 0.039323 0.750000 0.465197
O O2 0.115121 0.548938 0.741207
O O3 0.000000 0.500000 0.500000
O O4 0.054281 0.493150 0.365778
O O5 0.369111 0.250000 0.291933
O O6 0.296949 0.017743 0.193493
O O7 0.360657 0.021754 0.091686
O O8 0.423113 0.996236 0.448245
O O9 0.996220 0.750000 0.849308
O O10 0.067334 0.518952 0.907498
O O11 0.000000 0.500000 0.000000
O O12 0.454016 0.750000 0.639014
O O13 0.527225 0.506903 0.807083
O O14 0.419469 0.519044 0.713903
O O15 0.867992 0.250000 0.025423
O O16 0.811069 0.002398 0.887638
O O17 0.241266 0.250000 0.193828
O O18 0.295394 0.039577 0.461891
O O19 0.590126 0.750000 0.935882
O O20 0.637334 0.523415 0.172664
O O21 0.619817 0.750000 0.316063
#
# Coordination Sequence:
#
# PCOD8068719 Si02
#       8
#     4   4   4   4   4   4   4   4
#     4   9  17  31  51  76 103 133 166 201 240 286
#     4   9  18  33  49  67  93 125 158 200 246 288
#     4  10  20  34  53  80 109 137 163 197 246 292
#     4  10  18  28  46  72  94 120 157 196 243 301
#     4   9  19  34  53  74 100 132 163 196 240 285
#     4   9  18  31  49  69  91 126 170 202 232 279
#     4   9  17  30  49  69  92 121 156 199 249 296
#     4   9  18  33  49  67  94 128 161 199 243 289
#
# _framework density 17.714908000000001
#
# number of rings (size 3 to 8) (size 9 to 14) (size 15 to 20)
#    0.000    2.750    0.000    3.375    0.000    5.000 
#    0.000    3.125    0.000    1.500    0.000    0.000 
#    0.000    0.000    0.000    0.000    0.000    0.000 
#
# Total GULP energy -396554.258691 kJ/mol
# GULP energy per Si atom -12392.320584 kJ/mol
# Density = 1.767459 g / cm^3
# Si number density = 17.714908 Si / 1000 Ang^3
#
#
#
# Elastic Constant Matrix: (Units=GPa)
#
#
# Indices 1 2 3 4 5 6 
#
# 1 85.7561 25.4635 73.5060 0.0000 -13.3414 0.0000
# 2 25.4635 48.1535 33.8726 0.0000 -4.3349 0.0000
# 3 73.5060 33.8726 118.8848 0.0000 -19.3492 0.0000
# 4 0.0000 0.0000 0.0000 29.2008 0.0000 0.6231
# 5 -13.3414 -4.3349 -19.3492 0.0000 38.5420 0.0000
# 6 0.0000 0.0000 0.0000 0.6231 0.0000 24.7231
#
#
#
# Elastic Compliance Matrix: (Units=1/GPa)
#
#
# Indices 1 2 3 4 5 6 
#
# 1 0.025181 -0.002989 -0.014542 0.000000 0.001080 0.000000
# 2 -0.002989 0.026354 -0.005822 0.000000 -0.000994 0.000000
# 3 -0.014542 -0.005822 0.019749 0.000000 0.004226 0.000000
# 4 0.000000 0.000000 0.000000 0.034264 0.000000 -0.000864
# 5 0.001080 -0.000994 0.004226 0.000000 0.028329 0.000000
# 6 0.000000 0.000000 0.000000 -0.000864 0.000000 0.040470
#
#
# Mechanical properties :
#
#
# Convention : Reuss Voigt Hill
#
# Bulk Modulus (GPa) = 40.68758 57.60874 49.14816
# Shear Modulus (GPa) = 21.81052 26.49000 24.15026
#
# Velocity S-wave (km/s) = 3.51265 3.87117 3.69626
# Velocity P-wave (km/s) = 6.28247 7.25064 6.78385
#
# Compressibility (1/GPa) = 0.02457752
#
# Stress axis : x y z
#
# Youngs Moduli (GPa) = 39.71195 37.94540 50.63425
#
# Poissons Ratio (x) = 0.11343 0.73633
# Poissons Ratio (y) = 0.11871 0.29480
# Poissons Ratio (z) = 0.57749 0.22092
#
# Static dielectric constant tensor:
#      x y z
#    x 3.359530 0.000000 -0.289660 
#    y 0.000000 3.192010 0.000000 
#    z -0.289660 0.000000 3.673350 
# 
# 
# High freq. dielectric constant tensor:
#      x y z
#    x 1.663490 0.000000 -0.014060 
#    y 0.000000 1.675860 0.000000 
#    z -0.014060 0.000000 1.692070 
# 
# From -- ./inp_files/28097.got.cif
#   From: 2010.06.25/outbox.cif.g09.slc.cpg/sg11_15_cif.got.tgz:28097.got - 2010.06.27 23:14:04.
