data_PCOD8068018
_publ_section_title
;
Structure prediction by ZEFSAII (Michael W. Deem and Ramdas Pophale) SiO2 
 PCOD8068018
Probable space group: P 2/M
;
_chemical_formula_sum "Si O2"
_cell_formula_units_Z 24
_cell_length_a 23.224084
_cell_length_b 9.614568
_cell_length_c 31.832912
_cell_angle_alpha 90.000000
_cell_angle_beta 11.641109
_cell_angle_gamma 90.000000
_cell_volume 1434.248376
_symmetry_space_group_name_H-M "P 2/M"
_symmetry_group_IT_number 10
_symmetry_cell_setting 'monoclinic'
loop_
_space_group_symop_operation_xyz
x,y,z
-x,y,-z
-x,-y,-z
x,-y,z
loop_
_atom_site_type_symbol
_atom_site_label
_atom_site_fract_x
_atom_site_fract_y
_atom_site_fract_z
Si Si1 0.722393 0.665346 0.220616
Si Si2 0.390577 0.659310 0.853001
Si Si3 0.709998 0.658392 0.539102
Si Si4 0.877133 0.837734 0.542783
Si Si5 0.183642 0.838286 0.238636
Si Si6 0.240422 0.665741 0.712747
O O1 0.749095 0.500000 0.202469
O O2 0.440056 0.708077 0.396613
O O3 0.709390 0.727068 0.276671
O O4 0.000000 0.729801 0.000000
O O5 0.419641 0.500000 0.847531
O O6 0.481698 0.673444 0.739531
O O7 0.585915 0.753689 0.743302
O O8 0.063654 0.712556 0.089410
O O9 0.818452 0.500000 0.458400
O O10 0.979751 0.755861 0.353051
O O11 0.000000 0.791159 0.500000
O O12 0.109629 0.803083 0.340234
O O13 0.799288 0.000000 0.598311
O O14 0.138216 0.000000 0.262095
O O15 0.500000 0.790750 0.000000
O O16 0.500000 0.726230 0.500000
O O17 0.246355 0.500000 0.710025
#
# Coordination Sequence:
#
# PCOD8068018 Si02
#       6
#     4   4   4   4   4   4
#     4   9  14  24  43  64  87 118 151 177 209 263
#     4   9  16  28  47  69  92 118 148 185 225 260
#     4   9  16  27  47  71  91 116 151 186 219 259
#     4   9  18  33  51  67  85 117 156 185 217 270
#     4   9  18  33  50  66  89 119 148 183 228 271
#     4   9  16  26  41  64  94 121 145 178 220 262
#
# _framework density 16.733502999999999
#
# number of rings (size 3 to 8) (size 9 to 14) (size 15 to 20)
#    0.000    3.000    1.667    0.000    0.000    0.667 
#    3.000    0.000    0.000    2.000    0.000    0.000 
#    0.000    0.000    0.000    0.000    0.000    0.000 
#
# Total GULP energy -297529.262015 kJ/mol
# GULP energy per Si atom -12397.052584 kJ/mol
# Density = 1.669542 g / cm^3
# Si number density = 16.733503 Si / 1000 Ang^3
#
#
#
# Elastic Constant Matrix: (Units=GPa)
#
#
# Indices 1 2 3 4 5 6 
#
# 1 132.4425 34.8725 80.9127 0.0000 -16.1929 0.0000
# 2 34.8725 35.1268 46.2177 0.0000 -10.1694 0.0000
# 3 80.9127 46.2177 160.8559 0.0000 -8.0789 0.0000
# 4 0.0000 0.0000 0.0000 2.3001 0.0000 7.7606
# 5 -16.1929 -10.1694 -8.0789 0.0000 25.7614 0.0000
# 6 0.0000 0.0000 0.0000 7.7606 0.0000 6.2344
#
#
#
# Elastic Compliance Matrix: (Units=1/GPa)
#
#
# Indices 1 2 3 4 5 6 
#
# 1 0.012085 -0.004898 -0.004457 0.000000 0.004265 0.000000
# 2 -0.004898 0.053483 -0.012190 0.000000 0.014211 0.000000
# 3 -0.004457 -0.012190 0.011764 0.000000 -0.003924 0.000000
# 4 0.000000 0.000000 0.000000 -0.135861 0.000000 0.169122
# 5 0.004265 0.014211 -0.003924 0.000000 0.045878 0.000000
# 6 0.000000 0.000000 0.000000 0.169122 0.000000 -0.050124
#
#
# Mechanical properties :
#
#
# Convention : Reuss Voigt Hill
#
# Bulk Modulus (GPa) = 29.20348 72.49234 50.84791
# Shear Modulus (GPa) = -604.43470 17.95398 -293.24036
#
# Velocity S-wave (km/s) = -19.02620 3.27912 -13.25224
# Velocity P-wave (km/s) = 21.56785 7.59951 14.27269
#
# Compressibility (1/GPa) = 0.03424250
#
# Stress axis : x y z
#
# Youngs Moduli (GPa) = 82.75045 18.69748 85.00484
#
# Poissons Ratio (x) = 0.09158 0.37889
# Poissons Ratio (y) = 0.40530 1.03617
# Poissons Ratio (z) = 0.36884 0.22791
#
# Static dielectric constant tensor:
#      x y z
#    x 3.245790 0.000000 0.007560 
#    y 0.000000 2.805120 0.000000 
#    z 0.007560 0.000000 3.199590 
# 
# 
# High freq. dielectric constant tensor:
#      x y z
#    x 1.642990 0.000000 -0.007950 
#    y 0.000000 1.604460 0.000000 
#    z -0.007950 0.000000 1.645860 
# 
# From -- ./inp_files/27772.got.cif
#   From: 2010.06.25/outbox.cif.g09.slc.cpg/sg10_14_cif.got.tgz:27772.got - 2010.06.27 22:07:45.
