data_PCOD8068624
_publ_section_title
;
Structure prediction by ZEFSAII (Michael W. Deem and Ramdas Pophale) SiO2 
 PCOD8068624
Probable space group: P 21/M
;
_chemical_formula_sum "Si O2"
_cell_formula_units_Z 32
_cell_length_a 15.852068
_cell_length_b 8.958067
_cell_length_c 30.356427
_cell_angle_alpha 90.000000
_cell_angle_beta 30.027999
_cell_angle_gamma 90.000000
_cell_volume 2157.189382
_symmetry_space_group_name_H-M "P 21/M"
_symmetry_group_IT_number 11
_symmetry_cell_setting 'monoclinic'
loop_
_space_group_symop_operation_xyz
x,y,z
-x,1/2+y,-z
-x,-y,-z
x,1/2-y,z
loop_
_atom_site_type_symbol
_atom_site_label
_atom_site_fract_x
_atom_site_fract_y
_atom_site_fract_z
Si Si1 0.607135 0.576247 0.192273
Si Si2 0.711562 0.919342 0.494133
Si Si3 0.076608 0.924268 0.529442
Si Si4 0.234287 0.925967 0.365897
Si Si5 0.909121 0.575037 0.000357
Si Si6 0.165239 0.072360 0.830031
Si Si7 0.676149 0.922684 0.412965
Si Si8 0.316091 0.925073 0.676429
O O1 0.584713 0.750000 0.211724
O O2 0.420674 0.505779 0.272788
O O3 0.709280 0.548770 0.100258
O O4 0.707381 0.512988 0.189516
O O5 0.740001 0.750000 0.497308
O O6 0.774812 0.937377 0.414839
O O7 0.514869 0.961088 0.588152
O O8 0.822474 0.029241 0.472969
O O9 0.045076 0.750000 0.545080
O O10 0.184133 0.971977 0.438132
O O11 0.894191 0.002232 0.610870
O O12 0.228329 0.750000 0.361433
O O13 0.951045 0.750000 0.979388
O O14 0.000000 0.500000 0.000000
O O15 0.977869 0.493929 0.925270
O O16 0.154086 0.250000 0.833121
O O17 0.224672 0.008482 0.757128
O O18 0.649857 0.750000 0.412342
O O19 0.500000 0.000000 0.500000
O O20 0.765017 0.008167 0.332064
O O21 0.279037 0.750000 0.695305
#
# Coordination Sequence:
#
# PCOD8068624 Si02
#       8
#     4   4   4   4   4   4   4   4
#     4   8  15  27  43  59  77 108 144 173 205 245
#     4   9  18  30  43  59  81 110 140 169 204 245
#     4  10  19  28  41  61  82 107 139 174 209 242
#     4   9  17  30  43  56  79 109 140 174 209 242
#     4   9  16  27  41  59  82 107 139 174 208 247
#     4  10  18  28  42  61  85 112 141 171 207 248
#     4   9  17  29  43  60  82 108 138 170 205 244
#     4  10  19  29  42  62  85 110 141 173 206 243
#
# _framework density 14.834117000000001
#
# number of rings (size 3 to 8) (size 9 to 14) (size 15 to 20)
#    0.000    2.750    0.000    4.125    0.000    4.500 
#    0.000    3.750    0.000    0.000    0.000    0.000 
#    0.000    1.000    0.000    3.000    0.000    4.000 
#
# Total GULP energy -396576.268998 kJ/mol
# GULP energy per Si atom -12393.008406 kJ/mol
# Density = 1.480035 g / cm^3
# Si number density = 14.834117 Si / 1000 Ang^3
#
#
#
# Elastic Constant Matrix: (Units=GPa)
#
#
# Indices 1 2 3 4 5 6 
#
# 1 66.2747 32.5526 42.3810 0.0000 9.3585 0.0000
# 2 32.5526 70.1279 41.3946 0.0000 5.8628 0.0000
# 3 42.3810 41.3946 106.8608 0.0000 8.9176 0.0000
# 4 0.0000 0.0000 0.0000 22.2674 0.0000 4.4950
# 5 9.3585 5.8628 8.9176 0.0000 22.3476 0.0000
# 6 0.0000 0.0000 0.0000 4.4950 0.0000 23.9336
#
#
#
# Elastic Compliance Matrix: (Units=1/GPa)
#
#
# Indices 1 2 3 4 5 6 
#
# 1 0.023019 -0.006623 -0.006108 0.000000 -0.005465 0.000000
# 2 -0.006623 0.020485 -0.005267 0.000000 -0.000499 0.000000
# 3 -0.006108 -0.005267 0.013956 0.000000 -0.001630 0.000000
# 4 0.000000 0.000000 0.000000 0.046678 0.000000 -0.008767
# 5 -0.005465 -0.000499 -0.001630 0.000000 0.047817 0.000000
# 6 0.000000 0.000000 0.000000 -0.008767 0.000000 0.043429
#
#
# Mechanical properties :
#
#
# Convention : Reuss Voigt Hill
#
# Bulk Modulus (GPa) = 46.58745 52.88000 49.73373
# Shear Modulus (GPa) = 20.96125 22.17207 21.56666
#
# Velocity S-wave (km/s) = 3.76313 3.87029 3.81708
# Velocity P-wave (km/s) = 7.09614 7.46305 7.28191
#
# Compressibility (1/GPa) = 0.02146501
#
# Stress axis : x y z
#
# Youngs Moduli (GPa) = 43.44160 48.81726 71.65129
#
# Poissons Ratio (x) = 0.32333 0.43763
# Poissons Ratio (y) = 0.28772 0.37737
# Poissons Ratio (z) = 0.26533 0.25711
#
# Static dielectric constant tensor:
#      x y z
#    x 2.841350 0.000000 0.145380 
#    y 0.000000 2.998730 0.000000 
#    z 0.145380 0.000000 3.103360 
# 
# 
# High freq. dielectric constant tensor:
#      x y z
#    x 1.537780 0.000000 0.015420 
#    y 0.000000 1.575040 0.000000 
#    z 0.015420 0.000000 1.553090 
# 
# From -- ./inp_files/56014.got.cif
#   From: 2010.06.25/outbox.cif.g09.slc.cpg/sg11_29_cif.got.tgz:56014.got - 2010.06.27 23:14:04.
