data_PCOD8068478
_publ_section_title
;
Structure prediction by ZEFSAII (Michael W. Deem and Ramdas Pophale) SiO2 
 PCOD8068478
Probable space group: P 21/M
;
_chemical_formula_sum "Si O2"
_cell_formula_units_Z 32
_cell_length_a 15.461341
_cell_length_b 8.852071
_cell_length_c 26.136145
_cell_angle_alpha 90.000000
_cell_angle_beta 27.346134
_cell_angle_gamma 90.000000
_cell_volume 1643.203672
_symmetry_space_group_name_H-M "P 21/M"
_symmetry_group_IT_number 11
_symmetry_cell_setting 'monoclinic'
loop_
_space_group_symop_operation_xyz
x,y,z
-x,1/2+y,-z
-x,-y,-z
x,1/2-y,z
loop_
_atom_site_type_symbol
_atom_site_label
_atom_site_fract_x
_atom_site_fract_y
_atom_site_fract_z
Si Si1 0.558066 0.571077 0.235416
Si Si2 0.265141 0.571238 0.764622
Si Si3 0.152063 0.071105 0.000103
Si Si4 0.363552 0.429378 0.990954
Si Si5 0.061432 0.425950 0.229443
Si Si6 0.681805 0.429067 0.379672
Si Si7 0.178564 0.928829 0.379243
Si Si8 0.753047 0.573654 0.764757
O O1 0.561160 0.750000 0.238178
O O2 0.576654 0.500212 0.281872
O O3 0.731259 0.510098 0.109824
O O4 0.363677 0.516245 0.312202
O O5 0.272602 0.750000 0.765784
O O6 0.307557 0.519613 0.684780
O O7 0.060138 0.506927 0.888931
O O8 0.145032 0.250000 0.003260
O O9 0.256879 0.018146 0.995989
O O10 0.402147 0.250000 0.971318
O O11 0.558588 0.517625 0.890900
O O12 0.238769 0.488678 0.104035
O O13 0.054477 0.250000 0.220278
O O14 0.087826 0.457416 0.275788
O O15 0.864245 0.495579 0.313616
O O16 0.500000 0.500000 0.500000
O O17 0.670416 0.250000 0.390595
O O18 0.160803 0.750000 0.389488
O O19 0.188901 0.981256 0.315467
O O20 0.000000 0.000000 0.500000
O O21 0.740270 0.750000 0.757919
#
# Coordination Sequence:
#
# PCOD8068478 Si02
#       8
#     4   4   4   4   4   4   4   4
#     4  10  21  37  58  84 114 147 182 225 284 344
#     4  10  20  35  59  86 112 146 188 232 276 331
#     4   9  16  32  58  84 111 146 185 224 275 340
#     4  10  17  34  61  84 113 155 191 227 282 345
#     4   9  19  36  60  84 113 154 192 228 283 346
#     4  10  21  39  59  80 109 149 193 234 279 335
#     4  11  24  43  63  82 110 153 196 238 286 337
#     4  11  22  36  57  90 121 148 187 235 283 339
#
# _framework density 19.474153999999999
#
# number of rings (size 3 to 8) (size 9 to 14) (size 15 to 20)
#    0.000    2.000    2.500    1.500    0.000    2.500 
#    0.000    6.875    0.000    0.000    0.000    0.000 
#    0.000    0.000    0.000    0.000    0.000    0.000 
#
# Total GULP energy -396822.754347 kJ/mol
# GULP energy per Si atom -12400.711073 kJ/mol
# Density = 1.942983 g / cm^3
# Si number density = 19.474154 Si / 1000 Ang^3
#
#
#
# Elastic Constant Matrix: (Units=GPa)
#
#
# Indices 1 2 3 4 5 6 
#
# 1 154.5656 37.6998 75.7852 0.0000 5.7330 0.0000
# 2 37.6998 35.0531 33.4497 0.0000 0.4984 0.0000
# 3 75.7852 33.4497 161.4468 0.0000 -2.2549 0.0000
# 4 0.0000 0.0000 0.0000 32.5084 0.0000 0.5034
# 5 5.7330 0.4984 -2.2549 0.0000 14.5741 0.0000
# 6 0.0000 0.0000 0.0000 0.5034 0.0000 25.4171
#
#
#
# Elastic Compliance Matrix: (Units=1/GPa)
#
#
# Indices 1 2 3 4 5 6 
#
# 1 0.010073 -0.007736 -0.003184 0.000000 -0.004191 0.000000
# 2 -0.007736 0.041580 -0.004972 0.000000 0.000852 0.000000
# 3 -0.003184 -0.004972 0.008758 0.000000 0.002778 0.000000
# 4 0.000000 0.000000 0.000000 0.030771 0.000000 -0.000609
# 5 -0.004191 0.000852 0.002778 0.000000 0.070664 0.000000
# 6 0.000000 0.000000 0.000000 -0.000609 0.000000 0.039356
#
#
# Mechanical properties :
#
#
# Convention : Reuss Voigt Hill
#
# Bulk Modulus (GPa) = 34.93138 71.65943 53.29541
# Shear Modulus (GPa) = 20.61626 28.10864 24.36245
#
# Velocity S-wave (km/s) = 3.25722 3.80331 3.54081
# Velocity P-wave (km/s) = 5.66764 7.49426 6.64402
#
# Compressibility (1/GPa) = 0.02862755
#
# Stress axis : x y z
#
# Youngs Moduli (GPa) = 99.27266 24.05003 114.18606
#
# Poissons Ratio (x) = 0.18604 0.36361
# Poissons Ratio (y) = 0.76793 0.56770
# Poissons Ratio (z) = 0.31612 0.11957
#
# Static dielectric constant tensor:
#      x y z
#    x 3.742540 0.000000 -0.105550 
#    y 0.000000 3.199070 0.000000 
#    z -0.105550 0.000000 3.569670 
# 
# 
# High freq. dielectric constant tensor:
#      x y z
#    x 1.775000 0.000000 0.001210 
#    y 0.000000 1.726790 0.000000 
#    z 0.001210 0.000000 1.761340 
# 
# From -- ./inp_files/51736.got.cif
#   From: 2010.06.25/outbox.cif.g09.slc.cpg/sg11_26_cif.got.tgz:51736.got - 2010.06.27 23:14:04.
