data_PCOD8068848
_publ_section_title
;
Structure prediction by ZEFSAII (Michael W. Deem and Ramdas Pophale) SiO2 
 PCOD8068848
Probable space group: P 21/M
;
_chemical_formula_sum "Si O2"
_cell_formula_units_Z 28
_cell_length_a 11.839512
_cell_length_b 8.938722
_cell_length_c 19.096903
_cell_angle_alpha 90.000000
_cell_angle_beta 51.970774
_cell_angle_gamma 90.000000
_cell_volume 1591.956331
_symmetry_space_group_name_H-M "P 21/M"
_symmetry_group_IT_number 11
_symmetry_cell_setting 'monoclinic'
loop_
_space_group_symop_operation_xyz
x,y,z
-x,1/2+y,-z
-x,-y,-z
x,1/2-y,z
loop_
_atom_site_type_symbol
_atom_site_label
_atom_site_fract_x
_atom_site_fract_y
_atom_site_fract_z
Si Si1 0.012143 0.924828 0.153178
Si Si2 0.266271 0.076210 0.813436
Si Si3 0.115128 0.921174 0.408576
Si Si4 0.266497 0.427123 0.973383
Si Si5 0.838956 0.076203 0.765512
Si Si6 0.445594 0.074314 0.132422
Si Si7 0.571524 0.077534 0.715376
O O1 0.030600 0.750000 0.128155
O O2 0.032617 0.951451 0.228492
O O3 0.855793 0.991553 0.190956
O O4 0.128090 0.016619 0.066135
O O5 0.235441 0.250000 0.825734
O O6 0.252697 0.016833 0.898128
O O7 0.429328 0.042766 0.722653
O O8 0.070136 0.750000 0.424934
O O9 0.112671 0.983502 0.329621
O O10 0.275021 0.944226 0.381537
O O11 0.000000 0.000000 0.500000
O O12 0.278181 0.250000 0.974647
O O13 0.410187 0.497818 0.953067
O O14 0.797406 0.250000 0.775020
O O15 0.698674 0.989777 0.848567
O O16 0.454821 0.250000 0.116169
O O17 0.431957 0.035616 0.219166
O O18 0.560374 0.250000 0.747305
#
# Coordination Sequence:
#
# PCOD8068848 Si02
#       7
#     4   4   4   4   4   4   4
#     4  10  19  31  48  68  90 121 161 197 227 268
#     4   8  15  29  49  69  90 121 159 193 225 265
#     4   9  17  30  50  73  94 117 145 182 229 278
#     4  10  19  31  46  66  95 126 157 196 236 268
#     4   9  19  34  48  66  95 124 149 185 236 283
#     4  10  18  29  47  68  90 120 160 198 229 270
#     4   8  15  30  49  70  96 121 147 185 233 274
#
# _framework density 17.588422999999999
#
# number of rings (size 3 to 8) (size 9 to 14) (size 15 to 20)
#    0.000    2.857    0.000    3.857    0.000    3.429 
#    0.000    2.857    0.000    0.857    0.000    0.000 
#    0.000    0.000    0.000    0.000    0.000    1.429 
#
# Total GULP energy -346886.044511 kJ/mol
# GULP energy per Si atom -12388.787304 kJ/mol
# Density = 1.754839 g / cm^3
# Si number density = 17.588423 Si / 1000 Ang^3
#
#
#
# Elastic Constant Matrix: (Units=GPa)
#
#
# Indices 1 2 3 4 5 6 
#
# 1 125.5771 29.0867 62.4130 0.0000 -18.2034 0.0000
# 2 29.0867 59.0763 29.0877 0.0000 -6.6020 0.0000
# 3 62.4130 29.0877 98.9654 0.0000 -23.8813 0.0000
# 4 0.0000 0.0000 0.0000 26.4950 0.0000 -5.0259
# 5 -18.2034 -6.6020 -23.8813 0.0000 21.6286 0.0000
# 6 0.0000 0.0000 0.0000 -5.0259 0.0000 14.5996
#
#
#
# Elastic Compliance Matrix: (Units=1/GPa)
#
#
# Indices 1 2 3 4 5 6 
#
# 1 0.012009 -0.002573 -0.006227 0.000000 0.002446 0.000000
# 2 -0.002573 0.020347 -0.004610 0.000000 -0.001045 0.000000
# 3 -0.006227 -0.004610 0.018788 0.000000 0.014097 0.000000
# 4 0.000000 0.000000 0.000000 0.040380 0.000000 0.013901
# 5 0.002446 -0.001045 0.014097 0.000000 0.063541 0.000000
# 6 0.000000 0.000000 0.000000 0.013901 0.000000 0.073281
#
#
# Mechanical properties :
#
#
# Convention : Reuss Voigt Hill
#
# Bulk Modulus (GPa) = 41.11050 58.31042 49.71046
# Shear Modulus (GPa) = 18.99174 23.41338 21.20256
#
# Velocity S-wave (km/s) = 3.28958 3.65249 3.47577
# Velocity P-wave (km/s) = 6.15246 7.14229 6.66577
#
# Compressibility (1/GPa) = 0.02432469
#
# Stress axis : x y z
#
# Youngs Moduli (GPa) = 83.27392 49.14682 53.22517
#
# Poissons Ratio (x) = 0.12647 0.33141
# Poissons Ratio (y) = 0.21429 0.24535
# Poissons Ratio (z) = 0.51852 0.22655
#
# Static dielectric constant tensor:
#      x y z
#    x 3.796480 0.000000 -0.273890 
#    y 0.000000 3.066990 0.000000 
#    z -0.273890 0.000000 3.050260 
# 
# 
# High freq. dielectric constant tensor:
#      x y z
#    x 1.685550 0.000000 -0.025430 
#    y 0.000000 1.662940 0.000000 
#    z -0.025430 0.000000 1.644600 
# 
# From -- ./inp_files/42350.got.cif
#   From: 2010.06.25/outbox.cif.g09.slc.cpg/sg11_22_cif.got.tgz:42350.got - 2010.06.27 23:14:04.
