data_PCOD8068611
_publ_section_title
;
Structure prediction by ZEFSAII (Michael W. Deem and Ramdas Pophale) SiO2 
 PCOD8068611
Probable space group: P 21/M
;
_chemical_formula_sum "Si O2"
_cell_formula_units_Z 28
_cell_length_a 12.351277
_cell_length_b 9.313151
_cell_length_c 22.475838
_cell_angle_alpha 90.000000
_cell_angle_beta 44.026819
_cell_angle_gamma 90.000000
_cell_volume 1796.826240
_symmetry_space_group_name_H-M "P 21/M"
_symmetry_group_IT_number 11
_symmetry_cell_setting 'monoclinic'
loop_
_space_group_symop_operation_xyz
x,y,z
-x,1/2+y,-z
-x,-y,-z
x,1/2-y,z
loop_
_atom_site_type_symbol
_atom_site_label
_atom_site_fract_x
_atom_site_fract_y
_atom_site_fract_z
Si Si1 0.324148 0.413847 0.122239
Si Si2 0.335849 0.582655 0.997337
Si Si3 0.442602 0.588499 0.611143
Si Si4 0.163783 0.082465 0.763687
Si Si5 0.045127 0.915812 0.040435
Si Si6 0.989934 0.083901 0.280895
Si Si7 0.296808 0.590318 0.538077
O O1 0.330875 0.250000 0.097190
O O2 0.303797 0.510567 0.072809
O O3 0.173120 0.438407 0.224138
O O4 0.485158 0.449662 0.093723
O O5 0.303378 0.750000 0.019972
O O6 0.213240 0.525505 0.996999
O O7 0.457917 0.750000 0.630013
O O8 0.331612 0.495847 0.698067
O O9 0.372238 0.587012 0.573375
O O10 0.615346 0.518348 0.540880
O O11 0.187924 0.250000 0.739620
O O12 0.086178 0.058213 0.858149
O O13 0.051404 0.015379 0.758537
O O14 0.057480 0.750000 0.018336
O O15 0.000000 0.000000 0.000000
O O16 0.954861 0.250000 0.277179
O O17 0.884629 0.044323 0.380424
O O18 0.309620 0.750000 0.505697
#
# Coordination Sequence:
#
# PCOD8068611 Si02
#       7
#     4   4   4   4   4   4   4
#     4   9  16  26  44  64  85 111 139 172 208 252
#     4   9  17  30  43  61  85 109 140 176 214 251
#     4   9  16  25  37  54  76 105 140 170 201 244
#     4  10  18  28  41  57  79 108 140 174 212 248
#     4  10  21  33  45  61  83 112 146 182 215 250
#     4   9  16  25  39  61  84 110 140 167 200 247
#     4   8  14  23  34  52  80 108 135 164 196 238
#
# _framework density 15.583031
#
# number of rings (size 3 to 8) (size 9 to 14) (size 15 to 20)
#    0.000    2.857    1.429    1.714    0.000    5.143 
#    0.000    0.000    0.000    0.000    0.000    0.000 
#    0.000    1.143    0.000    2.286    0.000    3.286 
#
# Total GULP energy -346977.237606 kJ/mol
# GULP energy per Si atom -12392.044200 kJ/mol
# Density = 1.554756 g / cm^3
# Si number density = 15.583031 Si / 1000 Ang^3
#
#
#
# Elastic Constant Matrix: (Units=GPa)
#
#
# Indices 1 2 3 4 5 6 
#
# 1 81.5308 35.5084 54.2440 0.0000 -19.7431 0.0000
# 2 35.5084 77.4465 49.2745 0.0000 -10.9867 0.0000
# 3 54.2440 49.2745 100.8565 0.0000 -35.9764 0.0000
# 4 0.0000 0.0000 0.0000 24.3609 0.0000 -1.3829
# 5 -19.7431 -10.9867 -35.9764 0.0000 28.0160 0.0000
# 6 0.0000 0.0000 0.0000 -1.3829 0.0000 15.6154
#
#
#
# Elastic Compliance Matrix: (Units=1/GPa)
#
#
# Indices 1 2 3 4 5 6 
#
# 1 0.019732 -0.003585 -0.008123 0.000000 0.002068 0.000000
# 2 -0.003585 0.020448 -0.011261 0.000000 -0.008968 0.000000
# 3 -0.008123 -0.011261 0.029835 0.000000 0.028171 0.000000
# 4 0.000000 0.000000 0.000000 0.041257 0.000000 0.003654
# 5 0.002068 -0.008968 0.028171 0.000000 0.069810 0.000000
# 6 0.000000 0.000000 0.000000 0.003654 0.000000 0.064363
#
#
# Mechanical properties :
#
#
# Convention : Reuss Voigt Hill
#
# Bulk Modulus (GPa) = 41.53546 59.76531 50.65039
# Shear Modulus (GPa) = 16.69956 21.65228 19.17592
#
# Velocity S-wave (km/s) = 3.27716 3.73161 3.51175
# Velocity P-wave (km/s) = 6.40561 7.55001 7.00123
#
# Compressibility (1/GPa) = 0.02407581
#
# Stress axis : x y z
#
# Youngs Moduli (GPa) = 50.67879 48.90354 33.51795
#
# Poissons Ratio (x) = 0.17533 0.27228
# Poissons Ratio (y) = 0.18169 0.37745
# Poissons Ratio (z) = 0.41168 0.55071
#
# Static dielectric constant tensor:
#      x y z
#    x 2.755410 0.000000 -0.539660 
#    y 0.000000 3.094800 0.000000 
#    z -0.539660 0.000000 3.148910 
# 
# 
# High freq. dielectric constant tensor:
#      x y z
#    x 1.544950 0.000000 -0.048050 
#    y 0.000000 1.606650 0.000000 
#    z -0.048050 0.000000 1.593380 
# 
# From -- ./inp_files/64146.got.cif
#   From: 2010.06.25/outbox.cif.g09.slc.cpg/sg11_33_cif.got.tgz:64146.got - 2010.06.27 23:14:04.
