data_PCOD8068514
_publ_section_title
;
Structure prediction by ZEFSAII (Michael W. Deem and Ramdas Pophale) SiO2 
 PCOD8068514
Probable space group: P 21/M
;
_chemical_formula_sum "Si O2"
_cell_formula_units_Z 28
_cell_length_a 13.907762
_cell_length_b 9.022392
_cell_length_c 27.844848
_cell_angle_alpha 90.000000
_cell_angle_beta 150.058076
_cell_angle_gamma 90.000000
_cell_volume 1743.935592
_symmetry_space_group_name_H-M "P 21/M"
_symmetry_group_IT_number 11
_symmetry_cell_setting 'monoclinic'
loop_
_space_group_symop_operation_xyz
x,y,z
-x,1/2+y,-z
-x,-y,-z
x,1/2-y,z
loop_
_atom_site_type_symbol
_atom_site_label
_atom_site_fract_x
_atom_site_fract_y
_atom_site_fract_z
Si Si1 0.222406 0.081252 0.404961
Si Si2 0.063696 0.426401 0.478612
Si Si3 0.828397 0.084454 0.285275
Si Si4 0.407997 0.077546 0.888851
Si Si5 0.606116 0.424195 0.432272
Si Si6 0.204617 0.424283 0.290647
Si Si7 0.781055 0.076617 0.103469
O O1 0.301160 0.250000 0.445126
O O2 0.248133 0.013422 0.362882
O O3 0.996112 0.080635 0.318491
O O4 0.332726 0.970148 0.487822
O O5 0.074056 0.250000 0.487704
O O6 0.276106 0.485176 0.556702
O O7 0.000000 0.500000 0.500000
O O8 0.910678 0.475965 0.371628
O O9 0.749546 0.250000 0.258590
O O10 0.651286 0.986460 0.188935
O O11 0.365461 0.250000 0.870082
O O12 0.280192 0.007792 0.875330
O O13 0.633769 0.042018 0.996146
O O14 0.642948 0.250000 0.440736
O O15 0.377884 0.465721 0.329030
O O16 0.196806 0.250000 0.294285
O O17 0.995709 0.477940 0.180705
O O18 0.777686 0.250000 0.114728
#
# Coordination Sequence:
#
# PCOD8068514 Si02
#       7
#     4   4   4   4   4   4   4
#     4   9  16  28  43  60  88 128 161 186 221 264
#     4  10  21  37  54  71  91 117 146 185 235 281
#     4   9  17  30  48  65  91 125 150 179 229 280
#     4  10  18  26  42  67  90 119 161 200 227 255
#     4  10  19  29  45  68  91 118 153 190 225 271
#     4   9  16  28  44  61  88 129 163 184 220 269
#     4   9  17  30  43  58  90 130 162 192 225 262
#
# _framework density 16.055638999999999
#
# number of rings (size 3 to 8) (size 9 to 14) (size 15 to 20)
#    0.000    2.571    1.429    2.571    0.000    3.429 
#    0.000    2.143    0.000    0.000    0.000    1.000 
#    0.000    0.000    0.000    0.000    0.000    0.000 
#
# Total GULP energy -347020.008034 kJ/mol
# GULP energy per Si atom -12393.571715 kJ/mol
# Density = 1.601910 g / cm^3
# Si number density = 16.055639 Si / 1000 Ang^3
#
#
#
# Elastic Constant Matrix: (Units=GPa)
#
#
# Indices 1 2 3 4 5 6 
#
# 1 95.6906 34.2604 60.0440 0.0000 3.7342 0.0000
# 2 34.2604 61.1828 44.8547 0.0000 1.5206 0.0000
# 3 60.0440 44.8547 112.4188 0.0000 13.3485 0.0000
# 4 0.0000 0.0000 0.0000 23.5135 0.0000 -2.3380
# 5 3.7342 1.5206 13.3485 0.0000 19.4155 0.0000
# 6 0.0000 0.0000 0.0000 -2.3380 0.0000 21.1877
#
#
#
# Elastic Compliance Matrix: (Units=1/GPa)
#
#
# Indices 1 2 3 4 5 6 
#
# 1 0.016444 -0.003708 -0.007581 0.000000 0.002340 0.000000
# 2 -0.003708 0.024380 -0.008281 0.000000 0.004497 0.000000
# 3 -0.007581 -0.008281 0.017420 0.000000 -0.009870 0.000000
# 4 0.000000 0.000000 0.000000 0.043001 0.000000 0.004745
# 5 0.002340 0.004497 -0.009870 0.000000 0.057489 0.000000
# 6 0.000000 0.000000 0.000000 0.004745 0.000000 0.047721
#
#
# Mechanical properties :
#
#
# Convention : Reuss Voigt Hill
#
# Bulk Modulus (GPa) = 52.34540 60.84560 56.59550
# Shear Modulus (GPa) = 19.84417 21.49886 20.67152
#
# Velocity S-wave (km/s) = 3.51944 3.66324 3.59206
# Velocity P-wave (km/s) = 7.01346 7.47472 7.24776
#
# Compressibility (1/GPa) = 0.01910388
#
# Stress axis : x y z
#
# Youngs Moduli (GPa) = 60.81382 41.01690 57.40376
#
# Poissons Ratio (x) = 0.15210 0.43518
# Poissons Ratio (y) = 0.22551 0.47536
# Poissons Ratio (z) = 0.46103 0.33966
#
# Static dielectric constant tensor:
#      x y z
#    x 2.837080 0.000000 0.178700 
#    y 0.000000 3.005770 0.000000 
#    z 0.178700 0.000000 3.302840 
# 
# 
# High freq. dielectric constant tensor:
#      x y z
#    x 1.576550 0.000000 0.010520 
#    y 0.000000 1.613880 0.000000 
#    z 0.010520 0.000000 1.616000 
# 
# From -- ./inp_files/73276.got.cif
#   From: 2010.06.25/outbox.cif.g09.slc.cpg/sg11_37_cif.got.tgz:73276.got - 2010.06.27 23:14:04.
