data_PCOD8068761
_publ_section_title
;
Structure prediction by ZEFSAII (Michael W. Deem and Ramdas Pophale) SiO2 
 PCOD8068761
Probable space group: P 21/M
;
_chemical_formula_sum "Si O2"
_cell_formula_units_Z 32
_cell_length_a 12.074441
_cell_length_b 8.812769
_cell_length_c 21.215893
_cell_angle_alpha 90.000000
_cell_angle_beta 128.556367
_cell_angle_gamma 90.000000
_cell_volume 1765.407267
_symmetry_space_group_name_H-M "P 21/M"
_symmetry_group_IT_number 11
_symmetry_cell_setting 'monoclinic'
loop_
_space_group_symop_operation_xyz
x,y,z
-x,1/2+y,-z
-x,-y,-z
x,1/2-y,z
loop_
_atom_site_type_symbol
_atom_site_label
_atom_site_fract_x
_atom_site_fract_y
_atom_site_fract_z
Si Si1 0.535359 0.924233 0.793996
Si Si2 0.215436 0.572882 0.662409
Si Si3 0.162334 0.925466 0.278439
Si Si4 0.011134 0.571725 0.099624
Si Si5 0.264453 0.071039 0.546392
Si Si6 0.787586 0.072589 0.941870
Si Si7 0.948342 0.425655 0.623418
Si Si8 0.556106 0.571396 0.657865
O O1 0.575083 0.750000 0.817392
O O2 0.369732 0.953932 0.747443
O O3 0.574925 0.976753 0.737341
O O4 0.625645 0.018813 0.876650
O O5 0.175046 0.750000 0.647537
O O6 0.210172 0.514537 0.589145
O O7 0.107702 0.477893 0.666455
O O8 0.203349 0.750000 0.282445
O O9 0.076782 0.951742 0.311777
O O10 0.062770 0.984193 0.186336
O O11 0.306461 0.021866 0.332321
O O12 0.990488 0.750000 0.090501
O O13 0.126518 0.517221 0.089328
O O14 0.859236 0.497764 0.029703
O O15 0.264359 0.250000 0.558504
O O16 0.159259 0.030502 0.452850
O O17 0.420409 0.015355 0.581561
O O18 0.789574 0.250000 0.950756
O O19 0.927770 0.250000 0.597287
O O20 0.528888 0.750000 0.641489
#
# Coordination Sequence:
#
# PCOD8068761 Si02
#       8
#     4   4   4   4   4   4   4   4
#     4   9  18  32  52  78 107 137 168 214 266 313
#     4  10  21  38  58  81 107 136 177 224 271 314
#     4  10  21  37  55  76 107 146 181 216 260 319
#     4   9  18  32  49  74 109 142 172 210 257 309
#     4  11  22  37  58  80 106 138 176 223 271 315
#     4  10  18  28  50  80 108 137 172 212 257 310
#     4  11  23  38  56  78 105 140 182 222 266 316
#     4  10  20  34  54  80 109 140 176 218 268 317
#
# _framework density 18.12613
#
# number of rings (size 3 to 8) (size 9 to 14) (size 15 to 20)
#    0.000    2.000    1.250    3.750    0.000    5.000 
#    0.000    0.000    0.000    0.750    0.000    0.000 
#    0.000    0.000    0.000    0.000    0.000    0.000 
#
# Total GULP energy -396913.482910 kJ/mol
# GULP energy per Si atom -12403.546341 kJ/mol
# Density = 1.808487 g / cm^3
# Si number density = 18.126130 Si / 1000 Ang^3
#
#
#
# Elastic Constant Matrix: (Units=GPa)
#
#
# Indices 1 2 3 4 5 6 
#
# 1 81.4332 30.3382 49.9318 0.0000 0.8182 0.0000
# 2 30.3382 56.8047 28.9913 0.0000 5.9329 0.0000
# 3 49.9318 28.9913 98.3148 0.0000 17.4234 0.0000
# 4 0.0000 0.0000 0.0000 29.5611 0.0000 6.6665
# 5 0.8182 5.9329 17.4234 0.0000 18.6497 0.0000
# 6 0.0000 0.0000 0.0000 6.6665 0.0000 28.1581
#
#
#
# Elastic Compliance Matrix: (Units=1/GPa)
#
#
# Indices 1 2 3 4 5 6 
#
# 1 0.021457 -0.007131 -0.010822 0.000000 0.011437 0.000000
# 2 -0.007131 0.023111 -0.002332 0.000000 -0.004861 0.000000
# 3 -0.010822 -0.002332 0.019342 0.000000 -0.016853 0.000000
# 4 0.000000 0.000000 0.000000 0.035736 0.000000 -0.008461
# 5 0.011437 -0.004861 -0.016853 0.000000 0.070410 0.000000
# 6 0.000000 0.000000 0.000000 -0.008461 0.000000 0.037517
#
#
# Mechanical properties :
#
#
# Convention : Reuss Voigt Hill
#
# Bulk Modulus (GPa) = 42.84429 50.56393 46.70411
# Shear Modulus (GPa) = 19.53717 23.75987 21.64852
#
# Velocity S-wave (km/s) = 3.28662 3.62444 3.45965
# Velocity P-wave (km/s) = 6.17175 6.74326 6.46383
#
# Compressibility (1/GPa) = 0.02334034
#
# Stress axis : x y z
#
# Youngs Moduli (GPa) = 46.60404 43.27021 51.70151
#
# Poissons Ratio (x) = 0.30858 0.55950
# Poissons Ratio (y) = 0.33235 0.12055
# Poissons Ratio (z) = 0.50433 0.10089
#
# Static dielectric constant tensor:
#      x y z
#    x 3.197720 0.000000 0.161420 
#    y 0.000000 3.336170 0.000000 
#    z 0.161420 0.000000 3.385550 
# 
# 
# High freq. dielectric constant tensor:
#      x y z
#    x 1.676970 0.000000 0.018720 
#    y 0.000000 1.710300 0.000000 
#    z 0.018720 0.000000 1.702190 
# 
# From -- ./inp_files/38286.got.cif
#   From: 2010.06.25/outbox.cif.g09.slc.cpg/sg11_20_cif.got.tgz:38286.got - 2010.06.27 23:14:04.
