data_PCOD8068250
_publ_section_title
;
Structure prediction by ZEFSAII (Michael W. Deem and Ramdas Pophale) SiO2 
 PCOD8068250
Probable space group: P 21/M
;
_chemical_formula_sum "Si O2"
_cell_formula_units_Z 32
_cell_length_a 16.381908
_cell_length_b 8.975925
_cell_length_c 23.252315
_cell_angle_alpha 90.000000
_cell_angle_beta 142.185007
_cell_angle_gamma 90.000000
_cell_volume 2096.288180
_symmetry_space_group_name_H-M "P 21/M"
_symmetry_group_IT_number 11
_symmetry_cell_setting 'monoclinic'
loop_
_space_group_symop_operation_xyz
x,y,z
-x,1/2+y,-z
-x,-y,-z
x,1/2-y,z
loop_
_atom_site_type_symbol
_atom_site_label
_atom_site_fract_x
_atom_site_fract_y
_atom_site_fract_z
Si Si1 0.668920 0.922964 0.433889
Si Si2 0.468945 0.924272 0.422887
Si Si3 0.689942 0.074239 0.865713
Si Si4 0.025931 0.920210 0.956054
Si Si5 0.743462 0.925819 0.772445
Si Si6 0.818323 0.915934 0.357055
Si Si7 0.052876 0.414990 0.445955
Si Si8 0.573769 0.073745 0.267180
O O1 0.656903 0.750000 0.407670
O O2 0.596283 0.952910 0.453286
O O3 0.825861 0.965248 0.528522
O O4 0.601877 0.024208 0.348095
O O5 0.441224 0.750000 0.415762
O O6 0.500000 0.000000 0.500000
O O7 0.338220 0.001023 0.324422
O O8 0.662711 0.250000 0.843430
O O9 0.704717 0.003805 0.810621
O O10 0.567254 0.996861 0.830245
O O11 0.822260 0.041208 0.978973
O O12 0.021987 0.750000 0.971000
O O13 0.901108 0.955122 0.844331
O O14 0.000000 0.000000 0.000000
O O15 0.711980 0.750000 0.759377
O O16 0.778309 0.750000 0.315748
O O17 0.886725 0.917008 0.456836
O O18 0.924801 0.978227 0.369855
O O19 0.686259 0.016732 0.285561
O O20 0.003098 0.250000 0.402256
O O21 0.567296 0.250000 0.260140
#
# Coordination Sequence:
#
# PCOD8068250 Si02
#       8
#     4   4   4   4   4   4   4   4
#     4   9  18  31  44  56  75 104 136 171 213 252
#     4  11  22  34  47  62  82 109 141 180 220 254
#     4  10  17  27  41  59  83 111 138 168 206 247
#     4   8  16  27  41  59  80 104 133 167 204 246
#     4  10  18  30  45  62  80 103 137 175 211 251
#     4   9  16  25  36  53  77 104 132 164 200 239
#     4   8  14  25  39  54  72  97 131 167 200 241
#     4  11  19  25  38  58  81 109 140 172 202 238
#
# _framework density 15.265077
#
# number of rings (size 3 to 8) (size 9 to 14) (size 15 to 20)
#    0.000    2.500    1.250    3.375    0.000    4.500 
#    0.000    0.000    0.000    0.000    0.000    0.000 
#    0.000    0.000    0.000    1.125    0.000   12.500 
#
# Total GULP energy -396477.452327 kJ/mol
# GULP energy per Si atom -12389.920385 kJ/mol
# Density = 1.523033 g / cm^3
# Si number density = 15.265077 Si / 1000 Ang^3
#
#
#
# Elastic Constant Matrix: (Units=GPa)
#
#
# Indices 1 2 3 4 5 6 
#
# 1 72.1665 44.8822 54.1709 0.0000 30.6204 0.0000
# 2 44.8822 107.6272 50.5299 0.0000 23.5359 0.0000
# 3 54.1709 50.5299 89.7537 0.0000 29.3032 0.0000
# 4 0.0000 0.0000 0.0000 19.7157 0.0000 6.9887
# 5 30.6204 23.5359 29.3032 0.0000 27.4766 0.0000
# 6 0.0000 0.0000 0.0000 6.9887 0.0000 21.3768
#
#
#
# Elastic Compliance Matrix: (Units=1/GPa)
#
#
# Indices 1 2 3 4 5 6 
#
# 1 0.034485 -0.004198 -0.010858 0.000000 -0.023256 0.000000
# 2 -0.004198 0.013598 -0.004367 0.000000 -0.002312 0.000000
# 3 -0.010858 -0.004367 0.022984 0.000000 -0.008672 0.000000
# 4 0.000000 0.000000 0.000000 0.057369 0.000000 -0.018756
# 5 -0.023256 -0.002312 -0.008672 0.000000 0.073540 0.000000
# 6 0.000000 0.000000 0.000000 -0.018756 0.000000 0.052911
#
#
# Mechanical properties :
#
#
# Convention : Reuss Voigt Hill
#
# Bulk Modulus (GPa) = 31.03385 63.19037 47.11211
# Shear Modulus (GPa) = 16.42181 21.71147 19.06664
#
# Velocity S-wave (km/s) = 3.28346 3.77543 3.53801
# Velocity P-wave (km/s) = 5.89482 7.77756 6.90070
#
# Compressibility (1/GPa) = 0.03222288
#
# Stress axis : x y z
#
# Youngs Moduli (GPa) = 28.99804 73.54196 43.50779
#
# Poissons Ratio (x) = 0.30871 0.47239
# Poissons Ratio (y) = 0.12173 0.18999
# Poissons Ratio (z) = 0.31485 0.32114
#
# Static dielectric constant tensor:
#      x y z
#    x 2.926690 0.000000 0.641610 
#    y 0.000000 3.082420 0.000000 
#    z 0.641610 0.000000 3.101590 
# 
# 
# High freq. dielectric constant tensor:
#      x y z
#    x 1.552040 0.000000 0.055890 
#    y 0.000000 1.601290 0.000000 
#    z 0.055890 0.000000 1.553910 
# 
# From -- ./inp_files/56035.got.cif
#   From: 2010.06.25/outbox.cif.g09.slc.cpg/sg11_29_cif.got.tgz:56035.got - 2010.06.27 23:14:04.
