data_PCOD8068103
_publ_section_title
;
Structure prediction by ZEFSAII (Michael W. Deem and Ramdas Pophale) SiO2 
 PCOD8068103
Probable space group: P 2/M
;
_chemical_formula_sum "Si O2"
_cell_formula_units_Z 24
_cell_length_a 18.000000
_cell_length_b 9.000000
_cell_length_c 24.000000
_cell_angle_alpha 90.000000
_cell_angle_beta 160.000000
_cell_angle_gamma 90.000000
_cell_volume 1329.774317
_symmetry_space_group_name_H-M "P 2/M"
_symmetry_group_IT_number 10
_symmetry_cell_setting 'monoclinic'
loop_
_space_group_symop_operation_xyz
x,y,z
-x,y,-z
-x,-y,-z
x,-y,z
loop_
_atom_site_type_symbol
_atom_site_label
_atom_site_fract_x
_atom_site_fract_y
_atom_site_fract_z
Si Si1 0.338209 0.672907 0.835300
Si Si2 0.835459 0.325095 0.491437
Si Si3 0.166971 0.324430 0.997511
Si Si4 0.326402 0.322964 0.332288
Si Si5 0.537666 0.326223 0.691666
Si Si6 0.461258 0.822721 0.807791
O O1 0.351854 0.500000 0.828037
O O2 0.415225 0.772517 0.838254
O O3 0.089974 0.713801 0.678043
O O4 0.500000 0.709064 0.000000
O O5 0.800416 0.500000 0.455655
O O6 0.698648 0.276093 0.450428
O O7 0.736329 0.238394 0.368996
O O8 0.182017 0.500000 0.996217
O O9 0.916632 0.268600 0.822352
O O10 0.272786 0.283245 0.131536
O O11 0.304236 0.240955 0.046303
O O12 0.500000 0.265571 0.500000
O O13 0.322626 0.500000 0.327052
O O14 0.403542 0.254470 0.326963
O O15 0.531880 0.500000 0.677999
O O16 0.466468 0.000000 0.808100
#
# Coordination Sequence:
#
# PCOD8068103 Si02
#       6
#     4   4   4   4   4   4
#     4  10  21  36  55  80 107 135 168 208 258 313
#     4   9  18  34  56  78 102 133 170 214 260 307
#     4   9  17  31  51  72  98 132 168 209 255 301
#     4   9  16  25  44  76 105 127 159 207 257 303
#     4   8  14  26  45  70  97 126 160 199 247 298
#     4  11  22  35  53  76 103 137 177 217 255 300
#
# _framework density 18.048175000000001
#
# number of rings (size 3 to 8) (size 9 to 14) (size 15 to 20)
#    0.000    2.667    0.000    3.500    0.000    6.333 
#    0.000    5.000    0.000    8.500    0.000    0.000 
#    0.000    0.000    0.000    0.000    0.000    0.000 
#
# Total GULP energy -297512.774509 kJ/mol
# GULP energy per Si atom -12396.365605 kJ/mol
# Density = 1.800710 g / cm^3
# Si number density = 18.048175 Si / 1000 Ang^3
#
#
#
# Elastic Constant Matrix: (Units=GPa)
#
#
# Indices 1 2 3 4 5 6 
#
# 1 147.1355 41.5465 93.6787 0.0000 18.3782 0.0000
# 2 41.5465 62.4813 36.8532 0.0000 4.5527 0.0000
# 3 93.6787 36.8532 177.9145 0.0000 21.5568 0.0000
# 4 0.0000 0.0000 0.0000 12.1520 0.0000 2.0872
# 5 18.3782 4.5527 21.5568 0.0000 31.9237 0.0000
# 6 0.0000 0.0000 0.0000 2.0872 0.0000 13.0484
#
#
#
# Elastic Compliance Matrix: (Units=1/GPa)
#
#
# Indices 1 2 3 4 5 6 
#
# 1 0.011467 -0.004625 -0.004749 0.000000 -0.002736 0.000000
# 2 -0.004625 0.020098 -0.001855 0.000000 0.001049 0.000000
# 3 -0.004749 -0.001855 0.008867 0.000000 -0.002990 0.000000
# 4 0.000000 0.000000 0.000000 0.084615 0.000000 -0.013535
# 5 -0.002736 0.001049 -0.002990 0.000000 0.034769 0.000000
# 6 0.000000 0.000000 0.000000 -0.013535 0.000000 0.078803
#
#
# Mechanical properties :
#
#
# Convention : Reuss Voigt Hill
#
# Bulk Modulus (GPa) = 55.63066 81.29868 68.46467
# Shear Modulus (GPa) = 18.72178 25.78835 22.25507
#
# Velocity S-wave (km/s) = 3.22424 3.78413 3.51535
# Velocity P-wave (km/s) = 6.68964 8.01474 7.38198
#
# Compressibility (1/GPa) = 0.01797570
#
# Stress axis : x y z
#
# Youngs Moduli (GPa) = 87.20337 49.75665 112.77230
#
# Poissons Ratio (x) = 0.23013 0.53551
# Poissons Ratio (y) = 0.40332 0.20918
# Poissons Ratio (z) = 0.41409 0.09229
#
# Static dielectric constant tensor:
#      x y z
#    x 3.674630 0.000000 0.223810 
#    y 0.000000 2.952020 0.000000 
#    z 0.223810 0.000000 3.615310 
# 
# 
# High freq. dielectric constant tensor:
#      x y z
#    x 1.718070 0.000000 0.017010 
#    y 0.000000 1.656030 0.000000 
#    z 0.017010 0.000000 1.713650 
# 
# From -- ./inp_files/27225.got.cif
#   From: 2010.06.25/outbox.ucp.g09.slc.cvg/sg10_14_cif.got.tgz:27225.got - 2010.06.28 13:37:52.
