data_PCOD8068371
_publ_section_title
;
Structure prediction by ZEFSAII (Michael W. Deem and Ramdas Pophale) SiO2 
 PCOD8068371
Probable space group: P 21/M
;
_chemical_formula_sum "Si O2"
_cell_formula_units_Z 32
_cell_length_a 12.694930
_cell_length_b 17.108340
_cell_length_c 18.414689
_cell_angle_alpha 90.000000
_cell_angle_beta 26.595437
_cell_angle_gamma 90.000000
_cell_volume 1790.514760
_symmetry_space_group_name_H-M "P 21/M"
_symmetry_group_IT_number 11
_symmetry_cell_setting 'monoclinic'
loop_
_space_group_symop_operation_xyz
x,y,z
-x,1/2+y,-z
-x,-y,-z
x,1/2-y,z
loop_
_atom_site_type_symbol
_atom_site_label
_atom_site_fract_x
_atom_site_fract_y
_atom_site_fract_z
Si Si1 0.572170 0.573219 0.748348
Si Si2 0.837629 0.425052 0.106825
Si Si3 0.403475 0.527950 0.134851
Si Si4 0.710664 0.658737 0.192638
Si Si5 0.895133 0.016628 0.443498
Si Si6 0.479695 0.484224 0.597615
Si Si7 0.460669 0.663774 0.198039
Si Si8 0.034518 0.165352 0.435387
O O1 0.328953 0.591849 0.859008
O O2 0.514153 0.540612 0.862868
O O3 0.724444 0.506191 0.614795
O O4 0.732878 0.649804 0.659406
O O5 0.670609 0.441712 0.279191
O O6 0.000000 0.500000 0.000000
O O7 0.015083 0.351496 0.000340
O O8 0.524851 0.607161 0.091153
O O9 0.121408 0.539927 0.301768
O O10 0.500000 0.500000 0.000000
O O11 0.668379 0.750000 0.240930
O O12 0.635307 0.599449 0.305163
O O13 0.559757 0.634562 0.214967
O O14 0.748580 0.012241 0.459579
O O15 0.995129 0.103584 0.395157
O O16 0.500000 0.500000 0.500000
O O17 0.563078 0.750000 0.117651
O O18 0.180329 0.665177 0.376147
O O19 0.059726 0.250000 0.382326
#
# Coordination Sequence:
#
# PCOD8068371 Si02
#       8
#     4   4   4   4   4   4   4   4
#     4  10  18  34  52  74 105 137 186 224 257 319
#     4   9  19  34  55  76 105 146 190 227 263 323
#     4  11  20  31  51  80 109 139 170 218 277 321
#     4  10  20  36  59  81 107 145 188 230 275 327
#     4  10  18  34  52  75 105 136 182 220 256 320
#     4  10  20  34  55  81 110 142 184 229 276 326
#     4  10  18  33  56  80 104 137 181 220 262 322
#     4  10  17  29  55  80  98 129 176 227 264 305
#
# _framework density 17.871956999999998
#
# number of rings (size 3 to 8) (size 9 to 14) (size 15 to 20)
#    0.000    2.000    3.750    2.250    0.000    3.500 
#    0.000    3.125    0.000    3.000    0.000    0.000 
#    0.000    0.000    0.000    0.000    0.000    0.000 
#
# Total GULP energy -396481.688363 kJ/mol
# GULP energy per Si atom -12390.052761 kJ/mol
# Density = 1.783128 g / cm^3
# Si number density = 17.871957 Si / 1000 Ang^3
#
#
#
# Elastic Constant Matrix: (Units=GPa)
#
#
# Indices 1 2 3 4 5 6 
#
# 1 126.1998 49.1250 57.0533 0.0000 5.7328 0.0000
# 2 49.1250 96.1351 31.0951 0.0000 4.4958 0.0000
# 3 57.0533 31.0951 67.7076 0.0000 -4.3381 0.0000
# 4 0.0000 0.0000 0.0000 18.9371 0.0000 -0.4222
# 5 5.7328 4.4958 -4.3381 0.0000 36.8269 0.0000
# 6 0.0000 0.0000 0.0000 -0.4222 0.0000 24.0817
#
#
#
# Elastic Compliance Matrix: (Units=1/GPa)
#
#
# Indices 1 2 3 4 5 6 
#
# 1 0.014263 -0.003757 -0.010485 0.000000 -0.002997 0.000000
# 2 -0.003757 0.013381 -0.003070 0.000000 -0.001410 0.000000
# 3 -0.010485 -0.003070 0.025334 0.000000 0.004991 0.000000
# 4 0.000000 0.000000 0.000000 0.052827 0.000000 0.000926
# 5 -0.002997 -0.001410 0.004991 0.000000 0.028381 0.000000
# 6 0.000000 0.000000 0.000000 0.000926 0.000000 0.041542
#
#
# Mechanical properties :
#
#
# Convention : Reuss Voigt Hill
#
# Bulk Modulus (GPa) = 54.48357 62.73214 58.60786
# Shear Modulus (GPa) = 23.09812 26.15374 24.62593
#
# Velocity S-wave (km/s) = 3.59893 3.82959 3.71605
# Velocity P-wave (km/s) = 6.91530 7.39807 7.16075
#
# Compressibility (1/GPa) = 0.01835416
#
# Stress axis : x y z
#
# Youngs Moduli (GPa) = 70.11384 74.73503 39.47232
#
# Poissons Ratio (x) = 0.28075 0.41387
# Poissons Ratio (y) = 0.26339 0.12118
# Poissons Ratio (z) = 0.73514 0.22944
#
# Static dielectric constant tensor:
#      x y z
#    x 3.342360 0.000000 -0.391810 
#    y 0.000000 3.422450 0.000000 
#    z -0.391810 0.000000 3.393390 
# 
# 
# High freq. dielectric constant tensor:
#      x y z
#    x 1.685090 0.000000 -0.027130 
#    y 0.000000 1.681840 0.000000 
#    z -0.027130 0.000000 1.675570 
# 
# From -- ./inp_files/59610.got.cif
#   From: 2010.06.25/outbox.cif.g09.slc.cpg/sg11_30_cif.got.tgz:59610.got - 2010.06.27 23:14:04.
