data_PCOD8068219
_publ_section_title
;
Structure prediction by ZEFSAII (Michael W. Deem and Ramdas Pophale) SiO2 
 PCOD8068219
Probable space group: P 21/M
;
_chemical_formula_sum "Si O2"
_cell_formula_units_Z 32
_cell_length_a 13.839849
_cell_length_b 8.751158
_cell_length_c 24.486012
_cell_angle_alpha 90.000000
_cell_angle_beta 43.581854
_cell_angle_gamma 90.000000
_cell_volume 2044.466572
_symmetry_space_group_name_H-M "P 21/M"
_symmetry_group_IT_number 11
_symmetry_cell_setting 'monoclinic'
loop_
_space_group_symop_operation_xyz
x,y,z
-x,1/2+y,-z
-x,-y,-z
x,1/2-y,z
loop_
_atom_site_type_symbol
_atom_site_label
_atom_site_fract_x
_atom_site_fract_y
_atom_site_fract_z
Si Si1 0.797576 0.427352 0.839845
Si Si2 0.304120 0.430616 0.314923
Si Si3 0.580139 0.932102 0.845079
Si Si4 0.387964 0.068514 0.004057
Si Si5 0.716159 0.569886 0.559080
Si Si6 0.372858 0.426322 0.520791
Si Si7 0.002270 0.928186 0.583835
Si Si8 0.064895 0.075703 0.668020
O O1 0.754511 0.250000 0.859229
O O2 0.711215 0.506593 0.826365
O O3 0.762023 0.505690 0.913047
O O4 0.964595 0.448580 0.761655
O O5 0.294235 0.250000 0.313575
O O6 0.402305 0.488447 0.225085
O O7 0.361772 0.477402 0.351968
O O8 0.147117 0.496093 0.373495
O O9 0.574746 0.750000 0.852880
O O10 0.432633 0.004256 0.926348
O O11 0.388104 0.250000 0.003807
O O12 0.500000 0.000000 0.000000
O O13 0.721493 0.750000 0.550600
O O14 0.641787 0.502817 0.534932
O O15 0.875944 0.514339 0.498720
O O16 0.500000 0.500000 0.500000
O O17 0.408818 0.250000 0.501341
O O18 0.229096 0.455062 0.613866
O O19 0.016440 0.750000 0.566211
O O20 0.015221 0.957825 0.642911
O O21 0.049514 0.250000 0.652436
#
# Coordination Sequence:
#
# PCOD8068219 Si02
#       8
#     4   4   4   4   4   4   4   4
#     4  10  17  27  42  59  80 109 144 177 207 244
#     4   9  17  27  41  59  83 112 143 175 204 241
#     4  10  17  27  40  57  82 113 145 175 206 239
#     4  10  18  27  38  55  80 112 146 177 207 240
#     4   9  18  32  44  58  81 111 141 170 210 254
#     4   9  18  32  48  63  82 108 137 173 214 256
#     4  10  17  26  40  61  84 108 140 176 207 237
#     4   9  18  30  44  62  84 112 142 172 212 256
#
# _framework density 15.652006
#
# number of rings (size 3 to 8) (size 9 to 14) (size 15 to 20)
#    0.000    2.500    1.250    4.875    0.000    2.500 
#    0.000    1.875    0.000    0.000    0.000    0.000 
#    0.000    1.000    0.000    2.000    0.000    2.750 
#
# Total GULP energy -396443.125289 kJ/mol
# GULP energy per Si atom -12388.847665 kJ/mol
# Density = 1.561638 g / cm^3
# Si number density = 15.652006 Si / 1000 Ang^3
#
#
#
# Elastic Constant Matrix: (Units=GPa)
#
#
# Indices 1 2 3 4 5 6 
#
# 1 63.0400 21.3897 56.7921 0.0000 5.4700 0.0000
# 2 21.3897 58.4121 37.1296 0.0000 3.3941 0.0000
# 3 56.7921 37.1296 148.2377 0.0000 19.2437 0.0000
# 4 0.0000 0.0000 0.0000 22.7225 0.0000 -1.1135
# 5 5.4700 3.3941 19.2437 0.0000 18.3419 0.0000
# 6 0.0000 0.0000 0.0000 -1.1135 0.0000 14.5551
#
#
#
# Elastic Compliance Matrix: (Units=1/GPa)
#
#
# Indices 1 2 3 4 5 6 
#
# 1 0.024966 -0.003564 -0.009019 0.000000 0.002677 0.000000
# 2 -0.003564 0.020924 -0.004064 0.000000 0.001455 0.000000
# 3 -0.009019 -0.004064 0.012471 0.000000 -0.009642 0.000000
# 4 0.000000 0.000000 0.000000 0.044175 0.000000 0.003380
# 5 0.002677 0.001455 -0.009642 0.000000 0.063569 0.000000
# 6 0.000000 0.000000 0.000000 0.003380 0.000000 0.068963
#
#
# Mechanical properties :
#
#
# Convention : Reuss Voigt Hill
#
# Bulk Modulus (GPa) = 39.89709 55.59029 47.74369
# Shear Modulus (GPa) = 18.06893 21.41579 19.74236
#
# Velocity S-wave (km/s) = 3.40136 3.70299 3.55538
# Velocity P-wave (km/s) = 6.40086 7.34005 6.88649
#
# Compressibility (1/GPa) = 0.02506448
#
# Stress axis : x y z
#
# Youngs Moduli (GPa) = 40.05513 47.79240 80.18530
#
# Poissons Ratio (x) = 0.17035 0.72323
# Poissons Ratio (y) = 0.14277 0.32589
# Poissons Ratio (z) = 0.36127 0.19424
#
# Static dielectric constant tensor:
#      x y z
#    x 2.758080 0.000000 0.279360 
#    y 0.000000 2.944360 0.000000 
#    z 0.279360 0.000000 3.672430 
# 
# 
# High freq. dielectric constant tensor:
#      x y z
#    x 1.536470 0.000000 0.016480 
#    y 0.000000 1.600970 0.000000 
#    z 0.016480 0.000000 1.612780 
# 
# From -- ./inp_files/71511.got.cif
#   From: 2010.06.25/outbox.cif.g09.slc.cpg/sg11_36_cif.got.tgz:71511.got - 2010.06.27 23:14:04.
