data_PCOD8068283
_publ_section_title
;
Structure prediction by ZEFSAII (Michael W. Deem and Ramdas Pophale) SiO2 
 PCOD8068283
Probable space group: P 21/M
;
_chemical_formula_sum "Si O2"
_cell_formula_units_Z 32
_cell_length_a 20.343328
_cell_length_b 8.927580
_cell_length_c 28.435769
_cell_angle_alpha 90.000000
_cell_angle_beta 20.684106
_cell_angle_gamma 90.000000
_cell_volume 1824.148879
_symmetry_space_group_name_H-M "P 21/M"
_symmetry_group_IT_number 11
_symmetry_cell_setting 'monoclinic'
loop_
_space_group_symop_operation_xyz
x,y,z
-x,1/2+y,-z
-x,-y,-z
x,1/2-y,z
loop_
_atom_site_type_symbol
_atom_site_label
_atom_site_fract_x
_atom_site_fract_y
_atom_site_fract_z
Si Si1 0.429369 0.924882 0.395367
Si Si2 0.773671 0.426954 0.934616
Si Si3 0.819144 0.924545 0.100440
Si Si4 0.091190 0.427261 0.652544
Si Si5 0.295107 0.076534 0.390521
Si Si6 0.315504 0.575814 0.903927
Si Si7 0.039253 0.425001 0.356437
Si Si8 0.459904 0.075411 0.075934
O O1 0.384491 0.750000 0.425853
O O2 0.651130 0.954293 0.250415
O O3 0.300200 0.005547 0.521288
O O4 0.366202 0.997592 0.389512
O O5 0.750099 0.250000 0.953331
O O6 0.967415 0.472838 0.780475
O O7 0.770130 0.489181 0.990339
O O8 0.599443 0.492348 0.021637
O O9 0.856158 0.750000 0.069837
O O10 0.773122 0.986873 0.079817
O O11 0.000000 0.000000 0.000000
O O12 0.102377 0.250000 0.639223
O O13 0.994905 0.495620 0.670767
O O14 0.255274 0.250000 0.426713
O O15 0.459193 0.054520 0.242596
O O16 0.098206 0.994620 0.511230
O O17 0.267843 0.750000 0.927749
O O18 0.999195 0.250000 0.377280
O O19 0.248684 0.455759 0.233522
O O20 0.498540 0.250000 0.043134
O O21 0.500000 0.000000 0.000000
#
# Coordination Sequence:
#
# PCOD8068283 Si02
#       8
#     4   4   4   4   4   4   4   4
#     4   9  17  29  46  71 101 125 152 194 239 280
#     4   9  18  32  49  69  96 131 167 204 247 293
#     4  10  20  34  55  81 105 128 154 192 238 284
#     4  10  17  27  47  70  94 127 166 204 239 283
#     4   9  16  27  46  67  89 122 162 202 240 286
#     4   9  18  34  53  72  97 130 165 198 239 292
#     4  10  18  27  43  66  93 124 160 208 257 290
#     4  10  19  31  46  66  94 128 167 210 252 293
#
# _framework density 17.54243
#
# number of rings (size 3 to 8) (size 9 to 14) (size 15 to 20)
#    0.000    2.500    1.250    3.375    0.000    2.500 
#    0.000    2.500    0.000    0.750    0.000    0.000 
#    0.000    0.000    0.000    0.000    0.000    0.000 
#
# Total GULP energy -396497.065540 kJ/mol
# GULP energy per Si atom -12390.533298 kJ/mol
# Density = 1.750250 g / cm^3
# Si number density = 17.542430 Si / 1000 Ang^3
#
#
#
# Elastic Constant Matrix: (Units=GPa)
#
#
# Indices 1 2 3 4 5 6 
#
# 1 74.9511 32.6023 64.8024 0.0000 3.3217 0.0000
# 2 32.6023 91.4289 65.6610 0.0000 -2.1066 0.0000
# 3 64.8024 65.6610 163.8404 0.0000 1.7199 0.0000
# 4 0.0000 0.0000 0.0000 28.2502 0.0000 -4.4696
# 5 3.3217 -2.1066 1.7199 0.0000 26.3913 0.0000
# 6 0.0000 0.0000 0.0000 -4.4696 0.0000 14.6744
#
#
#
# Elastic Compliance Matrix: (Units=1/GPa)
#
#
# Indices 1 2 3 4 5 6 
#
# 1 0.020696 -0.002207 -0.007277 0.000000 -0.002307 0.000000
# 2 -0.002207 0.015663 -0.005424 0.000000 0.001882 0.000000
# 3 -0.007277 -0.005424 0.011158 0.000000 -0.000244 0.000000
# 4 0.000000 0.000000 0.000000 0.037190 0.000000 0.011327
# 5 -0.002307 0.001882 -0.000244 0.000000 0.038348 0.000000
# 6 0.000000 0.000000 0.000000 0.011327 0.000000 0.071596
#
#
# Mechanical properties :
#
#
# Convention : Reuss Voigt Hill
#
# Bulk Modulus (GPa) = 56.49375 72.92799 64.71087
# Shear Modulus (GPa) = 21.70446 25.00682 23.35564
#
# Velocity S-wave (km/s) = 3.52128 3.77968 3.65277
# Velocity P-wave (km/s) = 6.98617 7.79170 7.39990
#
# Compressibility (1/GPa) = 0.01770107
#
# Stress axis : x y z
#
# Youngs Moduli (GPa) = 48.31873 63.84418 89.62163
#
# Poissons Ratio (x) = 0.14090 0.65218
# Poissons Ratio (y) = 0.10664 0.48611
# Poissons Ratio (z) = 0.35162 0.34629
#
# Static dielectric constant tensor:
#      x y z
#    x 2.904090 0.000000 0.070280 
#    y 0.000000 3.310100 0.000000 
#    z 0.070280 0.000000 4.313800 
# 
# 
# High freq. dielectric constant tensor:
#      x y z
#    x 1.623520 0.000000 0.003330 
#    y 0.000000 1.678850 0.000000 
#    z 0.003330 0.000000 1.701600 
# 
# From -- ./inp_files/73616.got.cif
#   From: 2010.06.25/outbox.cif.g09.slc.cpg/sg11_37_cif.got.tgz:73616.got - 2010.06.27 23:14:04.
