data_PCOD8068908
_publ_section_title
;
Structure prediction by ZEFSAII (Michael W. Deem and Ramdas Pophale) SiO2 
 PCOD8068908
Probable space group: P 21/M
;
_chemical_formula_sum "Si O2"
_cell_formula_units_Z 32
_cell_length_a 21.580169
_cell_length_b 8.565489
_cell_length_c 11.865854
_cell_angle_alpha 90.000000
_cell_angle_beta 52.784851
_cell_angle_gamma 90.000000
_cell_volume 1746.710430
_symmetry_space_group_name_H-M "P 21/M"
_symmetry_group_IT_number 11
_symmetry_cell_setting 'monoclinic'
loop_
_space_group_symop_operation_xyz
x,y,z
-x,1/2+y,-z
-x,-y,-z
x,1/2-y,z
loop_
_atom_site_type_symbol
_atom_site_label
_atom_site_fract_x
_atom_site_fract_y
_atom_site_fract_z
Si Si1 0.274971 0.069246 0.852342
Si Si2 0.762004 0.931666 0.631899
Si Si3 0.668848 0.068699 0.550641
Si Si4 0.094547 0.566413 0.660149
Si Si5 0.189274 0.069180 0.733418
Si Si6 0.201760 0.066870 0.157926
Si Si7 0.032972 0.932953 0.348781
Si Si8 0.581504 0.934945 0.449594
O O1 0.292830 0.250000 0.846100
O O2 0.198286 0.041343 0.857582
O O3 0.351726 0.996348 0.708314
O O4 0.256864 0.001734 0.996275
O O5 0.773277 0.750000 0.593730
O O6 0.753632 0.964075 0.774193
O O7 0.682749 0.993430 0.659393
O O8 0.838619 0.018832 0.502167
O O9 0.650855 0.250000 0.584474
O O10 0.748050 0.039860 0.396371
O O11 0.597970 0.990406 0.559723
O O12 0.094019 0.750000 0.676727
O O13 0.107485 0.485176 0.769301
O O14 0.011229 0.510732 0.707547
O O15 0.206497 0.250000 0.685923
O O16 0.182259 0.250000 0.163479
O O17 0.123362 0.969015 0.239067
O O18 0.017803 0.750000 0.363903
O O19 0.000000 0.000000 0.500000
O O20 0.580697 0.750000 0.449193
O O21 0.500000 0.000000 0.500000
#
# Coordination Sequence:
#
# PCOD8068908 Si02
#       8
#     4   4   4   4   4   4   4   4
#     4   8  17  34  55  78 105 137 170 208 254 312
#     4  10  18  29  49  74 102 134 172 215 259 305
#     4  10  18  29  48  75 106 135 170 211 253 300
#     4  11  20  31  49  72 100 131 173 222 267 309
#     4   9  16  30  51  73 100 133 172 215 261 308
#     4  10  20  35  54  75 102 138 175 212 261 313
#     4  12  23  35  50  72 101 134 175 221 267 309
#     4  10  19  34  57  84 111 136 168 208 255 305
#
# _framework density 18.320152
#
# number of rings (size 3 to 8) (size 9 to 14) (size 15 to 20)
#    0.000    2.000    1.250    6.750    0.000    0.500 
#    0.000    4.375    0.000    0.750    0.000    0.000 
#    0.000    0.000    0.000    0.000    0.000    0.000 
#
# Total GULP energy -396622.275418 kJ/mol
# GULP energy per Si atom -12394.446107 kJ/mol
# Density = 1.827845 g / cm^3
# Si number density = 18.320152 Si / 1000 Ang^3
#
#
#
# Elastic Constant Matrix: (Units=GPa)
#
#
# Indices 1 2 3 4 5 6 
#
# 1 159.9286 40.1143 55.1790 0.0000 17.3958 0.0000
# 2 40.1143 86.8366 25.7580 0.0000 5.8600 0.0000
# 3 55.1790 25.7580 81.3651 0.0000 18.0865 0.0000
# 4 0.0000 0.0000 0.0000 11.3185 0.0000 -2.8918
# 5 17.3958 5.8600 18.0865 0.0000 26.1657 0.0000
# 6 0.0000 0.0000 0.0000 -2.8918 0.0000 31.5931
#
#
#
# Elastic Compliance Matrix: (Units=1/GPa)
#
#
# Indices 1 2 3 4 5 6 
#
# 1 0.008709 -0.002503 -0.004669 0.000000 -0.002002 0.000000
# 2 -0.002503 0.013429 -0.002664 0.000000 0.000498 0.000000
# 3 -0.004669 -0.002664 0.018287 0.000000 -0.008940 0.000000
# 4 0.000000 0.000000 0.000000 0.090467 0.000000 0.008281
# 5 -0.002002 0.000498 -0.008940 0.000000 0.045617 0.000000
# 6 0.000000 0.000000 0.000000 0.008281 0.000000 0.032410
#
#
# Mechanical properties :
#
#
# Convention : Reuss Voigt Hill
#
# Bulk Modulus (GPa) = 48.18674 63.35919 55.77297
# Shear Modulus (GPa) = 21.23049 27.62073 24.42561
#
# Velocity S-wave (km/s) = 3.40790 3.88708 3.65535
# Velocity P-wave (km/s) = 6.46875 7.40307 6.95162
#
# Compressibility (1/GPa) = 0.02075260
#
# Stress axis : x y z
#
# Youngs Moduli (GPa) = 114.81958 74.46589 54.68295
#
# Poissons Ratio (x) = 0.18641 0.25530
# Poissons Ratio (y) = 0.28742 0.14570
# Poissons Ratio (z) = 0.53607 0.19841
#
# Static dielectric constant tensor:
#      x y z
#    x 3.862800 0.000000 0.296060 
#    y 0.000000 3.341890 0.000000 
#    z 0.296060 0.000000 3.326780 
# 
# 
# High freq. dielectric constant tensor:
#      x y z
#    x 1.723630 0.000000 0.027250 
#    y 0.000000 1.711390 0.000000 
#    z 0.027250 0.000000 1.661690 
# 
# From -- ./inp_files/42735.got.cif
#   From: 2010.06.25/outbox.cif.g09.slc.cpg/sg11_22_cif.got.tgz:42735.got - 2010.06.27 23:14:04.
