data_PCOD8068515
_publ_section_title
;
Structure prediction by ZEFSAII (Michael W. Deem and Ramdas Pophale) SiO2 
 PCOD8068515
Probable space group: P 21/M
;
_chemical_formula_sum "Si O2"
_cell_formula_units_Z 28
_cell_length_a 21.856802
_cell_length_b 9.415782
_cell_length_c 17.707392
_cell_angle_alpha 90.000000
_cell_angle_beta 152.337877
_cell_angle_gamma 90.000000
_cell_volume 1691.826132
_symmetry_space_group_name_H-M "P 21/M"
_symmetry_group_IT_number 11
_symmetry_cell_setting 'monoclinic'
loop_
_space_group_symop_operation_xyz
x,y,z
-x,1/2+y,-z
-x,-y,-z
x,1/2-y,z
loop_
_atom_site_type_symbol
_atom_site_label
_atom_site_fract_x
_atom_site_fract_y
_atom_site_fract_z
Si Si1 0.364409 0.416315 0.356556
Si Si2 0.378437 0.587115 0.835846
Si Si3 0.869707 0.414868 0.340456
Si Si4 0.710824 0.414792 0.021682
Si Si5 0.553657 0.413400 0.256816
Si Si6 0.305623 0.592396 0.160167
Si Si7 0.612887 0.593274 0.455627
O O1 0.500000 0.500000 0.500000
O O2 0.387500 0.250000 0.365426
O O3 0.268810 0.482498 0.187335
O O4 0.306553 0.439371 0.378353
O O5 0.403382 0.750000 0.886236
O O6 0.244325 0.531964 0.727435
O O7 0.363821 0.569964 0.729825
O O8 0.500000 0.500000 0.000000
O O9 0.899760 0.250000 0.385979
O O10 0.826660 0.446768 0.207321
O O11 0.000000 0.500000 0.500000
O O12 0.666159 0.250000 0.976973
O O13 0.585098 0.508710 0.905559
O O14 0.765111 0.449966 0.996410
O O15 0.526065 0.250000 0.246549
O O16 0.641219 0.480611 0.420363
O O17 0.262877 0.750000 0.139767
O O18 0.459935 0.588634 0.310202
O O19 0.651178 0.750000 0.467695
#
# Coordination Sequence:
#
# PCOD8068515 Si02
#       7
#     4   4   4   4   4   4   4
#     4   9  15  22  32  49  76 111 146 177 215 262
#     4  10  20  33  50  71  94 121 155 195 235 278
#     4  10  21  36  51  68  94 125 156 194 236 278
#     4   9  17  30  45  61  87 121 150 183 231 277
#     4  10  18  26  42  68  89 111 151 193 225 265
#     4   8  14  23  36  54  76 108 147 179 215 265
#     4   8  15  25  35  51  81 118 147 175 221 272
#
# _framework density 16.550163999999999
#
# number of rings (size 3 to 8) (size 9 to 14) (size 15 to 20)
#    0.000    2.857    1.429    2.571    0.000    7.429 
#    0.000    0.000    0.000    0.000    0.000    0.000 
#    0.000    1.143    0.000    2.571    0.000    6.429 
#
# Total GULP energy -346968.294159 kJ/mol
# GULP energy per Si atom -12391.724791 kJ/mol
# Density = 1.651250 g / cm^3
# Si number density = 16.550164 Si / 1000 Ang^3
#
#
#
# Elastic Constant Matrix: (Units=GPa)
#
#
# Indices 1 2 3 4 5 6 
#
# 1 96.7522 60.2346 63.0377 0.0000 -30.1684 0.0000
# 2 60.2346 97.4549 49.7958 0.0000 -16.7864 0.0000
# 3 63.0377 49.7958 76.0585 0.0000 -17.8235 0.0000
# 4 0.0000 0.0000 0.0000 23.8929 0.0000 -8.6092
# 5 -30.1684 -16.7864 -17.8235 0.0000 29.9723 0.0000
# 6 0.0000 0.0000 0.0000 -8.6092 0.0000 25.7407
#
#
#
# Elastic Compliance Matrix: (Units=1/GPa)
#
#
# Indices 1 2 3 4 5 6 
#
# 1 0.031896 -0.007949 -0.017140 0.000000 0.017460 0.000000
# 2 -0.007949 0.017646 -0.005256 0.000000 -0.001244 0.000000
# 3 -0.017140 -0.005256 0.030282 0.000000 -0.002188 0.000000
# 4 0.000000 0.000000 0.000000 0.047588 0.000000 0.015916
# 5 0.017460 -0.001244 -0.002188 0.000000 0.048941 0.000000
# 6 0.000000 0.000000 0.000000 0.015916 0.000000 0.044172
#
#
# Mechanical properties :
#
#
# Convention : Reuss Voigt Hill
#
# Bulk Modulus (GPa) = 52.26329 68.48910 60.37619
# Shear Modulus (GPa) = 17.38577 22.40102 19.89340
#
# Velocity S-wave (km/s) = 3.24464 3.68302 3.47076
# Velocity P-wave (km/s) = 6.75901 7.71743 7.25406
#
# Compressibility (1/GPa) = 0.01913389
#
# Stress axis : x y z
#
# Youngs Moduli (GPa) = 31.35209 56.67160 33.02335
#
# Poissons Ratio (x) = 0.45047 0.56601
# Poissons Ratio (y) = 0.24921 0.17357
# Poissons Ratio (z) = 0.53736 0.29787
#
# Static dielectric constant tensor:
#      x y z
#    x 3.636110 0.000000 -0.769380 
#    y 0.000000 3.266820 0.000000 
#    z -0.769380 0.000000 2.975290 
# 
# 
# High freq. dielectric constant tensor:
#      x y z
#    x 1.630630 0.000000 -0.053400 
#    y 0.000000 1.644010 0.000000 
#    z -0.053400 0.000000 1.586420 
# 
# From -- ./inp_files/28427.got.cif
#   From: 2010.06.25/outbox.cif.g09.slc.cpg/sg11_15_cif.got.tgz:28427.got - 2010.06.27 23:14:04.
