data_PCOD8068787
_publ_section_title
;
Structure prediction by ZEFSAII (Michael W. Deem and Ramdas Pophale) SiO2 
 PCOD8068787
Probable space group: P 21/M
;
_chemical_formula_sum "Si O2"
_cell_formula_units_Z 28
_cell_length_a 17.020342
_cell_length_b 8.943749
_cell_length_c 14.273406
_cell_angle_alpha 90.000000
_cell_angle_beta 129.051932
_cell_angle_gamma 90.000000
_cell_volume 1687.326167
_symmetry_space_group_name_H-M "P 21/M"
_symmetry_group_IT_number 11
_symmetry_cell_setting 'monoclinic'
loop_
_space_group_symop_operation_xyz
x,y,z
-x,1/2+y,-z
-x,-y,-z
x,1/2-y,z
loop_
_atom_site_type_symbol
_atom_site_label
_atom_site_fract_x
_atom_site_fract_y
_atom_site_fract_z
Si Si1 0.728447 0.426580 0.940478
Si Si2 0.107594 0.924597 0.086666
Si Si3 0.381899 0.075054 0.595083
Si Si4 0.422139 0.077117 0.308419
Si Si5 0.586900 0.074907 0.186373
Si Si6 0.252836 0.081387 0.329291
Si Si7 0.641261 0.924647 0.041810
O O1 0.715738 0.250000 0.938258
O O2 0.829242 0.470541 0.958545
O O3 0.631783 0.495929 0.817843
O O4 0.729030 0.499251 0.044345
O O5 0.091168 0.750000 0.080048
O O6 0.166061 0.973164 0.225068
O O7 0.000000 0.000000 0.000000
O O8 0.403781 0.250000 0.626565
O O9 0.277993 0.051028 0.457516
O O10 0.470440 0.002640 0.598854
O O11 0.371390 0.993409 0.686127
O O12 0.438132 0.250000 0.293038
O O13 0.358217 0.057095 0.354302
O O14 0.609592 0.250000 0.201491
O O15 0.649048 0.997091 0.149942
O O16 0.468082 0.041111 0.085703
O O17 0.213539 0.250000 0.284413
O O18 0.663047 0.750000 0.066612
#
# Coordination Sequence:
#
# PCOD8068787 Si02
#       7
#     4   4   4   4   4   4   4
#     4  10  19  31  49  72  98 128 163 201 244 291
#     4  10  21  36  55  77  99 126 159 202 250 294
#     4  11  20  30  45  67  97 133 167 201 240 282
#     4  10  18  29  44  65  95 131 167 200 235 280
#     4  10  20  31  45  66  96 133 170 206 241 280
#     4   9  20  34  48  68  96 129 164 201 241 289
#     4  10  19  31  47  68  95 130 168 205 245 283
#
# _framework density 16.594301999999999
#
# number of rings (size 3 to 8) (size 9 to 14) (size 15 to 20)
#    0.000    2.000    1.429    3.000    0.000    4.571 
#    0.000    0.000    0.000    0.000    0.000    1.000 
#    0.000    0.000    0.000    0.000    0.000    0.000 
#
# Total GULP energy -347189.504740 kJ/mol
# GULP energy per Si atom -12399.625169 kJ/mol
# Density = 1.655653 g / cm^3
# Si number density = 16.594302 Si / 1000 Ang^3
#
#
#
# Elastic Constant Matrix: (Units=GPa)
#
#
# Indices 1 2 3 4 5 6 
#
# 1 77.1724 49.6146 55.1139 0.0000 -9.2890 0.0000
# 2 49.6146 97.7674 50.5116 0.0000 -4.7063 0.0000
# 3 55.1139 50.5116 88.8438 0.0000 -8.9762 0.0000
# 4 0.0000 0.0000 0.0000 26.5169 0.0000 -2.8678
# 5 -9.2890 -4.7063 -8.9762 0.0000 25.3698 0.0000
# 6 0.0000 0.0000 0.0000 -2.8678 0.0000 29.0272
#
#
#
# Elastic Compliance Matrix: (Units=1/GPa)
#
#
# Indices 1 2 3 4 5 6 
#
# 1 0.026635 -0.007075 -0.012079 0.000000 0.004166 0.000000
# 2 -0.007075 0.016363 -0.005050 0.000000 -0.001342 0.000000
# 3 -0.012079 -0.005050 0.021860 0.000000 0.002375 0.000000
# 4 0.000000 0.000000 0.000000 0.038119 0.000000 0.003766
# 5 0.004166 -0.001342 0.002375 0.000000 0.041534 0.000000
# 6 0.000000 0.000000 0.000000 0.003766 0.000000 0.034822
#
#
# Mechanical properties :
#
#
# Convention : Reuss Voigt Hill
#
# Bulk Modulus (GPa) = 60.79201 63.80710 62.29956
# Shear Modulus (GPa) = 21.43857 23.41901 22.42879
#
# Velocity S-wave (km/s) = 3.59823 3.76076 3.68039
# Velocity P-wave (km/s) = 7.34689 7.57578 7.46221
#
# Compressibility (1/GPa) = 0.01644953
#
# Stress axis : x y z
#
# Youngs Moduli (GPa) = 37.54505 61.11286 45.74572
#
# Poissons Ratio (x) = 0.43238 0.55258
# Poissons Ratio (y) = 0.26564 0.23100
# Poissons Ratio (z) = 0.45352 0.30860
#
# Static dielectric constant tensor:
#      x y z
#    x 3.097680 0.000000 -0.278390 
#    y 0.000000 3.248400 0.000000 
#    z -0.278390 0.000000 2.990940 
# 
# 
# High freq. dielectric constant tensor:
#      x y z
#    x 1.618370 0.000000 -0.026830 
#    y 0.000000 1.657970 0.000000 
#    z -0.026830 0.000000 1.613350 
# 
# From -- ./inp_files/42613.got.cif
#   From: 2010.06.25/outbox.cif.g09.slc.cpg/sg11_22_cif.got.tgz:42613.got - 2010.06.27 23:14:04.
