data_PCOD8068810
_publ_section_title
;
Structure prediction by ZEFSAII (Michael W. Deem and Ramdas Pophale) SiO2 
 PCOD8068810
Probable space group: P 21/M
;
_chemical_formula_sum "Si O2"
_cell_formula_units_Z 24
_cell_length_a 26.762587
_cell_length_b 8.467572
_cell_length_c 14.199669
_cell_angle_alpha 90.000000
_cell_angle_beta 25.052935
_cell_angle_gamma 90.000000
_cell_volume 1362.614157
_symmetry_space_group_name_H-M "P 21/M"
_symmetry_group_IT_number 11
_symmetry_cell_setting 'monoclinic'
loop_
_space_group_symop_operation_xyz
x,y,z
-x,1/2+y,-z
-x,-y,-z
x,1/2-y,z
loop_
_atom_site_type_symbol
_atom_site_label
_atom_site_fract_x
_atom_site_fract_y
_atom_site_fract_z
Si Si1 0.459264 0.934642 0.355963
Si Si2 0.606285 0.062884 0.255798
Si Si3 0.576593 0.934209 0.784895
Si Si4 0.827106 0.067022 0.355008
Si Si5 0.247105 0.435265 0.839529
Si Si6 0.054360 0.933959 0.043218
O O1 0.438925 0.750000 0.407297
O O2 0.583700 0.990641 0.190311
O O3 0.464081 0.972227 0.238121
O O4 0.350824 0.025726 0.589079
O O5 0.607124 0.250000 0.249139
O O6 0.500000 0.000000 0.500000
O O7 0.725598 0.000870 0.101848
O O8 0.553096 0.750000 0.810512
O O9 0.713556 0.963550 0.574040
O O10 0.500000 0.000000 0.000000
O O11 0.793039 0.250000 0.420051
O O12 0.867964 0.020542 0.180335
O O13 0.930849 0.027388 0.251543
O O14 0.228890 0.250000 0.875278
O O15 0.125420 0.515219 0.014517
O O16 0.025501 0.750000 0.094452
#
# Coordination Sequence:
#
# PCOD8068810 Si02
#       6
#     4   4   4   4   4   4
#     4  11  20  33  49  70 100 133 169 211 255 303
#     4  10  18  29  45  68  98 132 167 205 251 305
#     4  12  24  38  55  75 101 136 176 215 256 301
#     4  10  20  34  51  73 102 134 171 211 255 304
#     4  11  19  29  47  73 103 136 169 205 253 307
#     4  10  19  31  50  74 104 137 169 207 255 307
#
# _framework density 17.613202000000001
#
# number of rings (size 3 to 8) (size 9 to 14) (size 15 to 20)
#    0.000    1.333    1.667    9.000    0.000    1.333 
#    0.000    0.000    0.000    0.000    0.000    1.167 
#    0.000    0.000    0.000    0.000    0.000    0.000 
#
# Total GULP energy -297640.743119 kJ/mol
# GULP energy per Si atom -12401.697630 kJ/mol
# Density = 1.757311 g / cm^3
# Si number density = 17.613202 Si / 1000 Ang^3
#
#
#
# Elastic Constant Matrix: (Units=GPa)
#
#
# Indices 1 2 3 4 5 6 
#
# 1 102.0942 7.3203 43.0784 0.0000 -29.7957 0.0000
# 2 7.3203 77.1889 16.8440 0.0000 -3.4923 0.0000
# 3 43.0784 16.8440 62.2385 0.0000 -14.9375 0.0000
# 4 0.0000 0.0000 0.0000 24.8237 0.0000 -7.7652
# 5 -29.7957 -3.4923 -14.9375 0.0000 31.0310 0.0000
# 6 0.0000 0.0000 0.0000 -7.7652 0.0000 31.8408
#
#
#
# Elastic Compliance Matrix: (Units=1/GPa)
#
#
# Indices 1 2 3 4 5 6 
#
# 1 0.017162 0.000933 -0.009215 0.000000 0.012147 0.000000
# 2 0.000933 0.013821 -0.004294 0.000000 0.000384 0.000000
# 3 -0.009215 -0.004294 0.024159 0.000000 0.002298 0.000000
# 4 0.000000 0.000000 0.000000 0.043611 0.000000 0.010636
# 5 0.012147 0.000384 0.002298 0.000000 0.045039 0.000000
# 6 0.000000 0.000000 0.000000 0.010636 0.000000 0.034000
#
#
# Mechanical properties :
#
#
# Convention : Reuss Voigt Hill
#
# Bulk Modulus (GPa) = 33.34551 41.77856 37.56204
# Shear Modulus (GPa) = 23.48062 29.15768 26.31915
#
# Velocity S-wave (km/s) = 3.65516 4.07313 3.86979
# Velocity P-wave (km/s) = 6.06521 6.77437 6.42957
#
# Compressibility (1/GPa) = 0.02998904
#
# Stress axis : x y z
#
# Youngs Moduli (GPa) = 58.26974 72.35267 41.39188
#
# Poissons Ratio (x) = -0.06751 0.38145
# Poissons Ratio (y) = -0.05437 0.17774
# Poissons Ratio (z) = 0.53698 0.31069
#
# Static dielectric constant tensor:
#      x y z
#    x 3.768490 0.000000 -0.508680 
#    y 0.000000 3.384900 0.000000 
#    z -0.508680 0.000000 3.018100 
# 
# 
# High freq. dielectric constant tensor:
#      x y z
#    x 1.679970 0.000000 -0.042850 
#    y 0.000000 1.704270 0.000000 
#    z -0.042850 0.000000 1.632910 
# 
# From -- ./inp_files/62256.got.cif
#   From: 2010.06.25/outbox.cif.g09.slc.cpg/sg11_32_cif.got.tgz:62256.got - 2010.06.27 23:14:04.
