data_PCOD8068730
_publ_section_title
;
Structure prediction by ZEFSAII (Michael W. Deem and Ramdas Pophale) SiO2 
 PCOD8068730
Probable space group: P 21/M
;
_chemical_formula_sum "Si O2"
_cell_formula_units_Z 32
_cell_length_a 11.742552
_cell_length_b 8.805171
_cell_length_c 20.157272
_cell_angle_alpha 90.000000
_cell_angle_beta 120.942739
_cell_angle_gamma 90.000000
_cell_volume 1787.549739
_symmetry_space_group_name_H-M "P 21/M"
_symmetry_group_IT_number 11
_symmetry_cell_setting 'monoclinic'
loop_
_space_group_symop_operation_xyz
x,y,z
-x,1/2+y,-z
-x,-y,-z
x,1/2-y,z
loop_
_atom_site_type_symbol
_atom_site_label
_atom_site_fract_x
_atom_site_fract_y
_atom_site_fract_z
Si Si1 0.577391 0.574842 0.463381
Si Si2 0.108266 0.083806 0.836209
Si Si3 0.611414 0.071245 0.225213
Si Si4 0.393794 0.432451 0.918735
Si Si5 0.880391 0.581689 0.317835
Si Si6 0.828113 0.429059 0.736488
Si Si7 0.450811 0.572198 0.289924
Si Si8 0.853055 0.925766 0.604302
O O1 0.500000 0.500000 0.500000
O O2 0.539040 0.750000 0.455568
O O3 0.528402 0.511183 0.378052
O O4 0.735327 0.547808 0.516216
O O5 0.109889 0.250000 0.869406
O O6 0.247374 0.004155 0.898674
O O7 0.109259 0.093795 0.757453
O O8 0.966108 0.005752 0.811722
O O9 0.615065 0.250000 0.214299
O O10 0.575964 0.988957 0.145917
O O11 0.751427 0.016713 0.298262
O O12 0.495435 0.027048 0.241086
O O13 0.396157 0.250000 0.919672
O O14 0.500000 0.500000 0.000000
O O15 0.865727 0.750000 0.344822
O O16 0.015157 0.505218 0.385399
O O17 0.846289 0.250000 0.727819
O O18 0.706105 0.459923 0.748758
O O19 0.801828 0.508170 0.658597
O O20 0.479237 0.750000 0.285623
O O21 0.885611 0.750000 0.624638
#
# Coordination Sequence:
#
# PCOD8068730 Si02
#       8
#     4   4   4   4   4   4   4   4
#     4  10  20  32  48  72 103 137 177 224 268 312
#     4   7  13  26  47  75 100 125 162 207 247 292
#     4  11  22  36  54  78 106 135 171 215 263 314
#     4  10  19  34  57  84 112 138 168 206 253 308
#     4   9  17  32  52  71  96 133 173 213 260 314
#     4   9  16  29  50  72  98 137 179 213 256 310
#     4  10  20  34  51  72 102 142 180 215 261 319
#     4  10  18  28  46  74 103 129 169 225 272 308
#
# _framework density 17.901599999999998
#
# number of rings (size 3 to 8) (size 9 to 14) (size 15 to 20)
#    0.000    2.500    1.250    3.750    0.000    1.500 
#    0.000    1.250    0.000    0.750    0.000    0.000 
#    0.000    0.000    0.000    0.000    0.000    0.000 
#
# Total GULP energy -396551.031877 kJ/mol
# GULP energy per Si atom -12392.219746 kJ/mol
# Density = 1.786086 g / cm^3
# Si number density = 17.901600 Si / 1000 Ang^3
#
#
#
# Elastic Constant Matrix: (Units=GPa)
#
#
# Indices 1 2 3 4 5 6 
#
# 1 121.1676 39.5578 60.5462 0.0000 21.9974 0.0000
# 2 39.5578 80.6271 33.6969 0.0000 7.9789 0.0000
# 3 60.5462 33.6969 92.6930 0.0000 22.0241 0.0000
# 4 0.0000 0.0000 0.0000 23.3429 0.0000 2.1893
# 5 21.9974 7.9789 22.0241 0.0000 28.8697 0.0000
# 6 0.0000 0.0000 0.0000 2.1893 0.0000 27.5382
#
#
#
# Elastic Compliance Matrix: (Units=1/GPa)
#
#
# Indices 1 2 3 4 5 6 
#
# 1 0.013394 -0.003439 -0.006473 0.000000 -0.004317 0.000000
# 2 -0.003439 0.015508 -0.003659 0.000000 0.001126 0.000000
# 3 -0.006473 -0.003659 0.018241 0.000000 -0.007972 0.000000
# 4 0.000000 0.000000 0.000000 0.043161 0.000000 -0.003431
# 5 -0.004317 0.001126 -0.007972 0.000000 0.043699 0.000000
# 6 0.000000 0.000000 0.000000 -0.003431 0.000000 0.036586
#
#
# Mechanical properties :
#
#
# Convention : Reuss Voigt Hill
#
# Bulk Modulus (GPa) = 49.99696 62.45440 56.22568
# Shear Modulus (GPa) = 24.46228 26.66262 25.56245
#
# Velocity S-wave (km/s) = 3.70061 3.86346 3.78291
# Velocity P-wave (km/s) = 6.80064 7.40710 7.11034
#
# Compressibility (1/GPa) = 0.02000122
#
# Stress axis : x y z
#
# Youngs Moduli (GPa) = 74.66077 64.48399 54.82281
#
# Poissons Ratio (x) = 0.22176 0.35486
# Poissons Ratio (y) = 0.25675 0.20058
# Poissons Ratio (z) = 0.48327 0.23593
#
# Static dielectric constant tensor:
#      x y z
#    x 3.561850 0.000000 0.492500 
#    y 0.000000 3.296030 0.000000 
#    z 0.492500 0.000000 3.241360 
# 
# 
# High freq. dielectric constant tensor:
#      x y z
#    x 1.696460 0.000000 0.033070 
#    y 0.000000 1.683990 0.000000 
#    z 0.033070 0.000000 1.661350 
# 
# From -- ./inp_files/64228.got.cif
#   From: 2010.06.25/outbox.cif.g09.slc.cpg/sg11_33_cif.got.tgz:64228.got - 2010.06.27 23:14:04.
