data_PCOD8068858
_publ_section_title
;
Structure prediction by ZEFSAII (Michael W. Deem and Ramdas Pophale) SiO2 
 PCOD8068858
Probable space group: P 21/M
;
_chemical_formula_sum "Si O2"
_cell_formula_units_Z 32
_cell_length_a 20.453603
_cell_length_b 9.082583
_cell_length_c 21.391648
_cell_angle_alpha 90.000000
_cell_angle_beta 27.893399
_cell_angle_gamma 90.000000
_cell_volume 1859.129517
_symmetry_space_group_name_H-M "P 21/M"
_symmetry_group_IT_number 11
_symmetry_cell_setting 'monoclinic'
loop_
_space_group_symop_operation_xyz
x,y,z
-x,1/2+y,-z
-x,-y,-z
x,1/2-y,z
loop_
_atom_site_type_symbol
_atom_site_label
_atom_site_fract_x
_atom_site_fract_y
_atom_site_fract_z
Si Si1 0.509187 0.081834 0.685791
Si Si2 0.904579 0.579598 0.434479
Si Si3 0.603758 0.414975 0.325982
Si Si4 0.301026 0.413537 0.644630
Si Si5 0.406635 0.077770 0.130157
Si Si6 0.915738 0.579060 0.625714
Si Si7 0.224034 0.082090 0.581093
Si Si8 0.624298 0.423068 0.717312
O O1 0.485446 0.250000 0.687997
O O2 0.505804 0.055775 0.763479
O O3 0.392003 0.992459 0.745763
O O4 0.663298 0.036521 0.534627
O O5 0.908015 0.750000 0.452743
O O6 0.905607 0.566005 0.357504
O O7 0.766279 0.507794 0.580608
O O8 0.040038 0.494941 0.345821
O O9 0.651708 0.250000 0.274530
O O10 0.449835 0.432079 0.484566
O O11 0.713900 0.482027 0.282727
O O12 0.283300 0.250000 0.686170
O O13 0.186186 0.447298 0.686623
O O14 0.443985 0.250000 0.104151
O O15 0.247020 0.053466 0.245925
O O16 0.440102 0.995965 0.166703
O O17 0.500000 0.000000 0.000000
O O18 0.955589 0.750000 0.592716
O O19 0.000000 0.500000 0.500000
O O20 0.285233 0.250000 0.524293
O O21 0.657119 0.250000 0.699368
#
# Coordination Sequence:
#
# PCOD8068858 Si02
#       8
#     4   4   4   4   4   4   4   4
#     4   9  16  24  36  55  77 106 144 186 228 271
#     4  10  18  29  47  70  94 121 156 198 240 283
#     4   9  15  21  30  46  69 102 142 183 223 268
#     4   8  13  21  31  44  68 103 141 181 221 266
#     4  11  24  39  55  74  98 128 162 200 247 296
#     4  11  22  35  53  76  99 127 161 199 243 292
#     4   8  15  25  36  53  78 109 145 184 228 273
#     4  10  19  31  48  68  92 121 156 197 240 287
#
# _framework density 17.212354999999999
#
# number of rings (size 3 to 8) (size 9 to 14) (size 15 to 20)
#    0.000    2.500    1.250    3.000    0.000    6.500 
#    0.000    0.000    0.000    0.000    0.000    0.000 
#    0.000    0.000    0.000    1.125    0.000   14.000 
#
# Total GULP energy -396514.689223 kJ/mol
# GULP energy per Si atom -12391.084038 kJ/mol
# Density = 1.717318 g / cm^3
# Si number density = 17.212355 Si / 1000 Ang^3
#
#
#
# Elastic Constant Matrix: (Units=GPa)
#
#
# Indices 1 2 3 4 5 6 
#
# 1 163.2469 85.7559 29.4531 0.0000 23.2184 0.0000
# 2 85.7559 141.0146 33.4400 0.0000 13.6085 0.0000
# 3 29.4531 33.4400 35.1698 0.0000 5.7795 0.0000
# 4 0.0000 0.0000 0.0000 15.3166 0.0000 3.0769
# 5 23.2184 13.6085 5.7795 0.0000 12.0132 0.0000
# 6 0.0000 0.0000 0.0000 3.0769 0.0000 33.9314
#
#
#
# Elastic Compliance Matrix: (Units=1/GPa)
#
#
# Indices 1 2 3 4 5 6 
#
# 1 0.011227 -0.004813 -0.002341 0.000000 -0.015120 0.000000
# 2 -0.004813 0.011747 -0.007037 0.000000 -0.000619 0.000000
# 3 -0.002341 -0.007037 0.038038 0.000000 -0.005805 0.000000
# 4 0.000000 0.000000 0.000000 0.066500 0.000000 -0.006030
# 5 -0.015120 -0.000619 -0.005805 0.000000 0.115959 0.000000
# 6 0.000000 0.000000 0.000000 -0.006030 0.000000 0.030018
#
#
# Mechanical properties :
#
#
# Convention : Reuss Voigt Hill
#
# Bulk Modulus (GPa) = 30.64584 70.74768 50.69676
# Shear Modulus (GPa) = 15.98730 24.97106 20.47918
#
# Velocity S-wave (km/s) = 3.05097 3.81302 3.45308
# Velocity P-wave (km/s) = 5.50040 7.78316 6.73914
#
# Compressibility (1/GPa) = 0.03263086
#
# Stress axis : x y z
#
# Youngs Moduli (GPa) = 89.07052 85.12852 26.28931
#
# Poissons Ratio (x) = 0.40975 0.06154
# Poissons Ratio (y) = 0.42872 0.18499
# Poissons Ratio (z) = 0.20850 0.59901
#
# Static dielectric constant tensor:
#      x y z
#    x 3.095100 0.000000 1.032950 
#    y 0.000000 3.353550 0.000000 
#    z 1.032950 0.000000 1.675560 
# 
# 
# High freq. dielectric constant tensor:
#      x y z
#    x 1.695150 0.000000 0.020670 
#    y 0.000000 1.683430 0.000000 
#    z 0.020670 0.000000 1.567010 
# 
# From -- ./inp_files/66412.got.cif
#   From: 2010.06.25/outbox.cif.g09.slc.cpg/sg11_34_cif.got.tgz:66412.got - 2010.06.27 23:14:04.
