data_PCOD8068243
_publ_section_title
;
Structure prediction by ZEFSAII (Michael W. Deem and Ramdas Pophale) SiO2 
 PCOD8068243
Probable space group: P 21/M
;
_chemical_formula_sum "Si O2"
_cell_formula_units_Z 32
_cell_length_a 11.368799
_cell_length_b 21.205760
_cell_length_c 8.573715
_cell_angle_alpha 90.000000
_cell_angle_beta 60.920070
_cell_angle_gamma 90.000000
_cell_volume 1806.426710
_symmetry_space_group_name_H-M "P 21/M"
_symmetry_group_IT_number 11
_symmetry_cell_setting 'monoclinic'
loop_
_space_group_symop_operation_xyz
x,y,z
-x,1/2+y,-z
-x,-y,-z
x,1/2-y,z
loop_
_atom_site_type_symbol
_atom_site_label
_atom_site_fract_x
_atom_site_fract_y
_atom_site_fract_z
Si Si1 0.224560 0.611475 0.366737
Si Si2 0.943346 0.569471 0.510133
Si Si3 0.547853 0.322395 0.927277
Si Si4 0.305454 0.021610 0.173095
Si Si5 0.746241 0.581276 0.386168
Si Si6 0.614621 0.918903 0.177056
Si Si7 0.365989 0.557216 0.546616
Si Si8 0.489873 0.401415 0.253854
O O1 0.269578 0.549463 0.240129
O O2 0.277299 0.608910 0.510653
O O3 0.062392 0.619018 0.473325
O O4 0.298003 0.669024 0.231305
O O5 0.810785 0.572553 0.704578
O O6 0.895921 0.586407 0.363489
O O7 0.000000 0.500000 0.500000
O O8 0.506257 0.250000 0.942279
O O9 0.536116 0.343979 0.114261
O O10 0.447123 0.361406 0.880360
O O11 0.444302 0.040003 0.172223
O O12 0.326803 0.027379 0.974318
O O13 0.737314 0.604600 0.211606
O O14 0.714365 0.507052 0.417731
O O15 0.637317 0.620427 0.558748
O O16 0.510122 0.951221 0.366364
O O17 0.386835 0.579261 0.711529
#
# Coordination Sequence:
#
# PCOD8068243 Si02
#       8
#     4   4   4   4   4   4   4   4
#     4  10  19  30  50  69 102 138 162 198 241 292
#     4   9  16  32  44  70 108 138 159 187 232 301
#     4  10  22  35  49  69  96 129 170 210 244 291
#     4   9  17  28  48  75 101 131 154 198 254 307
#     4  10  17  28  49  77 109 125 155 198 251 304
#     4   9  19  29  49  76 100 127 158 203 255 293
#     4  10  17  26  46  77 106 127 152 194 248 314
#     4   9  17  29  48  71 100 126 156 198 253 300
#
# _framework density 17.714531000000001
#
# number of rings (size 3 to 8) (size 9 to 14) (size 15 to 20)
#    0.000    2.500    3.750    1.500    5.250    1.500 
#    0.000    9.375    0.000    7.500    0.000    0.000 
#    0.000    0.000    0.000    0.000    0.000    0.000 
#
# Total GULP energy -396477.691855 kJ/mol
# GULP energy per Si atom -12389.927870 kJ/mol
# Density = 1.767421 g / cm^3
# Si number density = 17.714531 Si / 1000 Ang^3
#
#
#
# Elastic Constant Matrix: (Units=GPa)
#
#
# Indices 1 2 3 4 5 6 
#
# 1 121.4204 2.0325 38.3663 0.0000 17.0431 0.0000
# 2 2.0325 43.6898 18.5394 0.0000 0.6928 0.0000
# 3 38.3663 18.5394 77.5011 0.0000 26.2359 0.0000
# 4 0.0000 0.0000 0.0000 13.8004 0.0000 0.2278
# 5 17.0431 0.6928 26.2359 0.0000 26.6525 0.0000
# 6 0.0000 0.0000 0.0000 0.2278 0.0000 11.5076
#
#
#
# Elastic Compliance Matrix: (Units=1/GPa)
#
#
# Indices 1 2 3 4 5 6 
#
# 1 0.009942 0.001557 -0.004692 0.000000 -0.001780 0.000000
# 2 0.001557 0.026910 -0.009949 0.000000 0.008099 0.000000
# 3 -0.004692 -0.009949 0.024750 0.000000 -0.021104 0.000000
# 4 0.000000 0.000000 0.000000 0.072486 0.000000 -0.001435
# 5 -0.001780 0.008099 -0.021104 0.000000 0.059222 0.000000
# 6 0.000000 0.000000 0.000000 -0.001435 0.000000 0.086927
#
#
# Mechanical properties :
#
#
# Convention : Reuss Voigt Hill
#
# Bulk Modulus (GPa) = 28.22256 40.05420 34.13838
# Shear Modulus (GPa) = 15.71257 22.63696 19.17477
#
# Velocity S-wave (km/s) = 2.98147 3.57862 3.29360
# Velocity P-wave (km/s) = 5.27434 6.30360 5.81180
#
# Compressibility (1/GPa) = 0.03543265
#
# Stress axis : x y z
#
# Youngs Moduli (GPa) = 100.58279 37.16128 40.40414
#
# Poissons Ratio (x) = -0.05784 0.18956
# Poissons Ratio (y) = -0.15656 0.40200
# Poissons Ratio (z) = 0.47190 0.36973
#
# Static dielectric constant tensor:
#      x y z
#    x 3.826600 0.000000 0.128670 
#    y 0.000000 2.698180 0.000000 
#    z 0.128670 0.000000 3.570650 
# 
# 
# High freq. dielectric constant tensor:
#      x y z
#    x 1.693100 0.000000 0.021030 
#    y 0.000000 1.616100 0.000000 
#    z 0.021030 0.000000 1.680470 
# 
# From -- ./inp_files/19576.got.cif
#   From: 2010.06.25/outbox.cif.g09.slc.cpg/sg11_10_cif.got.tgz:19576.got - 2010.06.27 23:14:04.
