data_PCOD8068412
_publ_section_title
;
Structure prediction by ZEFSAII (Michael W. Deem and Ramdas Pophale) SiO2 
 PCOD8068412
Probable space group: P 21/M
;
_chemical_formula_sum "Si O2"
_cell_formula_units_Z 28
_cell_length_a 8.487616
_cell_length_b 21.982053
_cell_length_c 15.293797
_cell_angle_alpha 90.000000
_cell_angle_beta 148.207749
_cell_angle_gamma 90.000000
_cell_volume 1503.310648
_symmetry_space_group_name_H-M "P 21/M"
_symmetry_group_IT_number 11
_symmetry_cell_setting 'monoclinic'
loop_
_space_group_symop_operation_xyz
x,y,z
-x,1/2+y,-z
-x,-y,-z
x,1/2-y,z
loop_
_atom_site_type_symbol
_atom_site_label
_atom_site_fract_x
_atom_site_fract_y
_atom_site_fract_z
Si Si1 0.746625 0.561555 0.712605
Si Si2 0.207625 0.679275 0.619517
Si Si3 0.220468 0.503041 0.684825
Si Si4 0.904741 0.103167 0.597997
Si Si5 0.848840 0.606873 0.580334
Si Si6 0.812478 0.422324 0.742288
Si Si7 0.268120 0.087135 0.109356
O O1 0.388277 0.561899 0.560387
O O2 0.820256 0.612114 0.672619
O O3 0.847017 0.493564 0.732727
O O4 0.899790 0.581977 0.875985
O O5 0.276769 0.750000 0.649885
O O6 0.090426 0.659714 0.467277
O O7 0.510858 0.644472 0.786864
O O8 0.963528 0.665898 0.580951
O O9 0.559714 0.522272 0.822075
O O10 0.000000 0.500000 0.500000
O O11 0.204536 0.437140 0.723354
O O12 0.096019 0.555020 0.688886
O O13 0.898487 0.119639 0.698356
O O14 0.526913 0.589820 0.387889
O O15 0.024552 0.402242 0.920490
#
# Coordination Sequence:
#
# PCOD8068412 Si02
#       7
#     4   4   4   4   4   4   4
#     4  10  17  31  51  83 117 144 162 205 267 341
#     4  10  22  41  57  71  97 146 198 226 252 313
#     4  11  15  31  51  78 110 143 171 209 252 329
#     4  10  18  32  57  77 108 145 179 211 262 318
#     4  10  18  32  56  76 108 138 179 216 261 316
#     4  11  19  32  52  91 117 133 162 221 280 331
#     4  10  22  32  53  84 115 146 166 214 283 314
#
# _framework density 18.625557000000001
#
# number of rings (size 3 to 8) (size 9 to 14) (size 15 to 20)
#    0.000    1.714    7.143    1.286    0.000    0.571 
#    0.000    7.857    0.000    0.000    0.000    0.000 
#    0.000    0.000    0.000    0.000    0.000    0.000 
#
# Total GULP energy -346916.216827 kJ/mol
# GULP energy per Si atom -12389.864887 kJ/mol
# Density = 1.858316 g / cm^3
# Si number density = 18.625557 Si / 1000 Ang^3
#
#
#
# Elastic Constant Matrix: (Units=GPa)
#
#
# Indices 1 2 3 4 5 6 
#
# 1 103.5027 29.3671 41.4987 0.0000 -23.5513 0.0000
# 2 29.3671 86.1400 19.4566 0.0000 -5.5662 0.0000
# 3 41.4987 19.4566 98.4064 0.0000 -27.6111 0.0000
# 4 0.0000 0.0000 0.0000 11.3945 0.0000 -0.7297
# 5 -23.5513 -5.5662 -27.6111 0.0000 24.6393 0.0000
# 6 0.0000 0.0000 0.0000 -0.7297 0.0000 18.1775
#
#
#
# Elastic Compliance Matrix: (Units=1/GPa)
#
#
# Indices 1 2 3 4 5 6 
#
# 1 0.013849 -0.003549 -0.002406 0.000000 0.009740 0.000000
# 2 -0.003549 0.013061 -0.001765 0.000000 -0.002419 0.000000
# 3 -0.002406 -0.001765 0.015707 0.000000 0.014903 0.000000
# 4 0.000000 0.000000 0.000000 0.087988 0.000000 0.003532
# 5 0.009740 -0.002419 0.014903 0.000000 0.066050 0.000000
# 6 0.000000 0.000000 0.000000 0.003532 0.000000 0.055155
#
#
# Mechanical properties :
#
#
# Convention : Reuss Voigt Hill
#
# Bulk Modulus (GPa) = 36.79283 52.07710 44.43497
# Shear Modulus (GPa) = 18.09572 24.02403 21.05987
#
# Velocity S-wave (km/s) = 3.12036 3.59533 3.36623
# Velocity P-wave (km/s) = 5.72529 6.72725 6.24640
#
# Compressibility (1/GPa) = 0.02717921
#
# Stress axis : x y z
#
# Youngs Moduli (GPa) = 72.20535 76.56314 63.66604
#
# Poissons Ratio (x) = 0.27171 0.15317
# Poissons Ratio (y) = 0.25624 0.11234
# Poissons Ratio (z) = 0.17371 0.13510
#
# Static dielectric constant tensor:
#      x y z
#    x 3.835860 0.000000 -0.138650 
#    y 0.000000 2.889040 0.000000 
#    z -0.138650 0.000000 3.220050 
# 
# 
# High freq. dielectric constant tensor:
#      x y z
#    x 1.746270 0.000000 -0.013620 
#    y 0.000000 1.662220 0.000000 
#    z -0.013620 0.000000 1.701610 
# 
# From -- ./inp_files/48385.got.cif
#   From: 2010.06.25/outbox.cif.g09.slc.cpg/sg11_25_cif.got.tgz:48385.got - 2010.06.27 23:14:04.
