data_PCOD8068074
_publ_section_title
;
Structure prediction by ZEFSAII (Michael W. Deem and Ramdas Pophale) SiO2 
 PCOD8068074
Probable space group: P 2/M
;
_chemical_formula_sum "Si O2"
_cell_formula_units_Z 28
_cell_length_a 30.000000
_cell_length_b 9.000000
_cell_length_c 30.000000
_cell_angle_alpha 90.000000
_cell_angle_beta 170.000000
_cell_angle_gamma 90.000000
_cell_volume 1406.550239
_symmetry_space_group_name_H-M "P 2/M"
_symmetry_group_IT_number 10
_symmetry_cell_setting 'monoclinic'
loop_
_space_group_symop_operation_xyz
x,y,z
-x,y,-z
-x,-y,-z
x,-y,z
loop_
_atom_site_type_symbol
_atom_site_label
_atom_site_fract_x
_atom_site_fract_y
_atom_site_fract_z
Si Si1 0.235186 0.500000 0.764809
Si Si2 0.376869 0.324035 0.623078
Si Si3 0.475149 0.176268 0.524828
Si Si4 0.098174 0.323188 0.901875
Si Si5 0.765129 0.000000 0.234866
Si Si6 0.050529 0.176361 0.949500
Si Si7 0.800127 0.748774 0.199856
Si Si8 0.326252 0.322810 0.673709
O O1 0.218250 0.628400 0.781696
O O2 0.000000 0.500000 0.500000
O O3 0.500000 0.500000 0.000000
O O4 0.377373 0.500000 0.622581
O O5 0.640376 0.261671 0.862262
O O6 0.351641 0.267327 0.648362
O O7 0.137651 0.261671 0.359547
O O8 0.500000 0.244583 0.500000
O O9 0.211063 0.233625 0.285826
O O10 0.476339 0.000000 0.523666
O O11 0.714129 0.233632 0.788897
O O12 0.096618 0.500000 0.903427
O O13 0.073960 0.254846 0.926016
O O14 0.783194 0.122562 0.216751
O O15 0.000000 0.000000 0.500000
O O16 0.500000 0.000000 0.000000
O O17 0.053706 0.000000 0.946327
O O18 0.064195 0.746033 0.433182
O O19 0.566789 0.746003 0.935779
O O20 0.323709 0.500000 0.676171
#
# Coordination Sequence:
#
# PCOD8068074 Si02
#       8
#     2   4   4   4   2   4   4   4
#     4  12  22  36  56  88 114 136 178 226 274 308
#     4   9  19  33  57  81 108 139 178 221 264 322
#     4   9  17  30  49  75 101 136 181 222 266 319
#     4  10  19  34  53  79 105 142 181 215 263 325
#     4  12  26  46  62  82 118 160 192 216 264 336
#     4  10  19  31  52  75 105 137 172 226 272 311
#     4  12  23  39  63  86 115 150 184 228 273 327
#     4  11  20  38  62  92 113 140 184 238 284 318
#
# _framework density 19.906860999999999
#
# number of rings (size 3 to 8) (size 9 to 14) (size 15 to 20)
#    0.000    1.571    1.429    4.714    0.000    4.000 
#    0.000    0.000    9.429    2.571    0.000    0.000 
#    0.000    0.000    0.000    0.000    0.000    0.000 
#
# Total GULP energy -346984.395757 kJ/mol
# GULP energy per Si atom -12392.299848 kJ/mol
# Density = 1.986155 g / cm^3
# Si number density = 19.906861 Si / 1000 Ang^3
#
#
#
# Elastic Constant Matrix: (Units=GPa)
#
#
# Indices 1 2 3 4 5 6 
#
# 1 218.1780 45.9186 133.6558 0.0000 1.5541 0.0000
# 2 45.9186 47.7875 32.9031 0.0000 -1.1454 0.0000
# 3 133.6558 32.9031 242.6888 0.0000 0.6349 0.0000
# 4 0.0000 0.0000 0.0000 87.2071 0.0000 5.0632
# 5 1.5541 -1.1454 0.6349 0.0000 50.9247 0.0000
# 6 0.0000 0.0000 0.0000 5.0632 0.0000 32.3967
#
#
#
# Elastic Compliance Matrix: (Units=1/GPa)
#
#
# Indices 1 2 3 4 5 6 
#
# 1 0.007895 -0.005074 -0.003659 0.000000 -0.000309 0.000000
# 2 -0.005074 0.026358 -0.000781 0.000000 0.000757 0.000000
# 3 -0.003659 -0.000781 0.006242 0.000000 0.000016 0.000000
# 4 0.000000 0.000000 0.000000 0.011572 0.000000 -0.001809
# 5 -0.000309 0.000757 0.000016 0.000000 0.019663 0.000000
# 6 0.000000 0.000000 0.000000 -0.001809 0.000000 0.031150
#
#
# Mechanical properties :
#
#
# Convention : Reuss Voigt Hill
#
# Bulk Modulus (GPa) = 46.58663 103.73436 75.16049
# Shear Modulus (GPa) = 38.74036 53.85080 46.29558
#
# Velocity S-wave (km/s) = 4.41623 5.20674 4.82769
# Velocity P-wave (km/s) = 7.03258 9.40052 8.30141
#
# Compressibility (1/GPa) = 0.02146539
#
# Stress axis : x y z
#
# Youngs Moduli (GPa) = 126.65676 37.93956 160.21328
#
# Poissons Ratio (x) = 0.19252 0.58629
# Poissons Ratio (y) = 0.64271 0.12511
# Poissons Ratio (z) = 0.46349 0.02963
#
# Static dielectric constant tensor:
#      x y z
#    x 3.904390 0.000000 -0.016670 
#    y 0.000000 3.181340 0.000000 
#    z -0.016670 0.000000 3.715180 
# 
# 
# High freq. dielectric constant tensor:
#      x y z
#    x 1.793150 0.000000 0.000210 
#    y 0.000000 1.731660 0.000000 
#    z 0.000210 0.000000 1.795510 
# 
# From -- ./inp_files/96032.got.cif
#   From: 2010.06.25/outbox.ucp.g09.slc.cvg/sg10_49_cif.got.tgz:96032.got - 2010.06.28 13:37:52.
