data_PCOD8068288
_publ_section_title
;
Structure prediction by ZEFSAII (Michael W. Deem and Ramdas Pophale) SiO2 
 PCOD8068288
Probable space group: P 21/M
;
_chemical_formula_sum "Si O2"
_cell_formula_units_Z 32
_cell_length_a 11.866494
_cell_length_b 14.816479
_cell_length_c 18.515037
_cell_angle_alpha 90.000000
_cell_angle_beta 31.940039
_cell_angle_gamma 90.000000
_cell_volume 1722.160134
_symmetry_space_group_name_H-M "P 21/M"
_symmetry_group_IT_number 11
_symmetry_cell_setting 'monoclinic'
loop_
_space_group_symop_operation_xyz
x,y,z
-x,1/2+y,-z
-x,-y,-z
x,1/2-y,z
loop_
_atom_site_type_symbol
_atom_site_label
_atom_site_fract_x
_atom_site_fract_y
_atom_site_fract_z
Si Si1 0.307877 0.538358 0.376993
Si Si2 0.840244 0.355778 0.826565
Si Si3 0.025671 0.035993 0.854047
Si Si4 0.582756 0.848083 0.859413
Si Si5 0.316336 0.149180 0.793318
Si Si6 0.117193 0.514256 0.326402
Si Si7 0.963196 0.152560 0.100494
Si Si8 0.350565 0.601348 0.847815
O O1 0.433696 0.629696 0.328554
O O2 0.204782 0.549370 0.354631
O O3 0.481095 0.459443 0.285767
O O4 0.126947 0.517224 0.534253
O O5 0.909237 0.250000 0.788622
O O6 0.990933 0.414728 0.796977
O O7 0.864722 0.399175 0.734730
O O8 0.595892 0.365857 0.983162
O O9 0.228763 0.081339 0.780650
O O10 0.819646 0.040726 0.017030
O O11 0.071281 0.928011 0.822579
O O12 0.691426 0.750000 0.814468
O O13 0.474377 0.838935 0.839377
O O14 0.751560 0.928339 0.774169
O O15 0.292741 0.250000 0.775524
O O16 0.187406 0.138312 0.937962
O O17 0.963641 0.250000 0.140607
O O18 0.774634 0.159093 0.143430
#
# Coordination Sequence:
#
# PCOD8068288 Si02
#       8
#     4   4   4   4   4   4   4   4
#     4  10  19  35  53  78 108 144 175 221 271 317
#     4  10  21  38  58  78 102 142 185 223 269 325
#     4  10  17  32  55  80 112 138 177 229 269 319
#     4   9  18  33  55  80 104 138 183 223 270 319
#     4  10  18  30  53  83 111 143 178 219 274 325
#     4  10  22  36  55  76 109 141 184 223 266 314
#     4  10  17  27  50  85 115 140 176 223 275 321
#     4   9  15  30  52  78 110 142 174 222 270 320
#
# _framework density 18.581316000000001
#
# number of rings (size 3 to 8) (size 9 to 14) (size 15 to 20)
#    0.000    2.250    2.500    1.875    0.000    4.000 
#    0.000    6.875    0.000    0.000    0.000    0.000 
#    0.000    0.000    0.000    0.000    0.000    0.000 
#
# Total GULP energy -396623.726270 kJ/mol
# GULP energy per Si atom -12394.491446 kJ/mol
# Density = 1.853902 g / cm^3
# Si number density = 18.581316 Si / 1000 Ang^3
#
#
#
# Elastic Constant Matrix: (Units=GPa)
#
#
# Indices 1 2 3 4 5 6 
#
# 1 57.9911 49.6066 40.2275 0.0000 -5.8470 0.0000
# 2 49.6066 146.0085 36.2652 0.0000 5.3547 0.0000
# 3 40.2275 36.2652 75.2523 0.0000 -7.0881 0.0000
# 4 0.0000 0.0000 0.0000 14.7739 0.0000 -0.0485
# 5 -5.8470 5.3547 -7.0881 0.0000 24.6821 0.0000
# 6 0.0000 0.0000 0.0000 -0.0485 0.0000 20.9482
#
#
#
# Elastic Compliance Matrix: (Units=1/GPa)
#
#
# Indices 1 2 3 4 5 6 
#
# 1 0.034896 -0.008624 -0.013920 0.000000 0.006140 0.000000
# 2 -0.008624 0.010110 -0.000680 0.000000 -0.004431 0.000000
# 3 -0.013920 -0.000680 0.021338 0.000000 0.002978 0.000000
# 4 0.000000 0.000000 0.000000 0.067687 0.000000 0.000157
# 5 0.006140 -0.004431 0.002978 0.000000 0.043786 0.000000
# 6 0.000000 0.000000 0.000000 0.000157 0.000000 0.047737
#
#
# Mechanical properties :
#
#
# Convention : Reuss Voigt Hill
#
# Bulk Modulus (GPa) = 50.25848 59.05008 54.65428
# Shear Modulus (GPa) = 17.94465 22.29101 20.11783
#
# Velocity S-wave (km/s) = 3.11100 3.46735 3.29400
# Velocity P-wave (km/s) = 6.32543 6.91941 6.62908
#
# Compressibility (1/GPa) = 0.01989714
#
# Stress axis : x y z
#
# Youngs Moduli (GPa) = 28.65642 98.91010 46.86505
#
# Poissons Ratio (x) = 0.85298 0.65237
# Poissons Ratio (y) = 0.24713 0.03185
# Poissons Ratio (z) = 0.39890 0.06723
#
# Static dielectric constant tensor:
#      x y z
#    x 3.290450 0.000000 -0.198290 
#    y 0.000000 3.531700 0.000000 
#    z -0.198290 0.000000 3.215270 
# 
# 
# High freq. dielectric constant tensor:
#      x y z
#    x 1.703570 0.000000 -0.018460 
#    y 0.000000 1.731550 0.000000 
#    z -0.018460 0.000000 1.687940 
# 
# From -- ./inp_files/59438.got.cif
#   From: 2010.06.25/outbox.cif.g09.slc.cpg/sg11_30_cif.got.tgz:59438.got - 2010.06.27 23:14:04.
