data_PCOD8068634
_publ_section_title
;
Structure prediction by ZEFSAII (Michael W. Deem and Ramdas Pophale) SiO2 
 PCOD8068634
Probable space group: P 21/M
;
_chemical_formula_sum "Si O2"
_cell_formula_units_Z 32
_cell_length_a 19.017838
_cell_length_b 9.070851
_cell_length_c 17.070897
_cell_angle_alpha 90.000000
_cell_angle_beta 43.666843
_cell_angle_gamma 90.000000
_cell_volume 2033.323618
_symmetry_space_group_name_H-M "P 21/M"
_symmetry_group_IT_number 11
_symmetry_cell_setting 'monoclinic'
loop_
_space_group_symop_operation_xyz
x,y,z
-x,1/2+y,-z
-x,-y,-z
x,1/2-y,z
loop_
_atom_site_type_symbol
_atom_site_label
_atom_site_fract_x
_atom_site_fract_y
_atom_site_fract_z
Si Si1 0.397237 0.079644 0.105341
Si Si2 0.425880 0.585128 0.663653
Si Si3 0.744998 0.421679 0.318281
Si Si4 0.344821 0.418461 0.979647
Si Si5 0.618100 0.078483 0.561923
Si Si6 0.890903 0.926027 0.088192
Si Si7 0.580346 0.077056 0.763776
Si Si8 0.248098 0.581606 0.924134
O O1 0.420107 0.250000 0.102943
O O2 0.355957 0.005342 0.218692
O O3 0.322160 0.060968 0.091063
O O4 0.500000 0.000000 0.000000
O O5 0.467018 0.750000 0.619878
O O6 0.358260 0.537367 0.644168
O O7 0.522347 0.481344 0.591517
O O8 0.358230 0.571723 0.795903
O O9 0.773274 0.250000 0.280292
O O10 0.721841 0.453738 0.428981
O O11 0.835676 0.523451 0.213252
O O12 0.327337 0.250000 0.968113
O O13 0.460997 0.463524 0.865709
O O14 0.263265 0.518589 0.999377
O O15 0.597482 0.250000 0.584765
O O16 0.624739 0.016335 0.645156
O O17 0.898920 0.750000 0.079586
O O18 0.831770 0.983204 0.059369
O O19 0.000000 0.000000 0.000000
O O20 0.598308 0.250000 0.760207
O O21 0.208290 0.750000 0.959530
#
# Coordination Sequence:
#
# PCOD8068634 Si02
#       8
#     4   4   4   4   4   4   4   4
#     4   9  17  27  39  56  81 116 156 194 228 263
#     4   9  17  27  39  60  89 118 152 188 220 260
#     4   9  19  33  46  65  89 115 150 187 225 266
#     4   9  16  27  41  60  87 117 155 193 226 265
#     4  10  18  28  43  61  89 123 154 189 221 260
#     4  11  22  37  55  70  89 115 144 184 230 275
#     4   9  17  27  39  59  87 122 159 189 224 263
#     4  10  19  30  46  69  92 117 151 187 226 270
#
# _framework density 15.737781
#
# number of rings (size 3 to 8) (size 9 to 14) (size 15 to 20)
#    0.000    2.500    1.250    3.750    0.000    5.500 
#    0.000    0.000    0.000    0.000    0.000    0.000 
#    0.000    1.000    0.000    3.000    0.000    4.625 
#
# Total GULP energy -396602.861016 kJ/mol
# GULP energy per Si atom -12393.839407 kJ/mol
# Density = 1.570196 g / cm^3
# Si number density = 15.737781 Si / 1000 Ang^3
#
#
#
# Elastic Constant Matrix: (Units=GPa)
#
#
# Indices 1 2 3 4 5 6 
#
# 1 64.6001 42.5286 52.9580 0.0000 16.6033 0.0000
# 2 42.5286 85.6047 46.0069 0.0000 7.1293 0.0000
# 3 52.9580 46.0069 83.3423 0.0000 17.6499 0.0000
# 4 0.0000 0.0000 0.0000 20.6162 0.0000 3.2402
# 5 16.6033 7.1293 17.6499 0.0000 23.9576 0.0000
# 6 0.0000 0.0000 0.0000 3.2402 0.0000 27.1486
#
#
#
# Elastic Compliance Matrix: (Units=1/GPa)
#
#
# Indices 1 2 3 4 5 6 
#
# 1 0.038104 -0.008905 -0.016903 0.000000 -0.011305 0.000000
# 2 -0.008905 0.018784 -0.005728 0.000000 0.004801 0.000000
# 3 -0.016903 -0.005728 0.027322 0.000000 -0.006710 0.000000
# 4 0.000000 0.000000 0.000000 0.049433 0.000000 -0.005900
# 5 -0.011305 0.004801 -0.006710 0.000000 0.053090 0.000000
# 6 0.000000 0.000000 0.000000 -0.005900 0.000000 0.037538
#
#
# Mechanical properties :
#
#
# Convention : Reuss Voigt Hill
#
# Bulk Modulus (GPa) = 47.30382 57.39271 52.34826
# Shear Modulus (GPa) = 16.98441 20.48140 18.73291
#
# Velocity S-wave (km/s) = 3.28870 3.61143 3.45384
# Velocity P-wave (km/s) = 6.67409 7.34419 7.01714
#
# Compressibility (1/GPa) = 0.02113994
#
# Stress axis : x y z
#
# Youngs Moduli (GPa) = 26.24373 53.23729 36.60053
#
# Poissons Ratio (x) = 0.47406 0.61865
# Poissons Ratio (y) = 0.23369 0.20963
# Poissons Ratio (z) = 0.44359 0.30492
#
# Static dielectric constant tensor:
#      x y z
#    x 3.107820 0.000000 0.560770 
#    y 0.000000 3.088710 0.000000 
#    z 0.560770 0.000000 3.129220 
# 
# 
# High freq. dielectric constant tensor:
#      x y z
#    x 1.578990 0.000000 0.036940 
#    y 0.000000 1.611380 0.000000 
#    z 0.036940 0.000000 1.574450 
# 
# From -- ./inp_files/52969.got.cif
#   From: 2010.06.25/outbox.cif.g09.slc.cpg/sg11_27_cif.got.tgz:52969.got - 2010.06.27 23:14:04.
