data_PCOD8068062
_publ_section_title
;
Structure prediction by ZEFSAII (Michael W. Deem and Ramdas Pophale) SiO2 
 PCOD8068062
Probable space group: P 2/M
;
_chemical_formula_sum "Si O2"
_cell_formula_units_Z 32
_cell_length_a 28.008091
_cell_length_b 9.633606
_cell_length_c 15.649344
_cell_angle_alpha 90.000000
_cell_angle_beta 26.508945
_cell_angle_gamma 90.000000
_cell_volume 1884.655286
_symmetry_space_group_name_H-M "P 2/M"
_symmetry_group_IT_number 10
_symmetry_cell_setting 'monoclinic'
loop_
_space_group_symop_operation_xyz
x,y,z
-x,y,-z
-x,-y,-z
x,-y,z
loop_
_atom_site_type_symbol
_atom_site_label
_atom_site_fract_x
_atom_site_fract_y
_atom_site_fract_z
Si Si1 0.962334 0.661188 0.967396
Si Si2 0.021321 0.160221 0.718844
Si Si3 0.570269 0.661188 0.967396
Si Si4 0.759836 0.839779 0.718844
Si Si5 0.211546 0.839256 0.967803
Si Si6 0.271379 0.340101 0.718650
Si Si7 0.509971 0.659899 0.718650
Si Si8 0.679348 0.839256 0.032197
O O1 0.988187 0.500000 0.910764
O O2 0.836360 0.693166 0.161026
O O3 0.000000 0.710172 0.000000
O O4 0.029149 0.748094 0.791436
O O5 0.119651 0.198016 0.500000
O O6 0.023624 0.000000 0.743216
O O7 0.914047 0.195697 0.838139
O O8 0.601049 0.500000 0.910764
O O9 0.679415 0.748094 0.791436
O O10 0.500000 0.710172 0.000000
O O11 0.502614 0.693166 0.161026
O O12 0.747815 0.804303 0.838139
O O13 0.733161 0.000000 0.743216
O O14 0.279127 0.751310 0.791508
O O15 0.234439 0.000000 0.912235
O O16 0.248136 0.796548 0.003728
O O17 0.275145 0.500000 0.741074
O O18 0.369409 0.301451 0.500000
O O19 0.483781 0.500000 0.741074
O O20 0.429364 0.751310 0.791508
O O21 0.646674 0.000000 0.087765
#
# Coordination Sequence:
#
# PCOD8068062 Si02
#       8
#     4   4   4   4   4   4   4   4
#     4   9  18  32  50  71  94 122 156 193 231 272
#     4   9  18  32  49  70  96 124 154 189 230 276
#     4   9  18  32  50  71  94 122 156 193 231 272
#     4   9  18  32  49  70  96 124 154 189 230 276
#     4   9  18  32  49  69  93 121 154 192 231 272
#     4   9  18  32  48  67  93 123 154 189 230 276
#     4   9  18  32  48  67  93 123 154 189 230 276
#     4   9  18  32  49  69  93 121 154 192 231 272
#
# _framework density 16.979233000000001
#
# number of rings (size 3 to 8) (size 9 to 14) (size 15 to 20)
#    0.000    3.000    0.000    0.000    0.000    4.000 
#    0.000    7.500    0.000    0.000    0.000    7.000 
#    0.000    0.000    0.000    0.000    0.000    0.000 
#
# Total GULP energy -396866.590786 kJ/mol
# GULP energy per Si atom -12402.080962 kJ/mol
# Density = 1.694059 g / cm^3
# Si number density = 16.979233 Si / 1000 Ang^3
#
#
#
# Elastic Constant Matrix: (Units=GPa)
#
#
# Indices 1 2 3 4 5 6 
#
# 1 135.8087 52.7722 51.4845 0.0000 2.0022 0.0000
# 2 52.7722 53.8064 47.9328 0.0000 0.1735 0.0000
# 3 51.4845 47.9328 118.5266 0.0000 -1.3826 0.0000
# 4 0.0000 0.0000 0.0000 28.1843 0.0000 0.0384
# 5 2.0022 0.1735 -1.3826 0.0000 14.3587 0.0000
# 6 0.0000 0.0000 0.0000 0.0384 0.0000 29.2558
#
#
#
# Elastic Compliance Matrix: (Units=1/GPa)
#
#
# Indices 1 2 3 4 5 6 
#
# 1 0.011972 -0.011079 -0.000739 0.000000 -0.001607 0.000000
# 2 -0.011079 0.039334 -0.011095 0.000000 0.000001 0.000000
# 3 -0.000739 -0.011095 0.013262 0.000000 0.001514 0.000000
# 4 0.000000 0.000000 0.000000 0.035481 0.000000 -0.000047
# 5 -0.001607 0.000001 0.001514 0.000000 0.070014 0.000000
# 6 0.000000 0.000000 0.000000 -0.000047 0.000000 0.034181
#
#
# Mechanical properties :
#
#
# Convention : Reuss Voigt Hill
#
# Bulk Modulus (GPa) = 53.34934 68.05788 60.70361
# Shear Modulus (GPa) = 19.50706 24.75656 22.13181
#
# Velocity S-wave (km/s) = 3.39319 3.82258 3.61427
# Velocity P-wave (km/s) = 6.84399 7.72353 7.29702
#
# Compressibility (1/GPa) = 0.01874437
#
# Stress axis : x y z
#
# Youngs Moduli (GPa) = 83.52879 25.42298 75.40152
#
# Poissons Ratio (x) = 0.28165 0.05571
# Poissons Ratio (y) = 0.92537 0.83657
# Poissons Ratio (z) = 0.06171 0.28207
#
# Static dielectric constant tensor:
#      x y z
#    x 3.189140 0.000000 -0.000310 
#    y 0.000000 3.192520 0.000000 
#    z -0.000310 0.000000 3.197680 
# 
# 
# High freq. dielectric constant tensor:
#      x y z
#    x 1.652400 0.000000 -0.000050 
#    y 0.000000 1.653700 0.000000 
#    z -0.000050 0.000000 1.653690 
# 
# From -- ./inp_files/66513.got.cif
#   From: 2010.06.25/outbox.cif.g09.slc.cpg/sg10_34_cif.got.tgz:66513.got - 2010.06.27 22:07:45.
