data_PCOD8068587
_publ_section_title
;
Structure prediction by ZEFSAII (Michael W. Deem and Ramdas Pophale) SiO2 
 PCOD8068587
Probable space group: P 21/M
;
_chemical_formula_sum "Si O2"
_cell_formula_units_Z 32
_cell_length_a 20.900002
_cell_length_b 10.664586
_cell_length_c 13.301576
_cell_angle_alpha 90.000000
_cell_angle_beta 141.114503
_cell_angle_gamma 90.000000
_cell_volume 1861.192312
_symmetry_space_group_name_H-M "P 21/M"
_symmetry_group_IT_number 11
_symmetry_cell_setting 'monoclinic'
loop_
_space_group_symop_operation_xyz
x,y,z
-x,1/2+y,-z
-x,-y,-z
x,1/2-y,z
loop_
_atom_site_type_symbol
_atom_site_label
_atom_site_fract_x
_atom_site_fract_y
_atom_site_fract_z
Si Si1 0.122527 0.389565 0.078038
Si Si2 0.348353 0.475064 0.361183
Si Si3 0.991493 0.890186 0.852525
Si Si4 0.553300 0.113782 0.691933
Si Si5 0.667960 0.109474 0.464506
Si Si6 0.510702 0.479485 0.852091
Si Si7 0.791461 0.605863 0.510922
Si Si8 0.636776 0.612261 0.164910
O O1 0.093924 0.250000 0.001818
O O2 0.243795 0.399409 0.227930
O O3 0.079509 0.406024 0.136913
O O4 0.076496 0.500856 0.951952
O O5 0.378523 0.514703 0.285250
O O6 0.435639 0.386253 0.513293
O O7 0.342839 0.596290 0.428060
O O8 0.041700 0.750000 0.912222
O O9 0.914380 0.906758 0.663772
O O10 0.599224 0.250000 0.726463
O O11 0.560423 0.091882 0.819829
O O12 0.708877 0.250000 0.490633
O O13 0.559282 0.093629 0.275219
O O14 0.745211 0.999478 0.527712
O O15 0.440270 0.390910 0.834389
O O16 0.605516 0.521780 0.036638
O O17 0.761106 0.750000 0.506284
O O18 0.749309 0.579209 0.346479
O O19 0.635663 0.750000 0.117018
#
# Coordination Sequence:
#
# PCOD8068587 Si02
#       8
#     4   4   4   4   4   4   4   4
#     4  10  19  32  49  69  96 130 164 199 241 288
#     4  10  20  32  47  69  95 130 169 202 235 279
#     4   9  18  31  47  71  98 125 161 201 241 289
#     4  10  20  33  48  67  96 133 170 200 233 283
#     4  10  18  27  43  66  96 127 158 198 237 276
#     4   9  18  29  43  67  93 123 160 199 239 283
#     4   9  17  30  47  68  94 126 159 191 236 291
#     4   9  16  28  47  66  90 123 157 195 241 289
#
# _framework density 17.193280999999999
#
# number of rings (size 3 to 8) (size 9 to 14) (size 15 to 20)
#    0.000    2.500    1.250    1.500    0.000    4.500 
#    0.000    2.500    0.000    0.000    0.000    0.875 
#    0.000    0.000    0.000    0.000    0.000    0.000 
#
# Total GULP energy -396509.247988 kJ/mol
# GULP energy per Si atom -12390.914000 kJ/mol
# Density = 1.715415 g / cm^3
# Si number density = 17.193281 Si / 1000 Ang^3
#
#
#
# Elastic Constant Matrix: (Units=GPa)
#
#
# Indices 1 2 3 4 5 6 
#
# 1 41.6005 16.1839 19.1230 0.0000 -5.1306 0.0000
# 2 16.1839 107.2080 39.8775 0.0000 4.2966 0.0000
# 3 19.1230 39.8775 97.9415 0.0000 -1.6474 0.0000
# 4 0.0000 0.0000 0.0000 17.0429 0.0000 4.9503
# 5 -5.1306 4.2966 -1.6474 0.0000 23.1582 0.0000
# 6 0.0000 0.0000 0.0000 4.9503 0.0000 9.6009
#
#
#
# Elastic Compliance Matrix: (Units=1/GPa)
#
#
# Indices 1 2 3 4 5 6 
#
# 1 0.027872 -0.002924 -0.004144 0.000000 0.006423 0.000000
# 2 -0.002924 0.011430 -0.004134 0.000000 -0.003062 0.000000
# 3 -0.004144 -0.004134 0.012715 0.000000 0.000754 0.000000
# 4 0.000000 0.000000 0.000000 0.069011 0.000000 -0.035583
# 5 0.006423 -0.003062 0.000754 0.000000 0.045226 0.000000
# 6 0.000000 0.000000 0.000000 -0.035583 0.000000 0.122504
#
#
# Mechanical properties :
#
#
# Convention : Reuss Voigt Hill
#
# Bulk Modulus (GPa) = 33.76782 44.12430 38.94606
# Shear Modulus (GPa) = 15.57477 21.39812 18.48644
#
# Velocity S-wave (km/s) = 3.01302 3.53166 3.28260
# Velocity P-wave (km/s) = 5.63801 6.50766 6.08838
#
# Compressibility (1/GPa) = 0.02961400
#
# Stress axis : x y z
#
# Youngs Moduli (GPa) = 35.87771 87.49258 78.64618
#
# Poissons Ratio (x) = 0.25580 0.32588
# Poissons Ratio (y) = 0.10490 0.32514
# Poissons Ratio (z) = 0.14866 0.36172
#
# Static dielectric constant tensor:
#      x y z
#    x 2.759800 0.000000 -0.001730 
#    y 0.000000 3.202640 0.000000 
#    z -0.001730 0.000000 3.340850 
# 
# 
# High freq. dielectric constant tensor:
#      x y z
#    x 1.605620 0.000000 -0.000010 
#    y 0.000000 1.668310 0.000000 
#    z -0.000010 0.000000 1.663960 
# 
# From -- ./inp_files/41247.got.cif
#   From: 2010.06.25/outbox.cif.g09.slc.cpg/sg11_21_cif.got.tgz:41247.got - 2010.06.27 23:14:04.
