data_PCOD8068070
_publ_section_title
;
Structure prediction by ZEFSAII (Michael W. Deem and Ramdas Pophale) SiO2 
 PCOD8068070
Probable space group: P 2/M
;
_chemical_formula_sum "Si O2"
_cell_formula_units_Z 32
_cell_length_a 30.000000
_cell_length_b 9.000000
_cell_length_c 12.000000
_cell_angle_alpha 90.000000
_cell_angle_beta 30.000000
_cell_angle_gamma 90.000000
_cell_volume 1620.000000
_symmetry_space_group_name_H-M "P 2/M"
_symmetry_group_IT_number 10
_symmetry_cell_setting 'monoclinic'
loop_
_space_group_symop_operation_xyz
x,y,z
-x,y,-z
-x,-y,-z
x,-y,z
loop_
_atom_site_type_symbol
_atom_site_label
_atom_site_fract_x
_atom_site_fract_y
_atom_site_fract_z
Si Si1 0.588913 0.175035 0.742738
Si Si2 0.605735 0.174148 0.089481
Si Si3 0.687896 0.673626 0.708288
Si Si4 0.266893 0.823236 0.990955
Si Si5 0.011770 0.834809 0.154167
Si Si6 0.409616 0.174826 0.511161
Si Si7 0.140677 0.167050 0.695635
Si Si8 0.066603 0.177159 0.451998
O O1 0.669539 0.261130 0.625876
O O2 0.589235 0.235767 0.616586
O O3 0.604702 0.000000 0.713913
O O4 0.500000 0.221908 0.000000
O O5 0.682462 0.227019 0.006994
O O6 0.507296 0.212628 0.351614
O O7 0.611865 0.000000 0.050108
O O8 0.619247 0.256653 0.944150
O O9 0.676718 0.500000 0.736824
O O10 0.788997 0.721705 0.511685
O O11 0.326688 0.755900 0.760153
O O12 0.264615 0.000000 0.987874
O O13 0.166108 0.758756 0.211395
O O14 0.934246 0.844059 0.233818
O O15 0.975801 0.751907 0.343110
O O16 0.040044 0.000000 0.130453
O O17 0.098899 0.766640 0.902527
O O18 0.395766 0.000000 0.541700
O O19 0.179578 0.000000 0.630687
O O20 0.000000 0.228000 0.500000
O O21 0.074540 0.000000 0.445012
#
# Coordination Sequence:
#
# PCOD8068070 Si02
#       8
#     4   4   4   4   4   4   4   4
#     4  10  19  35  55  75 102 138 178 215 257 309
#     4  10  18  33  55  76 103 137 176 220 266 312
#     4  12  24  34  49  77 110 142 179 216 264 316
#     4   9  17  28  49  81 108 132 167 217 266 310
#     4   8  15  29  50  75 100 131 171 215 262 312
#     4   9  17  30  51  79 105 131 172 221 267 311
#     4   9  17  32  54  76  99 131 175 221 264 308
#     4   9  16  25  39  67 108 139 158 194 258 320
#
# _framework density 19.753086
#
# number of rings (size 3 to 8) (size 9 to 14) (size 15 to 20)
#    0.000    2.500    1.250    3.000    0.000    4.750 
#    0.000    5.000    0.000    2.250    0.000    0.000 
#    0.000    3.500    0.000    0.000    0.000    0.000 
#
# Total GULP energy -396455.698638 kJ/mol
# GULP energy per Si atom -12389.240582 kJ/mol
# Density = 1.970813 g / cm^3
# Si number density = 19.753086 Si / 1000 Ang^3
#
#
#
# Elastic Constant Matrix: (Units=GPa)
#
#
# Indices 1 2 3 4 5 6 
#
# 1 90.8684 18.6363 54.9937 0.0000 10.4143 0.0000
# 2 18.6363 22.2699 9.8903 0.0000 7.5186 0.0000
# 3 54.9937 9.8903 124.8156 0.0000 23.0450 0.0000
# 4 0.0000 0.0000 0.0000 0.5041 0.0000 -0.6261
# 5 10.4143 7.5186 23.0450 0.0000 25.0825 0.0000
# 6 0.0000 0.0000 0.0000 -0.6261 0.0000 -1.6622
#
#
#
# Elastic Compliance Matrix: (Units=1/GPa)
#
#
# Indices 1 2 3 4 5 6 
#
# 1 0.017697 -0.012615 -0.007393 0.000000 0.003226 0.000000
# 2 -0.012615 0.059168 0.003827 0.000000 -0.016014 0.000000
# 3 -0.007393 0.003827 0.012779 0.000000 -0.009818 0.000000
# 4 0.000000 0.000000 0.000000 1.351481 0.000000 -0.509021
# 5 0.003226 -0.016014 -0.009818 0.000000 0.052350 0.000000
# 6 0.000000 0.000000 0.000000 -0.509021 0.000000 -0.409883
#
#
# Mechanical properties :
#
#
# Convention : Reuss Voigt Hill
#
# Bulk Modulus (GPa) = 17.45836 44.99939 31.22887
# Shear Modulus (GPa) = 4.40510 15.08045 9.74277
#
# Velocity S-wave (km/s) = 1.49497 2.76605 2.22328
# Velocity P-wave (km/s) = 3.44055 5.74733 4.73652
#
# Compressibility (1/GPa) = 0.05727916
#
# Stress axis : x y z
#
# Youngs Moduli (GPa) = 56.50705 16.90114 78.25433
#
# Poissons Ratio (x) = 0.21321 0.57856
# Poissons Ratio (y) = 0.71285 -0.29944
# Poissons Ratio (z) = 0.41778 -0.06467
#
# Static dielectric constant tensor:
#      x y z
#    x 3.573180 0.000000 0.161760 
#    y 0.000000 2.846540 0.000000 
#    z 0.161760 0.000000 4.271600 
# 
# 
# High freq. dielectric constant tensor:
#      x y z
#    x 1.762910 0.000000 0.004740 
#    y 0.000000 1.682230 0.000000 
#    z 0.004740 0.000000 1.791520 
# 
# From -- ./inp_files/58123.got.cif
#   From: 2010.06.25/outbox.ucp.g09.slc.cvg/sg10_30_cif.got.tgz:58123.got - 2010.06.28 13:37:52.
