data_PCOD8068014
_publ_section_title
;
Structure prediction by ZEFSAII (Michael W. Deem and Ramdas Pophale) SiO2 
 PCOD8068014
Probable space group: P 2/M
;
_chemical_formula_sum "Si O2"
_cell_formula_units_Z 32
_cell_length_a 20.042114
_cell_length_b 9.313988
_cell_length_c 10.160600
_cell_angle_alpha 90.000000
_cell_angle_beta 83.760681
_cell_angle_gamma 90.000000
_cell_volume 1885.464737
_symmetry_space_group_name_H-M "P 2/M"
_symmetry_group_IT_number 10
_symmetry_cell_setting 'monoclinic'
loop_
_space_group_symop_operation_xyz
x,y,z
-x,y,-z
-x,-y,-z
x,-y,z
loop_
_atom_site_type_symbol
_atom_site_label
_atom_site_fract_x
_atom_site_fract_y
_atom_site_fract_z
Si Si1 0.941153 0.166498 0.412747
Si Si2 0.188053 0.660816 0.550942
Si Si3 0.059950 0.167700 0.890050
Si Si4 0.320601 0.834066 0.825969
Si Si5 0.191681 0.662027 0.862383
Si Si6 0.685336 0.165218 0.482358
Si Si7 0.456244 0.829047 0.391149
Si Si8 0.533794 0.828881 0.124197
O O1 0.878276 0.256043 0.478879
O O2 0.959878 0.205291 0.257124
O O3 0.000000 0.207814 0.500000
O O4 0.922162 0.000000 0.426901
O O5 0.185423 0.500000 0.494702
O O6 0.192985 0.661173 0.705903
O O7 0.252766 0.740862 0.478639
O O8 0.125369 0.254319 0.924060
O O9 0.076617 0.000000 0.900298
O O10 0.000000 0.213468 0.000000
O O11 0.258690 0.742654 0.898020
O O12 0.329255 0.812839 0.668473
O O13 0.389071 0.777584 0.879193
O O14 0.306599 0.000000 0.862745
O O15 0.190458 0.500000 0.919019
O O16 0.620826 0.219458 0.577458
O O17 0.702294 0.000000 0.508227
O O18 0.500000 0.763924 0.500000
O O19 0.487624 0.767191 0.250823
O O20 0.459980 0.000000 0.394624
O O21 0.533042 0.000000 0.127735
O O22 0.500000 0.767407 0.000000
#
# Coordination Sequence:
#
# PCOD8068014 Si02
#       8
#     4   4   4   4   4   4   4   4
#     4   9  17  30  49  71  94 119 148 181 218 264
#     4   9  17  28  43  66  94 120 149 185 222 260
#     4   9  17  30  49  72  95 117 144 183 226 262
#     4   9  15  25  43  65  87 114 148 186 225 264
#     4   9  17  28  44  67  92 118 151 187 219 259
#     4   9  15  24  43  66  87 113 148 188 225 262
#     4   9  14  23  40  64  88 111 143 182 223 265
#     4   9  16  25  40  64  91 114 142 183 227 266
#
# _framework density 16.971943
#
# number of rings (size 3 to 8) (size 9 to 14) (size 15 to 20)
#    0.000    3.000    1.250    0.750    0.000    3.500 
#    0.000    0.000    2.750    1.500    0.000    0.000 
#    0.000    0.000    0.000    0.000    0.000    0.000 
#
# Total GULP energy -396692.321946 kJ/mol
# GULP energy per Si atom -12396.635061 kJ/mol
# Density = 1.693331 g / cm^3
# Si number density = 16.971943 Si / 1000 Ang^3
#
#
#
# Elastic Constant Matrix: (Units=GPa)
#
#
# Indices 1 2 3 4 5 6 
#
# 1 185.5524 73.7009 64.9724 0.0000 -7.6534 0.0000
# 2 73.7009 70.5467 26.6422 0.0000 -2.5288 0.0000
# 3 64.9724 26.6422 71.3490 0.0000 -3.9680 0.0000
# 4 0.0000 0.0000 0.0000 7.9994 0.0000 0.8900
# 5 -7.6534 -2.5288 -3.9680 0.0000 25.5051 0.0000
# 6 0.0000 0.0000 0.0000 0.8900 0.0000 5.5430
#
#
#
# Elastic Compliance Matrix: (Units=1/GPa)
#
#
# Indices 1 2 3 4 5 6 
#
# 1 0.011676 -0.009500 -0.007003 0.000000 0.001472 0.000000
# 2 -0.009500 0.024244 -0.000430 0.000000 -0.000514 0.000000
# 3 -0.007003 -0.000430 0.020612 0.000000 0.001063 0.000000
# 4 0.000000 0.000000 0.000000 0.127283 0.000000 -0.020437
# 5 0.001472 -0.000514 0.001063 0.000000 0.039764 0.000000
# 6 0.000000 0.000000 0.000000 -0.020437 0.000000 0.183690
#
#
# Mechanical properties :
#
#
# Convention : Reuss Voigt Hill
#
# Bulk Modulus (GPa) = 44.12023 73.11989 58.62006
# Shear Modulus (GPa) = 11.14354 18.61833 14.88093
#
# Velocity S-wave (km/s) = 2.56517 3.31570 2.96429
# Velocity P-wave (km/s) = 5.90135 7.60492 6.80664
#
# Compressibility (1/GPa) = 0.02266534
#
# Stress axis : x y z
#
# Youngs Moduli (GPa) = 85.64906 41.24724 48.51459
#
# Poissons Ratio (x) = 0.39186 0.33974
# Poissons Ratio (y) = 0.81368 0.02088
# Poissons Ratio (z) = 0.59978 0.01775
#
# Static dielectric constant tensor:
#      x y z
#    x 3.343680 0.000000 -0.060950 
#    y 0.000000 3.021460 0.000000 
#    z -0.060950 0.000000 2.950390 
# 
# 
# High freq. dielectric constant tensor:
#      x y z
#    x 1.668820 0.000000 -0.006540 
#    y 0.000000 1.626700 0.000000 
#    z -0.006540 0.000000 1.614030 
# 
# From -- ./inp_files/52718.got.cif
#   From: 2010.06.25/outbox.cif.g09.slc.cpg/sg10_27_cif.got.tgz:52718.got - 2010.06.27 22:07:45.
