data_PCOD8068688
_publ_section_title
;
Structure prediction by ZEFSAII (Michael W. Deem and Ramdas Pophale) SiO2 
 PCOD8068688
Probable space group: P 21/M
;
_chemical_formula_sum "Si O2"
_cell_formula_units_Z 32
_cell_length_a 28.567430
_cell_length_b 9.112998
_cell_length_c 13.415050
_cell_angle_alpha 90.000000
_cell_angle_beta 35.444125
_cell_angle_gamma 90.000000
_cell_volume 2025.276884
_symmetry_space_group_name_H-M "P 21/M"
_symmetry_group_IT_number 11
_symmetry_cell_setting 'monoclinic'
loop_
_space_group_symop_operation_xyz
x,y,z
-x,1/2+y,-z
-x,-y,-z
x,1/2-y,z
loop_
_atom_site_type_symbol
_atom_site_label
_atom_site_fract_x
_atom_site_fract_y
_atom_site_fract_z
Si Si1 0.676236 0.417277 0.292387
Si Si2 0.502841 0.919192 0.391226
Si Si3 0.083132 0.415390 0.254924
Si Si4 0.344373 0.577319 0.903231
Si Si5 0.805178 0.920635 0.761861
Si Si6 0.033824 0.924536 0.038777
Si Si7 0.824036 0.917187 0.111443
Si Si8 0.949573 0.581237 0.384724
O O1 0.707112 0.250000 0.244573
O O2 0.587472 0.431771 0.497098
O O3 0.674940 0.465659 0.178081
O O4 0.734053 0.518817 0.258171
O O5 0.527066 0.750000 0.364411
O O6 0.500000 0.000000 0.500000
O O7 0.571886 0.000137 0.206523
O O8 0.057479 0.250000 0.323659
O O9 0.136607 0.478895 0.251544
O O10 0.001079 0.505314 0.382827
O O11 0.136676 0.427074 0.064142
O O12 0.353838 0.750000 0.900480
O O13 0.275353 0.517531 0.096987
O O14 0.782378 0.750000 0.817082
O O15 0.854275 0.944710 0.572724
O O16 0.037151 0.750000 0.019447
O O17 0.973674 0.974377 0.232849
O O18 0.123682 0.985891 0.902449
O O19 0.000000 0.000000 0.000000
O O20 0.819657 0.750000 0.158101
O O21 0.972581 0.750000 0.353320
#
# Coordination Sequence:
#
# PCOD8068688 Si02
#       8
#     4   4   4   4   4   4   4   4
#     4   9  17  28  41  60  86 116 151 187 220 256
#     4   9  17  28  41  58  83 117 155 191 225 259
#     4   9  17  27  40  60  86 115 147 179 215 257
#     4  10  19  28  40  60  86 121 158 188 222 258
#     4  10  18  29  42  60  87 118 150 184 219 258
#     4  10  20  35  51  67  88 114 145 185 229 274
#     4  10  18  28  45  68  89 115 148 183 222 263
#     4   9  19  31  45  63  84 112 146 183 224 265
#
# _framework density 15.800307999999999
#
# number of rings (size 3 to 8) (size 9 to 14) (size 15 to 20)
#    0.000    2.500    1.250    2.625    0.000    4.500 
#    0.000    0.000    0.000    0.000    0.000    0.000 
#    0.000    1.000    0.000    3.000    0.000    4.000 
#
# Total GULP energy -396660.129472 kJ/mol
# GULP energy per Si atom -12395.629046 kJ/mol
# Density = 1.576435 g / cm^3
# Si number density = 15.800308 Si / 1000 Ang^3
#
#
#
# Elastic Constant Matrix: (Units=GPa)
#
#
# Indices 1 2 3 4 5 6 
#
# 1 52.1086 30.7390 28.5407 0.0000 -8.0982 0.0000
# 2 30.7390 84.7906 46.8421 0.0000 -13.5100 0.0000
# 3 28.5407 46.8421 97.4887 0.0000 -20.4057 0.0000
# 4 0.0000 0.0000 0.0000 27.2100 0.0000 -7.5457
# 5 -8.0982 -13.5100 -20.4057 0.0000 17.6745 0.0000
# 6 0.0000 0.0000 0.0000 -7.5457 0.0000 21.8366
#
#
#
# Elastic Compliance Matrix: (Units=1/GPa)
#
#
# Indices 1 2 3 4 5 6 
#
# 1 0.025637 -0.006880 -0.003748 0.000000 0.002161 0.000000
# 2 -0.006880 0.018170 -0.005893 0.000000 0.003933 0.000000
# 3 -0.003748 -0.005893 0.016990 0.000000 0.013393 0.000000
# 4 0.000000 0.000000 0.000000 0.040646 0.000000 0.014045
# 5 0.002161 0.003933 0.013393 0.000000 0.076038 0.000000
# 6 0.000000 0.000000 0.000000 0.014045 0.000000 0.050648
#
#
# Mechanical properties :
#
#
# Convention : Reuss Voigt Hill
#
# Bulk Modulus (GPa) = 36.02770 49.62572 42.82671
# Shear Modulus (GPa) = 18.48958 21.89533 20.19245
#
# Velocity S-wave (km/s) = 3.42454 3.72661 3.57876
# Velocity P-wave (km/s) = 6.20387 7.07058 6.65136
#
# Compressibility (1/GPa) = 0.02775642
#
# Stress axis : x y z
#
# Youngs Moduli (GPa) = 39.00538 55.03541 58.85881
#
# Poissons Ratio (x) = 0.37862 0.22058
# Poissons Ratio (y) = 0.26834 0.34687
# Poissons Ratio (z) = 0.14618 0.32434
#
# Static dielectric constant tensor:
#      x y z
#    x 2.660680 0.000000 -0.121560 
#    y 0.000000 3.134550 0.000000 
#    z -0.121560 0.000000 3.045340 
# 
# 
# High freq. dielectric constant tensor:
#      x y z
#    x 1.551620 0.000000 -0.021430 
#    y 0.000000 1.618020 0.000000 
#    z -0.021430 0.000000 1.605020 
# 
# From -- ./inp_files/56006.got.cif
#   From: 2010.06.25/outbox.cif.g09.slc.cpg/sg11_29_cif.got.tgz:56006.got - 2010.06.27 23:14:04.
