data_PCOD8068533
_publ_section_title
;
Structure prediction by ZEFSAII (Michael W. Deem and Ramdas Pophale) SiO2 
 PCOD8068533
Probable space group: P 21/M
;
_chemical_formula_sum "Si O2"
_cell_formula_units_Z 32
_cell_length_a 13.556692
_cell_length_b 9.144806
_cell_length_c 26.735950
_cell_angle_alpha 90.000000
_cell_angle_beta 39.568016
_cell_angle_gamma 90.000000
_cell_volume 2111.344158
_symmetry_space_group_name_H-M "P 21/M"
_symmetry_group_IT_number 11
_symmetry_cell_setting 'monoclinic'
loop_
_space_group_symop_operation_xyz
x,y,z
-x,1/2+y,-z
-x,-y,-z
x,1/2-y,z
loop_
_atom_site_type_symbol
_atom_site_label
_atom_site_fract_x
_atom_site_fract_y
_atom_site_fract_z
Si Si1 0.936249 0.918205 0.453686
Si Si2 0.984797 0.914805 0.929621
Si Si3 0.787258 0.580451 0.223770
Si Si4 0.778810 0.919309 0.619853
Si Si5 0.235014 0.915431 0.919323
Si Si6 0.623918 0.579082 0.386921
Si Si7 0.460568 0.421122 0.763953
Si Si8 0.682907 0.579751 0.475318
O O1 0.991550 0.750000 0.430318
O O2 0.825085 0.944394 0.544382
O O3 0.841367 0.962894 0.441203
O O4 0.084982 0.022238 0.397524
O O5 0.935255 0.750000 0.935532
O O6 0.106179 0.916244 0.927033
O O7 0.062273 0.988535 0.850831
O O8 0.832481 0.005208 0.005051
O O9 0.833257 0.750000 0.203160
O O10 0.741417 0.530085 0.297494
O O11 0.642522 0.547353 0.244459
O O12 0.748355 0.750000 0.643823
O O13 0.627238 0.011641 0.689711
O O14 0.282277 0.750000 0.914765
O O15 0.385240 0.002995 0.841922
O O16 0.590802 0.750000 0.395893
O O17 0.699283 0.535354 0.410674
O O18 0.459712 0.502094 0.443193
O O19 0.475765 0.250000 0.769036
O O20 0.647966 0.750000 0.495315
#
# Coordination Sequence:
#
# PCOD8068533 Si02
#       8
#     4   4   4   4   4   4   4   4
#     4   9  18  31  44  58  79 107 137 170 208 246
#     4   9  16  25  38  56  78 106 138 168 199 236
#     4   9  17  27  39  57  82 111 139 167 200 238
#     4  10  19  29  42  60  80 104 137 173 207 244
#     4   9  16  26  39  55  78 107 137 167 199 237
#     4   9  17  28  42  61  83 107 137 170 203 241
#     4  10  18  27  40  58  82 110 138 168 201 238
#     4   9  17  29  44  60  80 107 137 170 207 244
#
# _framework density 15.156221
#
# number of rings (size 3 to 8) (size 9 to 14) (size 15 to 20)
#    0.000    2.750    0.000    2.250    0.000    5.000 
#    0.000    0.000    0.000    0.000    0.000    0.000 
#    0.000    1.000    0.000    2.750    0.000    4.000 
#
# Total GULP energy -396806.199544 kJ/mol
# GULP energy per Si atom -12400.193736 kJ/mol
# Density = 1.512172 g / cm^3
# Si number density = 15.156221 Si / 1000 Ang^3
#
#
#
# Elastic Constant Matrix: (Units=GPa)
#
#
# Indices 1 2 3 4 5 6 
#
# 1 54.0235 29.8343 33.3666 0.0000 3.4368 0.0000
# 2 29.8343 91.0599 58.6119 0.0000 1.1227 0.0000
# 3 33.3666 58.6119 103.9662 0.0000 9.6759 0.0000
# 4 0.0000 0.0000 0.0000 32.9038 0.0000 -2.5299
# 5 3.4368 1.1227 9.6759 0.0000 17.7577 0.0000
# 6 0.0000 0.0000 0.0000 -2.5299 0.0000 16.3001
#
#
#
# Elastic Compliance Matrix: (Units=1/GPa)
#
#
# Indices 1 2 3 4 5 6 
#
# 1 0.024307 -0.004745 -0.004968 0.000000 -0.001697 0.000000
# 2 -0.004745 0.018500 -0.009358 0.000000 0.004848 0.000000
# 3 -0.004968 -0.009358 0.017217 0.000000 -0.007828 0.000000
# 4 0.000000 0.000000 0.000000 0.030759 0.000000 0.004774
# 5 -0.001697 0.004848 -0.007828 0.000000 0.060601 0.000000
# 6 0.000000 0.000000 0.000000 0.004774 0.000000 0.062090
#
#
# Mechanical properties :
#
#
# Convention : Reuss Voigt Hill
#
# Bulk Modulus (GPa) = 45.69894 54.74166 50.22030
# Shear Modulus (GPa) = 19.31171 21.87478 20.59324
#
# Velocity S-wave (km/s) = 3.57343 3.80318 3.69010
# Velocity P-wave (km/s) = 6.87338 7.44864 7.16678
#
# Compressibility (1/GPa) = 0.02188235
#
# Stress axis : x y z
#
# Youngs Moduli (GPa) = 41.13974 54.05412 58.08224
#
# Poissons Ratio (x) = 0.25650 0.28855
# Poissons Ratio (y) = 0.19522 0.54352
# Poissons Ratio (z) = 0.20438 0.50582
#
# Static dielectric constant tensor:
#      x y z
#    x 2.691790 0.000000 0.117520 
#    y 0.000000 3.051030 0.000000 
#    z 0.117520 0.000000 2.945390 
# 
# 
# High freq. dielectric constant tensor:
#      x y z
#    x 1.534390 0.000000 0.007140 
#    y 0.000000 1.593320 0.000000 
#    z 0.007140 0.000000 1.578890 
# 
# From -- ./inp_files/52965.got.cif
#   From: 2010.06.25/outbox.cif.g09.slc.cpg/sg11_27_cif.got.tgz:52965.got - 2010.06.27 23:14:04.
