data_PCOD8068599
_publ_section_title
;
Structure prediction by ZEFSAII (Michael W. Deem and Ramdas Pophale) SiO2 
 PCOD8068599
Probable space group: P 21/M
;
_chemical_formula_sum "Si O2"
_cell_formula_units_Z 32
_cell_length_a 12.358181
_cell_length_b 8.984422
_cell_length_c 23.783618
_cell_angle_alpha 90.000000
_cell_angle_beta 46.538195
_cell_angle_gamma 90.000000
_cell_volume 1916.723098
_symmetry_space_group_name_H-M "P 21/M"
_symmetry_group_IT_number 11
_symmetry_cell_setting 'monoclinic'
loop_
_space_group_symop_operation_xyz
x,y,z
-x,1/2+y,-z
-x,-y,-z
x,1/2-y,z
loop_
_atom_site_type_symbol
_atom_site_label
_atom_site_fract_x
_atom_site_fract_y
_atom_site_fract_z
Si Si1 0.180093 0.422777 0.571863
Si Si2 0.330968 0.076165 0.833878
Si Si3 0.778769 0.578593 0.313839
Si Si4 0.442585 0.577289 0.418303
Si Si5 0.645052 0.421491 0.678745
Si Si6 0.898470 0.075273 0.167970
Si Si7 0.947806 0.573801 0.576150
Si Si8 0.888725 0.921665 0.998844
O O1 0.162146 0.250000 0.561842
O O2 0.164065 0.447753 0.643867
O O3 0.342114 0.478141 0.495004
O O4 0.052203 0.520034 0.589093
O O5 0.313985 0.250000 0.824580
O O6 0.503274 0.029939 0.766950
O O7 0.233618 0.987149 0.823687
O O8 0.278036 0.042516 0.917866
O O9 0.782222 0.750000 0.295364
O O10 0.610673 0.518750 0.365871
O O11 0.891774 0.493217 0.232345
O O12 0.428645 0.750000 0.440754
O O13 0.390235 0.551364 0.373658
O O14 0.688792 0.250000 0.673813
O O15 0.779480 0.526292 0.650203
O O16 0.875609 0.250000 0.181336
O O17 0.063092 0.034294 0.082225
O O18 0.960466 0.750000 0.565626
O O19 0.000000 0.500000 0.500000
O O20 0.921938 0.750000 0.994462
O O21 0.000000 0.000000 0.000000
#
# Coordination Sequence:
#
# PCOD8068599 Si02
#       8
#     4   4   4   4   4   4   4   4
#     4  11  23  37  54  73  95 127 170 210 246 291
#     4   9  16  30  49  68  99 135 164 198 242 292
#     4  10  21  36  51  71 100 135 169 199 240 297
#     4  10  19  33  52  73 100 131 165 201 243 291
#     4  10  19  32  53  76  98 129 167 203 243 292
#     4  10  18  27  44  72 103 132 165 201 237 285
#     4  12  24  38  55  72  96 127 164 208 252 293
#     4   8  15  26  42  67  97 131 164 194 235 286
#
# _framework density 16.695160000000001
#
# number of rings (size 3 to 8) (size 9 to 14) (size 15 to 20)
#    0.000    2.000    2.500    2.250    0.000    2.500 
#    0.000    0.000    0.000    0.000    0.000    0.875 
#    0.000    0.000    0.000    0.000    0.000    0.000 
#
# Total GULP energy -396633.277428 kJ/mol
# GULP energy per Si atom -12394.789920 kJ/mol
# Density = 1.665716 g / cm^3
# Si number density = 16.695160 Si / 1000 Ang^3
#
#
#
# Elastic Constant Matrix: (Units=GPa)
#
#
# Indices 1 2 3 4 5 6 
#
# 1 56.0502 30.4857 38.2247 0.0000 1.6698 0.0000
# 2 30.4857 76.5172 56.5553 0.0000 0.9689 0.0000
# 3 38.2247 56.5553 153.3327 0.0000 -5.7568 0.0000
# 4 0.0000 0.0000 0.0000 25.2553 0.0000 -0.3692
# 5 1.6698 0.9689 -5.7568 0.0000 16.3026 0.0000
# 6 0.0000 0.0000 0.0000 -0.3692 0.0000 22.3074
#
#
#
# Elastic Compliance Matrix: (Units=1/GPa)
#
#
# Indices 1 2 3 4 5 6 
#
# 1 0.024158 -0.006928 -0.003592 0.000000 -0.003331 0.000000
# 2 -0.006928 0.020148 -0.005799 0.000000 -0.002536 0.000000
# 3 -0.003592 -0.005799 0.009712 0.000000 0.004142 0.000000
# 4 0.000000 0.000000 0.000000 0.039605 0.000000 0.000656
# 5 -0.003331 -0.002536 0.004142 0.000000 0.063294 0.000000
# 6 0.000000 0.000000 0.000000 0.000656 0.000000 0.044839
#
#
# Mechanical properties :
#
#
# Convention : Reuss Voigt Hill
#
# Bulk Modulus (GPa) = 46.77523 59.60351 53.18937
# Shear Modulus (GPa) = 20.70207 23.48202 22.09204
#
# Velocity S-wave (km/s) = 3.52519 3.75442 3.64161
# Velocity P-wave (km/s) = 6.68187 7.38734 7.04344
#
# Compressibility (1/GPa) = 0.02137884
#
# Stress axis : x y z
#
# Youngs Moduli (GPa) = 41.39369 49.63353 102.96663
#
# Poissons Ratio (x) = 0.34385 0.36989
# Poissons Ratio (y) = 0.28676 0.59715
# Poissons Ratio (z) = 0.14870 0.28785
#
# Static dielectric constant tensor:
#      x y z
#    x 2.880750 0.000000 -0.149010 
#    y 0.000000 3.130120 0.000000 
#    z -0.149010 0.000000 3.735230 
# 
# 
# High freq. dielectric constant tensor:
#      x y z
#    x 1.601740 0.000000 -0.006420 
#    y 0.000000 1.648150 0.000000 
#    z -0.006420 0.000000 1.657670 
# 
# From -- ./inp_files/42459.got.cif
#   From: 2010.06.25/outbox.cif.g09.slc.cpg/sg11_22_cif.got.tgz:42459.got - 2010.06.27 23:14:04.
