data_PCOD8068231
_publ_section_title
;
Structure prediction by ZEFSAII (Michael W. Deem and Ramdas Pophale) SiO2 
 PCOD8068231
Probable space group: P 21/M
;
_chemical_formula_sum "Si O2"
_cell_formula_units_Z 28
_cell_length_a 25.151436
_cell_length_b 9.173007
_cell_length_c 17.483496
_cell_angle_alpha 90.000000
_cell_angle_beta 25.577889
_cell_angle_gamma 90.000000
_cell_volume 1741.497091
_symmetry_space_group_name_H-M "P 21/M"
_symmetry_group_IT_number 11
_symmetry_cell_setting 'monoclinic'
loop_
_space_group_symop_operation_xyz
x,y,z
-x,1/2+y,-z
-x,-y,-z
x,1/2-y,z
loop_
_atom_site_type_symbol
_atom_site_label
_atom_site_fract_x
_atom_site_fract_y
_atom_site_fract_z
Si Si1 0.945178 0.918389 0.837926
Si Si2 0.183199 0.919665 0.303093
Si Si3 0.166127 0.411746 0.735492
Si Si4 0.629268 0.920929 0.833207
Si Si5 0.195133 0.418831 0.532166
Si Si6 0.880147 0.086985 0.064453
Si Si7 0.912375 0.915664 0.709873
O O1 0.958360 0.750000 0.843673
O O2 0.878363 0.937883 0.842915
O O3 0.081263 0.983504 0.654200
O O4 0.861534 0.997128 0.010355
O O5 0.218878 0.750000 0.256669
O O6 0.056617 0.950961 0.511778
O O7 0.289734 0.011227 0.204674
O O8 0.170636 0.975075 0.232058
O O9 0.204581 0.250000 0.711641
O O10 0.236525 0.457416 0.565830
O O11 0.022405 0.416834 0.901850
O O12 0.198506 0.518362 0.763626
O O13 0.612349 0.750000 0.870942
O O14 0.690856 0.950180 0.670963
O O15 0.500000 0.000000 0.000000
O O16 0.152493 0.250000 0.583871
O O17 0.831567 0.250000 0.114337
O O18 0.886218 0.750000 0.717390
#
# Coordination Sequence:
#
# PCOD8068231 Si02
#       7
#     4   4   4   4   4   4   4
#     4  10  17  26  42  63  89 118 149 183 219 265
#     4  10  19  32  48  67  89 117 153 190 230 272
#     4   8  14  25  38  54  78 110 146 180 217 260
#     4  11  22  35  50  67  91 120 154 195 234 272
#     4   9  18  30  44  61  83 114 151 188 225 266
#     4   9  16  24  35  56  84 114 146 177 215 261
#     4   9  18  30  45  67  92 119 151 187 226 272
#
# _framework density 16.078122
#
# number of rings (size 3 to 8) (size 9 to 14) (size 15 to 20)
#    0.000    2.571    1.429    2.571    0.000    5.714 
#    0.000    0.000    0.000    0.000    0.000    0.000 
#    0.000    1.143    0.000    3.429    0.000    4.857 
#
# Total GULP energy -347132.450087 kJ/mol
# GULP energy per Si atom -12397.587503 kJ/mol
# Density = 1.604153 g / cm^3
# Si number density = 16.078122 Si / 1000 Ang^3
#
#
#
# Elastic Constant Matrix: (Units=GPa)
#
#
# Indices 1 2 3 4 5 6 
#
# 1 114.0578 69.7484 45.3316 0.0000 19.0685 0.0000
# 2 69.7484 118.7365 40.8023 0.0000 8.8243 0.0000
# 3 45.3316 40.8023 47.8786 0.0000 4.4473 0.0000
# 4 0.0000 0.0000 0.0000 18.9445 0.0000 2.0838
# 5 19.0685 8.8243 4.4473 0.0000 20.6354 0.0000
# 6 0.0000 0.0000 0.0000 2.0838 0.0000 30.7179
#
#
#
# Elastic Compliance Matrix: (Units=1/GPa)
#
#
# Indices 1 2 3 4 5 6 
#
# 1 0.019557 -0.006483 -0.011807 0.000000 -0.012755 0.000000
# 2 -0.006483 0.014239 -0.006110 0.000000 0.001218 0.000000
# 3 -0.011807 -0.006110 0.036752 0.000000 0.005603 0.000000
# 4 0.000000 0.000000 0.000000 0.053182 0.000000 -0.003608
# 5 -0.012755 0.001218 0.005603 0.000000 0.058518 0.000000
# 6 0.000000 0.000000 0.000000 -0.003608 0.000000 0.032799
#
#
# Mechanical properties :
#
#
# Convention : Reuss Voigt Hill
#
# Bulk Modulus (GPa) = 45.98103 65.82640 55.90371
# Shear Modulus (GPa) = 18.44360 22.37894 20.41127
#
# Velocity S-wave (km/s) = 3.39060 3.73485 3.56688
# Velocity P-wave (km/s) = 6.63240 7.72200 7.19785
#
# Compressibility (1/GPa) = 0.02174810
#
# Stress axis : x y z
#
# Youngs Moduli (GPa) = 51.13267 70.22841 27.20974
#
# Poissons Ratio (x) = 0.45528 0.32127
# Poissons Ratio (y) = 0.33149 0.16625
# Poissons Ratio (z) = 0.60373 0.42909
#
# Static dielectric constant tensor:
#      x y z
#    x 3.191830 0.000000 0.358560 
#    y 0.000000 3.216540 0.000000 
#    z 0.358560 0.000000 2.654470 
# 
# 
# High freq. dielectric constant tensor:
#      x y z
#    x 1.621520 0.000000 0.032990 
#    y 0.000000 1.633440 0.000000 
#    z 0.032990 0.000000 1.553760 
# 
# From -- ./inp_files/42294.got.cif
#   From: 2010.06.25/outbox.cif.g09.slc.cpg/sg11_22_cif.got.tgz:42294.got - 2010.06.27 23:14:04.
