data_PCOD8068910
_publ_section_title
;
Structure prediction by ZEFSAII (Michael W. Deem and Ramdas Pophale) SiO2 
 PCOD8068910
Probable space group: P 21/M
;
_chemical_formula_sum "Si O2"
_cell_formula_units_Z 32
_cell_length_a 16.095352
_cell_length_b 21.523245
_cell_length_c 5.197808
_cell_angle_alpha 90.000000
_cell_angle_beta 68.417539
_cell_angle_gamma 90.000000
_cell_volume 1674.401609
_symmetry_space_group_name_H-M "P 21/M"
_symmetry_group_IT_number 11
_symmetry_cell_setting 'monoclinic'
loop_
_space_group_symop_operation_xyz
x,y,z
-x,1/2+y,-z
-x,-y,-z
x,1/2-y,z
loop_
_atom_site_type_symbol
_atom_site_label
_atom_site_fract_x
_atom_site_fract_y
_atom_site_fract_z
Si Si1 0.880769 0.176526 0.374222
Si Si2 0.295574 0.322963 0.940098
Si Si3 0.988861 0.176964 0.758821
Si Si4 0.444622 0.401130 0.533282
Si Si5 0.574457 0.481705 0.712958
Si Si6 0.314550 0.868809 0.385655
Si Si7 0.406007 0.679236 0.792115
Si Si8 0.812975 0.822614 0.447362
O O1 0.858319 0.250000 0.388176
O O2 0.943916 0.159920 0.541014
O O3 0.791603 0.136643 0.506183
O O4 0.929788 0.151941 0.062284
O O5 0.320380 0.250000 0.926324
O O6 0.384864 0.363490 0.804112
O O7 0.230137 0.337118 0.777703
O O8 0.249670 0.348313 0.252274
O O9 0.998019 0.250000 0.786149
O O10 0.088273 0.147049 0.653757
O O11 0.526325 0.437672 0.565142
O O12 0.386984 0.453461 0.447625
O O13 0.495952 0.352507 0.289516
O O14 0.657571 0.440283 0.719186
O O15 0.500000 0.500000 0.000000
O O16 0.345816 0.849378 0.633808
O O17 0.356289 0.824600 0.121034
O O18 0.423691 0.750000 0.702086
O O19 0.822434 0.750000 0.487477
#
# Coordination Sequence:
#
# PCOD8068910 Si02
#       8
#     4   4   4   4   4   4   4   4
#     4  10  18  29  48  76 105 134 171 211 257 318
#     4  10  20  33  53  83 113 137 174 220 267 323
#     4   9  17  30  49  73 107 142 168 202 258 325
#     4  10  22  36  55  78 103 142 183 224 265 308
#     4  10  21  40  56  73 104 143 190 229 256 307
#     4  11  22  35  53  77 107 142 181 224 261 304
#     4  11  21  34  52  76 110 142 169 212 275 326
#     4   9  18  32  50  77 111 142 168 207 263 325
#
# _framework density 19.111305000000002
#
# number of rings (size 3 to 8) (size 9 to 14) (size 15 to 20)
#    0.000    2.000    1.250    3.000    1.750    4.000 
#    0.000    2.500    0.000    0.000    0.000    5.250 
#    0.000    0.000    0.000    0.000    0.000    0.000 
#
# Total GULP energy -396666.186226 kJ/mol
# GULP energy per Si atom -12395.818320 kJ/mol
# Density = 1.906781 g / cm^3
# Si number density = 19.111305 Si / 1000 Ang^3
#
#
#
# Elastic Constant Matrix: (Units=GPa)
#
#
# Indices 1 2 3 4 5 6 
#
# 1 32.4081 9.4431 4.8426 0.0000 -11.3695 0.0000
# 2 9.4431 52.8316 11.9967 0.0000 -10.9159 0.0000
# 3 4.8426 11.9967 102.2039 0.0000 -10.7867 0.0000
# 4 0.0000 0.0000 0.0000 14.8226 0.0000 -1.7031
# 5 -11.3695 -10.9159 -10.7867 0.0000 36.6525 0.0000
# 6 0.0000 0.0000 0.0000 -1.7031 0.0000 13.8827
#
#
#
# Elastic Compliance Matrix: (Units=1/GPa)
#
#
# Indices 1 2 3 4 5 6 
#
# 1 0.035537 -0.004314 -0.000154 0.000000 0.009693 0.000000
# 2 -0.004314 0.021015 -0.001799 0.000000 0.004391 0.000000
# 3 -0.000154 -0.001799 0.010260 0.000000 0.002436 0.000000
# 4 0.000000 0.000000 0.000000 0.068429 0.000000 0.008395
# 5 0.009693 0.004391 0.002436 0.000000 0.032315 0.000000
# 6 0.000000 0.000000 0.000000 0.008395 0.000000 0.073062
#
#
# Mechanical properties :
#
#
# Convention : Reuss Voigt Hill
#
# Bulk Modulus (GPa) = 18.42385 26.66758 22.54571
# Shear Modulus (GPa) = 18.43351 23.81563 21.12457
#
# Velocity S-wave (km/s) = 3.10906 3.53392 3.32828
# Velocity P-wave (km/s) = 4.74864 5.53494 5.15680
#
# Compressibility (1/GPa) = 0.05427749
#
# Stress axis : x y z
#
# Youngs Moduli (GPa) = 28.13950 47.58523 97.46674
#
# Poissons Ratio (x) = 0.20528 0.01505
# Poissons Ratio (y) = 0.12139 0.17533
# Poissons Ratio (z) = 0.00434 0.08560
#
# Static dielectric constant tensor:
#      x y z
#    x 3.496860 0.000000 0.036460 
#    y 0.000000 3.252460 0.000000 
#    z 0.036460 0.000000 3.750230 
# 
# 
# High freq. dielectric constant tensor:
#      x y z
#    x 1.734530 0.000000 0.003890 
#    y 0.000000 1.705700 0.000000 
#    z 0.003890 0.000000 1.759280 
# 
# From -- ./inp_files/8340.got.cif
#   From: 2010.06.25/outbox.cif.g09.slc.cpg/sg11_5_cif.got.tgz:8340.got - 2010.06.27 23:14:04.
