data_PCOD8068113
_publ_section_title
;
Structure prediction by ZEFSAII (Michael W. Deem and Ramdas Pophale) SiO2 
 PCOD8068113
Probable space group: P 2/M
;
_chemical_formula_sum "Si O2"
_cell_formula_units_Z 32
_cell_length_a 30.000000
_cell_length_b 9.000000
_cell_length_c 12.000000
_cell_angle_alpha 90.000000
_cell_angle_beta 150.000000
_cell_angle_gamma 90.000000
_cell_volume 1620.000000
_symmetry_space_group_name_H-M "P 2/M"
_symmetry_group_IT_number 10
_symmetry_cell_setting 'monoclinic'
loop_
_space_group_symop_operation_xyz
x,y,z
-x,y,-z
-x,-y,-z
x,-y,z
loop_
_atom_site_type_symbol
_atom_site_label
_atom_site_fract_x
_atom_site_fract_y
_atom_site_fract_z
Si Si1 0.594954 0.170722 0.262339
Si Si2 0.644054 0.326581 0.982803
Si Si3 0.742053 0.176228 0.395039
Si Si4 0.076350 0.326550 0.256629
Si Si5 0.309671 0.176793 0.146501
Si Si6 0.980702 0.818445 0.632139
Si Si7 0.561470 0.672451 0.413882
Si Si8 0.127317 0.680560 0.802756
O O1 0.678509 0.208660 0.363429
O O2 0.600279 0.280367 0.378417
O O3 0.600844 0.000000 0.315209
O O4 0.500000 0.200464 0.000000
O O5 0.662185 0.500000 0.996699
O O6 0.672446 0.228559 0.939682
O O7 0.543467 0.299595 0.803994
O O8 0.705839 0.268820 0.213856
O O9 0.841146 0.241745 0.624450
O O10 0.744846 0.000000 0.376287
O O11 0.098377 0.500000 0.331398
O O12 0.045624 0.241269 0.302646
O O13 0.000000 0.316220 0.000000
O O14 0.397142 0.220796 0.403978
O O15 0.292273 0.000000 0.112420
O O16 0.229282 0.267625 0.030414
O O17 0.075945 0.750145 0.798808
O O18 0.909322 0.753912 0.390164
O O19 0.982060 0.000000 0.633637
O O20 0.585138 0.500000 0.486852
O O21 0.118408 0.500000 0.782170
#
# Coordination Sequence:
#
# PCOD8068113 Si02
#       8
#     4   4   4   4   4   4   4   4
#     4  10  21  40  64  90 124 162 205 256 308 367
#     4  11  23  40  62  89 124 162 205 254 307 370
#     4  11  23  40  66  95 123 161 209 258 310 368
#     4  11  25  44  64  89 125 167 209 257 313 371
#     4  12  25  40  60  88 124 163 206 254 310 370
#     4  11  22  40  66  94 125 159 203 253 307 369
#     4  11  24  40  61  89 123 163 206 255 310 368
#     4  11  22  40  65  92 124 161 204 252 306 368
#
# _framework density 19.753086
#
# number of rings (size 3 to 8) (size 9 to 14) (size 15 to 20)
#    0.000    1.000    1.250    6.750    0.000    6.250 
#    0.000    2.500    0.000    0.000    0.000    0.000 
#    0.000    0.000    0.000    0.000    0.000    0.000 
#
# Total GULP energy -396802.536278 kJ/mol
# GULP energy per Si atom -12400.079259 kJ/mol
# Density = 1.970813 g / cm^3
# Si number density = 19.753086 Si / 1000 Ang^3
#
#
#
# Elastic Constant Matrix: (Units=GPa)
#
#
# Indices 1 2 3 4 5 6 
#
# 1 108.0019 37.0492 23.2163 0.0000 44.5815 0.0000
# 2 37.0492 159.5740 28.4016 0.0000 19.8361 0.0000
# 3 23.2163 28.4016 75.9610 0.0000 21.3217 0.0000
# 4 0.0000 0.0000 0.0000 37.2272 0.0000 -0.8678
# 5 44.5815 19.8361 21.3217 0.0000 2.2600 0.0000
# 6 0.0000 0.0000 0.0000 -0.8678 0.0000 36.9779
#
#
#
# Elastic Compliance Matrix: (Units=1/GPa)
#
#
# Indices 1 2 3 4 5 6 
#
# 1 0.002702 -0.002165 -0.005833 0.000000 0.020721 0.000000
# 2 -0.002165 0.007089 -0.002117 0.000000 0.000456 0.000000
# 3 -0.005833 -0.002117 0.013210 0.000000 0.009010 0.000000
# 4 0.000000 0.000000 0.000000 0.026877 0.000000 0.000631
# 5 0.020721 0.000456 0.009010 0.000000 -0.055268 0.000000
# 6 0.000000 0.000000 0.000000 0.000631 0.000000 0.027058
#
#
# Mechanical properties :
#
#
# Convention : Reuss Voigt Hill
#
# Bulk Modulus (GPa) = 360.68585 57.87457 209.28021
# Shear Modulus (GPa) = 116.76378 32.28435 74.52407
#
# Velocity S-wave (km/s) = 7.69675 4.04715 6.14896
# Velocity P-wave (km/s) = 16.18580 7.15555 12.51363
#
# Compressibility (1/GPa) = 0.00277250
#
# Stress axis : x y z
#
# Youngs Moduli (GPa) = 370.04100 141.05390 75.70149
#
# Poissons Ratio (x) = 0.30539 0.44154
# Poissons Ratio (y) = 0.80116 0.16026
# Poissons Ratio (z) = 2.15830 0.29860
#
# Static dielectric constant tensor:
#      x y z
#    x 4.003240 0.000000 0.152050 
#    y 0.000000 4.030460 0.000000 
#    z 0.152050 0.000000 3.662110 
# 
# 
# High freq. dielectric constant tensor:
#      x y z
#    x 1.797670 0.000000 0.012840 
#    y 0.000000 1.804550 0.000000 
#    z 0.012840 0.000000 1.774220 
# 
# From -- ./inp_files/58244.got.cif
#   From: 2010.06.25/outbox.ucp.g09.slc.cvg/sg10_30_cif.got.tgz:58244.got - 2010.06.28 13:37:52.
