data_PCOD8068276
_publ_section_title
;
Structure prediction by ZEFSAII (Michael W. Deem and Ramdas Pophale) SiO2 
 PCOD8068276
Probable space group: P 21/M
;
_chemical_formula_sum "Si O2"
_cell_formula_units_Z 32
_cell_length_a 15.845716
_cell_length_b 19.944263
_cell_length_c 13.950577
_cell_angle_alpha 90.000000
_cell_angle_beta 154.405141
_cell_angle_gamma 90.000000
_cell_volume 1904.630047
_symmetry_space_group_name_H-M "P 21/M"
_symmetry_group_IT_number 11
_symmetry_cell_setting 'monoclinic'
loop_
_space_group_symop_operation_xyz
x,y,z
-x,1/2+y,-z
-x,-y,-z
x,1/2-y,z
loop_
_atom_site_type_symbol
_atom_site_label
_atom_site_fract_x
_atom_site_fract_y
_atom_site_fract_z
Si Si1 0.812119 0.057330 0.013173
Si Si2 0.085757 0.448060 0.456737
Si Si3 0.917855 0.934602 0.866973
Si Si4 0.869588 0.900269 0.021285
Si Si5 0.612461 0.534328 0.393416
Si Si6 0.846635 0.172235 0.556853
Si Si7 0.088815 0.411084 0.669103
Si Si8 0.548963 0.894142 0.828613
O O1 0.585887 0.075527 0.790395
O O2 0.859687 0.978380 0.043712
O O3 0.907039 0.080065 0.210650
O O4 0.912666 0.097483 0.027295
O O5 0.282003 0.440504 0.594744
O O6 0.110606 0.403331 0.577120
O O7 0.043896 0.524807 0.441638
O O8 0.857492 0.886997 0.894261
O O9 0.735166 0.954581 0.614967
O O10 0.000000 0.000000 0.000000
O O11 0.684934 0.863464 0.882823
O O12 0.070867 0.869392 0.267599
O O13 0.565511 0.456907 0.331956
O O14 0.878362 0.250000 0.608621
O O15 0.614884 0.158567 0.305587
O O16 0.969094 0.152212 0.587370
O O17 0.307889 0.415470 0.937111
#
# Coordination Sequence:
#
# PCOD8068276 Si02
#       8
#     4   4   4   4   4   4   4   4
#     4   9  16  29  45  71 100 127 152 186 229 290
#     4  10  17  30  47  70 100 129 157 189 241 298
#     4   9  17  26  43  65  97 128 155 181 223 282
#     4   9  18  32  45  67  95 128 157 193 230 280
#     4  10  17  27  44  69 101 127 153 187 233 285
#     4  11  21  35  50  64  93 129 165 206 236 275
#     4  10  20  31  48  69  96 130 162 198 236 292
#     4  10  18  30  44  69  96 126 165 190 233 284
#
# _framework density 16.801162999999999
#
# number of rings (size 3 to 8) (size 9 to 14) (size 15 to 20)
#    0.000    2.250    5.000    1.500    0.000    9.000 
#    0.000    0.000    0.000    0.000    0.000    3.500 
#    0.000    2.000    0.000    0.000    0.000    0.000 
#
# Total GULP energy -396509.975217 kJ/mol
# GULP energy per Si atom -12390.936726 kJ/mol
# Density = 1.676292 g / cm^3
# Si number density = 16.801163 Si / 1000 Ang^3
#
#
#
# Elastic Constant Matrix: (Units=GPa)
#
#
# Indices 1 2 3 4 5 6 
#
# 1 146.7892 20.2427 88.1421 0.0000 -16.2041 0.0000
# 2 20.2427 27.6571 22.9924 0.0000 -2.2228 0.0000
# 3 88.1421 22.9924 127.7546 0.0000 5.0983 0.0000
# 4 0.0000 0.0000 0.0000 9.0492 0.0000 1.9676
# 5 -16.2041 -2.2228 5.0983 0.0000 33.1015 0.0000
# 6 0.0000 0.0000 0.0000 1.9676 0.0000 9.4878
#
#
#
# Elastic Compliance Matrix: (Units=1/GPa)
#
#
# Indices 1 2 3 4 5 6 
#
# 1 0.013534 -0.001455 -0.009394 0.000000 0.007975 0.000000
# 2 -0.001455 0.043224 -0.006905 0.000000 0.003253 0.000000
# 3 -0.009394 -0.006905 0.015851 0.000000 -0.007504 0.000000
# 4 0.000000 0.000000 0.000000 0.115725 0.000000 -0.023999
# 5 0.007975 0.003253 -0.007504 0.000000 0.035488 0.000000
# 6 0.000000 0.000000 0.000000 -0.023999 0.000000 0.110375
#
#
# Mechanical properties :
#
#
# Convention : Reuss Voigt Hill
#
# Bulk Modulus (GPa) = 26.95371 62.77282 44.86327
# Shear Modulus (GPa) = 13.08650 21.71595 17.40123
#
# Velocity S-wave (km/s) = 2.79391 3.59907 3.22174
# Velocity P-wave (km/s) = 5.14641 7.39692 6.37181
#
# Compressibility (1/GPa) = 0.03710064
#
# Stress axis : x y z
#
# Youngs Moduli (GPa) = 73.88589 23.13520 63.08770
#
# Poissons Ratio (x) = 0.03367 0.59265
# Poissons Ratio (y) = 0.10754 0.43561
# Poissons Ratio (z) = 0.69409 0.15975
#
# Static dielectric constant tensor:
#      x y z
#    x 3.576190 0.000000 0.327620 
#    y 0.000000 2.547400 0.000000 
#    z 0.327620 0.000000 3.158300 
# 
# 
# High freq. dielectric constant tensor:
#      x y z
#    x 1.664740 0.000000 0.006120 
#    y 0.000000 1.566180 0.000000 
#    z 0.006120 0.000000 1.660310 
# 
# From -- ./inp_files/53863.got.cif
#   From: 2010.06.25/outbox.cif.g09.slc.cpg/sg11_27_cif.got.tgz:53863.got - 2010.06.27 23:14:04.
