data_PCOD8068716
_publ_section_title
;
Structure prediction by ZEFSAII (Michael W. Deem and Ramdas Pophale) SiO2 
 PCOD8068716
Probable space group: P 21/M
;
_chemical_formula_sum "Si O2"
_cell_formula_units_Z 24
_cell_length_a 12.132715
_cell_length_b 8.871281
_cell_length_c 23.594578
_cell_angle_alpha 90.000000
_cell_angle_beta 146.546302
_cell_angle_gamma 90.000000
_cell_volume 1399.959042
_symmetry_space_group_name_H-M "P 21/M"
_symmetry_group_IT_number 11
_symmetry_cell_setting 'monoclinic'
loop_
_space_group_symop_operation_xyz
x,y,z
-x,1/2+y,-z
-x,-y,-z
x,1/2-y,z
loop_
_atom_site_type_symbol
_atom_site_label
_atom_site_fract_x
_atom_site_fract_y
_atom_site_fract_z
Si Si1 0.265380 0.074715 0.343303
Si Si2 0.948206 0.424220 0.843858
Si Si3 0.817998 0.427047 0.454599
Si Si4 0.686385 0.924915 0.508138
Si Si5 0.158882 0.924902 0.027599
Si Si6 0.562806 0.079173 0.756420
O O1 0.301459 0.250000 0.345882
O O2 0.217563 0.047481 0.388944
O O3 0.079467 0.010719 0.227629
O O4 0.461182 0.984378 0.408843
O O5 0.989617 0.250000 0.849619
O O6 0.752591 0.451980 0.797962
O O7 0.142499 0.493888 0.959325
O O8 0.847603 0.250000 0.468792
O O9 0.819791 0.488461 0.519571
O O10 0.612073 0.465052 0.334296
O O11 0.000000 0.500000 0.500000
O O12 0.679710 0.750000 0.489239
O O13 0.105974 0.750000 0.997770
O O14 0.374821 0.945395 0.150695
O O15 0.000000 0.000000 0.000000
O O16 0.486657 0.250000 0.714608
#
# Coordination Sequence:
#
# PCOD8068716 Si02
#       6
#     4   4   4   4   4   4
#     4  10  19  30  49  73  99 133 165 199 246 297
#     4  10  18  28  46  71 102 133 161 200 243 293
#     4  12  24  36  53  72  96 132 171 209 248 293
#     4  10  20  34  49  70 100 129 165 207 246 294
#     4   9  17  28  44  66  96 129 162 199 242 295
#     4   9  18  32  47  67  97 130 163 205 247 286
#
# _framework density 17.143359
#
# number of rings (size 3 to 8) (size 9 to 14) (size 15 to 20)
#    0.000    2.000    1.667    4.500    0.000    5.333 
#    0.000    0.000    0.000    0.000    0.000    1.167 
#    0.000    0.000    0.000    0.000    0.000    0.000 
#
# Total GULP energy -297555.703850 kJ/mol
# GULP energy per Si atom -12398.154327 kJ/mol
# Density = 1.710434 g / cm^3
# Si number density = 17.143359 Si / 1000 Ang^3
#
#
#
# Elastic Constant Matrix: (Units=GPa)
#
#
# Indices 1 2 3 4 5 6 
#
# 1 80.8145 50.9020 39.3236 0.0000 -15.6978 0.0000
# 2 50.9020 131.9299 44.1980 0.0000 -14.6861 0.0000
# 3 39.3236 44.1980 79.6432 0.0000 -34.6140 0.0000
# 4 0.0000 0.0000 0.0000 31.2038 0.0000 -5.7279
# 5 -15.6978 -14.6861 -34.6140 0.0000 31.0718 0.0000
# 6 0.0000 0.0000 0.0000 -5.7279 0.0000 24.8086
#
#
#
# Elastic Compliance Matrix: (Units=1/GPa)
#
#
# Indices 1 2 3 4 5 6 
#
# 1 0.018683 -0.005050 -0.006508 0.000000 -0.000198 0.000000
# 2 -0.005050 0.010788 -0.004626 0.000000 -0.002605 0.000000
# 3 -0.006508 -0.004626 0.030934 0.000000 0.028986 0.000000
# 4 0.000000 0.000000 0.000000 0.033466 0.000000 0.007727
# 5 -0.000198 -0.002605 0.028986 0.000000 0.063143 0.000000
# 6 0.000000 0.000000 0.000000 0.007727 0.000000 0.042092
#
#
# Mechanical properties :
#
#
# Convention : Reuss Voigt Hill
#
# Bulk Modulus (GPa) = 35.66687 62.35942 49.01315
# Shear Modulus (GPa) = 20.76235 27.94779 24.35507
#
# Velocity S-wave (km/s) = 3.48386 4.04200 3.77327
# Velocity P-wave (km/s) = 6.08550 7.63138 6.90186
#
# Compressibility (1/GPa) = 0.02803722
#
# Stress axis : x y z
#
# Youngs Moduli (GPa) = 53.52351 92.69673 32.32654
#
# Poissons Ratio (x) = 0.46814 0.21040
# Poissons Ratio (y) = 0.27031 0.14953
# Poissons Ratio (z) = 0.34835 0.42877
#
# Static dielectric constant tensor:
#      x y z
#    x 3.028750 0.000000 -0.505440 
#    y 0.000000 1.831680 0.000000 
#    z -0.505440 0.000000 3.523390 
# 
# 
# High freq. dielectric constant tensor:
#      x y z
#    x 1.617300 0.000000 -0.044290 
#    y 0.000000 1.680680 0.000000 
#    z -0.044290 0.000000 1.656180 
# 
# From -- ./inp_files/36985.got.cif
#   From: 2010.06.25/outbox.cif.g09.slc.cpg/sg11_19_cif.got.tgz:36985.got - 2010.06.27 23:14:04.
