data_PCOD8068388
_publ_section_title
;
Structure prediction by ZEFSAII (Michael W. Deem and Ramdas Pophale) SiO2 
 PCOD8068388
Probable space group: P 21/M
;
_chemical_formula_sum "Si O2"
_cell_formula_units_Z 32
_cell_length_a 21.827675
_cell_length_b 9.130271
_cell_length_c 26.758994
_cell_angle_alpha 90.000000
_cell_angle_beta 159.843147
_cell_angle_gamma 90.000000
_cell_volume 1837.660651
_symmetry_space_group_name_H-M "P 21/M"
_symmetry_group_IT_number 11
_symmetry_cell_setting 'monoclinic'
loop_
_space_group_symop_operation_xyz
x,y,z
-x,1/2+y,-z
-x,-y,-z
x,1/2-y,z
loop_
_atom_site_type_symbol
_atom_site_label
_atom_site_fract_x
_atom_site_fract_y
_atom_site_fract_z
Si Si1 0.388527 0.576231 0.457190
Si Si2 0.177134 0.920982 0.652571
Si Si3 0.571855 0.077498 0.402221
Si Si4 0.025702 0.917008 0.637970
Si Si5 0.655505 0.576723 0.303062
Si Si6 0.965434 0.077325 0.687085
Si Si7 0.369695 0.076431 0.151783
Si Si8 0.005478 0.422712 0.827761
O O1 0.500000 0.500000 0.500000
O O2 0.402577 0.750000 0.461261
O O3 0.467447 0.523290 0.571420
O O4 0.183866 0.519895 0.296611
O O5 0.170945 0.750000 0.633173
O O6 0.183143 0.939194 0.717550
O O7 0.339724 0.000993 0.748488
O O8 0.000000 0.000000 0.500000
O O9 0.587934 0.250000 0.417344
O O10 0.418909 0.028791 0.246194
O O11 0.761812 0.019618 0.528065
O O12 0.012246 0.750000 0.644273
O O13 0.835552 0.967071 0.469911
O O14 0.074579 0.008440 0.724780
O O15 0.634461 0.750000 0.280584
O O16 0.488321 0.511399 0.203736
O O17 0.979479 0.250000 0.692158
O O18 0.043820 0.022847 0.800396
O O19 0.397910 0.250000 0.165186
O O20 0.165392 0.028558 0.986517
O O21 0.988980 0.250000 0.812378
#
# Coordination Sequence:
#
# PCOD8068388 Si02
#       8
#     4   4   4   4   4   4   4   4
#     4   9  17  33  52  72  98 126 157 192 227 272
#     4   9  17  28  41  62  93 126 161 201 245 289
#     4   8  15  27  47  71  92 119 158 192 223 275
#     4   9  17  27  41  65  94 120 152 198 242 276
#     4  10  19  29  42  66  98 126 155 198 246 285
#     4   9  15  27  46  68  90 118 156 196 234 278
#     4  10  17  30  51  71  91 125 161 192 237 285
#     4   8  17  31  49  72  98 122 154 196 233 277
#
# _framework density 17.413444999999999
#
# number of rings (size 3 to 8) (size 9 to 14) (size 15 to 20)
#    0.000    3.000    1.250    3.000    0.000    2.500 
#    0.000    5.000    0.000    0.750    0.000    0.000 
#    0.000    0.000    0.000    0.000    0.000    0.000 
#
# Total GULP energy -396505.356311 kJ/mol
# GULP energy per Si atom -12390.792385 kJ/mol
# Density = 1.737381 g / cm^3
# Si number density = 17.413445 Si / 1000 Ang^3
#
#
#
# Elastic Constant Matrix: (Units=GPa)
#
#
# Indices 1 2 3 4 5 6 
#
# 1 151.5718 46.5013 59.7316 0.0000 2.3223 0.0000
# 2 46.5013 50.8092 26.1855 0.0000 2.8154 0.0000
# 3 59.7316 26.1855 91.4953 0.0000 -10.1697 0.0000
# 4 0.0000 0.0000 0.0000 12.6501 0.0000 3.9096
# 5 2.3223 2.8154 -10.1697 0.0000 23.2993 0.0000
# 6 0.0000 0.0000 0.0000 3.9096 0.0000 32.3452
#
#
#
# Elastic Compliance Matrix: (Units=1/GPa)
#
#
# Indices 1 2 3 4 5 6 
#
# 1 0.010940 -0.007084 -0.005403 0.000000 -0.002592 0.000000
# 2 -0.007084 0.028490 -0.004029 0.000000 -0.004495 0.000000
# 3 -0.005403 -0.004029 0.016525 0.000000 0.008238 0.000000
# 4 0.000000 0.000000 0.000000 0.082119 0.000000 -0.009926
# 5 -0.002592 -0.004495 0.008238 0.000000 0.047317 0.000000
# 6 0.000000 0.000000 0.000000 -0.009926 0.000000 0.032116
#
#
# Mechanical properties :
#
#
# Convention : Reuss Voigt Hill
#
# Bulk Modulus (GPa) = 43.62136 62.07923 52.85029
# Shear Modulus (GPa) = 19.36638 24.42275 21.89456
#
# Velocity S-wave (km/s) = 3.33851 3.74909 3.54974
# Velocity P-wave (km/s) = 6.32184 7.38028 6.87147
#
# Compressibility (1/GPa) = 0.02292455
#
# Stress axis : x y z
#
# Youngs Moduli (GPa) = 91.41026 35.09961 60.51385
#
# Poissons Ratio (x) = 0.24865 0.32693
# Poissons Ratio (y) = 0.64757 0.24378
# Poissons Ratio (z) = 0.49385 0.14140
#
# Static dielectric constant tensor:
#      x y z
#    x 4.004810 0.000000 0.012640 
#    y 0.000000 3.002580 0.000000 
#    z 0.012640 0.000000 3.222130 
# 
# 
# High freq. dielectric constant tensor:
#      x y z
#    x 1.680720 0.000000 -0.003630 
#    y 0.000000 1.649890 0.000000 
#    z -0.003630 0.000000 1.636040 
# 
# From -- ./inp_files/72072.got.cif
#   From: 2010.06.25/outbox.cif.g09.slc.cpg/sg11_37_cif.got.tgz:72072.got - 2010.06.27 23:14:04.
