data_PCOD8068406
_publ_section_title
;
Structure prediction by ZEFSAII (Michael W. Deem and Ramdas Pophale) SiO2 
 PCOD8068406
Probable space group: P 21/M
;
_chemical_formula_sum "Si O2"
_cell_formula_units_Z 32
_cell_length_a 20.936738
_cell_length_b 14.173080
_cell_length_c 14.020644
_cell_angle_alpha 90.000000
_cell_angle_beta 157.265070
_cell_angle_gamma 90.000000
_cell_volume 1607.885790
_symmetry_space_group_name_H-M "P 21/M"
_symmetry_group_IT_number 11
_symmetry_cell_setting 'monoclinic'
loop_
_space_group_symop_operation_xyz
x,y,z
-x,1/2+y,-z
-x,-y,-z
x,1/2-y,z
loop_
_atom_site_type_symbol
_atom_site_label
_atom_site_fract_x
_atom_site_fract_y
_atom_site_fract_z
Si Si1 0.602500 0.642740 0.081335
Si Si2 0.544369 0.355396 0.315529
Si Si3 0.555284 0.447516 0.760740
Si Si4 0.610737 0.641316 0.637799
Si Si5 0.115130 0.997122 0.565877
Si Si6 0.252945 0.854395 0.239656
Si Si7 0.400204 0.639793 0.980375
Si Si8 0.845441 0.492250 0.041656
O O1 0.661237 0.750000 0.176986
O O2 0.762709 0.586381 0.266846
O O3 0.527539 0.600719 0.075853
O O4 0.456038 0.636905 0.799842
O O5 0.474303 0.250000 0.248099
O O6 0.433696 0.441088 0.201865
O O7 0.727354 0.366261 0.617258
O O8 0.408215 0.416303 0.487516
O O9 0.528548 0.387021 0.818736
O O10 0.731019 0.426646 0.952676
O O11 0.655793 0.750000 0.679593
O O12 0.442024 0.630815 0.464515
O O13 0.760794 0.592450 0.901302
O O14 0.017461 0.992333 0.331616
O O15 0.219581 0.902140 0.716011
O O16 0.000000 0.000000 0.500000
O O17 0.186623 0.750000 0.122573
O O18 0.131147 0.930715 0.023618
O O19 0.380791 0.750000 0.942482
#
# Coordination Sequence:
#
# PCOD8068406 Si02
#       8
#     4   4   4   4   4   4   4   4
#     4  10  23  42  64  88 117 161 211 249 291 358
#     4  10  17  30  57  86 108 143 197 253 291 338
#     4  11  18  35  58  84 118 151 200 249 294 354
#     4  10  19  31  51  81 115 157 198 239 291 351
#     4  12  24  39  58  90 128 160 191 246 312 362
#     4   9  17  30  51  79 111 148 191 239 293 349
#     4  11  24  42  63  86 117 164 210 248 294 356
#     4  11  20  33  52  83 122 153 186 238 307 360
#
# _framework density 19.901911999999999
#
# number of rings (size 3 to 8) (size 9 to 14) (size 15 to 20)
#    0.000    1.500    5.000    1.500    0.000    2.000 
#    0.000    0.000    0.000    3.000    0.000    5.250 
#    0.000    0.000    0.000    0.000    0.000    0.000 
#
# Total GULP energy -396527.510042 kJ/mol
# GULP energy per Si atom -12391.484689 kJ/mol
# Density = 1.985661 g / cm^3
# Si number density = 19.901912 Si / 1000 Ang^3
#
#
#
# Elastic Constant Matrix: (Units=GPa)
#
#
# Indices 1 2 3 4 5 6 
#
# 1 107.7626 35.1707 48.5461 0.0000 -15.6702 0.0000
# 2 35.1707 96.0558 32.2849 0.0000 -2.7307 0.0000
# 3 48.5461 32.2849 86.0999 0.0000 -25.4720 0.0000
# 4 0.0000 0.0000 0.0000 21.7900 0.0000 -8.9190
# 5 -15.6702 -2.7307 -25.4720 0.0000 36.6466 0.0000
# 6 0.0000 0.0000 0.0000 -8.9190 0.0000 28.1377
#
#
#
# Elastic Compliance Matrix: (Units=1/GPa)
#
#
# Indices 1 2 3 4 5 6 
#
# 1 0.013036 -0.002734 -0.005962 0.000000 0.001227 0.000000
# 2 -0.002734 0.012717 -0.004144 0.000000 -0.003102 0.000000
# 3 -0.005962 -0.004144 0.019745 0.000000 0.010866 0.000000
# 4 0.000000 0.000000 0.000000 0.052734 0.000000 0.016716
# 5 0.001227 -0.003102 0.010866 0.000000 0.035133 0.000000
# 6 0.000000 0.000000 0.000000 0.016716 0.000000 0.040838
#
#
# Mechanical properties :
#
#
# Convention : Reuss Voigt Hill
#
# Bulk Modulus (GPa) = 50.46525 57.99128 54.22827
# Shear Modulus (GPa) = 24.21420 28.90931 26.56175
#
# Velocity S-wave (km/s) = 3.49187 3.81542 3.65723
# Velocity P-wave (km/s) = 6.45520 6.97221 6.71868
#
# Compressibility (1/GPa) = 0.01981562
#
# Stress axis : x y z
#
# Youngs Moduli (GPa) = 76.70851 78.63747 50.64682
#
# Poissons Ratio (x) = 0.21503 0.30196
# Poissons Ratio (y) = 0.20976 0.20990
# Poissons Ratio (z) = 0.45735 0.32590
#
# Static dielectric constant tensor:
#      x y z
#    x 3.883330 0.000000 -0.533830 
#    y 0.000000 3.786020 0.000000 
#    z -0.533830 0.000000 3.377200 
# 
# 
# High freq. dielectric constant tensor:
#      x y z
#    x 1.772150 0.000000 -0.049120 
#    y 0.000000 1.791300 0.000000 
#    z -0.049120 0.000000 1.734010 
# 
# From -- ./inp_files/55040.got.cif
#   From: 2010.06.25/outbox.cif.g09.slc.cpg/sg11_28_cif.got.tgz:55040.got - 2010.06.27 23:14:04.
