data_PCOD8068854
_publ_section_title
;
Structure prediction by ZEFSAII (Michael W. Deem and Ramdas Pophale) SiO2 
 PCOD8068854
Probable space group: P 21/M
;
_chemical_formula_sum "Si O2"
_cell_formula_units_Z 32
_cell_length_a 19.184687
_cell_length_b 8.642431
_cell_length_c 12.450361
_cell_angle_alpha 90.000000
_cell_angle_beta 102.373573
_cell_angle_gamma 90.000000
_cell_volume 2016.347760
_symmetry_space_group_name_H-M "P 21/M"
_symmetry_group_IT_number 11
_symmetry_cell_setting 'monoclinic'
loop_
_space_group_symop_operation_xyz
x,y,z
-x,1/2+y,-z
-x,-y,-z
x,1/2-y,z
loop_
_atom_site_type_symbol
_atom_site_label
_atom_site_fract_x
_atom_site_fract_y
_atom_site_fract_z
Si Si1 0.211666 0.575525 0.654015
Si Si2 0.558082 0.568636 0.720287
Si Si3 0.924699 0.424795 0.495760
Si Si4 0.429868 0.431359 0.029819
Si Si5 0.591176 0.932136 0.362851
Si Si6 0.798691 0.571755 0.558629
Si Si7 0.340567 0.570186 0.825717
Si Si8 0.334950 0.930949 0.406770
O O1 0.230905 0.750000 0.620441
O O2 0.124590 0.562946 0.630005
O O3 0.238173 0.455016 0.571287
O O4 0.254922 0.542861 0.778076
O O5 0.540330 0.750000 0.704677
O O6 0.574815 0.520853 0.848030
O O7 0.492482 0.469335 0.653347
O O8 0.627136 0.527343 0.674028
O O9 0.939066 0.250000 0.534777
O O10 0.880097 0.505412 0.578641
O O11 0.000000 0.500000 0.500000
O O12 0.431435 0.250000 0.014388
O O13 0.500000 0.500000 0.000000
O O14 0.360097 0.498504 0.946850
O O15 0.603944 0.750000 0.382524
O O16 0.615438 0.987222 0.253445
O O17 0.632265 0.026110 0.467544
O O18 0.800905 0.750000 0.590999
O O19 0.748925 0.479895 0.626165
O O20 0.361201 0.750000 0.831807
O O21 0.342795 0.750000 0.387249
#
# Coordination Sequence:
#
# PCOD8068854 Si02
#       8
#     4   4   4   4   4   4   4   4
#     4   8  17  30  45  67  98 131 161 194 236 284
#     4  11  24  39  51  67  92 124 163 208 254 300
#     4   9  16  28  45  70 104 136 166 195 233 283
#     4  11  23  37  54  71  93 123 164 214 261 304
#     4  12  22  33  51  72  93 122 160 202 252 302
#     4  10  18  29  47  69  95 130 162 191 233 285
#     4  11  20  33  53  72  97 129 165 207 252 299
#     4  12  23  36  51  69  97 127 161 205 249 298
#
# _framework density 15.870279
#
# number of rings (size 3 to 8) (size 9 to 14) (size 15 to 20)
#    0.750    0.750    2.500    4.875    0.000    2.000 
#    0.000    0.000    0.000    0.000    0.000    0.000 
#    0.000    1.000    0.000    3.000    0.000    4.625 
#
# Total GULP energy -396522.940629 kJ/mol
# GULP energy per Si atom -12391.341895 kJ/mol
# Density = 1.583416 g / cm^3
# Si number density = 15.870279 Si / 1000 Ang^3
#
#
#
# Elastic Constant Matrix: (Units=GPa)
#
#
# Indices 1 2 3 4 5 6 
#
# 1 106.8084 24.4370 28.3553 0.0000 -0.6872 0.0000
# 2 24.4370 74.0086 12.5167 0.0000 1.5124 0.0000
# 3 28.3553 12.5167 47.7166 0.0000 -2.9879 0.0000
# 4 0.0000 0.0000 0.0000 22.0604 0.0000 0.4243
# 5 -0.6872 1.5124 -2.9879 0.0000 15.6615 0.0000
# 6 0.0000 0.0000 0.0000 0.4243 0.0000 27.6897
#
#
#
# Elastic Compliance Matrix: (Units=1/GPa)
#
#
# Indices 1 2 3 4 5 6 
#
# 1 0.011648 -0.002786 -0.006216 0.000000 -0.000406 0.000000
# 2 -0.002786 0.014874 -0.002372 0.000000 -0.002011 0.000000
# 3 -0.006216 -0.002372 0.025576 0.000000 0.004836 0.000000
# 4 0.000000 0.000000 0.000000 0.045344 0.000000 -0.000695
# 5 -0.000406 -0.002011 0.004836 0.000000 0.064950 0.000000
# 6 0.000000 0.000000 0.000000 -0.000695 0.000000 0.036125
#
#
# Mechanical properties :
#
#
# Convention : Reuss Voigt Hill
#
# Bulk Modulus (GPa) = 34.07249 39.90573 36.98911
# Shear Modulus (GPa) = 21.64054 23.96396 22.80225
#
# Velocity S-wave (km/s) = 3.69669 3.89007 3.79461
# Velocity P-wave (km/s) = 6.30370 6.73620 6.52354
#
# Compressibility (1/GPa) = 0.02934919
#
# Stress axis : x y z
#
# Youngs Moduli (GPa) = 85.85400 67.23045 39.09932
#
# Poissons Ratio (x) = 0.18733 0.24304
# Poissons Ratio (y) = 0.23922 0.09274
# Poissons Ratio (z) = 0.53367 0.15946
#
# Static dielectric constant tensor:
#      x y z
#    x 3.062980 0.000000 0.089550 
#    y 0.000000 3.111220 0.000000 
#    z 0.089550 0.000000 2.894540 
# 
# 
# High freq. dielectric constant tensor:
#      x y z
#    x 1.599190 0.000000 0.005970 
#    y 0.000000 1.629060 0.000000 
#    z 0.005970 0.000000 1.568820 
# 
# From -- ./inp_files/40660.got.cif
#   From: 2010.06.25/outbox.cif.g09.slc.cpg/sg11_21_cif.got.tgz:40660.got - 2010.06.27 23:14:04.
