data_PCOD8068581
_publ_section_title
;
Structure prediction by ZEFSAII (Michael W. Deem and Ramdas Pophale) SiO2 
 PCOD8068581
Probable space group: P 21/M
;
_chemical_formula_sum "Si O2"
_cell_formula_units_Z 32
_cell_length_a 13.965680
_cell_length_b 8.961740
_cell_length_c 16.258200
_cell_angle_alpha 90.000000
_cell_angle_beta 86.335561
_cell_angle_gamma 90.000000
_cell_volume 2030.663931
_symmetry_space_group_name_H-M "P 21/M"
_symmetry_group_IT_number 11
_symmetry_cell_setting 'monoclinic'
loop_
_space_group_symop_operation_xyz
x,y,z
-x,1/2+y,-z
-x,-y,-z
x,1/2-y,z
loop_
_atom_site_type_symbol
_atom_site_label
_atom_site_fract_x
_atom_site_fract_y
_atom_site_fract_z
Si Si1 0.931287 0.926320 0.069688
Si Si2 0.473403 0.079095 0.919333
Si Si3 0.983987 0.424308 0.236364
Si Si4 0.196237 0.423936 0.286192
Si Si5 0.669335 0.425542 0.849870
Si Si6 0.078018 0.418122 0.603113
Si Si7 0.274987 0.424019 0.983252
Si Si8 0.861725 0.082204 0.552669
O O1 0.946150 0.750000 0.067018
O O2 0.822835 0.973050 0.054552
O O3 0.955908 0.986664 0.157426
O O4 0.000000 0.000000 0.000000
O O5 0.488441 0.250000 0.938173
O O6 0.554235 0.036111 0.846917
O O7 0.360118 0.045293 0.910296
O O8 0.500000 0.000000 0.000000
O O9 0.963642 0.250000 0.225682
O O10 0.918441 0.485012 0.314110
O O11 0.095449 0.456351 0.247457
O O12 0.212405 0.250000 0.298800
O O13 0.280823 0.489074 0.226806
O O14 0.201650 0.501228 0.374824
O O15 0.690601 0.250000 0.840961
O O16 0.710229 0.481052 0.934985
O O17 0.113530 0.250000 0.619296
O O18 0.148605 0.493590 0.532619
O O19 0.971531 0.415819 0.573674
O O20 0.272270 0.250000 0.008887
O O21 0.823277 0.250000 0.542562
#
# Coordination Sequence:
#
# PCOD8068581 Si02
#       8
#     4   4   4   4   4   4   4   4
#     4  11  22  33  45  61  83 113 147 181 215 249
#     4   8  15  28  44  61  80 103 134 171 211 255
#     4  10  20  32  44  59  82 114 149 181 211 244
#     4  10  19  29  41  59  86 117 144 171 208 253
#     4  10  18  27  43  65  85 107 137 174 214 254
#     4   9  16  27  43  61  82 109 141 175 210 249
#     4   9  18  32  46  59  80 111 143 175 213 255
#     4   9  16  26  41  61  84 110 140 173 208 247
#
# _framework density 15.758393
#
# number of rings (size 3 to 8) (size 9 to 14) (size 15 to 20)
#    0.000    2.500    0.000    3.000    0.000    9.000 
#    0.000    0.000    0.000    0.000    0.000    0.000 
#    0.000    1.000    0.000    2.750    0.000    4.000 
#
# Total GULP energy -396579.023625 kJ/mol
# GULP energy per Si atom -12393.094488 kJ/mol
# Density = 1.572253 g / cm^3
# Si number density = 15.758393 Si / 1000 Ang^3
#
#
#
# Elastic Constant Matrix: (Units=GPa)
#
#
# Indices 1 2 3 4 5 6 
#
# 1 83.5527 43.1734 50.0689 0.0000 -20.8287 0.0000
# 2 43.1734 84.3362 46.9200 0.0000 -14.9727 0.0000
# 3 50.0689 46.9200 111.8404 0.0000 -24.6929 0.0000
# 4 0.0000 0.0000 0.0000 32.6481 0.0000 -4.1797
# 5 -20.8287 -14.9727 -24.6929 0.0000 21.7394 0.0000
# 6 0.0000 0.0000 0.0000 -4.1797 0.0000 16.9621
#
#
#
# Elastic Compliance Matrix: (Units=1/GPa)
#
#
# Indices 1 2 3 4 5 6 
#
# 1 0.020271 -0.006208 -0.004173 0.000000 0.010406 0.000000
# 2 -0.006208 0.017688 -0.004358 0.000000 0.001285 0.000000
# 3 -0.004173 -0.004358 0.014805 0.000000 0.009817 0.000000
# 4 0.000000 0.000000 0.000000 0.031627 0.000000 0.007793
# 5 0.010406 0.001285 0.009817 0.000000 0.068005 0.000000
# 6 0.000000 0.000000 0.000000 0.007793 0.000000 0.060875
#
#
# Mechanical properties :
#
#
# Convention : Reuss Voigt Hill
#
# Bulk Modulus (GPa) = 42.94319 62.22822 52.58570
# Shear Modulus (GPa) = 19.95914 23.57438 21.76676
#
# Velocity S-wave (km/s) = 3.56275 3.87200 3.72059
# Velocity P-wave (km/s) = 6.65090 7.71780 7.20413
#
# Compressibility (1/GPa) = 0.02328658
#
# Stress axis : x y z
#
# Youngs Moduli (GPa) = 49.33111 56.53630 67.54434
#
# Poissons Ratio (x) = 0.35098 0.28186
# Poissons Ratio (y) = 0.30625 0.29433
# Poissons Ratio (z) = 0.20586 0.24636
#
# Static dielectric constant tensor:
#      x y z
#    x 3.196470 0.000000 -0.319140 
#    y 0.000000 3.210430 0.000000 
#    z -0.319140 0.000000 2.750310 
# 
# 
# High freq. dielectric constant tensor:
#      x y z
#    x 1.569250 0.000000 -0.028830 
#    y 0.000000 1.624500 0.000000 
#    z -0.028830 0.000000 1.593740 
# 
# From -- ./inp_files/51212.got.cif
#   From: 2010.06.25/outbox.cif.g09.slc.cpg/sg11_26_cif.got.tgz:51212.got - 2010.06.27 23:14:04.
