data_PCOD8068142
_publ_section_title
;
Structure prediction by ZEFSAII (Michael W. Deem and Ramdas Pophale) SiO2 
 PCOD8068142
Probable space group: P 21/M
;
_chemical_formula_sum "Si O2"
_cell_formula_units_Z 20
_cell_length_a 9.616966
_cell_length_b 8.671742
_cell_length_c 27.391810
_cell_angle_alpha 90.000000
_cell_angle_beta 151.056611
_cell_angle_gamma 90.000000
_cell_volume 1105.506656
_symmetry_space_group_name_H-M "P 21/M"
_symmetry_group_IT_number 11
_symmetry_cell_setting 'monoclinic'
loop_
_space_group_symop_operation_xyz
x,y,z
-x,1/2+y,-z
-x,-y,-z
x,1/2-y,z
loop_
_atom_site_type_symbol
_atom_site_label
_atom_site_fract_x
_atom_site_fract_y
_atom_site_fract_z
Si Si1 0.835833 0.930556 0.694694
Si Si2 0.685957 0.566564 0.909216
Si Si3 0.385358 0.570634 0.915564
Si Si4 0.664864 0.932349 0.503883
Si Si5 0.165193 0.433150 0.703962
O O1 0.780643 0.750000 0.671380
O O2 0.042301 0.965158 0.804599
O O3 0.525162 0.016206 0.601946
O O4 0.009342 0.991630 0.701924
O O5 0.684974 0.750000 0.904497
O O6 0.562027 0.507739 0.923180
O O7 0.492069 0.495508 0.805632
O O8 0.000000 0.500000 0.000000
O O9 0.439793 0.750000 0.935426
O O10 0.500000 0.500000 0.000000
O O11 0.686169 0.750000 0.512933
O O12 0.500000 0.000000 0.500000
O O13 0.986651 0.005981 0.601534
O O14 0.158683 0.250000 0.703936
#
# Coordination Sequence:
#
# PCOD8068142 Si02
#       5
#     4   4   4   4   4
#     4   9  16  27  40  60  89 119 151 191 231 275
#     4  10  20  34  49  70  96 125 159 197 234 277
#     4   9  19  32  48  69  96 125 158 195 233 275
#     4  10  16  23  37  59  86 117 149 186 230 279
#     4  10  17  26  41  62  88 120 151 187 232 278
#
# _framework density 18.091252999999998
#
# number of rings (size 3 to 8) (size 9 to 14) (size 15 to 20)
#    0.000    2.400    0.000    8.400    0.000    4.800 
#    0.000    0.000    0.000    0.000    0.000    1.400 
#    0.000    0.000    0.000    0.000    0.000    0.000 
#
# Total GULP energy -247772.815493 kJ/mol
# GULP energy per Si atom -12388.640775 kJ/mol
# Density = 1.805008 g / cm^3
# Si number density = 18.091253 Si / 1000 Ang^3
#
#
#
# Elastic Constant Matrix: (Units=GPa)
#
#
# Indices 1 2 3 4 5 6 
#
# 1 28.2539 23.8148 40.4850 0.0000 -0.5907 0.0000
# 2 23.8148 177.4656 92.7070 0.0000 5.0709 0.0000
# 3 40.4850 92.7070 222.3539 0.0000 5.2435 0.0000
# 4 0.0000 0.0000 0.0000 41.6878 0.0000 -0.4982
# 5 -0.5907 5.0709 5.2435 0.0000 20.2781 0.0000
# 6 0.0000 0.0000 0.0000 -0.4982 0.0000 15.9458
#
#
#
# Elastic Compliance Matrix: (Units=1/GPa)
#
#
# Indices 1 2 3 4 5 6 
#
# 1 0.049034 -0.002535 -0.007968 0.000000 0.004123 0.000000
# 2 -0.002535 0.007357 -0.002576 0.000000 -0.001247 0.000000
# 3 -0.007968 -0.002576 0.007055 0.000000 -0.001412 0.000000
# 4 0.000000 0.000000 0.000000 0.023997 0.000000 0.000750
# 5 0.004123 -0.001247 -0.001412 0.000000 0.050112 0.000000
# 6 0.000000 0.000000 0.000000 0.000750 0.000000 0.062736
#
#
# Mechanical properties :
#
#
# Convention : Reuss Voigt Hill
#
# Bulk Modulus (GPa) = 26.81907 82.45410 54.63659
# Shear Modulus (GPa) = 20.93116 33.65344 27.29230
#
# Velocity S-wave (km/s) = 3.40513 4.31769 3.88827
# Velocity P-wave (km/s) = 5.50603 8.39835 7.10101
#
# Compressibility (1/GPa) = 0.03728690
#
# Stress axis : x y z
#
# Youngs Moduli (GPa) = 20.39403 135.93341 141.73382
#
# Poissons Ratio (x) = 0.34466 1.12933
# Poissons Ratio (y) = 0.05171 0.36513
# Poissons Ratio (z) = 0.16250 0.35018
#
# Static dielectric constant tensor:
#      x y z
#    x 0.584050 0.000000 2.844610 
#    y 0.000000 3.546940 0.000000 
#    z 2.844610 0.000000 0.940790 
# 
# 
# High freq. dielectric constant tensor:
#      x y z
#    x 1.603430 0.000000 -0.002000 
#    y 0.000000 1.715830 0.000000 
#    z -0.002000 0.000000 1.743560 
# 
# From -- ./inp_files/23906.got.cif
#   From: 2010.06.25/outbox.cif.g09.slc.cpg/sg11_12_cif.got.tgz:23906.got - 2010.06.27 23:14:04.
