data_PCOD8068328
_publ_section_title
;
Structure prediction by ZEFSAII (Michael W. Deem and Ramdas Pophale) SiO2 
 PCOD8068328
Probable space group: P 21/M
;
_chemical_formula_sum "Si O2"
_cell_formula_units_Z 32
_cell_length_a 11.216942
_cell_length_b 16.062946
_cell_length_c 11.961463
_cell_angle_alpha 90.000000
_cell_angle_beta 130.417768
_cell_angle_gamma 90.000000
_cell_volume 1640.820496
_symmetry_space_group_name_H-M "P 21/M"
_symmetry_group_IT_number 11
_symmetry_cell_setting 'monoclinic'
loop_
_space_group_symop_operation_xyz
x,y,z
-x,1/2+y,-z
-x,-y,-z
x,1/2-y,z
loop_
_atom_site_type_symbol
_atom_site_label
_atom_site_fract_x
_atom_site_fract_y
_atom_site_fract_z
Si Si1 0.574493 0.848042 0.364949
Si Si2 0.702343 0.582842 0.991293
Si Si3 0.107276 0.847241 0.420496
Si Si4 0.234975 0.152420 0.737563
Si Si5 0.019004 0.845961 0.123225
Si Si6 0.610623 0.927351 0.606728
Si Si7 0.435729 0.653946 0.691074
Si Si8 0.257361 0.549689 0.149589
O O1 0.549484 0.750000 0.355493
O O2 0.674623 0.873946 0.318262
O O3 0.672179 0.879781 0.533102
O O4 0.404945 0.890293 0.257566
O O5 0.701514 0.594008 0.124104
O O6 0.831614 0.643512 0.013374
O O7 0.528550 0.604477 0.842861
O O8 0.741482 0.487898 0.976031
O O9 0.137524 0.750000 0.427536
O O10 0.090648 0.880847 0.283546
O O11 0.259169 0.884754 0.575772
O O12 0.949387 0.866024 0.393960
O O13 0.259589 0.250000 0.783600
O O14 0.058018 0.750000 0.125695
O O15 0.097784 0.899090 0.071670
O O16 0.515869 0.858574 0.619661
O O17 0.500000 0.000000 0.500000
O O18 0.742050 0.970101 0.764957
O O19 0.433911 0.750000 0.723552
#
# Coordination Sequence:
#
# PCOD8068328 Si02
#       8
#     4   4   4   4   4   4   4   4
#     4  10  19  33  54  77 105 142 180 216 257 312
#     4  10  20  33  51  77 109 139 171 215 265 309
#     4   8  15  27  47  73  97 127 171 218 255 297
#     4   9  18  33  52  75 103 140 184 219 251 304
#     4  10  18  32  54  78 104 136 178 218 258 314
#     4   9  18  30  46  72 103 128 161 211 265 311
#     4  10  17  28  50  76 100 128 166 214 265 310
#     4  10  20  32  51  77 108 137 168 217 270 320
#
# _framework density 19.502438000000001
#
# number of rings (size 3 to 8) (size 9 to 14) (size 15 to 20)
#    0.000    2.500    0.000    4.500    0.000    1.500 
#    0.000    0.000    0.000   23.250    0.000    8.750 
#    0.000    2.000    0.000    0.000    0.000    0.000 
#
# Total GULP energy -396606.529214 kJ/mol
# GULP energy per Si atom -12393.954038 kJ/mol
# Density = 1.945805 g / cm^3
# Si number density = 19.502438 Si / 1000 Ang^3
#
#
#
# Elastic Constant Matrix: (Units=GPa)
#
#
# Indices 1 2 3 4 5 6 
#
# 1 93.1207 32.7124 50.7389 0.0000 -15.6793 0.0000
# 2 32.7124 61.5688 23.9883 0.0000 -8.9063 0.0000
# 3 50.7389 23.9883 94.6826 0.0000 2.9509 0.0000
# 4 0.0000 0.0000 0.0000 22.7402 0.0000 -4.2212
# 5 -15.6793 -8.9063 2.9509 0.0000 31.0072 0.0000
# 6 0.0000 0.0000 0.0000 -4.2212 0.0000 22.2408
#
#
#
# Elastic Compliance Matrix: (Units=1/GPa)
#
#
# Indices 1 2 3 4 5 6 
#
# 1 0.019119 -0.005271 -0.009191 0.000000 0.009028 0.000000
# 2 -0.005271 0.020509 -0.002479 0.000000 0.003462 0.000000
# 3 -0.009191 -0.002479 0.016331 0.000000 -0.006914 0.000000
# 4 0.000000 0.000000 0.000000 0.045581 0.000000 0.008651
# 5 0.009028 0.003462 -0.006914 0.000000 0.038468 0.000000
# 6 0.000000 0.000000 0.000000 0.008651 0.000000 0.046604
#
#
# Mechanical properties :
#
#
# Convention : Reuss Voigt Hill
#
# Bulk Modulus (GPa) = 45.29942 51.58348 48.44145
# Shear Modulus (GPa) = 21.94389 24.65981 23.30185
#
# Velocity S-wave (km/s) = 3.35802 3.55976 3.46036
# Velocity P-wave (km/s) = 6.18975 6.58810 6.39203
#
# Compressibility (1/GPa) = 0.02207534
#
# Stress axis : x y z
#
# Youngs Moduli (GPa) = 52.30495 48.75849 61.23413
#
# Poissons Ratio (x) = 0.25700 0.56283
# Poissons Ratio (y) = 0.27569 0.15182
# Poissons Ratio (z) = 0.48075 0.12089
#
# Static dielectric constant tensor:
#      x y z
#    x 3.493980 0.000000 0.020280 
#    y 0.000000 3.512690 0.000000 
#    z 0.020280 0.000000 3.644980 
# 
# 
# High freq. dielectric constant tensor:
#      x y z
#    x 1.745060 0.000000 0.006160 
#    y 0.000000 1.749180 0.000000 
#    z 0.006160 0.000000 1.748160 
# 
# From -- ./inp_files/36050.got.cif
#   From: 2010.06.25/outbox.cif.g09.slc.cpg/sg11_19_cif.got.tgz:36050.got - 2010.06.27 23:14:04.
