data_PCOD8068356
_publ_section_title
;
Structure prediction by ZEFSAII (Michael W. Deem and Ramdas Pophale) SiO2 
 PCOD8068356
Probable space group: P 21/M
;
_chemical_formula_sum "Si O2"
_cell_formula_units_Z 32
_cell_length_a 14.469141
_cell_length_b 19.722606
_cell_length_c 9.836291
_cell_angle_alpha 90.000000
_cell_angle_beta 142.787325
_cell_angle_gamma 90.000000
_cell_volume 1697.588670
_symmetry_space_group_name_H-M "P 21/M"
_symmetry_group_IT_number 11
_symmetry_cell_setting 'monoclinic'
loop_
_space_group_symop_operation_xyz
x,y,z
-x,1/2+y,-z
-x,-y,-z
x,1/2-y,z
loop_
_atom_site_type_symbol
_atom_site_label
_atom_site_fract_x
_atom_site_fract_y
_atom_site_fract_z
Si Si1 0.859892 0.550193 0.861453
Si Si2 0.043217 0.177239 0.428230
Si Si3 0.344869 0.536641 0.857195
Si Si4 0.137108 0.450489 0.435626
Si Si5 0.795043 0.177159 0.920019
Si Si6 0.789124 0.172269 0.354789
Si Si7 0.950034 0.173695 0.825317
Si Si8 0.772673 0.463306 0.988582
O O1 0.787943 0.559711 0.626723
O O2 0.739403 0.516180 0.826161
O O3 0.000000 0.500000 0.000000
O O4 0.912516 0.621357 0.988212
O O5 0.121137 0.250000 0.552836
O O6 0.919177 0.158848 0.396214
O O7 0.169516 0.118035 0.562618
O O8 0.960368 0.180786 0.185007
O O9 0.212512 0.512938 0.600184
O O10 0.347109 0.618740 0.839891
O O11 0.500000 0.500000 0.000000
O O12 0.308876 0.513884 0.969111
O O13 0.955305 0.461896 0.220599
O O14 0.709295 0.250000 0.846320
O O15 0.823021 0.167203 0.793316
O O16 0.705096 0.111427 0.870349
O O17 0.727436 0.250000 0.274167
O O18 0.861521 0.155645 0.584603
O O19 0.018643 0.250000 0.899011
#
# Coordination Sequence:
#
# PCOD8068356 Si02
#       8
#     4   4   4   4   4   4   4   4
#     4  10  17  29  50  80 108 133 167 215 280 325
#     4   9  16  29  52  83 109 135 175 222 271 320
#     4  12  25  38  52  77 112 150 191 224 267 322
#     4  10  19  33  55  80 108 142 170 228 272 316
#     4   9  15  27  48  79 109 129 164 219 270 316
#     4  10  20  34  55  79 108 142 180 226 273 325
#     4  10  18  28  49  85 115 134 168 224 278 327
#     4  10  19  33  55  79 104 141 172 225 277 317
#
# _framework density 18.850268
#
# number of rings (size 3 to 8) (size 9 to 14) (size 15 to 20)
#    0.000    2.000    6.250    1.875    1.750    0.000 
#    0.000    1.250    0.000    0.750    0.000    0.000 
#    0.000    0.000    0.000    0.000    0.000    0.000 
#
# Total GULP energy -396446.111445 kJ/mol
# GULP energy per Si atom -12388.940983 kJ/mol
# Density = 1.880736 g / cm^3
# Si number density = 18.850268 Si / 1000 Ang^3
#
#
#
# Elastic Constant Matrix: (Units=GPa)
#
#
# Indices 1 2 3 4 5 6 
#
# 1 107.0204 55.8653 43.0015 0.0000 -29.8890 0.0000
# 2 55.8653 131.3879 35.3289 0.0000 -11.8098 0.0000
# 3 43.0015 35.3289 31.2575 0.0000 -18.7822 0.0000
# 4 0.0000 0.0000 0.0000 22.7489 0.0000 -8.4062
# 5 -29.8890 -11.8098 -18.7822 0.0000 22.5780 0.0000
# 6 0.0000 0.0000 0.0000 -8.4062 0.0000 26.5774
#
#
#
# Elastic Compliance Matrix: (Units=1/GPa)
#
#
# Indices 1 2 3 4 5 6 
#
# 1 0.022195 -0.002825 -0.021142 0.000000 0.010317 0.000000
# 2 -0.002825 0.012321 -0.016824 0.000000 -0.011291 0.000000
# 3 -0.021142 -0.016824 0.115945 0.000000 0.059665 0.000000
# 4 0.000000 0.000000 0.000000 0.049776 0.000000 0.015744
# 5 0.010317 -0.011291 0.059665 0.000000 0.101676 0.000000
# 6 0.000000 0.000000 0.000000 0.015744 0.000000 0.042605
#
#
# Mechanical properties :
#
#
# Convention : Reuss Voigt Hill
#
# Bulk Modulus (GPa) = 14.51821 59.78413 37.15117
# Shear Modulus (GPa) = 11.13437 23.41219 17.27328
#
# Velocity S-wave (km/s) = 2.43302 3.52804 3.03040
# Velocity P-wave (km/s) = 3.95112 6.95559 5.65648
#
# Compressibility (1/GPa) = 0.06887902
#
# Stress axis : x y z
#
# Youngs Moduli (GPa) = 45.05546 81.16102 8.62480
#
# Poissons Ratio (x) = 0.22928 0.18234
# Poissons Ratio (y) = 0.12728 0.14510
# Poissons Ratio (z) = 0.95255 1.36546
#
# Static dielectric constant tensor:
#      x y z
#    x 3.398110 0.000000 -0.698950 
#    y 0.000000 4.370720 0.000000 
#    z -0.698950 0.000000 3.171440 
# 
# 
# High freq. dielectric constant tensor:
#      x y z
#    x 1.704810 0.000000 -0.067510 
#    y 0.000000 1.760650 0.000000 
#    z -0.067510 0.000000 1.679790 
# 
# From -- ./inp_files/23126.got.cif
#   From: 2010.06.25/outbox.cif.g09.slc.cpg/sg11_12_cif.got.tgz:23126.got - 2010.06.27 23:14:04.
