data_PCOD8068582
_publ_section_title
;
Structure prediction by ZEFSAII (Michael W. Deem and Ramdas Pophale) SiO2 
 PCOD8068582
Probable space group: P 21/M
;
_chemical_formula_sum "Si O2"
_cell_formula_units_Z 32
_cell_length_a 11.577655
_cell_length_b 9.325468
_cell_length_c 17.392661
_cell_angle_alpha 90.000000
_cell_angle_beta 102.392965
_cell_angle_gamma 90.000000
_cell_volume 1834.078222
_symmetry_space_group_name_H-M "P 21/M"
_symmetry_group_IT_number 11
_symmetry_cell_setting 'monoclinic'
loop_
_space_group_symop_operation_xyz
x,y,z
-x,1/2+y,-z
-x,-y,-z
x,1/2-y,z
loop_
_atom_site_type_symbol
_atom_site_label
_atom_site_fract_x
_atom_site_fract_y
_atom_site_fract_z
Si Si1 0.866968 0.082620 0.058415
Si Si2 0.734825 0.418181 0.443732
Si Si3 0.773265 0.420921 0.205358
Si Si4 0.205111 0.079370 0.402021
Si Si5 0.859349 0.582705 0.906526
Si Si6 0.060158 0.918890 0.638928
Si Si7 0.305788 0.079465 0.253845
Si Si8 0.430671 0.579827 0.717457
O O1 0.845612 0.250000 0.040955
O O2 0.793648 0.024681 0.121502
O O3 0.004628 0.050215 0.093768
O O4 0.819408 0.998197 0.977891
O O5 0.726115 0.250000 0.460657
O O6 0.718892 0.507430 0.519437
O O7 0.861687 0.457563 0.424347
O O8 0.631114 0.467450 0.370971
O O9 0.778918 0.250000 0.207858
O O10 0.877006 0.481484 0.275503
O O11 0.646595 0.474521 0.220409
O O12 0.211675 0.250000 0.412001
O O13 0.259121 0.026202 0.329335
O O14 0.071329 0.018270 0.387963
O O15 0.837162 0.750000 0.916893
O O16 0.780638 0.522344 0.825282
O O17 0.050533 0.750000 0.647512
O O18 0.306983 0.250000 0.252687
O O19 0.437282 0.015940 0.258769
O O20 0.435149 0.750000 0.719944
#
# Coordination Sequence:
#
# PCOD8068582 Si02
#       8
#     4   4   4   4   4   4   4   4
#     4   9  16  27  46  70  90 108 136 172 209 250
#     4   9  17  29  44  62  85 112 141 174 212 251
#     4   8  13  24  44  65  83 109 145 177 203 240
#     4  10  18  27  43  65  86 109 140 178 214 249
#     4   9  17  29  45  65  90 115 136 167 211 253
#     4   8  14  25  42  64  87 110 139 174 209 247
#     4   9  17  29  44  62  84 112 146 177 206 245
#     4   8  15  28  45  63  83 110 145 180 207 239
#
# _framework density 17.447457
#
# number of rings (size 3 to 8) (size 9 to 14) (size 15 to 20)
#    0.000    3.250    0.000    2.625    0.000    3.500 
#    0.000    1.250    0.000    6.000    0.000    0.000 
#    0.000    0.000    0.000    0.000    0.000    0.000 
#
# Total GULP energy -396647.050003 kJ/mol
# GULP energy per Si atom -12395.220313 kJ/mol
# Density = 1.740775 g / cm^3
# Si number density = 17.447457 Si / 1000 Ang^3
#
#
#
# Elastic Constant Matrix: (Units=GPa)
#
#
# Indices 1 2 3 4 5 6 
#
# 1 106.4464 19.6992 79.0967 0.0000 -0.3082 0.0000
# 2 19.6992 20.3417 34.4596 0.0000 -4.2575 0.0000
# 3 79.0967 34.4596 163.0004 0.0000 -16.6152 0.0000
# 4 0.0000 0.0000 0.0000 25.5963 0.0000 -1.4227
# 5 -0.3082 -4.2575 -16.6152 0.0000 23.1575 0.0000
# 6 0.0000 0.0000 0.0000 -1.4227 0.0000 10.0473
#
#
#
# Elastic Compliance Matrix: (Units=1/GPa)
#
#
# Indices 1 2 3 4 5 6 
#
# 1 0.015515 -0.003865 -0.007297 0.000000 -0.005739 0.000000
# 2 -0.003865 0.077704 -0.014134 0.000000 0.004093 0.000000
# 3 -0.007297 -0.014134 0.013367 0.000000 0.006895 0.000000
# 4 0.000000 0.000000 0.000000 0.039378 0.000000 0.005576
# 5 -0.005739 0.004093 0.006895 0.000000 0.048806 0.000000
# 6 0.000000 0.000000 0.000000 0.005576 0.000000 0.100319
#
#
# Mechanical properties :
#
#
# Convention : Reuss Voigt Hill
#
# Bulk Modulus (GPa) = 17.85933 61.81105 39.83519
# Shear Modulus (GPa) = 13.72323 22.19574 17.95949
#
# Velocity S-wave (km/s) = 2.80759 3.57059 3.21182
# Velocity P-wave (km/s) = 4.55723 7.24587 6.05273
#
# Compressibility (1/GPa) = 0.05599313
#
# Stress axis : x y z
#
# Youngs Moduli (GPa) = 64.45406 12.86927 74.81365
#
# Poissons Ratio (x) = 0.04975 0.54588
# Poissons Ratio (y) = 0.24915 1.05744
# Poissons Ratio (z) = 0.47029 0.18190
#
# Static dielectric constant tensor:
#      x y z
#    x 3.537760 0.000000 -0.025490 
#    y 0.000000 2.683090 0.000000 
#    z -0.025490 0.000000 3.358990 
# 
# 
# High freq. dielectric constant tensor:
#      x y z
#    x 1.672870 0.000000 -0.005690 
#    y 0.000000 1.614140 0.000000 
#    z -0.005690 0.000000 1.680160 
# 
# From -- ./inp_files/41121.got.cif
#   From: 2010.06.25/outbox.cif.g09.slc.cpg/sg11_21_cif.got.tgz:41121.got - 2010.06.27 23:14:04.
