data_PCOD8068364
_publ_section_title
;
Structure prediction by ZEFSAII (Michael W. Deem and Ramdas Pophale) SiO2 
 PCOD8068364
Probable space group: P 21/M
;
_chemical_formula_sum "Si O2"
_cell_formula_units_Z 32
_cell_length_a 15.477479
_cell_length_b 14.541317
_cell_length_c 9.394118
_cell_angle_alpha 90.000000
_cell_angle_beta 52.629881
_cell_angle_gamma 90.000000
_cell_volume 1680.274665
_symmetry_space_group_name_H-M "P 21/M"
_symmetry_group_IT_number 11
_symmetry_cell_setting 'monoclinic'
loop_
_space_group_symop_operation_xyz
x,y,z
-x,1/2+y,-z
-x,-y,-z
x,1/2-y,z
loop_
_atom_site_type_symbol
_atom_site_label
_atom_site_fract_x
_atom_site_fract_y
_atom_site_fract_z
Si Si1 0.000007 0.595436 0.416140
Si Si2 0.374772 0.142858 0.979974
Si Si3 0.374777 0.642859 0.270453
Si Si4 0.764409 0.980344 0.069613
Si Si5 0.231638 0.353134 0.389161
Si Si6 0.235583 0.519656 0.598412
Si Si7 0.768350 0.146865 0.852478
Si Si8 0.000004 0.480219 0.162812
O O1 0.889417 0.650039 0.560158
O O2 0.000007 0.576668 0.246737
O O3 0.000000 0.500000 0.500000
O O4 0.110602 0.650031 0.338968
O O5 0.358522 0.250000 0.965000
O O6 0.313560 0.112892 0.184886
O O7 0.499996 0.116340 0.873521
O O8 0.327599 0.088503 0.891989
O O9 0.358525 0.750000 0.317935
O O10 0.327589 0.588502 0.452789
O O11 0.313585 0.612900 0.187928
O O12 0.745716 0.999999 0.254298
O O13 0.883560 0.931734 0.919329
O O14 0.757314 0.077727 0.995109
O O15 0.261565 0.250000 0.410764
O O16 0.242675 0.422273 0.509719
O O17 0.116431 0.568265 0.686445
O O18 0.738437 0.250000 0.933931
O O19 0.000000 0.500000 0.000000
#
# Coordination Sequence:
#
# PCOD8068364 Si02
#       8
#     4   4   4   4   4   4   4   4
#     4  10  17  29  52  79 106 135 174 221 265 313
#     4  10  22  39  56  76 105 141 182 228 274 319
#     4  10  22  39  56  76 105 141 182 228 274 319
#     4  10  20  35  57  81 109 143 178 220 269 323
#     4  10  20  34  54  80 109 142 178 219 270 327
#     4  10  20  35  57  81 109 143 178 220 269 323
#     4  10  20  34  54  80 109 142 178 219 270 327
#     4   8  16  31  49  75 108 139 168 203 256 317
#
# _framework density 19.044505000000001
#
# number of rings (size 3 to 8) (size 9 to 14) (size 15 to 20)
#    0.000    2.250    0.000    4.125    0.000    3.500 
#    0.000    1.875    0.000    7.500    0.000    0.000 
#    0.000    0.000    0.000    0.000    0.000    0.000 
#
# Total GULP energy -396483.585927 kJ/mol
# GULP energy per Si atom -12390.112060 kJ/mol
# Density = 1.900116 g / cm^3
# Si number density = 19.044505 Si / 1000 Ang^3
#
#
#
# Elastic Constant Matrix: (Units=GPa)
#
#
# Indices 1 2 3 4 5 6 
#
# 1 140.8088 45.2584 82.4186 0.0000 -14.2235 0.0000
# 2 45.2584 69.2871 49.1487 0.0000 4.5792 0.0000
# 3 82.4186 49.1487 126.1929 0.0000 -2.8627 0.0000
# 4 0.0000 0.0000 0.0000 23.6532 0.0000 -3.8684
# 5 -14.2235 4.5792 -2.8627 0.0000 36.4539 0.0000
# 6 0.0000 0.0000 0.0000 -3.8684 0.0000 26.9495
#
#
#
# Elastic Compliance Matrix: (Units=1/GPa)
#
#
# Indices 1 2 3 4 5 6 
#
# 1 0.012794 -0.003920 -0.006717 0.000000 0.004957 0.000000
# 2 -0.003920 0.021504 -0.005921 0.000000 -0.004696 0.000000
# 3 -0.006717 -0.005921 0.014601 0.000000 -0.000730 0.000000
# 4 0.000000 0.000000 0.000000 0.043294 0.000000 0.006215
# 5 0.004957 -0.004696 -0.000730 0.000000 0.029898 0.000000
# 6 0.000000 0.000000 0.000000 0.006215 0.000000 0.037998
#
#
# Mechanical properties :
#
#
# Convention : Reuss Voigt Hill
#
# Bulk Modulus (GPa) = 63.36228 76.66000 70.01114
# Shear Modulus (GPa) = 25.19308 28.04221 26.61765
#
# Velocity S-wave (km/s) = 3.64105 3.84142 3.74258
# Velocity P-wave (km/s) = 7.14277 7.74699 7.45101
#
# Compressibility (1/GPa) = 0.01578226
#
# Stress axis : x y z
#
# Youngs Moduli (GPa) = 78.16162 46.50283 68.48911
#
# Poissons Ratio (x) = 0.18230 0.46002
# Poissons Ratio (y) = 0.30641 0.40556
# Poissons Ratio (z) = 0.52499 0.27536
#
# Static dielectric constant tensor:
#      x y z
#    x 3.854240 0.000000 -0.250490 
#    y 0.000000 3.173890 0.000000 
#    z -0.250490 0.000000 3.640850 
# 
# 
# High freq. dielectric constant tensor:
#      x y z
#    x 1.750850 0.000000 -0.009260 
#    y 0.000000 1.715920 0.000000 
#    z -0.009260 0.000000 1.742960 
# 
# From -- ./inp_files/22194.got.cif
#   From: 2010.06.25/outbox.cif.g09.slc.cpg/sg11_12_cif.got.tgz:22194.got - 2010.06.27 23:14:04.
