data_PCOD8068722
_publ_section_title
;
Structure prediction by ZEFSAII (Michael W. Deem and Ramdas Pophale) SiO2 
 PCOD8068722
Probable space group: P 21/M
;
_chemical_formula_sum "Si O2"
_cell_formula_units_Z 20
_cell_length_a 19.597387
_cell_length_b 9.025440
_cell_length_c 9.795164
_cell_angle_alpha 90.000000
_cell_angle_beta 41.433333
_cell_angle_gamma 90.000000
_cell_volume 1146.491917
_symmetry_space_group_name_H-M "P 21/M"
_symmetry_group_IT_number 11
_symmetry_cell_setting 'monoclinic'
loop_
_space_group_symop_operation_xyz
x,y,z
-x,1/2+y,-z
-x,-y,-z
x,1/2-y,z
loop_
_atom_site_type_symbol
_atom_site_label
_atom_site_fract_x
_atom_site_fract_y
_atom_site_fract_z
Si Si1 0.838863 0.424648 0.991708
Si Si2 0.219065 0.924901 0.627934
Si Si3 0.391568 0.578140 0.162644
Si Si4 0.072344 0.426477 0.641481
Si Si5 0.780935 0.075095 0.785134
O O1 0.845708 0.250000 0.981428
O O2 0.777397 0.476811 0.948497
O O3 0.955237 0.485831 0.817152
O O4 0.777395 0.476801 0.219318
O O5 0.198075 0.750000 0.643497
O O6 0.326982 0.967842 0.394379
O O7 0.125576 0.010333 0.697050
O O8 0.415239 0.750000 0.127114
O O9 0.326973 0.532126 0.124696
O O10 0.500000 0.500000 0.000000
O O11 0.080223 0.250000 0.629650
O O12 0.125563 0.489688 0.426235
O O13 0.801905 0.250000 0.737756
#
# Coordination Sequence:
#
# PCOD8068722 Si02
#       5
#     4   4   4   4   4
#     4   9  17  30  49  71  97 125 157 191 225 269
#     4   9  18  33  50  69  93 126 160 189 226 278
#     4   9  18  32  51  68  86 117 156 195 236 277
#     4  10  18  28  46  73 100 128 156 188 224 264
#     4   9  18  33  50  69  93 126 160 189 226 278
#
# _framework density 17.444520000000001
#
# number of rings (size 3 to 8) (size 9 to 14) (size 15 to 20)
#    0.000    2.800    0.000    3.000    0.000    3.200 
#    0.000    4.000    0.000    0.000    0.000    0.000 
#    0.000    0.000    0.000    0.000    0.000    0.000 
#
# Total GULP energy -247922.587810 kJ/mol
# GULP energy per Si atom -12396.129391 kJ/mol
# Density = 1.740482 g / cm^3
# Si number density = 17.444520 Si / 1000 Ang^3
#
#
#
# Elastic Constant Matrix: (Units=GPa)
#
#
# Indices 1 2 3 4 5 6 
#
# 1 140.5144 33.9111 113.9064 0.0000 9.9637 0.0000
# 2 33.9111 37.3987 33.8159 0.0000 -1.7556 0.0000
# 3 113.9064 33.8159 141.7498 0.0000 11.4463 0.0000
# 4 0.0000 0.0000 0.0000 24.1257 0.0000 -3.9803
# 5 9.9637 -1.7556 11.4463 0.0000 39.7214 0.0000
# 6 0.0000 0.0000 0.0000 -3.9803 0.0000 24.3508
#
#
#
# Elastic Compliance Matrix: (Units=1/GPa)
#
#
# Indices 1 2 3 4 5 6 
#
# 1 0.021119 -0.005003 -0.015697 0.000000 -0.000995 0.000000
# 2 -0.005003 0.035892 -0.004885 0.000000 0.004249 0.000000
# 3 -0.015697 -0.004885 0.021022 0.000000 -0.002336 0.000000
# 4 0.000000 0.000000 0.000000 0.042598 0.000000 0.006963
# 5 -0.000995 0.004249 -0.002336 0.000000 0.026286 0.000000
# 6 0.000000 0.000000 0.000000 0.006963 0.000000 0.042205
#
#
# Mechanical properties :
#
#
# Convention : Reuss Voigt Hill
#
# Bulk Modulus (GPa) = 37.22564 75.88109 56.55336
# Shear Modulus (GPa) = 20.06035 26.84155 23.45095
#
# Velocity S-wave (km/s) = 3.39477 3.92686 3.67047
# Velocity P-wave (km/s) = 6.06232 8.00957 7.10299
#
# Compressibility (1/GPa) = 0.02686321
#
# Stress axis : x y z
#
# Youngs Moduli (GPa) = 47.35001 27.86125 47.56844
#
# Poissons Ratio (x) = 0.13940 0.74668
# Poissons Ratio (y) = 0.23691 0.23237
# Poissons Ratio (z) = 0.74325 0.13610
#
# Static dielectric constant tensor:
#      x y z
#    x 3.504450 0.000000 0.392660 
#    y 0.000000 3.045830 0.000000 
#    z 0.392660 0.000000 3.526570 
# 
# 
# High freq. dielectric constant tensor:
#      x y z
#    x 1.671220 0.000000 0.013800 
#    y 0.000000 1.654500 0.000000 
#    z 0.013800 0.000000 1.672010 
# 
# From -- ./inp_files/16401.got.cif
#   From: 2010.06.25/outbox.cif.g09.slc.cpg/sg11_9_cif.got.tgz:16401.got - 2010.06.27 23:14:04.
