data_PCOD8068840
_publ_section_title
;
Structure prediction by ZEFSAII (Michael W. Deem and Ramdas Pophale) SiO2 
 PCOD8068840
Probable space group: P 21/M
;
_chemical_formula_sum "Si O2"
_cell_formula_units_Z 32
_cell_length_a 20.851205
_cell_length_b 8.946646
_cell_length_c 14.382706
_cell_angle_alpha 90.000000
_cell_angle_beta 43.679245
_cell_angle_gamma 90.000000
_cell_volume 1852.983129
_symmetry_space_group_name_H-M "P 21/M"
_symmetry_group_IT_number 11
_symmetry_cell_setting 'monoclinic'
loop_
_space_group_symop_operation_xyz
x,y,z
-x,1/2+y,-z
-x,-y,-z
x,1/2-y,z
loop_
_atom_site_type_symbol
_atom_site_label
_atom_site_fract_x
_atom_site_fract_y
_atom_site_fract_z
Si Si1 0.862586 0.074672 0.420907
Si Si2 0.807103 0.924843 0.851979
Si Si3 0.724383 0.072899 0.412798
Si Si4 0.333349 0.075879 0.855281
Si Si5 0.192733 0.573412 0.865046
Si Si6 0.903390 0.572283 0.571337
Si Si7 0.943634 0.924713 0.866468
Si Si8 0.523431 0.074754 0.572713
O O1 0.861154 0.250000 0.447058
O O2 0.771123 0.021005 0.460627
O O3 0.949187 0.037705 0.263010
O O4 0.867683 0.982512 0.509811
O O5 0.821956 0.750000 0.832188
O O6 0.825843 0.983711 0.727980
O O7 0.885283 0.988628 0.840044
O O8 0.704833 0.965429 0.000698
O O9 0.721176 0.250000 0.414924
O O10 0.786938 0.017728 0.260883
O O11 0.619407 0.009449 0.514191
O O12 0.313435 0.250000 0.855486
O O13 0.442589 0.039604 0.732717
O O14 0.278517 0.980539 0.837336
O O15 0.186509 0.750000 0.877789
O O16 0.094305 0.505614 0.001169
O O17 0.915571 0.750000 0.556513
O O18 0.000000 0.500000 0.500000
O O19 0.926751 0.750000 0.898109
O O20 0.532538 0.250000 0.543968
O O21 0.500000 0.000000 0.500000
#
# Coordination Sequence:
#
# PCOD8068840 Si02
#       8
#     4   4   4   4   4   4   4   4
#     4  10  20  36  52  68  98 139 172 205 247 298
#     4   8  15  29  47  70  96 123 158 198 242 290
#     4   9  19  33  49  71 102 135 167 205 255 295
#     4   9  17  30  50  73  97 129 165 198 242 302
#     4  10  18  29  46  71 102 131 163 206 247 288
#     4  11  20  33  53  76 100 127 165 211 253 298
#     4   9  17  31  48  67  95 134 170 197 238 297
#     4  10  18  31  52  76  99 129 168 207 245 295
#
# _framework density 17.269449999999999
#
# number of rings (size 3 to 8) (size 9 to 14) (size 15 to 20)
#    0.000    2.500    2.500    1.500    0.000    1.000 
#    0.000    2.500    0.000    0.750    0.000    0.000 
#    0.000    0.000    0.000    0.000    0.000    0.125 
#
# Total GULP energy -396573.042179 kJ/mol
# GULP energy per Si atom -12392.907568 kJ/mol
# Density = 1.723014 g / cm^3
# Si number density = 17.269450 Si / 1000 Ang^3
#
#
#
# Elastic Constant Matrix: (Units=GPa)
#
#
# Indices 1 2 3 4 5 6 
#
# 1 115.8365 28.8607 75.2240 0.0000 0.7469 0.0000
# 2 28.8607 42.9014 37.8782 0.0000 3.5909 0.0000
# 3 75.2240 37.8782 142.6835 0.0000 3.1655 0.0000
# 4 0.0000 0.0000 0.0000 22.6891 0.0000 3.4604
# 5 0.7469 3.5909 3.1655 0.0000 26.1509 0.0000
# 6 0.0000 0.0000 0.0000 3.4604 0.0000 19.8263
#
#
#
# Elastic Compliance Matrix: (Units=1/GPa)
#
#
# Indices 1 2 3 4 5 6 
#
# 1 0.013575 -0.003748 -0.006181 0.000000 0.000875 0.000000
# 2 -0.003748 0.031751 -0.006376 0.000000 -0.003481 0.000000
# 3 -0.006181 -0.006376 0.011969 0.000000 -0.000397 0.000000
# 4 0.000000 0.000000 0.000000 0.045279 0.000000 -0.007903
# 5 0.000875 -0.003481 -0.000397 0.000000 0.038741 0.000000
# 6 0.000000 0.000000 0.000000 -0.007903 0.000000 0.051818
#
#
# Mechanical properties :
#
#
# Convention : Reuss Voigt Hill
#
# Bulk Modulus (GPa) = 40.51057 65.03857 52.77457
# Shear Modulus (GPa) = 21.37011 24.36381 22.86696
#
# Velocity S-wave (km/s) = 3.52156 3.76014 3.64280
# Velocity P-wave (km/s) = 6.32804 7.52292 6.95120
#
# Compressibility (1/GPa) = 0.02468491
#
# Stress axis : x y z
#
# Youngs Moduli (GPa) = 73.66368 31.49479 83.55040
#
# Poissons Ratio (x) = 0.11804 0.51646
# Poissons Ratio (y) = 0.27609 0.53270
# Poissons Ratio (z) = 0.45535 0.20081
#
# Static dielectric constant tensor:
#      x y z
#    x 3.196620 0.000000 0.002130 
#    y 0.000000 3.022750 0.000000 
#    z 0.002130 0.000000 3.719130 
# 
# 
# High freq. dielectric constant tensor:
#      x y z
#    x 1.639130 0.000000 0.000830 
#    y 0.000000 1.644970 0.000000 
#    z 0.000830 0.000000 1.679700 
# 
# From -- ./inp_files/54254.got.cif
#   From: 2010.06.25/outbox.cif.g09.slc.cpg/sg11_28_cif.got.tgz:54254.got - 2010.06.27 23:14:04.
