data_PCOD8068597
_publ_section_title
;
Structure prediction by ZEFSAII (Michael W. Deem and Ramdas Pophale) SiO2 
 PCOD8068597
Probable space group: P 21/M
;
_chemical_formula_sum "Si O2"
_cell_formula_units_Z 28
_cell_length_a 29.289719
_cell_length_b 9.061404
_cell_length_c 13.682267
_cell_angle_alpha 90.000000
_cell_angle_beta 28.292556
_cell_angle_gamma 90.000000
_cell_volume 1721.167378
_symmetry_space_group_name_H-M "P 21/M"
_symmetry_group_IT_number 11
_symmetry_cell_setting 'monoclinic'
loop_
_space_group_symop_operation_xyz
x,y,z
-x,1/2+y,-z
-x,-y,-z
x,1/2-y,z
loop_
_atom_site_type_symbol
_atom_site_label
_atom_site_fract_x
_atom_site_fract_y
_atom_site_fract_z
Si Si1 0.321800 0.423749 0.678056
Si Si2 0.276004 0.922183 0.967585
Si Si3 0.072981 0.576632 0.435136
Si Si4 0.181467 0.922643 0.796920
Si Si5 0.478190 0.581648 0.638662
Si Si6 0.096926 0.079670 0.788677
Si Si7 0.974773 0.582712 0.280090
O O1 0.298797 0.250000 0.715289
O O2 0.286411 0.482698 0.849747
O O3 0.268774 0.508983 0.692234
O O4 0.437061 0.458270 0.443671
O O5 0.270718 0.750000 0.947232
O O6 0.365490 0.950845 0.875647
O O7 0.180610 0.972293 0.203700
O O8 0.058539 0.750000 0.453795
O O9 0.052944 0.529321 0.583234
O O10 0.000000 0.500000 0.500000
O O11 0.198370 0.750000 0.750978
O O12 0.182164 0.998840 0.687882
O O13 0.081396 0.956489 0.040611
O O14 0.500000 0.500000 0.500000
O O15 0.491554 0.750000 0.586282
O O16 0.092135 0.250000 0.829463
O O17 0.105124 0.065795 0.655538
O O18 0.000000 0.000000 0.000000
O O19 0.974342 0.750000 0.321364
#
# Coordination Sequence:
#
# PCOD8068597 Si02
#       7
#     4   4   4   4   4   4   4
#     4  10  18  27  44  69  90 113 145 182 223 264
#     4   9  18  32  45  60  87 121 151 181 218 260
#     4  11  22  32  45  64  88 120 154 183 213 250
#     4  10  19  30  45  66  92 120 145 177 221 265
#     4   8  15  28  44  61  84 112 144 180 219 263
#     4   9  17  30  47  66  88 115 146 181 220 263
#     4   9  19  33  46  62  88 119 148 178 215 255
#
# _framework density 16.268028999999999
#
# number of rings (size 3 to 8) (size 9 to 14) (size 15 to 20)
#    0.000    2.571    0.000    3.429    0.000    8.571 
#    0.000    0.000    0.000    0.000    0.000    1.000 
#    0.000    0.000    0.000    0.000    0.000    0.000 
#
# Total GULP energy -346899.231516 kJ/mol
# GULP energy per Si atom -12389.258268 kJ/mol
# Density = 1.623100 g / cm^3
# Si number density = 16.268029 Si / 1000 Ang^3
#
#
#
# Elastic Constant Matrix: (Units=GPa)
#
#
# Indices 1 2 3 4 5 6 
#
# 1 129.3618 59.5750 51.2524 0.0000 -22.3755 0.0000
# 2 59.5750 86.4462 38.4389 0.0000 -10.8733 0.0000
# 3 51.2524 38.4389 77.3696 0.0000 -20.6117 0.0000
# 4 0.0000 0.0000 0.0000 18.8189 0.0000 -0.4994
# 5 -22.3755 -10.8733 -20.6117 0.0000 25.7862 0.0000
# 6 0.0000 0.0000 0.0000 -0.4994 0.0000 32.5674
#
#
#
# Elastic Compliance Matrix: (Units=1/GPa)
#
#
# Indices 1 2 3 4 5 6 
#
# 1 0.013395 -0.006732 -0.004051 0.000000 0.005546 0.000000
# 2 -0.006732 0.018236 -0.005220 0.000000 -0.002324 0.000000
# 3 -0.004051 -0.005220 0.021192 0.000000 0.011223 0.000000
# 4 0.000000 0.000000 0.000000 0.053160 0.000000 0.000815
# 5 0.005546 -0.002324 0.011223 0.000000 0.051584 0.000000
# 6 0.000000 0.000000 0.000000 0.000815 0.000000 0.030718
#
#
# Mechanical properties :
#
#
# Convention : Reuss Voigt Hill
#
# Bulk Modulus (GPa) = 48.03794 65.74558 56.89176
# Shear Modulus (GPa) = 22.00420 25.02857 23.51639
#
# Velocity S-wave (km/s) = 3.68177 3.92664 3.80617
# Velocity P-wave (km/s) = 6.90413 7.81407 7.37315
#
# Compressibility (1/GPa) = 0.02081688
#
# Stress axis : x y z
#
# Youngs Moduli (GPa) = 74.65446 54.83631 47.18858
#
# Poissons Ratio (x) = 0.36918 0.19116
# Poissons Ratio (y) = 0.50260 0.24630
# Poissons Ratio (z) = 0.30242 0.28622
#
# Static dielectric constant tensor:
#      x y z
#    x 3.396600 0.000000 -0.434330 
#    y 0.000000 3.265660 0.000000 
#    z -0.434330 0.000000 3.197110 
# 
# 
# High freq. dielectric constant tensor:
#      x y z
#    x 1.626260 0.000000 -0.026680 
#    y 0.000000 1.641520 0.000000 
#    z -0.026680 0.000000 1.588360 
# 
# From -- ./inp_files/56401.got.cif
#   From: 2010.06.25/outbox.cif.g09.slc.cpg/sg11_29_cif.got.tgz:56401.got - 2010.06.27 23:14:04.
