data_PCOD8068671
_publ_section_title
;
Structure prediction by ZEFSAII (Michael W. Deem and Ramdas Pophale) SiO2 
 PCOD8068671
Probable space group: P 21/M
;
_chemical_formula_sum "Si O2"
_cell_formula_units_Z 32
_cell_length_a 15.610694
_cell_length_b 23.408147
_cell_length_c 15.587894
_cell_angle_alpha 90.000000
_cell_angle_beta 161.519970
_cell_angle_gamma 90.000000
_cell_volume 1805.512405
_symmetry_space_group_name_H-M "P 21/M"
_symmetry_group_IT_number 11
_symmetry_cell_setting 'monoclinic'
loop_
_space_group_symop_operation_xyz
x,y,z
-x,1/2+y,-z
-x,-y,-z
x,1/2-y,z
loop_
_atom_site_type_symbol
_atom_site_label
_atom_site_fract_x
_atom_site_fract_y
_atom_site_fract_z
Si Si1 0.706684 0.450292 0.719369
Si Si2 0.183310 0.185317 0.143085
Si Si3 0.894760 0.943802 0.607762
Si Si4 0.168194 0.408533 0.263506
Si Si5 0.467725 0.072010 0.054488
Si Si6 0.744289 0.362613 0.617018
Si Si7 0.087208 0.578599 0.391815
Si Si8 0.447251 0.562079 0.051290
O O1 0.500000 0.500000 0.500000
O O2 0.494634 0.411421 0.571599
O O3 0.799600 0.421475 0.719799
O O4 0.984310 0.459090 0.040267
O O5 0.244874 0.250000 0.229542
O O6 0.091638 0.150257 0.141382
O O7 0.437034 0.157155 0.335884
O O8 0.942092 0.185204 0.844373
O O9 0.915450 0.910476 0.717236
O O10 0.635002 0.921541 0.309634
O O11 0.887156 0.012543 0.614913
O O12 0.143186 0.922475 0.786835
O O13 0.739322 0.091678 0.359009
O O14 0.463319 0.004380 0.048219
O O15 0.468917 0.094733 0.957145
O O16 0.216351 0.095104 0.870685
O O17 0.811784 0.376802 0.583295
#
# Coordination Sequence:
#
# PCOD8068671 Si02
#       8
#     4   4   4   4   4   4   4   4
#     4  10  19  30  44  64  96 126 151 182 225 280
#     4  10  21  37  52  66  91 121 154 201 244 280
#     4  10  18  28  44  66  96 126 158 192 221 266
#     4  10  20  31  46  68  90 122 159 191 231 277
#     4   9  17  28  42  62  93 131 162 184 216 261
#     4  10  20  32  49  71  91 121 159 192 234 282
#     4  10  18  28  44  67  96 124 154 192 223 265
#     4   9  17  28  42  62  92 132 162 183 217 262
#
# _framework density 17.723500000000001
#
# number of rings (size 3 to 8) (size 9 to 14) (size 15 to 20)
#    0.000    2.250    0.000    3.750    0.000    7.000 
#    0.000    0.000    0.000    0.000    0.000    0.000 
#    0.000   20.000    0.000    0.000    0.000    0.000 
#
# Total GULP energy -396517.950505 kJ/mol
# GULP energy per Si atom -12391.185953 kJ/mol
# Density = 1.768316 g / cm^3
# Si number density = 17.723500 Si / 1000 Ang^3
#
#
#
# Elastic Constant Matrix: (Units=GPa)
#
#
# Indices 1 2 3 4 5 6 
#
# 1 125.3163 24.9639 15.4385 0.0000 4.8185 0.0000
# 2 24.9639 34.4309 -1.0034 0.0000 -11.6208 0.0000
# 3 15.4385 -1.0034 97.3917 0.0000 -17.0880 0.0000
# 4 0.0000 0.0000 0.0000 12.6961 0.0000 -0.2576
# 5 4.8185 -11.6208 -17.0880 0.0000 59.6321 0.0000
# 6 0.0000 0.0000 0.0000 -0.2576 0.0000 14.3879
#
#
#
# Elastic Compliance Matrix: (Units=1/GPa)
#
#
# Indices 1 2 3 4 5 6 
#
# 1 0.010042 -0.008386 -0.002219 0.000000 -0.003081 0.000000
# 2 -0.008386 0.038288 0.003319 0.000000 0.009090 0.000000
# 3 -0.002219 0.003319 0.011370 0.000000 0.004084 0.000000
# 4 0.000000 0.000000 0.000000 0.078793 0.000000 0.001411
# 5 -0.003081 0.009090 0.004084 0.000000 0.019960 0.000000
# 6 0.000000 0.000000 0.000000 0.001411 0.000000 0.069528
#
#
# Mechanical properties :
#
#
# Convention : Reuss Voigt Hill
#
# Bulk Modulus (GPa) = 22.15871 37.32631 29.74251
# Shear Modulus (GPa) = 19.41018 31.85923 25.63470
#
# Velocity S-wave (km/s) = 3.31292 4.24438 3.80724
# Velocity P-wave (km/s) = 5.21186 6.71757 6.01204
#
# Compressibility (1/GPa) = 0.04512899
#
# Stress axis : x y z
#
# Youngs Moduli (GPa) = 99.58032 26.11761 87.94788
#
# Poissons Ratio (x) = 0.21901 0.19515
# Poissons Ratio (y) = 0.83505 -0.29187
# Poissons Ratio (z) = 0.22096 -0.08668
#
# Static dielectric constant tensor:
#      x y z
#    x 2.812910 0.000000 -1.905210 
#    y 0.000000 2.770040 0.000000 
#    z -1.905210 0.000000 -3.552430 
# 
# 
# High freq. dielectric constant tensor:
#      x y z
#    x 1.688760 0.000000 0.005340 
#    y 0.000000 1.611110 0.000000 
#    z 0.005340 0.000000 1.711690 
# 
# From -- ./inp_files/52757.got.cif
#   From: 2010.06.25/outbox.cif.g09.slc.cpg/sg11_27_cif.got.tgz:52757.got - 2010.06.27 23:14:04.
