data_PCOD8068887
_publ_section_title
;
Structure prediction by ZEFSAII (Michael W. Deem and Ramdas Pophale) SiO2 
 PCOD8068887
Probable space group: P 21/M
;
_chemical_formula_sum "Si O2"
_cell_formula_units_Z 32
_cell_length_a 17.716385
_cell_length_b 8.611619
_cell_length_c 23.898982
_cell_angle_alpha 90.000000
_cell_angle_beta 30.647976
_cell_angle_gamma 90.000000
_cell_volume 1858.689098
_symmetry_space_group_name_H-M "P 21/M"
_symmetry_group_IT_number 11
_symmetry_cell_setting 'monoclinic'
loop_
_space_group_symop_operation_xyz
x,y,z
-x,1/2+y,-z
-x,-y,-z
x,1/2-y,z
loop_
_atom_site_type_symbol
_atom_site_label
_atom_site_fract_x
_atom_site_fract_y
_atom_site_fract_z
Si Si1 0.812856 0.567466 0.266202
Si Si2 0.948172 0.067538 0.974913
Si Si3 0.109867 0.569845 0.386145
Si Si4 0.757832 0.069445 0.417602
Si Si5 0.894385 0.932526 0.434935
Si Si6 0.443214 0.568643 0.641220
Si Si7 0.383846 0.931948 0.806189
Si Si8 0.669686 0.431474 0.666734
O O1 0.823022 0.750000 0.271680
O O2 0.830197 0.473755 0.312442
O O3 0.656369 0.530501 0.337370
O O4 0.946579 0.507232 0.141760
O O5 0.960582 0.250000 0.972951
O O6 0.779544 0.017810 0.069654
O O7 0.000000 0.000000 0.000000
O O8 0.080650 0.750000 0.405719
O O9 0.274809 0.530566 0.304376
O O10 0.000000 0.500000 0.500000
O O11 0.055290 0.515598 0.359051
O O12 0.716126 0.250000 0.446250
O O13 0.877484 0.029342 0.388965
O O14 0.612900 0.966301 0.519862
O O15 0.887129 0.750000 0.425765
O O16 0.761002 0.971497 0.562673
O O17 0.411077 0.750000 0.652328
O O18 0.405711 0.516939 0.728064
O O19 0.411536 0.750000 0.795506
O O20 0.498202 0.022439 0.772921
O O21 0.690833 0.250000 0.639896
#
# Coordination Sequence:
#
# PCOD8068887 Si02
#       8
#     4   4   4   4   4   4   4   4
#     4  11  23  38  55  74  98 131 172 212 254 298
#     4  10  21  37  56  75  97 127 167 211 253 298
#     4   8  16  28  44  68  99 132 164 199 241 293
#     4  12  24  36  51  73 103 135 172 210 248 297
#     4  10  18  31  49  70 100 136 168 202 248 296
#     4  11  21  35  54  74 103 135 168 206 249 299
#     4  10  20  33  51  75 103 135 167 203 250 297
#     4  10  18  29  47  74 104 133 167 203 243 295
#
# _framework density 17.216435000000001
#
# number of rings (size 3 to 8) (size 9 to 14) (size 15 to 20)
#    0.000    1.750    2.500    3.000    0.000    2.500 
#    0.000    0.000    0.000    0.000    0.000    0.875 
#    0.000    0.000    0.000    0.000    0.000    0.000 
#
# Total GULP energy -396669.639736 kJ/mol
# GULP energy per Si atom -12395.926242 kJ/mol
# Density = 1.717725 g / cm^3
# Si number density = 17.216435 Si / 1000 Ang^3
#
#
#
# Elastic Constant Matrix: (Units=GPa)
#
#
# Indices 1 2 3 4 5 6 
#
# 1 144.3673 26.7019 51.8990 0.0000 -11.3164 0.0000
# 2 26.7019 34.4428 17.1440 0.0000 -1.9802 0.0000
# 3 51.8990 17.1440 73.5362 0.0000 5.9293 0.0000
# 4 0.0000 0.0000 0.0000 18.1478 0.0000 -1.5625
# 5 -11.3164 -1.9802 5.9293 0.0000 19.4823 0.0000
# 6 0.0000 0.0000 0.0000 -1.5625 0.0000 28.1700
#
#
#
# Elastic Compliance Matrix: (Units=1/GPa)
#
#
# Indices 1 2 3 4 5 6 
#
# 1 0.011064 -0.004396 -0.007449 0.000000 0.008247 0.000000
# 2 -0.004396 0.035246 -0.005329 0.000000 0.002651 0.000000
# 3 -0.007449 -0.005329 0.021006 0.000000 -0.011261 0.000000
# 4 0.000000 0.000000 0.000000 0.055368 0.000000 0.003071
# 5 0.008247 0.002651 -0.011261 0.000000 0.059815 0.000000
# 6 0.000000 0.000000 0.000000 0.003071 0.000000 0.035669
#
#
# Mechanical properties :
#
#
# Convention : Reuss Voigt Hill
#
# Bulk Modulus (GPa) = 30.33039 49.31513 39.82276
# Shear Modulus (GPa) = 18.97503 23.60011 21.28757
#
# Velocity S-wave (km/s) = 3.32346 3.70643 3.52016
# Velocity P-wave (km/s) = 5.69057 6.85735 6.30102
#
# Compressibility (1/GPa) = 0.03297023
#
# Stress axis : x y z
#
# Youngs Moduli (GPa) = 90.38356 28.37185 47.60544
#
# Poissons Ratio (x) = 0.12471 0.35460
# Poissons Ratio (y) = 0.39730 0.25367
# Poissons Ratio (z) = 0.67324 0.15118
#
# Static dielectric constant tensor:
#      x y z
#    x 3.711580 0.000000 -0.178900 
#    y 0.000000 3.175770 0.000000 
#    z -0.178900 0.000000 3.097270 
# 
# 
# High freq. dielectric constant tensor:
#      x y z
#    x 1.676040 0.000000 -0.013690 
#    y 0.000000 1.672250 0.000000 
#    z -0.013690 0.000000 1.623810 
# 
# From -- ./inp_files/69415.got.cif
#   From: 2010.06.25/outbox.cif.g09.slc.cpg/sg11_35_cif.got.tgz:69415.got - 2010.06.27 23:14:04.
