data_PCOD8068112
_publ_section_title
;
Structure prediction by ZEFSAII (Michael W. Deem and Ramdas Pophale) SiO2 
 PCOD8068112
Probable space group: P 2/M
;
_chemical_formula_sum "Si O2"
_cell_formula_units_Z 24
_cell_length_a 12.000000
_cell_length_b 9.000000
_cell_length_c 24.000000
_cell_angle_alpha 90.000000
_cell_angle_beta 150.000000
_cell_angle_gamma 90.000000
_cell_volume 1296.000000
_symmetry_space_group_name_H-M "P 2/M"
_symmetry_group_IT_number 10
_symmetry_cell_setting 'monoclinic'
loop_
_space_group_symop_operation_xyz
x,y,z
-x,y,-z
-x,-y,-z
x,-y,z
loop_
_atom_site_type_symbol
_atom_site_label
_atom_site_fract_x
_atom_site_fract_y
_atom_site_fract_z
Si Si1 0.837754 0.172111 0.709209
Si Si2 0.014216 0.823179 0.662979
Si Si3 0.382058 0.823548 0.226848
Si Si4 0.093840 0.828258 0.931182
Si Si5 0.420494 0.320860 0.578025
Si Si6 0.486249 0.320747 0.832714
O O1 0.612583 0.270010 0.617531
O O2 0.957933 0.206600 0.703213
O O3 0.015745 0.210404 0.834613
O O4 0.763814 0.000000 0.682142
O O5 0.252801 0.747635 0.753361
O O6 0.820334 0.745591 0.542776
O O7 0.024293 0.000000 0.654546
O O8 0.518379 0.746457 0.335509
O O9 0.464164 0.745293 0.206480
O O10 0.116304 0.796945 0.118952
O O11 0.433487 0.000000 0.248061
O O12 0.167929 0.000000 0.968449
O O13 0.307089 0.726727 0.038108
O O14 0.408806 0.500000 0.575010
O O15 0.470154 0.500000 0.824047
#
# Coordination Sequence:
#
# PCOD8068112 Si02
#       6
#     4   4   4   4   4   4
#     4   9  20  39  63  87 112 150 198 238 274 331
#     4  11  23  40  60  82 114 157 199 234 276 337
#     4  10  21  40  64  86 111 150 197 236 276 337
#     4   9  19  38  62  86 112 147 192 237 280 334
#     4  11  22  37  60  90 120 147 183 237 294 340
#     4  12  25  38  55  85 121 152 187 236 294 344
#
# _framework density 18.518519000000001
#
# number of rings (size 3 to 8) (size 9 to 14) (size 15 to 20)
#    0.000    1.667    0.000    6.000    0.000   10.000 
#    0.000    6.667    0.000    0.000    0.000    0.000 
#    0.000    0.000    0.000    0.000    0.000    0.000 
#
# Total GULP energy -297594.970304 kJ/mol
# GULP energy per Si atom -12399.790429 kJ/mol
# Density = 1.847637 g / cm^3
# Si number density = 18.518519 Si / 1000 Ang^3
#
#
#
# Elastic Constant Matrix: (Units=GPa)
#
#
# Indices 1 2 3 4 5 6 
#
# 1 122.9751 59.0045 72.5068 0.0000 10.6298 0.0000
# 2 59.0045 176.5685 77.8065 0.0000 11.2997 0.0000
# 3 72.5068 77.8065 162.7882 0.0000 17.7658 0.0000
# 4 0.0000 0.0000 0.0000 40.9296 0.0000 4.8201
# 5 10.6298 11.2997 17.7658 0.0000 34.1785 0.0000
# 6 0.0000 0.0000 0.0000 4.8201 0.0000 33.1999
#
#
#
# Elastic Compliance Matrix: (Units=1/GPa)
#
#
# Indices 1 2 3 4 5 6 
#
# 1 0.011591 -0.002009 -0.004115 0.000000 -0.000802 0.000000
# 2 -0.002009 0.007535 -0.002654 0.000000 -0.000487 0.000000
# 3 -0.004115 -0.002654 0.009551 0.000000 -0.002807 0.000000
# 4 0.000000 0.000000 0.000000 0.024857 0.000000 -0.003609
# 5 -0.000802 -0.000487 -0.002807 0.000000 0.031128 0.000000
# 6 0.000000 0.000000 0.000000 -0.003609 0.000000 0.030645
#
#
# Mechanical properties :
#
#
# Convention : Reuss Voigt Hill
#
# Bulk Modulus (GPa) = 89.91330 97.88525 93.89928
# Shear Modulus (GPa) = 36.61149 38.52921 37.57035
#
# Velocity S-wave (km/s) = 4.45119 4.56628 4.50911
# Velocity P-wave (km/s) = 8.66465 8.98744 8.82752
#
# Compressibility (1/GPa) = 0.01112183
#
# Stress axis : x y z
#
# Youngs Moduli (GPa) = 86.27249 132.70756 104.70546
#
# Poissons Ratio (x) = 0.26658 0.43088
# Poissons Ratio (y) = 0.17330 0.27786
# Poissons Ratio (z) = 0.35502 0.35217
#
# Static dielectric constant tensor:
#      x y z
#    x 3.613630 0.000000 0.011900 
#    y 0.000000 3.721210 0.000000 
#    z 0.011900 0.000000 3.689820 
# 
# 
# High freq. dielectric constant tensor:
#      x y z
#    x 1.734380 0.000000 -0.000810 
#    y 0.000000 1.741590 0.000000 
#    z -0.000810 0.000000 1.745700 
# 
# From -- ./inp_files/45116.got.cif
#   From: 2010.06.25/outbox.ucp.g09.slc.cvg/sg10_23_cif.got.tgz:45116.got - 2010.06.28 13:37:52.
