data_PCOD8068326
_publ_section_title
;
Structure prediction by ZEFSAII (Michael W. Deem and Ramdas Pophale) SiO2 
 PCOD8068326
Probable space group: P 21/M
;
_chemical_formula_sum "Si O2"
_cell_formula_units_Z 28
_cell_length_a 22.633766
_cell_length_b 8.942638
_cell_length_c 16.816368
_cell_angle_alpha 90.000000
_cell_angle_beta 24.600747
_cell_angle_gamma 90.000000
_cell_volume 1416.946375
_symmetry_space_group_name_H-M "P 21/M"
_symmetry_group_IT_number 11
_symmetry_cell_setting 'monoclinic'
loop_
_space_group_symop_operation_xyz
x,y,z
-x,1/2+y,-z
-x,-y,-z
x,1/2-y,z
loop_
_atom_site_type_symbol
_atom_site_label
_atom_site_fract_x
_atom_site_fract_y
_atom_site_fract_z
Si Si1 0.575211 0.576970 0.834685
Si Si2 0.658668 0.426219 0.442837
Si Si3 0.887216 0.919898 0.414659
Si Si4 0.781640 0.073953 0.135674
Si Si5 0.930232 0.425114 0.202416
Si Si6 0.800311 0.076982 0.934197
Si Si7 0.450816 0.427551 0.830580
O O1 0.531481 0.750000 0.884915
O O2 0.744961 0.558612 0.640681
O O3 0.526682 0.499695 0.812980
O O4 0.500000 0.500000 0.000000
O O5 0.653979 0.250000 0.458622
O O6 0.654852 0.471112 0.353110
O O7 0.807698 0.485317 0.294488
O O8 0.528992 0.488778 0.654441
O O9 0.894414 0.750000 0.371885
O O10 0.879883 0.037534 0.352899
O O11 0.031798 0.949150 0.288083
O O12 0.801948 0.250000 0.108176
O O13 0.757673 0.016383 0.075143
O O14 0.925612 0.008585 0.996115
O O15 0.956006 0.250000 0.163422
O O16 0.759072 0.250000 0.975194
O O17 0.712020 0.981662 0.977937
O O18 0.455945 0.250000 0.834159
#
# Coordination Sequence:
#
# PCOD8068326 Si02
#       7
#     4   4   4   4   4   4   4
#     4  11  23  41  66  93 116 142 179 227 283 343
#     4   9  18  31  49  75 111 151 190 238 286 326
#     4   9  19  37  60  83 112 150 187 225 278 339
#     4   9  18  33  50  72 109 155 197 238 281 325
#     4  10  17  28  49  78 111 145 188 238 283 329
#     4   9  19  36  56  80 113 154 195 232 272 329
#     4  11  22  38  58  84 117 152 188 233 285 337
#
# _framework density 19.760805000000001
#
# number of rings (size 3 to 8) (size 9 to 14) (size 15 to 20)
#    0.000    2.286    1.429    2.571    0.000    3.429 
#    0.000    2.857    0.000    0.000    0.000    0.000 
#    0.000    0.000    0.000    0.000    0.000    0.000 
#
# Total GULP energy -346994.342931 kJ/mol
# GULP energy per Si atom -12392.655105 kJ/mol
# Density = 1.971583 g / cm^3
# Si number density = 19.760805 Si / 1000 Ang^3
#
#
#
# Elastic Constant Matrix: (Units=GPa)
#
#
# Indices 1 2 3 4 5 6 
#
# 1 72.3429 31.2912 54.5605 0.0000 -17.9507 0.0000
# 2 31.2912 57.7374 35.2935 0.0000 -5.0646 0.0000
# 3 54.5605 35.2935 120.9164 0.0000 2.0305 0.0000
# 4 0.0000 0.0000 0.0000 24.2476 0.0000 -1.9209
# 5 -17.9507 -5.0646 2.0305 0.0000 21.4886 0.0000
# 6 0.0000 0.0000 0.0000 -1.9209 0.0000 29.7122
#
#
#
# Elastic Compliance Matrix: (Units=1/GPa)
#
#
# Indices 1 2 3 4 5 6 
#
# 1 0.034743 -0.007858 -0.013862 0.000000 0.028481 0.000000
# 2 -0.007858 0.023543 -0.003314 0.000000 -0.000702 0.000000
# 3 -0.013862 -0.003314 0.015725 0.000000 -0.013847 0.000000
# 4 0.000000 0.000000 0.000000 0.041453 0.000000 0.002680
# 5 0.028481 -0.000702 -0.013847 0.000000 0.071471 0.000000
# 6 0.000000 0.000000 0.000000 0.002680 0.000000 0.033829
#
#
# Mechanical properties :
#
#
# Convention : Reuss Voigt Hill
#
# Bulk Modulus (GPa) = 41.76544 54.80967 48.28755
# Shear Modulus (GPa) = 17.93313 23.74647 20.83980
#
# Velocity S-wave (km/s) = 3.01576 3.47031 3.25099
# Velocity P-wave (km/s) = 5.77129 6.62225 6.21136
#
# Compressibility (1/GPa) = 0.02394324
#
# Stress axis : x y z
#
# Youngs Moduli (GPa) = 28.78247 42.47594 63.59359
#
# Poissons Ratio (x) = 0.33377 0.88152
# Poissons Ratio (y) = 0.22617 0.21077
# Poissons Ratio (z) = 0.39898 0.14078
#
# Static dielectric constant tensor:
#      x y z
#    x 3.490510 0.000000 -0.035160 
#    y 0.000000 3.433780 0.000000 
#    z -0.035160 0.000000 3.807780 
# 
# 
# High freq. dielectric constant tensor:
#      x y z
#    x 1.753050 0.000000 -0.010860 
#    y 0.000000 1.758130 0.000000 
#    z -0.010860 0.000000 1.770170 
# 
# From -- ./inp_files/51974.got.cif
#   From: 2010.06.25/outbox.cif.g09.slc.cpg/sg11_26_cif.got.tgz:51974.got - 2010.06.27 23:14:04.
