data_PCOD8068783
_publ_section_title
;
Structure prediction by ZEFSAII (Michael W. Deem and Ramdas Pophale) SiO2 
 PCOD8068783
Probable space group: P 21/M
;
_chemical_formula_sum "Si O2"
_cell_formula_units_Z 28
_cell_length_a 16.033351
_cell_length_b 8.666783
_cell_length_c 13.490337
_cell_angle_alpha 90.000000
_cell_angle_beta 114.734309
_cell_angle_gamma 90.000000
_cell_volume 1702.605983
_symmetry_space_group_name_H-M "P 21/M"
_symmetry_group_IT_number 11
_symmetry_cell_setting 'monoclinic'
loop_
_space_group_symop_operation_xyz
x,y,z
-x,1/2+y,-z
-x,-y,-z
x,1/2-y,z
loop_
_atom_site_type_symbol
_atom_site_label
_atom_site_fract_x
_atom_site_fract_y
_atom_site_fract_z
Si Si1 0.048968 0.571455 0.663524
Si Si2 0.496217 0.067382 0.607939
Si Si3 0.311762 0.569047 0.510478
Si Si4 0.858204 0.928524 0.470575
Si Si5 0.680450 0.930483 0.701560
Si Si6 0.035990 0.071991 0.863632
Si Si7 0.128978 0.071845 0.112129
O O1 0.070580 0.750000 0.655219
O O2 0.116861 0.470690 0.629752
O O3 0.067096 0.529626 0.786248
O O4 0.943725 0.532656 0.584412
O O5 0.491041 0.250000 0.606020
O O6 0.500000 0.000000 0.500000
O O7 0.403569 0.997924 0.610244
O O8 0.590714 0.010930 0.706505
O O9 0.322922 0.750000 0.501021
O O10 0.226357 0.532827 0.538003
O O11 0.296271 0.492270 0.395971
O O12 0.830312 0.750000 0.463350
O O13 0.661467 0.750000 0.683371
O O14 0.765124 0.968386 0.815895
O O15 0.038018 0.250000 0.833660
O O16 0.107398 0.034168 0.987067
O O17 0.933245 0.030685 0.846652
O O18 0.107127 0.250000 0.125562
#
# Coordination Sequence:
#
# PCOD8068783 Si02
#       7
#     4   4   4   4   4   4   4
#     4  10  20  33  48  67  92 121 152 188 228 267
#     4  10  18  29  44  64  90 119 151 185 225 270
#     4  11  20  30  45  67  94 122 152 185 225 271
#     4  10  20  33  48  67  91 120 154 188 224 267
#     4  10  18  30  46  65  92 123 154 188 226 267
#     4  10  19  31  47  67  92 122 155 190 226 265
#     4   9  19  32  46  66  92 123 156 188 225 268
#
# _framework density 16.445378000000002
#
# number of rings (size 3 to 8) (size 9 to 14) (size 15 to 20)
#    0.000    2.000    0.000    6.857    0.000    6.857 
#    0.000    0.000    0.000    0.000    0.000    1.000 
#    0.000    0.000    0.000    0.000    0.000    0.000 
#
# Total GULP energy -347231.405239 kJ/mol
# GULP energy per Si atom -12401.121616 kJ/mol
# Density = 1.640795 g / cm^3
# Si number density = 16.445378 Si / 1000 Ang^3
#
#
#
# Elastic Constant Matrix: (Units=GPa)
#
#
# Indices 1 2 3 4 5 6 
#
# 1 100.4258 35.9547 41.8026 0.0000 15.4953 0.0000
# 2 35.9547 78.7853 23.8081 0.0000 9.1417 0.0000
# 3 41.8026 23.8081 75.2716 0.0000 5.7554 0.0000
# 4 0.0000 0.0000 0.0000 22.2051 0.0000 -0.7013
# 5 15.4953 9.1417 5.7554 0.0000 24.6694 0.0000
# 6 0.0000 0.0000 0.0000 -0.7013 0.0000 31.4017
#
#
#
# Elastic Compliance Matrix: (Units=1/GPa)
#
#
# Indices 1 2 3 4 5 6 
#
# 1 0.015214 -0.004190 -0.006630 0.000000 -0.006456 0.000000
# 2 -0.004190 0.015638 -0.002420 0.000000 -0.002598 0.000000
# 3 -0.006630 -0.002420 0.017661 0.000000 0.000941 0.000000
# 4 0.000000 0.000000 0.000000 0.045067 0.000000 0.001007
# 5 -0.006456 -0.002598 0.000941 0.000000 0.045335 0.000000
# 6 0.000000 0.000000 0.000000 0.001007 0.000000 0.031868
#
#
# Mechanical properties :
#
#
# Convention : Reuss Voigt Hill
#
# Bulk Modulus (GPa) = 45.39052 50.84596 48.11824
# Shear Modulus (GPa) = 24.43708 25.84972 25.14340
#
# Velocity S-wave (km/s) = 3.85899 3.96896 3.91436
# Velocity P-wave (km/s) = 6.89322 7.21032 7.05355
#
# Compressibility (1/GPa) = 0.02203103
#
# Stress axis : x y z
#
# Youngs Moduli (GPa) = 65.72978 63.94702 56.62236
#
# Poissons Ratio (x) = 0.26796 0.37541
# Poissons Ratio (y) = 0.27543 0.13705
# Poissons Ratio (z) = 0.43579 0.15478
#
# Static dielectric constant tensor:
#      x y z
#    x 3.343970 0.000000 0.290140 
#    y 0.000000 3.200780 0.000000 
#    z 0.290140 0.000000 2.977330 
# 
# 
# High freq. dielectric constant tensor:
#      x y z
#    x 1.628180 0.000000 0.013910 
#    y 0.000000 1.651970 0.000000 
#    z 0.013910 0.000000 1.600750 
# 
# From -- ./inp_files/37643.got.cif
#   From: 2010.06.25/outbox.cif.g09.slc.cpg/sg11_19_cif.got.tgz:37643.got - 2010.06.27 23:14:04.
