data_PCOD8068468
_publ_section_title
;
Structure prediction by ZEFSAII (Michael W. Deem and Ramdas Pophale) SiO2 
 PCOD8068468
Probable space group: P 21/M
;
_chemical_formula_sum "Si O2"
_cell_formula_units_Z 32
_cell_length_a 28.574592
_cell_length_b 8.949295
_cell_length_c 12.043702
_cell_angle_alpha 90.000000
_cell_angle_beta 32.827296
_cell_angle_gamma 90.000000
_cell_volume 1669.610470
_symmetry_space_group_name_H-M "P 21/M"
_symmetry_group_IT_number 11
_symmetry_cell_setting 'monoclinic'
loop_
_space_group_symop_operation_xyz
x,y,z
-x,1/2+y,-z
-x,-y,-z
x,1/2-y,z
loop_
_atom_site_type_symbol
_atom_site_label
_atom_site_fract_x
_atom_site_fract_y
_atom_site_fract_z
Si Si1 0.750168 0.572219 0.882213
Si Si2 0.086096 0.073369 0.058936
Si Si3 0.403337 0.424676 0.960836
Si Si4 0.254127 0.427232 0.858057
Si Si5 0.910829 0.572500 0.417044
Si Si6 0.348610 0.427712 0.309310
Si Si7 0.596782 0.074941 0.578584
Si Si8 0.847599 0.926812 0.307335
O O1 0.747869 0.750000 0.886864
O O2 0.836381 0.516050 0.648539
O O3 0.665943 0.505671 0.987187
O O4 0.750746 0.512422 0.006661
O O5 0.075150 0.250000 0.088527
O O6 0.167898 0.019688 0.967370
O O7 0.098693 0.018736 0.906714
O O8 0.001090 0.996095 0.277938
O O9 0.384294 0.250000 0.005577
O O10 0.500110 0.458278 0.726287
O O11 0.388736 0.486943 0.114043
O O12 0.263868 0.250000 0.831934
O O13 0.337551 0.496928 0.635094
O O14 0.917731 0.750000 0.404169
O O15 0.889850 0.509510 0.335603
O O16 0.356656 0.250000 0.309050
O O17 0.399246 0.508834 0.306257
O O18 0.249976 0.483066 0.510349
O O19 0.616206 0.250000 0.544328
O O20 0.846041 0.750000 0.317230
#
# Coordination Sequence:
#
# PCOD8068468 Si02
#       8
#     4   4   4   4   4   4   4   4
#     4   9  18  35  58  80 102 137 188 227 254 310
#     4  10  20  34  51  76 108 140 174 215 264 318
#     4   9  18  33  56  83 110 139 174 220 270 313
#     4  10  21  38  58  76 101 145 190 220 256 315
#     4  10  19  33  56  82 103 133 177 222 264 312
#     4  10  17  33  59  80 105 144 179 210 259 326
#     4  11  22  34  52  83 115 139 171 223 274 312
#     4   9  16  30  54  78 103 136 174 212 257 314
#
# _framework density 19.166146999999999
#
# number of rings (size 3 to 8) (size 9 to 14) (size 15 to 20)
#    0.000    2.250    2.500    1.125    0.000    1.500 
#    0.000    1.875    0.000    3.000    0.000    0.000 
#    0.000    0.000    0.000    0.000    0.000    0.000 
#
# Total GULP energy -396788.940709 kJ/mol
# GULP energy per Si atom -12399.654397 kJ/mol
# Density = 1.912252 g / cm^3
# Si number density = 19.166147 Si / 1000 Ang^3
#
#
#
# Elastic Constant Matrix: (Units=GPa)
#
#
# Indices 1 2 3 4 5 6 
#
# 1 125.3573 25.3848 96.2436 0.0000 12.5887 0.0000
# 2 25.3848 23.9138 27.8022 0.0000 -2.6093 0.0000
# 3 96.2436 27.8022 143.0107 0.0000 -5.3470 0.0000
# 4 0.0000 0.0000 0.0000 23.0482 0.0000 -4.8689
# 5 12.5887 -2.6093 -5.3470 0.0000 36.3851 0.0000
# 6 0.0000 0.0000 0.0000 -4.8689 0.0000 11.6868
#
#
#
# Elastic Compliance Matrix: (Units=1/GPa)
#
#
# Indices 1 2 3 4 5 6 
#
# 1 0.019843 -0.007938 -0.012156 0.000000 -0.009221 0.000000
# 2 -0.007938 0.057403 -0.005592 0.000000 0.006041 0.000000
# 3 -0.012156 -0.005592 0.016493 0.000000 0.006228 0.000000
# 4 0.000000 0.000000 0.000000 0.047574 0.000000 0.019820
# 5 -0.009221 0.006041 0.006228 0.000000 0.032023 0.000000
# 6 0.000000 0.000000 0.000000 0.019820 0.000000 0.093824
#
#
# Mechanical properties :
#
#
# Convention : Reuss Voigt Hill
#
# Bulk Modulus (GPa) = 23.60218 65.68257 44.64238
# Shear Modulus (GPa) = 15.03065 23.74741 19.38903
#
# Velocity S-wave (km/s) = 2.80345 3.52380 3.18406
# Velocity P-wave (km/s) = 4.77706 7.13448 6.07129
#
# Compressibility (1/GPa) = 0.04236897
#
# Stress axis : x y z
#
# Youngs Moduli (GPa) = 50.39506 17.42066 60.63169
#
# Poissons Ratio (x) = 0.13828 0.73702
# Poissons Ratio (y) = 0.40002 0.33904
# Poissons Ratio (z) = 0.61259 0.09741
#
# Static dielectric constant tensor:
#      x y z
#    x 3.747130 0.000000 0.026140 
#    y 0.000000 3.008920 0.000000 
#    z 0.026140 0.000000 3.605390 
# 
# 
# High freq. dielectric constant tensor:
#      x y z
#    x 1.752380 0.000000 -0.005970 
#    y 0.000000 1.697180 0.000000 
#    z -0.005970 0.000000 1.757930 
# 
# From -- ./inp_files/41227.got.cif
#   From: 2010.06.25/outbox.cif.g09.slc.cpg/sg11_21_cif.got.tgz:41227.got - 2010.06.27 23:14:04.
