data_PCOD8068097
_publ_section_title
;
Structure prediction by ZEFSAII (Michael W. Deem and Ramdas Pophale) SiO2 
 PCOD8068097
Probable space group: P 2/M
;
_chemical_formula_sum "Si O2"
_cell_formula_units_Z 32
_cell_length_a 21.000000
_cell_length_b 9.000000
_cell_length_c 27.000000
_cell_angle_alpha 90.000000
_cell_angle_beta 20.000000
_cell_angle_gamma 90.000000
_cell_volume 1745.328791
_symmetry_space_group_name_H-M "P 2/M"
_symmetry_group_IT_number 10
_symmetry_cell_setting 'monoclinic'
loop_
_space_group_symop_operation_xyz
x,y,z
-x,y,-z
-x,-y,-z
x,-y,z
loop_
_atom_site_type_symbol
_atom_site_label
_atom_site_fract_x
_atom_site_fract_y
_atom_site_fract_z
Si Si1 0.789340 0.324392 0.646016
Si Si2 0.517988 0.324464 0.046210
Si Si3 0.252990 0.677397 0.537997
Si Si4 0.136044 0.823005 0.152040
Si Si5 0.933684 0.824381 0.101388
Si Si6 0.603555 0.324359 0.677705
Si Si7 0.483766 0.823896 0.570020
Si Si8 0.214021 0.824544 0.981325
O O1 0.797196 0.500000 0.638713
O O2 0.658788 0.277598 0.789046
O O3 0.717226 0.268143 0.644100
O O4 0.000000 0.260996 0.500000
O O5 0.553594 0.500000 0.025391
O O6 0.500000 0.284527 0.000000
O O7 0.693474 0.235941 0.939534
O O8 0.250961 0.500000 0.545451
O O9 0.312931 0.721273 0.437497
O O10 0.379326 0.743971 0.490527
O O11 0.047954 0.743420 0.693738
O O12 0.119117 0.000000 0.170798
O O13 0.161435 0.779294 0.075784
O O14 0.721921 0.775429 0.263665
O O15 0.950973 0.000000 0.087229
O O16 0.000000 0.757100 0.000000
O O17 0.055912 0.766534 0.058575
O O18 0.584399 0.500000 0.694723
O O19 0.402069 0.252969 0.827411
O O20 0.500000 0.775316 0.500000
O O21 0.520879 0.000000 0.547299
O O22 0.241508 0.000000 0.957081
#
# Coordination Sequence:
#
# PCOD8068097 Si02
#       8
#     4   4   4   4   4   4   4   4
#     4   9  18  34  58  85 114 149 188 233 283 339
#     4  10  21  37  62  90 116 150 195 242 291 347
#     4  11  24  38  57  86 120 156 199 245 292 348
#     4  11  23  39  59  84 118 158 199 241 291 346
#     4   9  17  30  52  80 106 139 183 231 280 337
#     4  10  21  37  58  85 117 151 193 242 291 345
#     4  10  20  37  59  81 111 151 197 243 293 350
#     4  10  20  36  59  84 112 148 193 240 289 348
#
# _framework density 18.334654
#
# number of rings (size 3 to 8) (size 9 to 14) (size 15 to 20)
#    0.000    2.000    1.250    2.250    1.750    5.000 
#    0.000    0.625    0.000    3.000    0.000    0.000 
#    0.000    0.000    0.000    0.000    0.000    0.000 
#
# Total GULP energy -396539.469758 kJ/mol
# GULP energy per Si atom -12391.858430 kJ/mol
# Density = 1.829292 g / cm^3
# Si number density = 18.334654 Si / 1000 Ang^3
#
#
#
# Elastic Constant Matrix: (Units=GPa)
#
#
# Indices 1 2 3 4 5 6 
#
# 1 209.9092 36.8878 88.7433 0.0000 10.3734 0.0000
# 2 36.8878 50.0178 37.8951 0.0000 1.6806 0.0000
# 3 88.7433 37.8951 173.9519 0.0000 7.0674 0.0000
# 4 0.0000 0.0000 0.0000 29.4968 0.0000 -4.3984
# 5 10.3734 1.6806 7.0674 0.0000 51.2115 0.0000
# 6 0.0000 0.0000 0.0000 -4.3984 0.0000 33.1603
#
#
#
# Elastic Compliance Matrix: (Units=1/GPa)
#
#
# Indices 1 2 3 4 5 6 
#
# 1 0.006395 -0.002685 -0.002643 0.000000 -0.000842 0.000000
# 2 -0.002685 0.025073 -0.004104 0.000000 0.000287 0.000000
# 3 -0.002643 -0.004104 0.008009 0.000000 -0.000435 0.000000
# 4 0.000000 0.000000 0.000000 0.034586 0.000000 0.004588
# 5 -0.000842 0.000287 -0.000435 0.000000 0.019748 0.000000
# 6 0.000000 0.000000 0.000000 0.004588 0.000000 0.030765
#
#
# Mechanical properties :
#
#
# Convention : Reuss Voigt Hill
#
# Bulk Modulus (GPa) = 48.51563 84.54792 66.53178
# Shear Modulus (GPa) = 33.26428 40.79722 37.03075
#
# Velocity S-wave (km/s) = 4.26406 4.72226 4.49900
# Velocity P-wave (km/s) = 7.12472 8.71475 7.95953
#
# Compressibility (1/GPa) = 0.02061191
#
# Stress axis : x y z
#
# Youngs Moduli (GPa) = 156.37264 39.88385 124.86152
#
# Poissons Ratio (x) = 0.10710 0.33004
# Poissons Ratio (y) = 0.41991 0.51241
# Poissons Ratio (z) = 0.41333 0.16368
#
# Static dielectric constant tensor:
#      x y z
#    x 4.166680 0.000000 0.164000 
#    y 0.000000 3.211870 0.000000 
#    z 0.164000 0.000000 3.740950 
# 
# 
# High freq. dielectric constant tensor:
#      x y z
#    x 1.759520 0.000000 0.007920 
#    y 0.000000 1.689680 0.000000 
#    z 0.007920 0.000000 1.736420 
# 
# From -- ./inp_files/93683.got.cif
#   From: 2010.06.25/outbox.ucp.g09.slc.cvg/sg10_47_cif.got.tgz:93683.got - 2010.06.28 13:37:52.
