data_PCOD8068860
_publ_section_title
;
Structure prediction by ZEFSAII (Michael W. Deem and Ramdas Pophale) SiO2 
 PCOD8068860
Probable space group: P 21/M
;
_chemical_formula_sum "Si O2"
_cell_formula_units_Z 28
_cell_length_a 15.126259
_cell_length_b 9.007424
_cell_length_c 19.124831
_cell_angle_alpha 90.000000
_cell_angle_beta 142.572573
_cell_angle_gamma 90.000000
_cell_volume 1583.649381
_symmetry_space_group_name_H-M "P 21/M"
_symmetry_group_IT_number 11
_symmetry_cell_setting 'monoclinic'
loop_
_space_group_symop_operation_xyz
x,y,z
-x,1/2+y,-z
-x,-y,-z
x,1/2-y,z
loop_
_atom_site_type_symbol
_atom_site_label
_atom_site_fract_x
_atom_site_fract_y
_atom_site_fract_z
Si Si1 0.721229 0.074827 0.409885
Si Si2 0.571777 0.413614 0.934992
Si Si3 0.118115 0.573539 0.025264
Si Si4 0.995554 0.575251 0.334015
Si Si5 0.856275 0.924230 0.105512
Si Si6 0.561655 0.413252 0.762882
Si Si7 0.743909 0.573921 0.275600
O O1 0.717077 0.250000 0.398726
O O2 0.845221 0.021744 0.542172
O O3 0.565721 0.022238 0.343447
O O4 0.759274 0.004996 0.359523
O O5 0.613403 0.250000 0.990600
O O6 0.557098 0.402886 0.842861
O O7 0.411005 0.464230 0.859808
O O8 0.695176 0.532341 0.032347
O O9 0.099423 0.750000 0.011743
O O10 0.276835 0.529145 0.156180
O O11 0.097860 0.513790 0.934162
O O12 0.000000 0.500000 0.000000
O O13 0.980827 0.750000 0.331651
O O14 0.969827 0.529469 0.237370
O O15 0.870738 0.508414 0.306077
O O16 0.858378 0.750000 0.090298
O O17 0.534198 0.250000 0.713152
O O18 0.754707 0.750000 0.295105
#
# Coordination Sequence:
#
# PCOD8068860 Si02
#       7
#     4   4   4   4   4   4   4
#     4  10  18  29  47  70  95 125 168 210 234 267
#     4   8  15  28  45  65  92 125 160 201 243 281
#     4  10  20  35  56  80 101 119 145 186 234 286
#     4   9  19  32  45  65  96 133 166 200 242 279
#     4  10  19  32  49  69  97 130 159 190 237 291
#     4   8  16  31  49  70  97 125 150 184 236 285
#     4   9  17  31  47  63  91 130 168 206 247 281
#
# _framework density 17.680681
#
# number of rings (size 3 to 8) (size 9 to 14) (size 15 to 20)
#    0.000    2.857    0.000    3.429    0.000    6.286 
#    0.000    5.000    0.000    0.857    0.000    0.000 
#    0.000    0.000    0.000    0.000    0.000    0.000 
#
# Total GULP energy -347019.655339 kJ/mol
# GULP energy per Si atom -12393.559119 kJ/mol
# Density = 1.764044 g / cm^3
# Si number density = 17.680681 Si / 1000 Ang^3
#
#
#
# Elastic Constant Matrix: (Units=GPa)
#
#
# Indices 1 2 3 4 5 6 
#
# 1 105.4143 42.4473 65.8595 0.0000 23.5675 0.0000
# 2 42.4473 69.9690 47.0942 0.0000 6.1482 0.0000
# 3 65.8595 47.0942 116.4662 0.0000 13.2566 0.0000
# 4 0.0000 0.0000 0.0000 24.9202 0.0000 5.3535
# 5 23.5675 6.1482 13.2566 0.0000 23.0828 0.0000
# 6 0.0000 0.0000 0.0000 5.3535 0.0000 23.2674
#
#
#
# Elastic Compliance Matrix: (Units=1/GPa)
#
#
# Indices 1 2 3 4 5 6 
#
# 1 0.019364 -0.005794 -0.006989 0.000000 -0.014213 0.000000
# 2 -0.005794 0.021381 -0.005772 0.000000 0.003535 0.000000
# 3 -0.006989 -0.005772 0.014856 0.000000 0.000141 0.000000
# 4 0.000000 0.000000 0.000000 0.042215 0.000000 -0.009713
# 5 -0.014213 0.003535 0.000141 0.000000 0.056811 0.000000
# 6 0.000000 0.000000 0.000000 -0.009713 0.000000 0.045213
#
#
# Mechanical properties :
#
#
# Convention : Reuss Voigt Hill
#
# Bulk Modulus (GPa) = 54.07948 66.96128 60.52038
# Shear Modulus (GPa) = 20.56652 23.35065 21.95859
#
# Velocity S-wave (km/s) = 3.41430 3.63807 3.52796
# Velocity P-wave (km/s) = 6.79680 7.45669 7.13437
#
# Compressibility (1/GPa) = 0.01849130
#
# Stress axis : x y z
#
# Youngs Moduli (GPa) = 51.64305 46.77027 67.31206
#
# Poissons Ratio (x) = 0.27099 0.47046
# Poissons Ratio (y) = 0.29922 0.38850
# Poissons Ratio (z) = 0.36094 0.26994
#
# Static dielectric constant tensor:
#      x y z
#    x 3.272230 0.000000 0.390730 
#    y 0.000000 3.220230 0.000000 
#    z 0.390730 0.000000 3.521330 
# 
# 
# High freq. dielectric constant tensor:
#      x y z
#    x 1.660390 0.000000 0.022760 
#    y 0.000000 1.676760 0.000000 
#    z 0.022760 0.000000 1.677340 
# 
# From -- ./inp_files/60138.got.cif
#   From: 2010.06.25/outbox.cif.g09.slc.cpg/sg11_31_cif.got.tgz:60138.got - 2010.06.27 23:14:04.
