data_PCOD8068028
_publ_section_title
;
Structure prediction by ZEFSAII (Michael W. Deem and Ramdas Pophale) SiO2 
 PCOD8068028
Probable space group: P 2/M
;
_chemical_formula_sum "Si O2"
_cell_formula_units_Z 24
_cell_length_a 24.057188
_cell_length_b 9.240742
_cell_length_c 18.105927
_cell_angle_alpha 90.000000
_cell_angle_beta 160.846822
_cell_angle_gamma 90.000000
_cell_volume 1320.601579
_symmetry_space_group_name_H-M "P 2/M"
_symmetry_group_IT_number 10
_symmetry_cell_setting 'monoclinic'
loop_
_space_group_symop_operation_xyz
x,y,z
-x,y,-z
-x,-y,-z
x,-y,z
loop_
_atom_site_type_symbol
_atom_site_label
_atom_site_fract_x
_atom_site_fract_y
_atom_site_fract_z
Si Si1 0.663537 0.668394 0.497638
Si Si2 0.000563 0.327734 0.666158
Si Si3 0.330626 0.327734 0.996218
Si Si4 0.995325 0.331606 0.161221
Si Si5 0.173903 0.163329 0.173905
Si Si6 0.334608 0.327286 0.834606
O O1 0.649987 0.500000 0.500980
O O2 0.495080 0.727161 0.246632
O O3 0.684011 0.755134 0.599747
O O4 0.818058 0.697430 0.636113
O O5 0.997136 0.500000 0.660427
O O6 0.831612 0.266783 0.415315
O O7 0.008039 0.272840 0.759597
O O8 0.163153 0.267749 0.826306
O O9 0.329446 0.500000 0.992735
O O10 0.335787 0.266783 0.919485
O O11 0.947992 0.500000 0.096995
O O12 0.852530 0.244864 0.936789
O O13 0.234126 0.000000 0.234128
O O14 0.000000 0.167243 0.000000
O O15 0.334075 0.500000 0.834074
O O16 0.500000 0.268181 0.000000
#
# Coordination Sequence:
#
# PCOD8068028 Si02
#       6
#     4   4   4   4   4   4
#     4   9  16  27  44  65  88 115 148 184 220 259
#     4   9  16  25  38  59  88 119 148 179 217 260
#     4   9  16  25  38  59  88 119 148 179 217 260
#     4   9  16  27  44  65  88 115 148 184 220 259
#     4   9  17  29  46  67  88 112 146 187 226 262
#     4   9  15  23  37  59  88 119 148 179 216 258
#
# _framework density 18.173535000000001
#
# number of rings (size 3 to 8) (size 9 to 14) (size 15 to 20)
#    0.000    3.000    0.000    2.000    0.000    8.000 
#    0.000    0.833    0.000    6.000    0.000    1.167 
#    0.000    9.333    0.000    0.000    0.000    0.000 
#
# Total GULP energy -297577.136051 kJ/mol
# GULP energy per Si atom -12399.047335 kJ/mol
# Density = 1.813217 g / cm^3
# Si number density = 18.173535 Si / 1000 Ang^3
#
#
#
# Elastic Constant Matrix: (Units=GPa)
#
#
# Indices 1 2 3 4 5 6 
#
# 1 133.4927 34.5686 111.2437 0.0000 -21.2419 0.0000
# 2 34.5686 40.1057 38.5471 0.0000 -10.8974 0.0000
# 3 111.2437 38.5471 152.0424 0.0000 -29.3463 0.0000
# 4 0.0000 0.0000 0.0000 3.6952 0.0000 1.8824
# 5 -21.2419 -10.8974 -29.3463 0.0000 37.1476 0.0000
# 6 0.0000 0.0000 0.0000 1.8824 0.0000 4.3786
#
#
#
# Elastic Compliance Matrix: (Units=1/GPa)
#
#
# Indices 1 2 3 4 5 6 
#
# 1 0.019710 -0.004205 -0.013472 0.000000 -0.000606 0.000000
# 2 -0.004205 0.034282 -0.004882 0.000000 0.003795 0.000000
# 3 -0.013472 -0.004882 0.018771 0.000000 0.005693 0.000000
# 4 0.000000 0.000000 0.000000 0.346511 0.000000 -0.148969
# 5 -0.000606 0.003795 0.005693 0.000000 0.032184 0.000000
# 6 0.000000 0.000000 0.000000 -0.148969 0.000000 0.292426
#
#
# Mechanical properties :
#
#
# Convention : Reuss Voigt Hill
#
# Bulk Modulus (GPa) = 36.17352 77.15107 56.66229
# Shear Modulus (GPa) = 6.26395 18.46305 12.36350
#
# Velocity S-wave (km/s) = 1.85855 3.19082 2.61109
# Velocity P-wave (km/s) = 4.95513 7.49131 6.35111
#
# Compressibility (1/GPa) = 0.02764453
#
# Stress axis : x y z
#
# Youngs Moduli (GPa) = 50.73485 29.16943 53.27447
#
# Poissons Ratio (x) = 0.12266 0.71772
# Poissons Ratio (y) = 0.21334 0.26010
# Poissons Ratio (z) = 0.68350 0.14242
#
# Static dielectric constant tensor:
#      x y z
#    x 3.431500 0.000000 -0.160220 
#    y 0.000000 2.806400 0.000000 
#    z -0.160220 0.000000 3.490220 
# 
# 
# High freq. dielectric constant tensor:
#      x y z
#    x 1.705050 0.000000 -0.016430 
#    y 0.000000 1.637740 0.000000 
#    z -0.016430 0.000000 1.711070 
# 
# From -- ./inp_files/31229.got.cif
#   From: 2010.06.25/outbox.cif.g09.slc.cpg/sg10_16_cif.got.tgz:31229.got - 2010.06.27 22:07:45.
