data_PCOD8068443
_publ_section_title
;
Structure prediction by ZEFSAII (Michael W. Deem and Ramdas Pophale) SiO2 
 PCOD8068443
Probable space group: P 21/M
;
_chemical_formula_sum "Si O2"
_cell_formula_units_Z 24
_cell_length_a 9.071211
_cell_length_b 14.674289
_cell_length_c 16.305852
_cell_angle_alpha 90.000000
_cell_angle_beta 143.554063
_cell_angle_gamma 90.000000
_cell_volume 1289.433899
_symmetry_space_group_name_H-M "P 21/M"
_symmetry_group_IT_number 11
_symmetry_cell_setting 'monoclinic'
loop_
_space_group_symop_operation_xyz
x,y,z
-x,1/2+y,-z
-x,-y,-z
x,1/2-y,z
loop_
_atom_site_type_symbol
_atom_site_label
_atom_site_fract_x
_atom_site_fract_y
_atom_site_fract_z
Si Si1 0.878340 0.100544 0.028430
Si Si2 0.723915 0.522729 0.351673
Si Si3 0.621113 0.650518 0.817095
Si Si4 0.367205 0.350713 0.843338
Si Si5 0.134283 0.401790 0.909177
Si Si6 0.344264 0.855175 0.240115
O O1 0.154858 0.141698 0.149437
O O2 0.880009 0.007159 0.077504
O O3 0.667652 0.160721 0.979096
O O4 0.788880 0.089336 0.894055
O O5 0.582717 0.426927 0.284326
O O6 0.719475 0.576584 0.263524
O O7 0.601192 0.588985 0.366840
O O8 0.000000 0.500000 0.500000
O O9 0.498761 0.750000 0.747149
O O10 0.727240 0.651838 0.956705
O O11 0.254617 0.250000 0.775953
O O12 0.278614 0.387730 0.890282
O O13 0.850633 0.362843 0.772293
O O14 0.402442 0.750000 0.244160
#
# Coordination Sequence:
#
# PCOD8068443 Si02
#       6
#     4   4   4   4   4   4
#     4  10  17  32  55  82 113 144 169 219 279 330
#     4  11  23  39  55  76 104 152 195 226 260 315
#     4  11  20  34  56  83 111 143 182 226 275 326
#     4  11  22  35  56  87 116 141 174 225 283 334
#     4  11  18  34  57  87 115 137 171 225 288 335
#     4  10  18  34  58  81 109 146 184 222 270 330
#
# _framework density 18.612818999999998
#
# number of rings (size 3 to 8) (size 9 to 14) (size 15 to 20)
#    0.000    1.333    5.000    7.000    0.000    1.333 
#    0.000    0.833    0.000    0.000    0.000    0.000 
#    0.000    0.000    0.000    0.000    0.000    0.000 
#
# Total GULP energy -297351.166544 kJ/mol
# GULP energy per Si atom -12389.631939 kJ/mol
# Density = 1.857046 g / cm^3
# Si number density = 18.612819 Si / 1000 Ang^3
#
#
#
# Elastic Constant Matrix: (Units=GPa)
#
#
# Indices 1 2 3 4 5 6 
#
# 1 137.8369 52.0306 49.6701 0.0000 11.2058 0.0000
# 2 52.0306 159.0218 51.9359 0.0000 9.5681 0.0000
# 3 49.6701 51.9359 67.8841 0.0000 27.8966 0.0000
# 4 0.0000 0.0000 0.0000 4.8964 0.0000 4.3251
# 5 11.2058 9.5681 27.8966 0.0000 25.8233 0.0000
# 6 0.0000 0.0000 0.0000 4.3251 0.0000 23.1816
#
#
#
# Elastic Compliance Matrix: (Units=1/GPa)
#
#
# Indices 1 2 3 4 5 6 
#
# 1 0.010503 -0.000621 -0.009768 0.000000 0.006225 0.000000
# 2 -0.000621 0.009158 -0.009475 0.000000 0.007112 0.000000
# 3 -0.009768 -0.009475 0.046654 0.000000 -0.042650 0.000000
# 4 0.000000 0.000000 0.000000 0.244534 0.000000 -0.045624
# 5 0.006225 0.007112 -0.042650 0.000000 0.079463 0.000000
# 6 0.000000 0.000000 0.000000 -0.045624 0.000000 0.051650
#
#
# Mechanical properties :
#
#
# Convention : Reuss Voigt Hill
#
# Bulk Modulus (GPa) = 37.61120 74.66845 56.13982
# Shear Modulus (GPa) = 10.19260 24.85400 17.52330
#
# Velocity S-wave (km/s) = 2.34265 3.65816 3.07166
# Velocity P-wave (km/s) = 5.25056 7.61883 6.54274
#
# Compressibility (1/GPa) = 0.02658782
#
# Stress axis : x y z
#
# Youngs Moduli (GPa) = 95.20888 109.19283 21.43455
#
# Poissons Ratio (x) = 0.06780 0.20937
# Poissons Ratio (y) = 0.05912 0.20309
# Poissons Ratio (z) = 0.93000 1.03457
#
# Static dielectric constant tensor:
#      x y z
#    x 3.856200 0.000000 0.355800 
#    y 0.000000 3.698170 0.000000 
#    z 0.355800 0.000000 2.915060 
# 
# 
# High freq. dielectric constant tensor:
#      x y z
#    x 1.738050 0.000000 0.027180 
#    y 0.000000 1.748740 0.000000 
#    z 0.027180 0.000000 1.647430 
# 
# From -- ./inp_files/17550.got.cif
#   From: 2010.06.25/outbox.cif.g09.slc.cpg/sg11_9_cif.got.tgz:17550.got - 2010.06.27 23:14:04.
