data_PCOD8068990
_publ_section_title
;
Structure prediction by ZEFSAII (Michael W. Deem and Ramdas Pophale) SiO2 
 PCOD8068990
Probable space group: P 21/M
;
_chemical_formula_sum "Si O2"
_cell_formula_units_Z 28
_cell_length_a 15.991617
_cell_length_b 8.452781
_cell_length_c 13.527226
_cell_angle_alpha 90.000000
_cell_angle_beta 65.312028
_cell_angle_gamma 90.000000
_cell_volume 1661.389670
_symmetry_space_group_name_H-M "P 21/M"
_symmetry_group_IT_number 11
_symmetry_cell_setting 'monoclinic'
loop_
_space_group_symop_operation_xyz
x,y,z
-x,1/2+y,-z
-x,-y,-z
x,1/2-y,z
loop_
_atom_site_type_symbol
_atom_site_label
_atom_site_fract_x
_atom_site_fract_y
_atom_site_fract_z
Si Si1 0.452501 0.067122 0.161419
Si Si2 0.456461 0.933158 0.370320
Si Si3 0.190919 0.565147 0.789379
Si Si4 0.642604 0.432643 0.971624
Si Si5 0.813754 0.933772 0.990621
Si Si6 0.999489 0.562204 0.111104
Si Si7 0.634258 0.565924 0.401676
O O1 0.436313 0.250000 0.145080
O O2 0.433422 0.033879 0.285023
O O3 0.381427 0.966659 0.130623
O O4 0.556763 0.017826 0.082953
O O5 0.454940 0.750000 0.342365
O O6 0.556296 0.986091 0.361652
O O7 0.379091 0.969107 0.490476
O O8 0.204784 0.750000 0.765387
O O9 0.266717 0.470266 0.691253
O O10 0.092165 0.509994 0.793720
O O11 0.201077 0.528012 0.900241
O O12 0.668893 0.250000 0.972046
O O13 0.728507 0.539286 0.960460
O O14 0.824423 0.750000 0.011017
O O15 0.905661 0.996634 0.888326
O O16 0.996433 0.750000 0.117997
O O17 0.000000 0.500000 0.000000
O O18 0.624324 0.750000 0.431213
#
# Coordination Sequence:
#
# PCOD8068990 Si02
#       7
#     4   4   4   4   4   4   4
#     4  10  20  33  49  69  95 126 159 197 237 278
#     4  10  20  33  49  69  95 126 159 197 237 278
#     4  11  20  31  47  69  97 127 159 194 235 281
#     4  10  20  33  49  70  95 125 161 196 234 280
#     4  11  20  31  47  69  97 127 159 194 235 281
#     4  10  18  30  46  66  93 124 157 192 234 280
#     4  10  20  33  49  70  95 125 161 196 234 280
#
# _framework density 16.853362000000001
#
# number of rings (size 3 to 8) (size 9 to 14) (size 15 to 20)
#    0.000    1.714    0.000    8.143    0.000    5.714 
#    0.000    0.000    0.000    0.000    0.000    1.000 
#    0.000    0.000    0.000    0.000    0.000    0.000 
#
# Total GULP energy -347272.391603 kJ/mol
# GULP energy per Si atom -12402.585414 kJ/mol
# Density = 1.681500 g / cm^3
# Si number density = 16.853362 Si / 1000 Ang^3
#
#
#
# Elastic Constant Matrix: (Units=GPa)
#
#
# Indices 1 2 3 4 5 6 
#
# 1 97.8750 14.8161 36.7179 0.0000 -11.3803 0.0000
# 2 14.8161 64.2100 3.0052 0.0000 2.1418 0.0000
# 3 36.7179 3.0052 73.0146 0.0000 -3.8995 0.0000
# 4 0.0000 0.0000 0.0000 25.9199 0.0000 -1.4661
# 5 -11.3803 2.1418 -3.8995 0.0000 25.8213 0.0000
# 6 0.0000 0.0000 0.0000 -1.4661 0.0000 28.9513
#
#
#
# Elastic Compliance Matrix: (Units=1/GPa)
#
#
# Indices 1 2 3 4 5 6 
#
# 1 0.013734 -0.003043 -0.006497 0.000000 0.005324 0.000000
# 2 -0.003043 0.016329 0.000720 0.000000 -0.002587 0.000000
# 3 -0.006497 0.000720 0.016914 0.000000 -0.000369 0.000000
# 4 0.000000 0.000000 0.000000 0.038691 0.000000 0.001959
# 5 0.005324 -0.002587 -0.000369 0.000000 0.041233 0.000000
# 6 0.000000 0.000000 0.000000 0.001959 0.000000 0.034640
#
#
# Mechanical properties :
#
#
# Convention : Reuss Voigt Hill
#
# Bulk Modulus (GPa) = 34.08679 38.24200 36.16440
# Shear Modulus (GPa) = 26.46067 28.17584 27.31826
#
# Velocity S-wave (km/s) = 3.96669 4.09323 4.03046
# Velocity P-wave (km/s) = 6.42253 6.71414 6.56995
#
# Compressibility (1/GPa) = 0.02933688
#
# Stress axis : x y z
#
# Youngs Moduli (GPa) = 72.81108 61.24238 59.12316
#
# Poissons Ratio (x) = 0.18634 0.38413
# Poissons Ratio (y) = 0.22154 -0.04256
# Poissons Ratio (z) = 0.47306 -0.04409
#
# Static dielectric constant tensor:
#      x y z
#    x 3.452610 0.000000 -0.258200 
#    y 0.000000 3.216830 0.000000 
#    z -0.258200 0.000000 2.933540 
# 
# 
# High freq. dielectric constant tensor:
#      x y z
#    x 1.644130 0.000000 -0.013990 
#    y 0.000000 1.670200 0.000000 
#    z -0.013990 0.000000 1.616010 
# 
# From -- ./inp_files/37480.got.cif
#   From: 2010.06.25/outbox.cif.g09.slc.cpg/sg11_19_cif.got.tgz:37480.got - 2010.06.27 23:14:04.
