data_PCOD8068224
_publ_section_title
;
Structure prediction by ZEFSAII (Michael W. Deem and Ramdas Pophale) SiO2 
 PCOD8068224
Probable space group: P 21/M
;
_chemical_formula_sum "Si O2"
_cell_formula_units_Z 32
_cell_length_a 24.247342
_cell_length_b 9.016602
_cell_length_c 12.085400
_cell_angle_alpha 90.000000
_cell_angle_beta 130.755598
_cell_angle_gamma 90.000000
_cell_volume 2001.480645
_symmetry_space_group_name_H-M "P 21/M"
_symmetry_group_IT_number 11
_symmetry_cell_setting 'monoclinic'
loop_
_space_group_symop_operation_xyz
x,y,z
-x,1/2+y,-z
-x,-y,-z
x,1/2-y,z
loop_
_atom_site_type_symbol
_atom_site_label
_atom_site_fract_x
_atom_site_fract_y
_atom_site_fract_z
Si Si1 0.625790 0.084563 0.847154
Si Si2 0.010776 0.076695 0.341611
Si Si3 0.964899 0.574637 0.059599
Si Si4 0.474690 0.076533 0.578047
Si Si5 0.337103 0.917326 0.361888
Si Si6 0.799379 0.921922 0.879687
Si Si7 0.111488 0.577029 0.639938
Si Si8 0.761910 0.577213 0.080235
O O1 0.644731 0.250000 0.913439
O O2 0.539523 0.050475 0.753360
O O3 0.640428 0.072593 0.736076
O O4 0.677015 0.969727 0.980117
O O5 0.022887 0.250000 0.335509
O O6 0.939328 0.046290 0.320909
O O7 0.081238 0.011020 0.494926
O O8 0.003223 0.991781 0.217108
O O9 0.977433 0.750000 0.074836
O O10 0.879749 0.534282 0.946584
O O11 0.000000 0.500000 0.000000
O O12 0.463143 0.250000 0.540538
O O13 0.500000 0.000000 0.500000
O O14 0.397792 0.004426 0.514822
O O15 0.333589 0.750000 0.400992
O O16 0.257498 0.989743 0.271838
O O17 0.782477 0.750000 0.841235
O O18 0.790909 0.965696 0.996892
O O19 0.115502 0.750000 0.616325
O O20 0.191480 0.514534 0.770150
O O21 0.770067 0.750000 0.116512
#
# Coordination Sequence:
#
# PCOD8068224 Si02
#       8
#     4   4   4   4   4   4   4   4
#     4   8  15  24  33  50  76 107 140 173 210 254
#     4  10  20  33  49  68  88 114 147 184 226 270
#     4  11  22  36  51  68  90 117 150 188 231 274
#     4   9  15  23  34  49  72 103 139 175 211 252
#     4   9  16  24  37  54  74 102 138 178 216 255
#     4   9  18  30  43  59  82 110 144 183 220 263
#     4  10  19  30  47  67  90 116 144 184 226 268
#     4  10  17  26  41  61  84 112 145 182 220 260
#
# _framework density 15.988163
#
# number of rings (size 3 to 8) (size 9 to 14) (size 15 to 20)
#    0.000    2.500    1.250    3.000    0.000    6.000 
#    0.000    0.000    0.000    0.000    0.000    0.000 
#    0.000    0.000    0.000    1.125    0.000   14.875 
#
# Total GULP energy -396698.638290 kJ/mol
# GULP energy per Si atom -12396.832447 kJ/mol
# Density = 1.595177 g / cm^3
# Si number density = 15.988163 Si / 1000 Ang^3
#
#
#
# Elastic Constant Matrix: (Units=GPa)
#
#
# Indices 1 2 3 4 5 6 
#
# 1 48.1737 37.5971 51.2823 0.0000 12.8156 0.0000
# 2 37.5971 99.3596 63.1877 0.0000 16.6871 0.0000
# 3 51.2823 63.1877 108.1598 0.0000 28.9201 0.0000
# 4 0.0000 0.0000 0.0000 32.1478 0.0000 7.1392
# 5 12.8156 16.6871 28.9201 0.0000 26.0738 0.0000
# 6 0.0000 0.0000 0.0000 7.1392 0.0000 19.4581
#
#
#
# Elastic Compliance Matrix: (Units=1/GPa)
#
#
# Indices 1 2 3 4 5 6 
#
# 1 0.043700 -0.005338 -0.018156 0.000000 0.002075 0.000000
# 2 -0.005338 0.016667 -0.007187 0.000000 -0.000072 0.000000
# 3 -0.018156 -0.007187 0.026210 0.000000 -0.015547 0.000000
# 4 0.000000 0.000000 0.000000 0.033866 0.000000 -0.012425
# 5 0.002075 -0.000072 -0.015547 0.000000 0.054623 0.000000
# 6 0.000000 0.000000 0.000000 -0.012425 0.000000 0.055951
#
#
# Mechanical properties :
#
#
# Convention : Reuss Voigt Hill
#
# Bulk Modulus (GPa) = 39.65936 62.20302 50.93119
# Shear Modulus (GPa) = 16.62332 22.44433 19.53382
#
# Velocity S-wave (km/s) = 3.22798 3.75081 3.49917
# Velocity P-wave (km/s) = 6.22514 7.59923 6.94624
#
# Compressibility (1/GPa) = 0.02521473
#
# Stress axis : x y z
#
# Youngs Moduli (GPa) = 22.88345 59.99968 38.15408
#
# Poissons Ratio (x) = 0.32028 0.69272
# Poissons Ratio (y) = 0.12215 0.27420
# Poissons Ratio (z) = 0.41547 0.43120
#
# Static dielectric constant tensor:
#      x y z
#    x 2.238990 0.000000 0.421040 
#    y 0.000000 3.171270 0.000000 
#    z 0.421040 0.000000 3.216780 
# 
# 
# High freq. dielectric constant tensor:
#      x y z
#    x 1.554680 0.000000 0.046630 
#    y 0.000000 1.631980 0.000000 
#    z 0.046630 0.000000 1.608060 
# 
# From -- ./inp_files/43808.got.cif
#   From: 2010.06.25/outbox.cif.g09.slc.cpg/sg11_22_cif.got.tgz:43808.got - 2010.06.27 23:14:04.
