data_PCOD8068115
_publ_section_title
;
Structure prediction by ZEFSAII (Michael W. Deem and Ramdas Pophale) SiO2 
 PCOD8068115
Probable space group: P 2/M
;
_chemical_formula_sum "Si O2"
_cell_formula_units_Z 32
_cell_length_a 15.000000
_cell_length_b 9.000000
_cell_length_c 24.000000
_cell_angle_alpha 90.000000
_cell_angle_beta 150.000000
_cell_angle_gamma 90.000000
_cell_volume 1620.000000
_symmetry_space_group_name_H-M "P 2/M"
_symmetry_group_IT_number 10
_symmetry_cell_setting 'monoclinic'
loop_
_space_group_symop_operation_xyz
x,y,z
-x,y,-z
-x,-y,-z
x,-y,z
loop_
_atom_site_type_symbol
_atom_site_label
_atom_site_fract_x
_atom_site_fract_y
_atom_site_fract_z
Si Si1 0.709954 0.324955 0.218662
Si Si2 0.040553 0.176761 0.457128
Si Si3 0.674824 0.325213 0.463412
Si Si4 0.647629 0.175865 0.954145
Si Si5 0.808197 0.177867 0.648671
Si Si6 0.715623 0.673367 0.711545
Si Si7 0.814288 0.325587 0.149773
Si Si8 0.022982 0.172920 0.947021
O O1 0.696247 0.500000 0.225283
O O2 0.552656 0.235545 0.165964
O O3 0.711003 0.299517 0.152273
O O4 0.893840 0.258363 0.340660
O O5 0.230963 0.243712 0.538604
O O6 0.000000 0.212614 0.500000
O O7 0.039476 0.000000 0.445975
O O8 0.725435 0.500000 0.490075
O O9 0.733887 0.252453 0.553081
O O10 0.460784 0.302223 0.345971
O O11 0.644577 0.000000 0.965669
O O12 0.693768 0.272398 0.033495
O O13 0.779633 0.206567 0.972508
O O14 0.702841 0.238061 0.646070
O O15 0.013414 0.222927 0.762982
O O16 0.788858 0.000000 0.635771
O O17 0.741737 0.500000 0.711691
O O18 0.883291 0.729970 0.837333
O O19 0.862330 0.500000 0.169184
O O20 0.977007 0.000000 0.913610
O O21 0.000000 0.215378 0.000000
#
# Coordination Sequence:
#
# PCOD8068115 Si02
#       8
#     4   4   4   4   4   4   4   4
#     4  11  24  41  64  92 126 167 205 252 313 375
#     4  11  25  44  66  92 123 163 212 264 313 367
#     4  11  24  42  64  94 128 165 206 254 312 372
#     4  11  23  39  63  94 126 164 208 258 309 367
#     4  12  23  37  63  95 127 165 205 251 310 373
#     4  11  24  41  64  93 127 164 206 257 310 373
#     4  11  22  38  62  92 127 164 202 250 310 374
#     4  10  23  43  64  88 122 164 210 259 311 366
#
# _framework density 19.753086
#
# number of rings (size 3 to 8) (size 9 to 14) (size 15 to 20)
#    0.000    1.000    2.500    4.125    0.000    9.250 
#    0.000    3.750    0.000    0.000    0.000    0.000 
#    0.000    0.000    0.000    0.000    0.000    0.000 
#
# Total GULP energy -396779.954718 kJ/mol
# GULP energy per Si atom -12399.373585 kJ/mol
# Density = 1.970813 g / cm^3
# Si number density = 19.753086 Si / 1000 Ang^3
#
#
#
# Elastic Constant Matrix: (Units=GPa)
#
#
# Indices 1 2 3 4 5 6 
#
# 1 179.9739 61.5880 33.3117 0.0000 10.3479 0.0000
# 2 61.5880 139.6072 23.1563 0.0000 3.7996 0.0000
# 3 33.3117 23.1563 50.1141 0.0000 12.7439 0.0000
# 4 0.0000 0.0000 0.0000 33.9522 0.0000 5.2032
# 5 10.3479 3.7996 12.7439 0.0000 43.3748 0.0000
# 6 0.0000 0.0000 0.0000 5.2032 0.0000 42.0793
#
#
#
# Elastic Compliance Matrix: (Units=1/GPa)
#
#
# Indices 1 2 3 4 5 6 
#
# 1 0.007087 -0.002547 -0.003416 0.000000 -0.000464 0.000000
# 2 -0.002547 0.008680 -0.002463 0.000000 0.000571 0.000000
# 3 -0.003416 -0.002463 0.024966 0.000000 -0.006305 0.000000
# 4 0.000000 0.000000 0.000000 0.030022 0.000000 -0.003712
# 5 -0.000464 0.000571 -0.006305 0.000000 0.024968 0.000000
# 6 0.000000 0.000000 0.000000 -0.003712 0.000000 0.024224
#
#
# Mechanical properties :
#
#
# Convention : Reuss Voigt Hill
#
# Bulk Modulus (GPa) = 41.87351 67.31192 54.59271
# Shear Modulus (GPa) = 34.54037 40.65722 37.59879
#
# Velocity S-wave (km/s) = 4.18617 4.54174 4.36758
# Velocity P-wave (km/s) = 6.67906 7.85200 7.28916
#
# Compressibility (1/GPa) = 0.02388145
#
# Stress axis : x y z
#
# Youngs Moduli (GPa) = 141.10433 115.21276 40.05420
#
# Poissons Ratio (x) = 0.29347 0.13682
# Poissons Ratio (y) = 0.35942 0.09864
# Poissons Ratio (z) = 0.48199 0.28372
#
# Static dielectric constant tensor:
#      x y z
#    x 4.184000 0.000000 0.220410 
#    y 0.000000 3.884970 0.000000 
#    z 0.220410 0.000000 3.662050 
# 
# 
# High freq. dielectric constant tensor:
#      x y z
#    x 1.804860 0.000000 0.015650 
#    y 0.000000 1.798910 0.000000 
#    z 0.015650 0.000000 1.769160 
# 
# From -- ./inp_files/89608.got.cif
#   From: 2010.06.25/outbox.ucp.g09.slc.cvg/sg10_45_cif.got.tgz:89608.got - 2010.06.28 13:37:52.
