data_PCOD8068608
_publ_section_title
;
Structure prediction by ZEFSAII (Michael W. Deem and Ramdas Pophale) SiO2 
 PCOD8068608
Probable space group: P 21/M
;
_chemical_formula_sum "Si O2"
_cell_formula_units_Z 32
_cell_length_a 14.378613
_cell_length_b 9.430792
_cell_length_c 15.754701
_cell_angle_alpha 90.000000
_cell_angle_beta 90.000000
_cell_angle_gamma 90.000000
_cell_volume 2136.364372
_symmetry_space_group_name_H-M "P 21/M"
_symmetry_group_IT_number 11
_symmetry_cell_setting 'monoclinic'
loop_
_space_group_symop_operation_xyz
x,y,z
-x,1/2+y,-z
-x,-y,-z
x,1/2-y,z
loop_
_atom_site_type_symbol
_atom_site_label
_atom_site_fract_x
_atom_site_fract_y
_atom_site_fract_z
Si Si1 0.596338 0.916118 0.683847
Si Si2 0.408830 0.410850 0.500000
Si Si3 0.284953 0.417917 0.159489
Si Si4 0.089131 0.086021 0.900512
Si Si5 0.595756 0.581383 0.000000
Si Si6 0.403662 0.083882 0.683847
Si Si7 0.715047 0.917917 0.159489
Si Si8 0.910869 0.586021 0.900512
O O1 0.575095 0.750000 0.699067
O O2 0.643158 0.941979 0.589800
O O3 0.670956 0.972647 0.752161
O O4 0.500000 0.000000 0.694485
O O5 0.500000 0.500000 0.500000
O O6 0.442466 0.250000 0.500000
O O7 0.356842 0.441979 0.589800
O O8 0.280215 0.250000 0.155980
O O9 0.348343 0.471346 0.082341
O O10 0.179493 0.474343 0.149163
O O11 0.070989 0.250000 0.880118
O O12 0.179493 0.025657 0.850837
O O13 0.107034 0.062332 1.000000
O O14 0.000000 0.000000 0.867935
O O15 0.579059 0.750000 0.000000
O O16 0.500000 0.500000 0.000000
O O17 0.651657 0.528654 0.082341
O O18 0.424905 0.250000 0.699067
O O19 0.329044 0.027353 0.752161
O O20 0.719785 0.750000 0.155980
O O21 0.929012 0.750000 0.880118
#
# Coordination Sequence:
#
# PCOD8068608 Si02
#       8
#     4   4   4   4   4   4   4   4
#     4   9  16  26  40  58  80 106 133 161 191 226
#     4   8  14  24  38  56  77 100 130 164 193 220
#     4   9  16  27  42  57  77 106 133 155 190 236
#     4   9  16  28  44  59  75  98 128 163 199 233
#     4  10  18  28  39  54  78 108 135 156 181 222
#     4   9  16  26  40  58  80 106 133 161 191 226
#     4   9  16  27  42  57  77 106 133 155 190 236
#     4   9  16  28  44  59  75  98 128 163 199 233
#
# _framework density 14.978717
#
# number of rings (size 3 to 8) (size 9 to 14) (size 15 to 20)
#    0.000    3.000    1.250    0.750    0.000    0.000 
#    0.000    2.500    0.000    0.000    0.000    0.875 
#    0.000    0.000    0.000    0.000    0.000    0.000 
#
# Total GULP energy -396462.359924 kJ/mol
# GULP energy per Si atom -12389.448748 kJ/mol
# Density = 1.494463 g / cm^3
# Si number density = 14.978717 Si / 1000 Ang^3
#
#
#
# Elastic Constant Matrix: (Units=GPa)
#
#
# Indices 1 2 3 4 5 6 
#
# 1 132.0076 33.5520 72.8758 0.0000 0.0000 0.0000
# 2 33.5520 28.7260 25.7441 0.0000 0.0000 0.0000
# 3 72.8758 25.7441 134.1597 0.0000 0.0000 0.0000
# 4 0.0000 0.0000 0.0000 11.4881 0.0000 0.0000
# 5 0.0000 0.0000 0.0000 0.0000 12.7717 0.0000
# 6 0.0000 0.0000 0.0000 0.0000 0.0000 22.5944
#
#
#
# Elastic Compliance Matrix: (Units=1/GPa)
#
#
# Indices 1 2 3 4 5 6 
#
# 1 0.013102 -0.010779 -0.005049 0.000000 0.000000 0.000000
# 2 -0.010779 0.050909 -0.003914 0.000000 0.000000 0.000000
# 3 -0.005049 -0.003914 0.010947 0.000000 0.000000 0.000000
# 4 0.000000 0.000000 0.000000 0.087047 0.000000 0.000000
# 5 0.000000 0.000000 0.000000 0.000000 0.078298 0.000000
# 6 0.000000 0.000000 0.000000 0.000000 0.000000 0.044259
#
#
# Mechanical properties :
#
#
# Convention : Reuss Voigt Hill
#
# Bulk Modulus (GPa) = 28.18847 62.13744 45.16296
# Shear Modulus (GPa) = 14.88674 20.21895 17.55284
#
# Velocity S-wave (km/s) = 3.15597 3.67801 3.42695
# Velocity P-wave (km/s) = 5.66922 7.72081 6.77314
#
# Compressibility (1/GPa) = 0.03547550
#
# Stress axis : x y z
#
# Youngs Moduli (GPa) = 76.32373 19.64300 91.34621
#
# Poissons Ratio (x) = 0.21172 0.46119
# Poissons Ratio (y) = 0.82266 0.35753
# Poissons Ratio (z) = 0.38534 0.07688
#
# Static dielectric constant tensor:
#      x y z
#    x 2.744760 0.000000 0.000000 
#    y 0.000000 2.699500 0.000000 
#    z 0.000000 0.000000 3.432210 
# 
# 
# High freq. dielectric constant tensor:
#      x y z
#    x 1.552380 0.000000 0.000000 
#    y 0.000000 1.553390 0.000000 
#    z 0.000000 0.000000 1.573800 
# 
# From -- ./inp_files/43048.got.cif
#   From: 2010.06.25/outbox.cif.g09.slc.cpg/sg11_22_cif.got.tgz:43048.got - 2010.06.27 23:14:04.
