data_PCOD8068726
_publ_section_title
;
Structure prediction by ZEFSAII (Michael W. Deem and Ramdas Pophale) SiO2 
 PCOD8068726
Probable space group: P 21/M
;
_chemical_formula_sum "Si O2"
_cell_formula_units_Z 32
_cell_length_a 20.175896
_cell_length_b 8.994128
_cell_length_c 21.586307
_cell_angle_alpha 90.000000
_cell_angle_beta 26.154284
_cell_angle_gamma 90.000000
_cell_volume 1726.639909
_symmetry_space_group_name_H-M "P 21/M"
_symmetry_group_IT_number 11
_symmetry_cell_setting 'monoclinic'
loop_
_space_group_symop_operation_xyz
x,y,z
-x,1/2+y,-z
-x,-y,-z
x,1/2-y,z
loop_
_atom_site_type_symbol
_atom_site_label
_atom_site_fract_x
_atom_site_fract_y
_atom_site_fract_z
Si Si1 0.028790 0.923200 0.540486
Si Si2 0.637803 0.423871 0.072730
Si Si3 0.208051 0.075629 0.569876
Si Si4 0.838825 0.423466 0.266007
Si Si5 0.156597 0.078180 0.857704
Si Si6 0.338522 0.924135 0.345683
Si Si7 0.098574 0.578026 0.239504
Si Si8 0.192493 0.418664 0.963630
O O1 0.001516 0.750000 0.555539
O O2 0.197543 0.961091 0.420287
O O3 0.000000 0.000000 0.500000
O O4 0.910492 0.983036 0.690260
O O5 0.602333 0.250000 0.104539
O O6 0.485637 0.514453 0.187833
O O7 0.748230 0.464482 0.923679
O O8 0.711920 0.468755 0.075608
O O9 0.237348 0.250000 0.551074
O O10 0.038441 0.038329 0.691167
O O11 0.238345 0.998424 0.610032
O O12 0.324065 0.007321 0.423364
O O13 0.802327 0.250000 0.296579
O O14 0.764039 0.496844 0.267143
O O15 0.016552 0.456587 0.117484
O O16 0.129771 0.250000 0.863533
O O17 0.248078 0.062899 0.845560
O O18 0.000000 0.000000 0.000000
O O19 0.353314 0.750000 0.346122
O O20 0.093085 0.750000 0.262936
O O21 0.221855 0.250000 0.961620
#
# Coordination Sequence:
#
# PCOD8068726 Si02
#       8
#     4   4   4   4   4   4   4   4
#     4  10  21  38  62  86 110 142 177 214 258 308
#     4  11  21  34  54  81 110 143 179 220 268 315
#     4  10  18  32  53  77 105 139 178 226 272 315
#     4  10  18  28  46  73 103 137 178 225 273 321
#     4   9  17  28  42  66  99 136 177 223 274 322
#     4  10  22  38  55  80 111 143 177 216 263 317
#     4   9  19  34  54  82 111 139 177 220 261 308
#     4   9  18  30  46  70 103 141 177 219 270 320
#
# _framework density 18.533104999999999
#
# number of rings (size 3 to 8) (size 9 to 14) (size 15 to 20)
#    0.000    2.250    1.250    3.000    0.000    5.500 
#    0.000    0.625    0.000    0.750    0.000    0.000 
#    0.000    0.000    0.000    0.000    0.000    0.000 
#
# Total GULP energy -396822.781277 kJ/mol
# GULP energy per Si atom -12400.711915 kJ/mol
# Density = 1.849092 g / cm^3
# Si number density = 18.533105 Si / 1000 Ang^3
#
#
#
# Elastic Constant Matrix: (Units=GPa)
#
#
# Indices 1 2 3 4 5 6 
#
# 1 89.5538 55.0295 45.7458 0.0000 29.5703 0.0000
# 2 55.0295 109.6241 50.6971 0.0000 17.9231 0.0000
# 3 45.7458 50.6971 97.1670 0.0000 14.0018 0.0000
# 4 0.0000 0.0000 0.0000 32.6227 0.0000 6.5239
# 5 29.5703 17.9231 14.0018 0.0000 28.5049 0.0000
# 6 0.0000 0.0000 0.0000 6.5239 0.0000 33.9055
#
#
#
# Elastic Compliance Matrix: (Units=1/GPa)
#
#
# Indices 1 2 3 4 5 6 
#
# 1 0.023823 -0.006626 -0.005163 0.000000 -0.018010 0.000000
# 2 -0.006626 0.014515 -0.004443 0.000000 -0.000070 0.000000
# 3 -0.005163 -0.004443 0.014923 0.000000 0.000820 0.000000
# 4 0.000000 0.000000 0.000000 0.031880 0.000000 -0.006134
# 5 -0.018010 -0.000070 0.000820 0.000000 0.053407 0.000000
# 6 0.000000 0.000000 0.000000 -0.006134 0.000000 0.030674
#
#
# Mechanical properties :
#
#
# Convention : Reuss Voigt Hill
#
# Bulk Modulus (GPa) = 48.08962 66.58777 57.33870
# Shear Modulus (GPa) = 23.96732 28.66477 26.31604
#
# Velocity S-wave (km/s) = 3.60003 3.93705 3.77231
# Velocity P-wave (km/s) = 6.57910 7.52823 7.06961
#
# Compressibility (1/GPa) = 0.02079451
#
# Stress axis : x y z
#
# Youngs Moduli (GPa) = 41.97710 68.89589 67.01286
#
# Poissons Ratio (x) = 0.45652 0.34599
# Poissons Ratio (y) = 0.27815 0.29777
# Poissons Ratio (z) = 0.21673 0.30613
#
# Static dielectric constant tensor:
#      x y z
#    x 3.348910 0.000000 0.235100 
#    y 0.000000 3.526960 0.000000 
#    z 0.235100 0.000000 3.342570 
# 
# 
# High freq. dielectric constant tensor:
#      x y z
#    x 1.701930 0.000000 0.023290 
#    y 0.000000 1.733220 0.000000 
#    z 0.023290 0.000000 1.702010 
# 
# From -- ./inp_files/66415.got.cif
#   From: 2010.06.25/outbox.cif.g09.slc.cpg/sg11_34_cif.got.tgz:66415.got - 2010.06.27 23:14:04.
