data_PCOD8068220
_publ_section_title
;
Structure prediction by ZEFSAII (Michael W. Deem and Ramdas Pophale) SiO2 
 PCOD8068220
Probable space group: P 21/M
;
_chemical_formula_sum "Si O2"
_cell_formula_units_Z 32
_cell_length_a 17.356587
_cell_length_b 8.948763
_cell_length_c 19.483181
_cell_angle_alpha 90.000000
_cell_angle_beta 43.111530
_cell_angle_gamma 90.000000
_cell_volume 2068.118059
_symmetry_space_group_name_H-M "P 21/M"
_symmetry_group_IT_number 11
_symmetry_cell_setting 'monoclinic'
loop_
_space_group_symop_operation_xyz
x,y,z
-x,1/2+y,-z
-x,-y,-z
x,1/2-y,z
loop_
_atom_site_type_symbol
_atom_site_label
_atom_site_fract_x
_atom_site_fract_y
_atom_site_fract_z
Si Si1 0.774004 0.924617 0.061781
Si Si2 0.920726 0.073705 0.760199
Si Si3 0.310071 0.079608 0.096830
Si Si4 0.336144 0.927911 0.219128
Si Si5 0.916946 0.075771 0.606501
Si Si6 0.098022 0.425025 0.893270
Si Si7 0.437482 0.418718 0.875541
Si Si8 0.998607 0.927208 0.838191
O O1 0.769139 0.750000 0.047158
O O2 0.788949 0.951405 0.134159
O O3 0.655981 0.000531 0.112498
O O4 0.881595 0.984977 0.948872
O O5 0.924424 0.250000 0.769092
O O6 0.950669 0.030703 0.662246
O O7 0.797344 0.013684 0.858619
O O8 0.008220 0.993743 0.755147
O O9 0.272731 0.250000 0.135344
O O10 0.363019 0.007818 0.130053
O O11 0.402274 0.071792 0.977595
O O12 0.342080 0.750000 0.202820
O O13 0.211781 0.974558 0.326136
O O14 0.433465 0.982093 0.210026
O O15 0.929395 0.250000 0.587802
O O16 0.000000 0.000000 0.500000
O O17 0.074190 0.250000 0.899484
O O18 0.102262 0.505188 0.816179
O O19 0.000000 0.500000 0.000000
O O20 0.444372 0.250000 0.844674
O O21 0.010072 0.750000 0.828851
#
# Coordination Sequence:
#
# PCOD8068220 Si02
#       8
#     4   4   4   4   4   4   4   4
#     4   8  14  24  38  57  81 112 147 174 201 239
#     4  10  19  30  44  64  86 108 141 179 215 252
#     4  10  17  26  41  59  83 113 142 170 206 245
#     4   9  18  30  43  60  82 107 140 176 211 248
#     4   9  19  33  47  63  82 107 137 174 217 260
#     4   9  16  25  38  56  81 114 150 183 212 243
#     4   9  15  25  41  59  83 113 142 175 205 239
#     4  10  17  27  42  60  84 112 147 179 209 251
#
# _framework density 15.473004
#
# number of rings (size 3 to 8) (size 9 to 14) (size 15 to 20)
#    0.000    2.750    1.250    3.375    0.000    2.500 
#    0.000    0.625    0.000    0.000    0.000    0.000 
#    0.000    1.000    0.000    2.000    0.000    2.625 
#
# Total GULP energy -396419.428898 kJ/mol
# GULP energy per Si atom -12388.107153 kJ/mol
# Density = 1.543779 g / cm^3
# Si number density = 15.473004 Si / 1000 Ang^3
#
#
#
# Elastic Constant Matrix: (Units=GPa)
#
#
# Indices 1 2 3 4 5 6 
#
# 1 138.6058 38.2466 46.1073 0.0000 8.5636 0.0000
# 2 38.2466 56.9254 24.5786 0.0000 6.3812 0.0000
# 3 46.1073 24.5786 52.3063 0.0000 3.0799 0.0000
# 4 0.0000 0.0000 0.0000 18.2886 0.0000 5.5452
# 5 8.5636 6.3812 3.0799 0.0000 13.4041 0.0000
# 6 0.0000 0.0000 0.0000 5.5452 0.0000 20.0608
#
#
#
# Elastic Compliance Matrix: (Units=1/GPa)
#
#
# Indices 1 2 3 4 5 6 
#
# 1 0.011036 -0.003650 -0.007806 0.000000 -0.003519 0.000000
# 2 -0.003650 0.024177 -0.007707 0.000000 -0.007407 0.000000
# 3 -0.007806 -0.007707 0.029510 0.000000 0.001876 0.000000
# 4 0.000000 0.000000 0.000000 0.059681 0.000000 -0.016497
# 5 -0.003519 -0.007407 0.001876 0.000000 0.079948 0.000000
# 6 0.000000 0.000000 0.000000 -0.016497 0.000000 0.054409
#
#
# Mechanical properties :
#
#
# Convention : Reuss Voigt Hill
#
# Bulk Modulus (GPa) = 37.88273 51.74473 44.81373
# Shear Modulus (GPa) = 16.34599 19.61102 17.97850
#
# Velocity S-wave (km/s) = 3.25379 3.56397 3.41240
# Velocity P-wave (km/s) = 6.21711 7.10284 6.67468
#
# Compressibility (1/GPa) = 0.02639726
#
# Stress axis : x y z
#
# Youngs Moduli (GPa) = 90.61375 41.36120 33.88689
#
# Poissons Ratio (x) = 0.15097 0.26451
# Poissons Ratio (y) = 0.33073 0.26118
# Poissons Ratio (z) = 0.70730 0.31878
#
# Static dielectric constant tensor:
#      x y z
#    x 3.548420 0.000000 0.128270 
#    y 0.000000 2.912290 0.000000 
#    z 0.128270 0.000000 2.592020 
# 
# 
# High freq. dielectric constant tensor:
#      x y z
#    x 1.606880 0.000000 0.013820 
#    y 0.000000 1.584810 0.000000 
#    z 0.013820 0.000000 1.530660 
# 
# From -- ./inp_files/59892.got.cif
#   From: 2010.06.25/outbox.cif.g09.slc.cpg/sg11_30_cif.got.tgz:59892.got - 2010.06.27 23:14:04.
