data_PCOD8068868
_publ_section_title
;
Structure prediction by ZEFSAII (Michael W. Deem and Ramdas Pophale) SiO2 
 PCOD8068868
Probable space group: P 21/M
;
_chemical_formula_sum "Si O2"
_cell_formula_units_Z 24
_cell_length_a 11.892797
_cell_length_b 8.640762
_cell_length_c 23.423547
_cell_angle_alpha 90.000000
_cell_angle_beta 145.633315
_cell_angle_gamma 90.000000
_cell_volume 1358.760028
_symmetry_space_group_name_H-M "P 21/M"
_symmetry_group_IT_number 11
_symmetry_cell_setting 'monoclinic'
loop_
_space_group_symop_operation_xyz
x,y,z
-x,1/2+y,-z
-x,-y,-z
x,1/2-y,z
loop_
_atom_site_type_symbol
_atom_site_label
_atom_site_fract_x
_atom_site_fract_y
_atom_site_fract_z
Si Si1 0.790058 0.069434 0.772929
Si Si2 0.197048 0.925375 0.919101
Si Si3 0.893832 0.075529 0.247025
Si Si4 0.497540 0.433294 0.126417
Si Si5 0.314209 0.434399 0.388735
Si Si6 0.211264 0.067467 0.108315
O O1 0.744726 0.250000 0.750921
O O2 0.676443 0.986799 0.673116
O O3 0.711493 0.002038 0.799759
O O4 0.025471 0.039008 0.869738
O O5 0.141806 0.750000 0.914093
O O6 0.219071 0.936702 0.860626
O O7 0.400999 0.978183 0.032841
O O8 0.942746 0.250000 0.284365
O O9 0.732072 0.011171 0.225394
O O10 0.112068 0.995038 0.333828
O O11 0.487387 0.250000 0.110891
O O12 0.385345 0.479784 0.137187
O O13 0.500000 0.500000 0.500000
O O14 0.314450 0.250000 0.389876
O O15 0.186728 0.250000 0.102850
O O16 0.000000 0.000000 0.000000
#
# Coordination Sequence:
#
# PCOD8068868 Si02
#       6
#     4   4   4   4   4   4
#     4  11  21  34  52  75 104 139 179 218 256 303
#     4  10  18  29  47  71 103 137 171 213 256 302
#     4   8  17  32  49  73 102 132 167 209 258 310
#     4  10  19  31  48  70 101 141 176 206 250 307
#     4  10  20  37  60  83 105 129 164 215 268 317
#     4  11  21  32  49  73 106 144 181 216 251 300
#
# _framework density 17.663163000000001
#
# number of rings (size 3 to 8) (size 9 to 14) (size 15 to 20)
#    0.000    2.000    1.667    4.500    0.000    0.667 
#    0.000    4.167    0.000    1.000    0.000    0.000 
#    0.000    0.000    0.000    0.000    0.000    0.000 
#
# Total GULP energy -297431.358789 kJ/mol
# GULP energy per Si atom -12392.973283 kJ/mol
# Density = 1.762296 g / cm^3
# Si number density = 17.663163 Si / 1000 Ang^3
#
#
#
# Elastic Constant Matrix: (Units=GPa)
#
#
# Indices 1 2 3 4 5 6 
#
# 1 122.6497 35.7798 71.7599 0.0000 16.4103 0.0000
# 2 35.7798 73.1122 34.5210 0.0000 2.5096 0.0000
# 3 71.7599 34.5210 123.7943 0.0000 5.6931 0.0000
# 4 0.0000 0.0000 0.0000 26.0504 0.0000 -4.6992
# 5 16.4103 2.5096 5.6931 0.0000 19.2352 0.0000
# 6 0.0000 0.0000 0.0000 -4.6992 0.0000 20.6513
#
#
#
# Elastic Compliance Matrix: (Units=1/GPa)
#
#
# Indices 1 2 3 4 5 6 
#
# 1 0.014623 -0.003488 -0.007047 0.000000 -0.009935 0.000000
# 2 -0.003488 0.016595 -0.002679 0.000000 0.001604 0.000000
# 3 -0.007047 -0.002679 0.012792 0.000000 0.002576 0.000000
# 4 0.000000 0.000000 0.000000 0.040030 0.000000 0.009109
# 5 -0.009935 0.001604 0.002576 0.000000 0.059492 0.000000
# 6 0.000000 0.000000 0.000000 0.009109 0.000000 0.050496
#
#
# Mechanical properties :
#
#
# Convention : Reuss Voigt Hill
#
# Bulk Modulus (GPa) = 56.88115 67.07528 61.97821
# Shear Modulus (GPa) = 22.09292 25.02042 23.55667
#
# Velocity S-wave (km/s) = 3.54049 3.76777 3.65589
# Velocity P-wave (km/s) = 6.99904 7.54885 7.27914
#
# Compressibility (1/GPa) = 0.01758052
#
# Stress axis : x y z
#
# Youngs Moduli (GPa) = 68.38452 60.26044 78.17608
#
# Poissons Ratio (x) = 0.21018 0.55092
# Poissons Ratio (y) = 0.23852 0.20947
# Poissons Ratio (z) = 0.48191 0.16146
#
# Static dielectric constant tensor:
#      x y z
#    x 3.548490 0.000000 0.105960 
#    y 0.000000 3.230040 0.000000 
#    z 0.105960 0.000000 3.107300 
# 
# 
# High freq. dielectric constant tensor:
#      x y z
#    x 1.687640 0.000000 0.008660 
#    y 0.000000 1.678660 0.000000 
#    z 0.008660 0.000000 1.652460 
# 
# From -- ./inp_files/36881.got.cif
#   From: 2010.06.25/outbox.cif.g09.slc.cpg/sg11_19_cif.got.tgz:36881.got - 2010.06.27 23:14:04.
