data_PCOD8068003
_publ_section_title
;
Structure prediction by ZEFSAII (Michael W. Deem and Ramdas Pophale) SiO2 
 PCOD8068003
Probable space group: P 2/M
;
_chemical_formula_sum "Si O2"
_cell_formula_units_Z 28
_cell_length_a 26.771255
_cell_length_b 9.318287
_cell_length_c 10.425267
_cell_angle_alpha 90.000000
_cell_angle_beta 141.154608
_cell_angle_gamma 90.000000
_cell_volume 1631.220295
_symmetry_space_group_name_H-M "P 2/M"
_symmetry_group_IT_number 10
_symmetry_cell_setting 'monoclinic'
loop_
_space_group_symop_operation_xyz
x,y,z
-x,y,-z
-x,-y,-z
x,-y,z
loop_
_atom_site_type_symbol
_atom_site_label
_atom_site_fract_x
_atom_site_fract_y
_atom_site_fract_z
Si Si1 0.847127 0.333429 0.343659
Si Si2 0.591282 0.671319 0.182565
Si Si3 0.678675 0.329867 0.609810
Si Si4 0.410431 0.328630 0.320863
Si Si5 0.847127 0.333429 0.044850
Si Si6 0.000000 0.838200 0.652447
Si Si7 0.678675 0.670132 0.104888
O O1 0.867957 0.500000 0.403986
O O2 0.828241 0.302011 0.156482
O O3 0.771396 0.286797 0.277917
O O4 0.921338 0.242384 0.545018
O O5 0.591550 0.500000 0.183101
O O6 0.638563 0.732159 0.400666
O O7 0.638562 0.732159 0.153583
O O8 0.500000 0.727253 0.000000
O O9 0.670565 0.500000 0.594710
O O10 0.631957 0.265530 0.637931
O O11 0.771396 0.286796 0.807668
O O12 0.500000 0.272284 0.500000
O O13 0.406069 0.500000 0.312139
O O14 0.368043 0.265529 0.110103
O O15 0.867956 0.500000 0.067839
O O16 0.921338 0.242384 0.140335
O O17 0.000000 0.834637 0.500000
O O18 0.000000 0.000000 0.705719
O O19 0.670564 0.500000 0.087546
#
# Coordination Sequence:
#
# PCOD8068003 Si02
#       7
#     4   4   4   4   4   4   4
#     4   9  15  25  41  61  86 115 146 176 211 256
#     4   9  16  24  34  53  85 120 146 173 215 257
#     4   9  15  23  35  54  81 113 146 176 208 253
#     4   9  14  20  32  51  77 108 140 175 213 251
#     4   9  15  25  41  61  86 115 146 176 211 256
#     4   9  17  27  41  64  91 112 136 176 223 264
#     4   9  15  23  35  54  81 113 146 176 208 253
#
# _framework density 17.165064000000001
#
# number of rings (size 3 to 8) (size 9 to 14) (size 15 to 20)
#    0.000    3.000    1.429    1.286    0.000    5.143 
#    0.000    0.000    0.000    0.857    0.000    7.000 
#    0.000    6.857    0.000    0.000    0.000    0.000 
#
# Total GULP energy -347081.726389 kJ/mol
# GULP energy per Si atom -12395.775942 kJ/mol
# Density = 1.712600 g / cm^3
# Si number density = 17.165064 Si / 1000 Ang^3
#
#
#
# Elastic Constant Matrix: (Units=GPa)
#
#
# Indices 1 2 3 4 5 6 
#
# 1 142.0184 31.5627 85.9994 0.0000 16.4387 0.0000
# 2 31.5627 37.3547 31.7323 0.0000 13.1366 0.0000
# 3 85.9994 31.7323 142.4429 0.0000 16.5213 0.0000
# 4 0.0000 0.0000 0.0000 2.8630 0.0000 -1.3014
# 5 16.4387 13.1366 16.5213 0.0000 34.5285 0.0000
# 6 0.0000 0.0000 0.0000 -1.3014 0.0000 2.8795
#
#
#
# Elastic Compliance Matrix: (Units=1/GPa)
#
#
# Indices 1 2 3 4 5 6 
#
# 1 0.011794 -0.004509 -0.005997 0.000000 -0.001030 0.000000
# 2 -0.004509 0.038030 -0.004574 0.000000 -0.010133 0.000000
# 3 -0.005997 -0.004574 0.011781 0.000000 -0.001042 0.000000
# 4 0.000000 0.000000 0.000000 0.439591 0.000000 0.198672
# 5 -0.001030 -0.010133 -0.001042 0.000000 0.033806 0.000000
# 6 0.000000 0.000000 0.000000 0.198672 0.000000 0.437075
#
#
# Mechanical properties :
#
#
# Convention : Reuss Voigt Hill
#
# Bulk Modulus (GPa) = 31.80214 68.93385 50.36799
# Shear Modulus (GPa) = 4.93721 19.55564 12.24643
#
# Velocity S-wave (km/s) = 1.69781 3.37897 2.67395
# Velocity P-wave (km/s) = 4.73401 7.44781 6.24022
#
# Compressibility (1/GPa) = 0.03144442
#
# Stress axis : x y z
#
# Youngs Moduli (GPa) = 84.78965 26.29530 84.88522
#
# Poissons Ratio (x) = 0.11856 0.50902
# Poissons Ratio (y) = 0.38231 0.38830
# Poissons Ratio (z) = 0.50845 0.12029
#
# Static dielectric constant tensor:
#      x y z
#    x 3.289560 0.000000 0.118940 
#    y 0.000000 2.629440 0.000000 
#    z 0.118940 0.000000 3.291080 
# 
# 
# High freq. dielectric constant tensor:
#      x y z
#    x 1.659080 0.000000 0.023300 
#    y 0.000000 1.592180 0.000000 
#    z 0.023300 0.000000 1.659380 
# 
# From -- ./inp_files/37234.got.cif
#   From: 2010.06.25/outbox.cif.g09.slc.cpg/sg10_19_cif.got.tgz:37234.got - 2010.06.27 22:07:45.
