data_PCOD8068956
_publ_section_title
;
Structure prediction by ZEFSAII (Michael W. Deem and Ramdas Pophale) SiO2 
 PCOD8068956
Probable space group: P 21/M
;
_chemical_formula_sum "Si O2"
_cell_formula_units_Z 28
_cell_length_a 18.698356
_cell_length_b 8.913181
_cell_length_c 15.590484
_cell_angle_alpha 90.000000
_cell_angle_beta 145.733038
_cell_angle_gamma 90.000000
_cell_volume 1462.993542
_symmetry_space_group_name_H-M "P 21/M"
_symmetry_group_IT_number 11
_symmetry_cell_setting 'monoclinic'
loop_
_space_group_symop_operation_xyz
x,y,z
-x,1/2+y,-z
-x,-y,-z
x,1/2-y,z
loop_
_atom_site_type_symbol
_atom_site_label
_atom_site_fract_x
_atom_site_fract_y
_atom_site_fract_z
Si Si1 0.033574 0.419501 0.396484
Si Si2 0.877941 0.919419 0.916923
Si Si3 0.610844 0.428335 0.666757
Si Si4 0.840745 0.916766 0.318106
Si Si5 0.558586 0.582511 0.977308
Si Si6 0.373131 0.925749 0.120327
Si Si7 0.885921 0.916458 0.123486
O O1 0.027078 0.250000 0.356112
O O2 0.918802 0.453929 0.348376
O O3 0.016972 0.526782 0.297557
O O4 0.160954 0.449792 0.579724
O O5 0.864327 0.750000 0.866754
O O6 0.746580 0.007560 0.769266
O O7 0.909891 0.914668 0.047765
O O8 0.000000 0.000000 0.000000
O O9 0.500000 0.500000 0.500000
O O10 0.612598 0.250000 0.655988
O O11 0.585366 0.471469 0.741460
O O12 0.902789 0.750000 0.368436
O O13 0.705449 0.915005 0.142273
O O14 0.501679 0.750000 0.914333
O O15 0.500000 0.500000 0.000000
O O16 0.537460 0.502703 0.863496
O O17 0.384409 0.750000 0.117987
O O18 0.227727 0.973956 0.962339
O O19 0.851889 0.750000 0.123506
#
# Coordination Sequence:
#
# PCOD8068956 Si02
#       7
#     4   4   4   4   4   4   4
#     4  10  18  29  50  76 101 132 171 215 260 310
#     4  10  21  37  58  84 116 152 190 236 290 346
#     4  10  21  38  62  90 119 151 192 241 293 354
#     4   9  19  33  48  71 102 134 170 215 263 308
#     4  11  22  36  54  75 106 146 187 231 277 326
#     4  10  20  35  56  82 108 140 187 234 275 329
#     4  10  19  32  52  79 109 141 178 222 272 328
#
# _framework density 19.138839999999998
#
# number of rings (size 3 to 8) (size 9 to 14) (size 15 to 20)
#    0.000    2.000    1.429    2.571    0.000    4.571 
#    0.000    1.429    0.000    5.143    0.000    0.000 
#    0.000    0.000    0.000    0.000    0.000    0.000 
#
# Total GULP energy -346927.025326 kJ/mol
# GULP energy per Si atom -12390.250904 kJ/mol
# Density = 1.909528 g / cm^3
# Si number density = 19.138840 Si / 1000 Ang^3
#
#
#
# Elastic Constant Matrix: (Units=GPa)
#
#
# Indices 1 2 3 4 5 6 
#
# 1 93.7100 50.4641 31.0400 0.0000 -5.8158 0.0000
# 2 50.4641 118.6556 44.6744 0.0000 -8.9312 0.0000
# 3 31.0400 44.6744 103.6075 0.0000 -18.3310 0.0000
# 4 0.0000 0.0000 0.0000 31.0418 0.0000 -3.3002
# 5 -5.8158 -8.9312 -18.3310 0.0000 19.5291 0.0000
# 6 0.0000 0.0000 0.0000 -3.3002 0.0000 31.2174
#
#
#
# Elastic Compliance Matrix: (Units=1/GPa)
#
#
# Indices 1 2 3 4 5 6 
#
# 1 0.014169 -0.005286 -0.001975 0.000000 -0.000052 0.000000
# 2 -0.005286 0.012040 -0.003492 0.000000 0.000654 0.000000
# 3 -0.001975 -0.003492 0.013625 0.000000 0.010604 0.000000
# 4 0.000000 0.000000 0.000000 0.032581 0.000000 0.003444
# 5 -0.000052 0.000654 0.010604 0.000000 0.061443 0.000000
# 6 0.000000 0.000000 0.000000 0.003444 0.000000 0.032398
#
#
# Mechanical properties :
#
#
# Convention : Reuss Voigt Hill
#
# Bulk Modulus (GPa) = 54.56073 63.14777 58.85425
# Shear Modulus (GPa) = 25.79031 29.01063 27.40047
#
# Velocity S-wave (km/s) = 3.67487 3.89755 3.78784
# Velocity P-wave (km/s) = 6.82466 7.30210 7.06741
#
# Compressibility (1/GPa) = 0.01832820
#
# Stress axis : x y z
#
# Youngs Moduli (GPa) = 70.57717 83.05588 73.39294
#
# Poissons Ratio (x) = 0.43907 0.14492
# Poissons Ratio (y) = 0.37310 0.25629
# Poissons Ratio (z) = 0.13936 0.29003
#
# Static dielectric constant tensor:
#      x y z
#    x 2.745160 0.000000 -0.606340 
#    y 0.000000 3.757230 0.000000 
#    z -0.606340 0.000000 3.651500 
# 
# 
# High freq. dielectric constant tensor:
#      x y z
#    x 1.715910 0.000000 -0.029450 
#    y 0.000000 1.761110 0.000000 
#    z -0.029450 0.000000 1.743470 
# 
# From -- ./inp_files/53279.got.cif
#   From: 2010.06.25/outbox.cif.g09.slc.cpg/sg11_27_cif.got.tgz:53279.got - 2010.06.27 23:14:04.
