data_PCOD8068477
_publ_section_title
;
Structure prediction by ZEFSAII (Michael W. Deem and Ramdas Pophale) SiO2 
 PCOD8068477
Probable space group: P 21/M
;
_chemical_formula_sum "Si O2"
_cell_formula_units_Z 32
_cell_length_a 8.819969
_cell_length_b 20.753648
_cell_length_c 15.907863
_cell_angle_alpha 90.000000
_cell_angle_beta 35.130550
_cell_angle_gamma 90.000000
_cell_volume 1675.615835
_symmetry_space_group_name_H-M "P 21/M"
_symmetry_group_IT_number 11
_symmetry_cell_setting 'monoclinic'
loop_
_space_group_symop_operation_xyz
x,y,z
-x,1/2+y,-z
-x,-y,-z
x,1/2-y,z
loop_
_atom_site_type_symbol
_atom_site_label
_atom_site_fract_x
_atom_site_fract_y
_atom_site_fract_z
Si Si1 0.208551 0.176017 0.338246
Si Si2 0.306228 0.592588 0.454730
Si Si3 0.177078 0.129876 0.709543
Si Si4 0.311757 0.565260 0.266328
Si Si5 0.622725 0.174965 0.012246
Si Si6 0.935413 0.005729 0.314931
Si Si7 0.638212 0.564225 0.971615
Si Si8 0.928116 0.677643 0.418829
O O1 0.131196 0.250000 0.356093
O O2 0.478402 0.158627 0.166443
O O3 0.258940 0.163814 0.415152
O O4 0.963383 0.133077 0.418285
O O5 0.559870 0.638450 0.353838
O O6 0.340030 0.553144 0.352467
O O7 0.311464 0.539954 0.527954
O O8 0.225200 0.165250 0.598588
O O9 0.132376 0.054719 0.711533
O O10 0.934802 0.159194 0.873183
O O11 0.128106 0.511689 0.305839
O O12 0.189155 0.635386 0.306132
O O13 0.598680 0.564394 0.090763
O O14 0.583252 0.250000 0.006400
O O15 0.494712 0.130011 0.999865
O O16 0.061015 0.059212 0.194774
O O17 0.500000 0.500000 0.000000
O O18 0.032442 0.750000 0.373526
#
# Coordination Sequence:
#
# PCOD8068477 Si02
#       8
#     4   4   4   4   4   4   4   4
#     4   9  20  35  56  80 103 139 188 229 269 326
#     4  11  21  35  54  83 115 138 178 238 280 326
#     4  11  22  34  53  84 112 146 177 224 288 337
#     4   9  19  32  55  84 104 139 190 227 271 318
#     4  11  20  35  59  83 106 147 193 226 272 341
#     4  10  19  36  56  75 111 148 186 223 276 334
#     4  10  17  34  58  81 107 141 192 232 267 318
#     4   9  17  34  54  76 106 142 180 220 270 337
#
# _framework density 19.097455
#
# number of rings (size 3 to 8) (size 9 to 14) (size 15 to 20)
#    0.000    2.000    5.000    1.125    0.000    1.000 
#    0.000    1.875    0.000    0.000    0.000    0.000 
#    0.000    0.000    0.000    0.000    0.000    0.000 
#
# Total GULP energy -396509.612673 kJ/mol
# GULP energy per Si atom -12390.925396 kJ/mol
# Density = 1.905399 g / cm^3
# Si number density = 19.097455 Si / 1000 Ang^3
#
#
#
# Elastic Constant Matrix: (Units=GPa)
#
#
# Indices 1 2 3 4 5 6 
#
# 1 48.6365 7.1603 42.4474 0.0000 -2.1744 0.0000
# 2 7.1603 76.9356 44.3566 0.0000 -1.3671 0.0000
# 3 42.4474 44.3566 162.5061 0.0000 16.2556 0.0000
# 4 0.0000 0.0000 0.0000 30.8501 0.0000 4.8693
# 5 -2.1744 -1.3671 16.2556 0.0000 21.8411 0.0000
# 6 0.0000 0.0000 0.0000 4.8693 0.0000 14.4531
#
#
#
# Elastic Compliance Matrix: (Units=1/GPa)
#
#
# Indices 1 2 3 4 5 6 
#
# 1 0.028663 0.002845 -0.009256 0.000000 0.009921 0.000000
# 2 0.002845 0.016115 -0.005695 0.000000 0.005531 0.000000
# 3 -0.009256 -0.005695 0.011078 0.000000 -0.009523 0.000000
# 4 0.000000 0.000000 0.000000 0.034235 0.000000 -0.011534
# 5 0.009921 0.005531 -0.009523 0.000000 0.054207 0.000000
# 6 0.000000 0.000000 0.000000 -0.011534 0.000000 0.073075
#
#
# Mechanical properties :
#
#
# Convention : Reuss Voigt Hill
#
# Bulk Modulus (GPa) = 31.60063 52.88965 42.24514
# Shear Modulus (GPa) = 19.83072 26.36978 23.10025
#
# Velocity S-wave (km/s) = 3.22591 3.71994 3.48170
# Velocity P-wave (km/s) = 5.51890 6.79745 6.19127
#
# Compressibility (1/GPa) = 0.03164494
#
# Stress axis : x y z
#
# Youngs Moduli (GPa) = 34.88759 62.05497 90.26576
#
# Poissons Ratio (x) = -0.17655 0.83550
# Poissons Ratio (y) = -0.09926 0.51406
# Poissons Ratio (z) = 0.32292 0.35340
#
# Static dielectric constant tensor:
#      x y z
#    x 3.138690 0.000000 0.247450 
#    y 0.000000 3.566630 0.000000 
#    z 0.247450 0.000000 4.124450 
# 
# 
# High freq. dielectric constant tensor:
#      x y z
#    x 1.689290 0.000000 0.021030 
#    y 0.000000 1.747160 0.000000 
#    z 0.021030 0.000000 1.764680 
# 
# From -- ./inp_files/23084.got.cif
#   From: 2010.06.25/outbox.cif.g09.slc.cpg/sg11_12_cif.got.tgz:23084.got - 2010.06.27 23:14:04.
