data_PCOD8068920
_publ_section_title
;
Structure prediction by ZEFSAII (Michael W. Deem and Ramdas Pophale) SiO2 
 PCOD8068920
Probable space group: P 21/M
;
_chemical_formula_sum "Si O2"
_cell_formula_units_Z 32
_cell_length_a 9.493547
_cell_length_b 14.918517
_cell_length_c 11.371906
_cell_angle_alpha 90.000000
_cell_angle_beta 69.954728
_cell_angle_gamma 90.000000
_cell_volume 1513.032246
_symmetry_space_group_name_H-M "P 21/M"
_symmetry_group_IT_number 11
_symmetry_cell_setting 'monoclinic'
loop_
_space_group_symop_operation_xyz
x,y,z
-x,1/2+y,-z
-x,-y,-z
x,1/2-y,z
loop_
_atom_site_type_symbol
_atom_site_label
_atom_site_fract_x
_atom_site_fract_y
_atom_site_fract_z
Si Si1 0.903219 0.852102 0.231805
Si Si2 0.263840 0.149962 0.494681
Si Si3 0.651795 0.025779 0.646976
Si Si4 0.544960 0.848993 0.987633
Si Si5 0.623731 0.150500 0.180398
Si Si6 0.417549 0.652564 0.531735
Si Si7 0.677040 0.535785 0.143527
Si Si8 0.228467 0.851288 0.195688
O O1 0.861410 0.750000 0.212673
O O2 0.874167 0.871243 0.378932
O O3 0.807176 0.913661 0.173504
O O4 0.079391 0.871772 0.162261
O O5 0.248613 0.250000 0.440761
O O6 0.405160 0.149550 0.544199
O O7 0.284217 0.074758 0.387755
O O8 0.663552 0.074005 0.515929
O O9 0.480852 0.033096 0.741245
O O10 0.762573 0.078215 0.700997
O O11 0.603716 0.750000 0.005537
O O12 0.651155 0.920672 0.021627
O O13 0.371344 0.861585 0.071714
O O14 0.534433 0.861351 0.848513
O O15 0.692383 0.250000 0.133821
O O16 0.592197 0.138440 0.326155
O O17 0.731498 0.067700 0.112137
O O18 0.351192 0.750000 0.513983
O O19 0.220672 0.750000 0.249687
#
# Coordination Sequence:
#
# PCOD8068920 Si02
#       8
#     4   4   4   4   4   4   4   4
#     4  10  20  34  52  77 105 134 166 208 261 304
#     4  10  19  30  47  74 108 136 164 203 252 303
#     4  11  19  31  53  79 105 133 170 210 250 298
#     4   9  19  35  54  77 102 131 169 214 254 295
#     4  10  20  33  50  76 107 136 167 207 255 301
#     4  10  18  29  48  78 107 132 162 204 252 302
#     4  11  19  31  55  81 102 129 171 215 252 298
#     4   9  20  36  53  75 103 133 168 212 259 299
#
# _framework density 21.149583
#
# number of rings (size 3 to 8) (size 9 to 14) (size 15 to 20)
#    0.000    2.000    2.500    2.250    0.000    1.500 
#    0.000    0.625    0.000    0.750    3.250    0.000 
#    0.000    0.000    0.000    0.000    0.000    0.000 
#
# Total GULP energy -396442.519636 kJ/mol
# GULP energy per Si atom -12388.828739 kJ/mol
# Density = 2.110145 g / cm^3
# Si number density = 21.149583 Si / 1000 Ang^3
#
#
#
# Elastic Constant Matrix: (Units=GPa)
#
#
# Indices 1 2 3 4 5 6 
#
# 1 67.2335 36.5898 8.9991 0.0000 14.4767 0.0000
# 2 36.5898 145.7877 36.3791 0.0000 24.5741 0.0000
# 3 8.9991 36.3791 64.9460 0.0000 23.3580 0.0000
# 4 0.0000 0.0000 0.0000 26.5288 0.0000 9.5476
# 5 14.4767 24.5741 23.3580 0.0000 21.9978 0.0000
# 6 0.0000 0.0000 0.0000 9.5476 0.0000 20.2045
#
#
#
# Elastic Compliance Matrix: (Units=1/GPa)
#
#
# Indices 1 2 3 4 5 6 
#
# 1 0.019050 -0.003631 0.003954 0.000000 -0.012680 0.000000
# 2 -0.003631 0.009335 -0.002968 0.000000 -0.004887 0.000000
# 3 0.003954 -0.002968 0.026299 0.000000 -0.027211 0.000000
# 4 0.000000 0.000000 0.000000 0.045419 0.000000 -0.021463
# 5 -0.012680 -0.004887 -0.027211 0.000000 0.088157 0.000000
# 6 0.000000 0.000000 0.000000 -0.021463 0.000000 0.059636
#
#
# Mechanical properties :
#
#
# Convention : Reuss Voigt Hill
#
# Bulk Modulus (GPa) = 20.24491 49.10037 34.67264
# Shear Modulus (GPa) = 18.54253 26.81283 22.67768
#
# Velocity S-wave (km/s) = 2.96418 3.56444 3.27808
# Velocity P-wave (km/s) = 4.61608 6.34086 5.54593
#
# Compressibility (1/GPa) = 0.04939513
#
# Stress axis : x y z
#
# Youngs Moduli (GPa) = 52.49246 107.12405 38.02477
#
# Poissons Ratio (x) = 0.38893 -0.15036
# Poissons Ratio (y) = 0.19058 0.11286
# Poissons Ratio (z) = -0.20758 0.31796
#
# Static dielectric constant tensor:
#      x y z
#    x 3.434710 0.000000 0.069090 
#    y 0.000000 4.326050 0.000000 
#    z 0.069090 0.000000 3.727440 
# 
# 
# High freq. dielectric constant tensor:
#      x y z
#    x 1.770610 0.000000 0.012820 
#    y 0.000000 1.855780 0.000000 
#    z 0.012820 0.000000 1.821630 
# 
# From -- ./inp_files/22224.got.cif
#   From: 2010.06.25/outbox.cif.g09.slc.cpg/sg11_12_cif.got.tgz:22224.got - 2010.06.27 23:14:04.
