data_PCOD8068548
_publ_section_title
;
Structure prediction by ZEFSAII (Michael W. Deem and Ramdas Pophale) SiO2 
 PCOD8068548
Probable space group: P 21/M
;
_chemical_formula_sum "Si O2"
_cell_formula_units_Z 28
_cell_length_a 13.838146
_cell_length_b 8.946059
_cell_length_c 19.750841
_cell_angle_alpha 90.000000
_cell_angle_beta 129.134259
_cell_angle_gamma 90.000000
_cell_volume 1896.582713
_symmetry_space_group_name_H-M "P 21/M"
_symmetry_group_IT_number 11
_symmetry_cell_setting 'monoclinic'
loop_
_space_group_symop_operation_xyz
x,y,z
-x,1/2+y,-z
-x,-y,-z
x,1/2-y,z
loop_
_atom_site_type_symbol
_atom_site_label
_atom_site_fract_x
_atom_site_fract_y
_atom_site_fract_z
Si Si1 0.813194 0.573866 0.225031
Si Si2 0.649358 0.081072 0.887822
Si Si3 0.372687 0.426237 0.738853
Si Si4 0.200531 0.580845 0.921768
Si Si5 0.108081 0.427196 0.004560
Si Si6 0.189233 0.581590 0.566046
Si Si7 0.995569 0.581283 0.602582
O O1 0.826830 0.750000 0.224145
O O2 0.704475 0.527288 0.228794
O O3 0.776403 0.504678 0.137333
O O4 0.945242 0.508634 0.308607
O O5 0.663324 0.250000 0.865603
O O6 0.513717 0.015854 0.810361
O O7 0.668917 0.082722 0.978411
O O8 0.758051 0.976761 0.903598
O O9 0.366547 0.250000 0.725422
O O10 0.315893 0.503178 0.647062
O O11 0.153844 0.750000 0.887276
O O12 0.099268 0.492954 0.923835
O O13 0.094729 0.250000 0.998122
O O14 0.000000 0.500000 0.000000
O O15 0.220018 0.750000 0.557673
O O16 0.134299 0.495117 0.476749
O O17 0.089371 0.577486 0.581555
O O18 0.967945 0.750000 0.613573
#
# Coordination Sequence:
#
# PCOD8068548 Si02
#       7
#     4   4   4   4   4   4   4
#     4  10  18  27  41  61  85 115 148 181 213 248
#     4   8  17  31  44  61  85 113 143 176 208 249
#     4   9  17  29  42  58  85 118 148 177 212 250
#     4   9  18  31  44  61  85 113 143 176 209 250
#     4  10  18  31  49  66  83 106 135 172 216 256
#     4   9  16  25  38  57  78 104 143 184 216 248
#     4   9  16  26  39  54  76 109 144 179 217 252
#
# _framework density 14.763394999999999
#
# number of rings (size 3 to 8) (size 9 to 14) (size 15 to 20)
#    0.857    2.000    0.000    2.571    0.000    5.143 
#    0.000    0.000    0.000    0.000    0.000    0.000 
#    0.000    1.143    0.000    4.286    0.000    6.571 
#
# Total GULP energy -346978.339909 kJ/mol
# GULP energy per Si atom -12392.083568 kJ/mol
# Density = 1.472979 g / cm^3
# Si number density = 14.763395 Si / 1000 Ang^3
#
#
#
# Elastic Constant Matrix: (Units=GPa)
#
#
# Indices 1 2 3 4 5 6 
#
# 1 49.7834 33.2264 35.4609 0.0000 16.4564 0.0000
# 2 33.2264 97.6394 41.4637 0.0000 12.5368 0.0000
# 3 35.4609 41.4637 95.1355 0.0000 22.5420 0.0000
# 4 0.0000 0.0000 0.0000 29.3269 0.0000 -1.3959
# 5 16.4564 12.5368 22.5420 0.0000 8.7836 0.0000
# 6 0.0000 0.0000 0.0000 -1.3959 0.0000 19.5432
#
#
#
# Elastic Compliance Matrix: (Units=1/GPa)
#
#
# Indices 1 2 3 4 5 6 
#
# 1 0.062360 -0.009202 0.013619 0.000000 -0.138653 0.000000
# 2 -0.009202 0.014273 -0.005227 0.000000 0.010284 0.000000
# 3 0.013619 -0.005227 0.030597 0.000000 -0.096578 0.000000
# 4 0.000000 0.000000 0.000000 0.034215 0.000000 0.002444
# 5 -0.138653 0.010284 -0.096578 0.000000 0.606794 0.000000
# 6 0.000000 0.000000 0.000000 0.002444 0.000000 0.051343
#
#
# Mechanical properties :
#
#
# Convention : Reuss Voigt Hill
#
# Bulk Modulus (GPa) = 9.46879 51.42894 30.44886
# Shear Modulus (GPa) = 5.97797 20.35791 13.16794
#
# Velocity S-wave (km/s) = 2.01444 3.71744 2.98976
# Velocity P-wave (km/s) = 3.44068 7.30321 5.70855
#
# Compressibility (1/GPa) = 0.10561008
#
# Stress axis : x y z
#
# Youngs Moduli (GPa) = 16.03585 70.06472 32.68299
#
# Poissons Ratio (x) = 0.64472 -0.44512
# Poissons Ratio (y) = 0.14756 0.17085
# Poissons Ratio (z) = -0.21840 0.36626
#
# Static dielectric constant tensor:
#      x y z
#    x 2.433070 0.000000 0.078730 
#    y 0.000000 2.979570 0.000000 
#    z 0.078730 0.000000 2.898890 
# 
# 
# High freq. dielectric constant tensor:
#      x y z
#    x 1.506330 0.000000 0.007040 
#    y 0.000000 1.580940 0.000000 
#    z 0.007040 0.000000 1.561800 
# 
# From -- ./inp_files/64263.got.cif
#   From: 2010.06.25/outbox.cif.g09.slc.cpg/sg11_33_cif.got.tgz:64263.got - 2010.06.27 23:14:04.
