data_PCOD8068744
_publ_section_title
;
Structure prediction by ZEFSAII (Michael W. Deem and Ramdas Pophale) SiO2 
 PCOD8068744
Probable space group: P 21/M
;
_chemical_formula_sum "Si O2"
_cell_formula_units_Z 32
_cell_length_a 12.046548
_cell_length_b 8.838653
_cell_length_c 19.992799
_cell_angle_alpha 90.000000
_cell_angle_beta 57.428792
_cell_angle_gamma 90.000000
_cell_volume 1793.936897
_symmetry_space_group_name_H-M "P 21/M"
_symmetry_group_IT_number 11
_symmetry_cell_setting 'monoclinic'
loop_
_space_group_symop_operation_xyz
x,y,z
-x,1/2+y,-z
-x,-y,-z
x,1/2-y,z
loop_
_atom_site_type_symbol
_atom_site_label
_atom_site_fract_x
_atom_site_fract_y
_atom_site_fract_z
Si Si1 0.326262 0.075643 0.599307
Si Si2 0.294942 0.428810 0.957680
Si Si3 0.457396 0.928622 0.285698
Si Si4 0.418985 0.424467 0.428311
Si Si5 0.591666 0.071744 0.844229
Si Si6 0.195884 0.573271 0.121645
Si Si7 0.102750 0.076541 0.771690
Si Si8 0.733664 0.071706 0.171609
O O1 0.369297 0.250000 0.596364
O O2 0.319432 0.040398 0.521931
O O3 0.184549 0.040939 0.677618
O O4 0.433522 0.969672 0.598929
O O5 0.282573 0.250000 0.953291
O O6 0.447604 0.478821 0.916578
O O7 0.233750 0.506043 0.911993
O O8 0.213041 0.484099 0.047379
O O9 0.473892 0.750000 0.280883
O O10 0.388524 0.983461 0.239015
O O11 0.373208 0.983299 0.377136
O O12 0.602315 0.999025 0.244821
O O13 0.418537 0.250000 0.408836
O O14 0.605309 0.250000 0.841942
O O15 0.703803 0.002804 0.855904
O O16 0.223721 0.750000 0.099722
O O17 0.049170 0.544555 0.196273
O O18 0.123970 0.250000 0.787137
O O19 0.146417 0.969820 0.818359
O O20 0.716958 0.250000 0.172111
#
# Coordination Sequence:
#
# PCOD8068744 Si02
#       8
#     4   4   4   4   4   4   4   4
#     4   9  18  31  47  70 103 136 165 201 248 297
#     4  10  20  35  54  75 101 130 162 207 259 298
#     4  10  18  31  51  75 104 133 162 204 256 298
#     4  10  18  28  47  76 102 130 167 205 247 295
#     4   8  17  33  53  75  98 127 166 210 250 294
#     4  10  20  35  54  75  97 128 172 210 246 296
#     4  10  20  34  52  72 101 137 165 201 250 301
#     4  11  21  33  51  75 101 131 167 206 247 296
#
# _framework density 17.837864
#
# number of rings (size 3 to 8) (size 9 to 14) (size 15 to 20)
#    0.000    2.250    1.250    3.375    0.000    1.500 
#    0.000    3.125    0.000    0.750    0.000    0.000 
#    0.000    0.000    0.000    0.000    0.000    0.875 
#
# Total GULP energy -396775.336133 kJ/mol
# GULP energy per Si atom -12399.229254 kJ/mol
# Density = 1.779726 g / cm^3
# Si number density = 17.837864 Si / 1000 Ang^3
#
#
#
# Elastic Constant Matrix: (Units=GPa)
#
#
# Indices 1 2 3 4 5 6 
#
# 1 62.6812 25.0577 48.0863 0.0000 -0.7395 0.0000
# 2 25.0577 76.6496 39.7942 0.0000 3.5351 0.0000
# 3 48.0863 39.7942 137.0449 0.0000 8.5997 0.0000
# 4 0.0000 0.0000 0.0000 28.6650 0.0000 5.0595
# 5 -0.7395 3.5351 8.5997 0.0000 22.1591 0.0000
# 6 0.0000 0.0000 0.0000 5.0595 0.0000 14.5481
#
#
#
# Elastic Compliance Matrix: (Units=1/GPa)
#
#
# Indices 1 2 3 4 5 6 
#
# 1 0.023147 -0.004012 -0.007221 0.000000 0.004215 0.000000
# 2 -0.004012 0.016070 -0.003166 0.000000 -0.001469 0.000000
# 3 -0.007221 -0.003166 0.011001 0.000000 -0.004005 0.000000
# 4 0.000000 0.000000 0.000000 0.037167 0.000000 -0.012926
# 5 0.004215 -0.001469 -0.004005 0.000000 0.047058 0.000000
# 6 0.000000 0.000000 0.000000 -0.012926 0.000000 0.073233
#
#
# Mechanical properties :
#
#
# Convention : Reuss Voigt Hill
#
# Bulk Modulus (GPa) = 46.68851 55.80578 51.24715
# Shear Modulus (GPa) = 20.52413 23.97027 22.24720
#
# Velocity S-wave (km/s) = 3.39572 3.66975 3.53539
# Velocity P-wave (km/s) = 6.45021 7.02204 6.74219
#
# Compressibility (1/GPa) = 0.02141855
#
# Stress axis : x y z
#
# Youngs Moduli (GPa) = 43.20132 62.22930 90.89761
#
# Poissons Ratio (x) = 0.24969 0.65640
# Poissons Ratio (y) = 0.17335 0.28779
# Poissons Ratio (z) = 0.31197 0.19702
#
# Static dielectric constant tensor:
#      x y z
#    x 3.243580 0.000000 0.222970 
#    y 0.000000 3.228360 0.000000 
#    z 0.222970 0.000000 3.525320 
# 
# 
# High freq. dielectric constant tensor:
#      x y z
#    x 1.660270 0.000000 0.018960 
#    y 0.000000 1.684460 0.000000 
#    z 0.018960 0.000000 1.697100 
# 
# From -- ./inp_files/40617.got.cif
#   From: 2010.06.25/outbox.cif.g09.slc.cpg/sg11_21_cif.got.tgz:40617.got - 2010.06.27 23:14:04.
