data_PCOD8068864
_publ_section_title
;
Structure prediction by ZEFSAII (Michael W. Deem and Ramdas Pophale) SiO2 
 PCOD8068864
Probable space group: P 21/M
;
_chemical_formula_sum "Si O2"
_cell_formula_units_Z 28
_cell_length_a 14.805632
_cell_length_b 9.265223
_cell_length_c 15.653788
_cell_angle_alpha 90.000000
_cell_angle_beta 45.937832
_cell_angle_gamma 90.000000
_cell_volume 1543.052895
_symmetry_space_group_name_H-M "P 21/M"
_symmetry_group_IT_number 11
_symmetry_cell_setting 'monoclinic'
loop_
_space_group_symop_operation_xyz
x,y,z
-x,1/2+y,-z
-x,-y,-z
x,1/2-y,z
loop_
_atom_site_type_symbol
_atom_site_label
_atom_site_fract_x
_atom_site_fract_y
_atom_site_fract_z
Si Si1 0.890928 0.417253 0.525575
Si Si2 0.326963 0.583754 0.205376
Si Si3 0.567993 0.916539 0.150009
Si Si4 0.218045 0.418683 0.117081
Si Si5 0.514658 0.419118 0.357186
Si Si6 0.316224 0.918446 0.596695
Si Si7 0.938785 0.419482 0.305007
O O1 0.924520 0.250000 0.509120
O O2 0.758833 0.453095 0.656344
O O3 0.885997 0.469869 0.431311
O O4 0.000000 0.500000 0.500000
O O5 0.313883 0.750000 0.187053
O O6 0.467955 0.545423 0.141642
O O7 0.287640 0.490298 0.150753
O O8 0.552235 0.750000 0.188844
O O9 0.551108 0.017903 0.242049
O O10 0.705258 0.947079 0.020264
O O11 0.212620 0.250000 0.142201
O O12 0.077572 0.485801 0.196134
O O13 0.488384 0.250000 0.365482
O O14 0.631161 0.451271 0.343977
O O15 0.390377 0.493473 0.475754
O O16 0.330015 0.750000 0.563576
O O17 0.168944 0.966856 0.691963
O O18 0.956185 0.250000 0.289451
#
# Coordination Sequence:
#
# PCOD8068864 Si02
#       7
#     4   4   4   4   4   4   4
#     4  10  18  29  47  70  98 130 163 201 246 295
#     4  10  20  33  50  73 102 139 174 209 261 306
#     4  10  21  36  53  73 102 140 176 210 253 304
#     4  10  20  34  53  75 100 137 180 213 245 298
#     4  10  20  34  55  82 104 128 168 215 258 300
#     4   9  18  35  58  79 104 134 163 205 261 315
#     4   9  17  32  53  75 102 137 171 202 250 308
#
# _framework density 18.145845000000001
#
# number of rings (size 3 to 8) (size 9 to 14) (size 15 to 20)
#    0.000    2.286    1.429    1.714    0.000    4.000 
#    0.000    3.571    0.000    0.000    0.000    0.000 
#    0.000    0.000    0.000    0.000    0.000    0.000 
#
# Total GULP energy -347143.573083 kJ/mol
# GULP energy per Si atom -12397.984753 kJ/mol
# Density = 1.810454 g / cm^3
# Si number density = 18.145845 Si / 1000 Ang^3
#
#
#
# Elastic Constant Matrix: (Units=GPa)
#
#
# Indices 1 2 3 4 5 6 
#
# 1 117.0267 39.6356 55.0334 0.0000 -10.5182 0.0000
# 2 39.6356 54.3714 43.2032 0.0000 1.0666 0.0000
# 3 55.0334 43.2032 98.6935 0.0000 -7.8829 0.0000
# 4 0.0000 0.0000 0.0000 23.2828 0.0000 4.3092
# 5 -10.5182 1.0666 -7.8829 0.0000 23.7490 0.0000
# 6 0.0000 0.0000 0.0000 4.3092 0.0000 26.7138
#
#
#
# Elastic Compliance Matrix: (Units=1/GPa)
#
#
# Indices 1 2 3 4 5 6 
#
# 1 0.013053 -0.006320 -0.004137 0.000000 0.004692 0.000000
# 2 -0.006320 0.031981 -0.011109 0.000000 -0.007923 0.000000
# 3 -0.004137 -0.011109 0.017664 0.000000 0.004530 0.000000
# 4 0.000000 0.000000 0.000000 0.044272 0.000000 -0.007141
# 5 0.004692 -0.007923 0.004530 0.000000 0.046044 0.000000
# 6 0.000000 0.000000 0.000000 -0.007141 0.000000 0.038586
#
#
# Mechanical properties :
#
#
# Convention : Reuss Voigt Hill
#
# Bulk Modulus (GPa) = 51.10715 60.64846 55.87780
# Shear Modulus (GPa) = 20.72508 23.56374 22.14441
#
# Velocity S-wave (km/s) = 3.38322 3.60748 3.49715
# Velocity P-wave (km/s) = 6.59450 7.13073 6.86785
#
# Compressibility (1/GPa) = 0.01956673
#
# Stress axis : x y z
#
# Youngs Moduli (GPa) = 76.61213 31.26832 56.61233
#
# Poissons Ratio (x) = 0.19761 0.23422
# Poissons Ratio (y) = 0.48417 0.62888
# Poissons Ratio (z) = 0.31696 0.34735
#
# Static dielectric constant tensor:
#      x y z
#    x 3.426470 0.000000 -0.253540 
#    y 0.000000 3.215320 0.000000 
#    z -0.253540 0.000000 3.378490 
# 
# 
# High freq. dielectric constant tensor:
#      x y z
#    x 1.708270 0.000000 -0.011400 
#    y 0.000000 1.684900 0.000000 
#    z -0.011400 0.000000 1.699750 
# 
# From -- ./inp_files/37399.got.cif
#   From: 2010.06.25/outbox.cif.g09.slc.cpg/sg11_19_cif.got.tgz:37399.got - 2010.06.27 23:14:04.
