data_PCOD8068977
_publ_section_title
;
Structure prediction by ZEFSAII (Michael W. Deem and Ramdas Pophale) SiO2 
 PCOD8068977
Probable space group: P 21/M
;
_chemical_formula_sum "Si O2"
_cell_formula_units_Z 32
_cell_length_a 18.203700
_cell_length_b 8.758098
_cell_length_c 15.900488
_cell_angle_alpha 90.000000
_cell_angle_beta 56.055117
_cell_angle_gamma 90.000000
_cell_volume 2102.982413
_symmetry_space_group_name_H-M "P 21/M"
_symmetry_group_IT_number 11
_symmetry_cell_setting 'monoclinic'
loop_
_space_group_symop_operation_xyz
x,y,z
-x,1/2+y,-z
-x,-y,-z
x,1/2-y,z
loop_
_atom_site_type_symbol
_atom_site_label
_atom_site_fract_x
_atom_site_fract_y
_atom_site_fract_z
Si Si1 0.991343 0.425496 0.595260
Si Si2 0.589520 0.931955 0.405273
Si Si3 0.659960 0.429827 0.515078
Si Si4 0.181859 0.072354 0.291727
Si Si5 0.516605 0.430245 0.297820
Si Si6 0.629205 0.573006 0.888629
Si Si7 0.185868 0.426348 0.483831
Si Si8 0.520558 0.573854 0.120063
O O1 0.972658 0.250000 0.593182
O O2 0.904637 0.495249 0.696381
O O3 0.000000 0.500000 0.500000
O O4 0.085176 0.450709 0.582892
O O5 0.590151 0.750000 0.404932
O O6 0.500000 0.000000 0.500000
O O7 0.666449 0.996613 0.417022
O O8 0.593695 0.995889 0.307396
O O9 0.644675 0.250000 0.517740
O O10 0.579736 0.501869 0.619494
O O11 0.751639 0.464550 0.502471
O O12 0.164859 0.250000 0.296446
O O13 0.268734 0.022566 0.184446
O O14 0.193219 0.023750 0.381724
O O15 0.514145 0.250000 0.312983
O O16 0.541890 0.470052 0.186469
O O17 0.616203 0.750000 0.871562
O O18 0.573109 0.471638 0.860216
O O19 0.598904 0.543432 0.003381
O O20 0.215195 0.250000 0.475506
O O21 0.515855 0.750000 0.150366
#
# Coordination Sequence:
#
# PCOD8068977 Si02
#       8
#     4   4   4   4   4   4   4   4
#     4   9  17  28  42  59  81 108 139 174 209 247
#     4  10  18  30  45  61  83 109 138 172 209 249
#     4  11  20  29  43  64  86 110 142 175 208 249
#     4   9  17  29  44  60  82 112 143 174 211 251
#     4  11  20  31  45  60  83 114 145 176 212 249
#     4   9  18  31  45  62  86 114 142 177 217 251
#     4   9  17  28  41  60  86 114 141 171 209 249
#     4  10  19  30  44  63  85 111 146 181 212 248
#
# _framework density 15.216485
#
# number of rings (size 3 to 8) (size 9 to 14) (size 15 to 20)
#    0.000    2.250    0.000    7.125    0.000    4.500 
#    0.000    0.000    0.000    0.000    0.000    0.000 
#    0.000    1.000    0.000    3.000    0.000    4.625 
#
# Total GULP energy -396668.436856 kJ/mol
# GULP energy per Si atom -12395.888652 kJ/mol
# Density = 1.518185 g / cm^3
# Si number density = 15.216485 Si / 1000 Ang^3
#
#
#
# Elastic Constant Matrix: (Units=GPa)
#
#
# Indices 1 2 3 4 5 6 
#
# 1 80.2848 45.6310 47.0733 0.0000 -2.8953 0.0000
# 2 45.6310 105.2007 35.1215 0.0000 0.1224 0.0000
# 3 47.0733 35.1215 75.3795 0.0000 -7.5791 0.0000
# 4 0.0000 0.0000 0.0000 20.2353 0.0000 0.0646
# 5 -2.8953 0.1224 -7.5791 0.0000 25.4686 0.0000
# 6 0.0000 0.0000 0.0000 0.0646 0.0000 28.3702
#
#
#
# Elastic Compliance Matrix: (Units=1/GPa)
#
#
# Indices 1 2 3 4 5 6 
#
# 1 0.022454 -0.005957 -0.011326 0.000000 -0.000789 0.000000
# 2 -0.005957 0.012906 -0.002440 0.000000 -0.001465 0.000000
# 3 -0.011326 -0.002440 0.022006 0.000000 0.005273 0.000000
# 4 0.000000 0.000000 0.000000 0.049419 0.000000 -0.000113
# 5 -0.000789 -0.001465 0.005273 0.000000 0.040751 0.000000
# 6 0.000000 0.000000 0.000000 -0.000113 0.000000 0.035249
#
#
# Mechanical properties :
#
#
# Convention : Reuss Voigt Hill
#
# Bulk Modulus (GPa) = 55.80623 57.39074 56.59848
# Shear Modulus (GPa) = 21.91027 23.68411 22.79719
#
# Velocity S-wave (km/s) = 3.79872 3.94950 3.87485
# Velocity P-wave (km/s) = 7.48297 7.65481 7.56938
#
# Compressibility (1/GPa) = 0.01791915
#
# Stress axis : x y z
#
# Youngs Moduli (GPa) = 44.53619 77.48292 45.44195
#
# Poissons Ratio (x) = 0.46159 0.51466
# Poissons Ratio (y) = 0.26532 0.11090
# Poissons Ratio (z) = 0.50440 0.18909
#
# Static dielectric constant tensor:
#      x y z
#    x 3.226440 0.000000 -0.005270 
#    y 0.000000 3.078230 0.000000 
#    z -0.005270 0.000000 2.920070 
# 
# 
# High freq. dielectric constant tensor:
#      x y z
#    x 1.570910 0.000000 -0.002760 
#    y 0.000000 1.598800 0.000000 
#    z -0.002760 0.000000 1.548520 
# 
# From -- ./inp_files/60692.got.cif
#   From: 2010.06.25/outbox.cif.g09.slc.cpg/sg11_31_cif.got.tgz:60692.got - 2010.06.27 23:14:04.
