data_PCOD8068308
_publ_section_title
;
Structure prediction by ZEFSAII (Michael W. Deem and Ramdas Pophale) SiO2 
 PCOD8068308
Probable space group: P 21/M
;
_chemical_formula_sum "Si O2"
_cell_formula_units_Z 32
_cell_length_a 23.929106
_cell_length_b 9.015833
_cell_length_c 30.057798
_cell_angle_alpha 90.000000
_cell_angle_beta 16.139499
_cell_angle_gamma 90.000000
_cell_volume 1802.595399
_symmetry_space_group_name_H-M "P 21/M"
_symmetry_group_IT_number 11
_symmetry_cell_setting 'monoclinic'
loop_
_space_group_symop_operation_xyz
x,y,z
-x,1/2+y,-z
-x,-y,-z
x,1/2-y,z
loop_
_atom_site_type_symbol
_atom_site_label
_atom_site_fract_x
_atom_site_fract_y
_atom_site_fract_z
Si Si1 0.398470 0.080317 0.617701
Si Si2 0.378897 0.074416 0.850179
Si Si3 0.211792 0.077157 0.468532
Si Si4 0.392876 0.578928 0.931770
Si Si5 0.009566 0.075190 0.872750
Si Si6 0.781396 0.076387 0.370931
Si Si7 0.002407 0.079541 0.717291
Si Si8 0.156533 0.078874 0.411566
O O1 0.412188 0.250000 0.594162
O O2 0.160302 0.038136 0.799461
O O3 0.536805 0.048494 0.555442
O O4 0.500000 0.000000 0.500000
O O5 0.378889 0.250000 0.847032
O O6 0.588428 0.012549 0.671255
O O7 0.340123 0.024107 0.930480
O O8 0.198945 0.008475 0.957663
O O9 0.270016 0.250000 0.421491
O O10 0.041448 0.044476 0.635537
O O11 0.131093 0.024031 0.482097
O O12 0.382607 0.750000 0.923723
O O13 0.616581 0.543384 0.778573
O O14 0.232024 0.545422 0.093590
O O15 0.969358 0.250000 0.898374
O O16 0.103005 0.015802 0.755159
O O17 0.832124 0.250000 0.326096
O O18 0.851316 0.022657 0.365611
O O19 0.053890 0.250000 0.688811
O O20 0.105649 0.250000 0.446916
O O21 0.000000 0.000000 0.500000
#
# Coordination Sequence:
#
# PCOD8068308 Si02
#       8
#     4   4   4   4   4   4   4   4
#     4   8  16  27  40  62  94 130 165 206 254 301
#     4  11  20  30  48  75 102 130 166 216 265 297
#     4   9  20  37  54  74 101 135 172 205 245 303
#     4   9  18  33  53  76 102 133 169 205 243 297
#     4  10  17  28  46  67  95 133 174 210 249 303
#     4  10  18  28  44  71 103 130 163 211 262 300
#     4  10  19  33  54  75  99 135 173 207 249 303
#     4   9  18  34  55  77 103 134 167 205 243 287
#
# _framework density 17.752182000000001
#
# number of rings (size 3 to 8) (size 9 to 14) (size 15 to 20)
#    0.000    2.500    1.250    2.625    0.000    3.500 
#    0.000    0.625    0.000    0.750    0.000    0.000 
#    0.000    0.000    0.000    0.000    0.000    0.000 
#
# Total GULP energy -396529.721475 kJ/mol
# GULP energy per Si atom -12391.553796 kJ/mol
# Density = 1.771178 g / cm^3
# Si number density = 17.752182 Si / 1000 Ang^3
#
#
#
# Elastic Constant Matrix: (Units=GPa)
#
#
# Indices 1 2 3 4 5 6 
#
# 1 82.9002 27.9451 63.0434 0.0000 -14.2599 0.0000
# 2 27.9451 68.9783 38.0990 0.0000 -9.9596 0.0000
# 3 63.0434 38.0990 117.5488 0.0000 -8.4721 0.0000
# 4 0.0000 0.0000 0.0000 22.6970 0.0000 -7.9630
# 5 -14.2599 -9.9596 -8.4721 0.0000 35.1333 0.0000
# 6 0.0000 0.0000 0.0000 -7.9630 0.0000 22.7741
#
#
#
# Elastic Compliance Matrix: (Units=1/GPa)
#
#
# Indices 1 2 3 4 5 6 
#
# 1 0.021830 -0.002171 -0.010594 0.000000 0.005690 0.000000
# 2 -0.002171 0.018357 -0.004553 0.000000 0.003225 0.000000
# 3 -0.010594 -0.004553 0.015532 0.000000 -0.001845 0.000000
# 4 0.000000 0.000000 0.000000 0.050219 0.000000 0.017559
# 5 0.005690 0.003225 -0.001845 0.000000 0.031242 0.000000
# 6 0.000000 0.000000 0.000000 0.017559 0.000000 0.050049
#
#
# Mechanical properties :
#
#
# Convention : Reuss Voigt Hill
#
# Bulk Modulus (GPa) = 47.43232 58.62248 53.02740
# Shear Modulus (GPa) = 21.84439 25.47687 23.66063
#
# Velocity S-wave (km/s) = 3.51168 3.79243 3.65475
# Velocity P-wave (km/s) = 6.57417 7.22988 6.90981
#
# Compressibility (1/GPa) = 0.02108267
#
# Stress axis : x y z
#
# Youngs Moduli (GPa) = 45.80934 54.47430 64.38525
#
# Poissons Ratio (x) = 0.11826 0.68209
# Poissons Ratio (y) = 0.09945 0.29315
# Poissons Ratio (z) = 0.48530 0.24803
#
# Static dielectric constant tensor:
#      x y z
#    x 3.219270 0.000000 -0.312430 
#    y 0.000000 3.248490 0.000000 
#    z -0.312430 0.000000 3.486140 
# 
# 
# High freq. dielectric constant tensor:
#      x y z
#    x 1.655710 0.000000 -0.024200 
#    y 0.000000 1.688640 0.000000 
#    z -0.024200 0.000000 1.683460 
# 
# From -- ./inp_files/72028.got.cif
#   From: 2010.06.25/outbox.cif.g09.slc.cpg/sg11_37_cif.got.tgz:72028.got - 2010.06.27 23:14:04.
