data_PCOD8068976
_publ_section_title
;
Structure prediction by ZEFSAII (Michael W. Deem and Ramdas Pophale) SiO2 
 PCOD8068976
Probable space group: P 21/M
;
_chemical_formula_sum "Si O2"
_cell_formula_units_Z 28
_cell_length_a 14.337970
_cell_length_b 8.975523
_cell_length_c 17.332334
_cell_angle_alpha 90.000000
_cell_angle_beta 49.273855
_cell_angle_gamma 90.000000
_cell_volume 1690.363517
_symmetry_space_group_name_H-M "P 21/M"
_symmetry_group_IT_number 11
_symmetry_cell_setting 'monoclinic'
loop_
_space_group_symop_operation_xyz
x,y,z
-x,1/2+y,-z
-x,-y,-z
x,1/2-y,z
loop_
_atom_site_type_symbol
_atom_site_label
_atom_site_fract_x
_atom_site_fract_y
_atom_site_fract_z
Si Si1 0.598985 0.076249 0.131595
Si Si2 0.969685 0.424879 0.136345
Si Si3 0.812544 0.924208 0.095727
Si Si4 0.931881 0.927253 0.607891
Si Si5 0.658045 0.578126 0.781590
Si Si6 0.965689 0.420731 0.745794
Si Si7 0.677643 0.418348 0.923053
O O1 0.634149 0.250000 0.122075
O O2 0.451531 0.050065 0.221427
O O3 0.674411 0.980301 0.152811
O O4 0.633841 0.015951 0.028019
O O5 0.951945 0.250000 0.157585
O O6 0.858085 0.487871 0.145979
O O7 0.960970 0.504589 0.223544
O O8 0.099086 0.461140 0.024438
O O9 0.811484 0.750000 0.115111
O O10 0.945200 0.750000 0.597819
O O11 0.788958 0.981360 0.679696
O O12 0.000000 0.000000 0.500000
O O13 0.994281 0.988845 0.652197
O O14 0.672688 0.750000 0.792591
O O15 0.617937 0.506362 0.884345
O O16 0.008679 0.250000 0.712549
O O17 0.823382 0.432308 0.841804
O O18 0.631909 0.250000 0.939915
#
# Coordination Sequence:
#
# PCOD8068976 Si02
#       7
#     4   4   4   4   4   4   4
#     4  10  18  30  44  64  94 129 161 194 234 276
#     4  10  19  31  46  66  94 129 166 202 237 275
#     4  10  20  30  44  66  94 130 168 203 234 271
#     4  10  20  35  52  73  97 123 158 200 245 290
#     4   9  19  31  46  66  92 123 158 196 236 283
#     4  10  18  30  49  72  97 126 159 198 240 284
#     4   9  17  27  42  64  93 126 159 190 227 275
#
# _framework density 16.564484
#
# number of rings (size 3 to 8) (size 9 to 14) (size 15 to 20)
#    0.000    2.286    1.429    2.143    0.000    3.429 
#    0.000    0.000    0.000    0.000    0.000    1.000 
#    0.000    0.000    0.000    0.000    0.000    0.000 
#
# Total GULP energy -347175.946076 kJ/mol
# GULP energy per Si atom -12399.140931 kJ/mol
# Density = 1.652678 g / cm^3
# Si number density = 16.564484 Si / 1000 Ang^3
#
#
#
# Elastic Constant Matrix: (Units=GPa)
#
#
# Indices 1 2 3 4 5 6 
#
# 1 117.5733 49.7186 39.7921 0.0000 5.9918 0.0000
# 2 49.7186 75.8442 29.8527 0.0000 7.3962 0.0000
# 3 39.7921 29.8527 64.3607 0.0000 11.9833 0.0000
# 4 0.0000 0.0000 0.0000 20.5132 0.0000 4.7713
# 5 5.9918 7.3962 11.9833 0.0000 18.6673 0.0000
# 6 0.0000 0.0000 0.0000 4.7713 0.0000 33.2720
#
#
#
# Elastic Compliance Matrix: (Units=1/GPa)
#
#
# Indices 1 2 3 4 5 6 
#
# 1 0.013009 -0.006615 -0.005321 0.000000 0.001861 0.000000
# 2 -0.006615 0.019547 -0.004464 0.000000 -0.002756 0.000000
# 3 -0.005321 -0.004464 0.022999 0.000000 -0.011288 0.000000
# 4 0.000000 0.000000 0.000000 0.050431 0.000000 -0.007232
# 5 0.001861 -0.002756 -0.011288 0.000000 0.061310 0.000000
# 6 0.000000 0.000000 0.000000 -0.007232 0.000000 0.031092
#
#
# Mechanical properties :
#
#
# Convention : Reuss Voigt Hill
#
# Bulk Modulus (GPa) = 43.94505 55.16721 49.55613
# Shear Modulus (GPa) = 20.94037 23.71813 22.32925
#
# Velocity S-wave (km/s) = 3.55938 3.78811 3.67552
# Velocity P-wave (km/s) = 6.59390 7.24637 6.92782
#
# Compressibility (1/GPa) = 0.02275569
#
# Stress axis : x y z
#
# Youngs Moduli (GPa) = 76.87229 51.15938 43.47929
#
# Poissons Ratio (x) = 0.33840 0.23136
# Poissons Ratio (y) = 0.50848 0.19408
# Poissons Ratio (z) = 0.40906 0.22836
#
# Static dielectric constant tensor:
#      x y z
#    x 3.150020 0.000000 -0.051630 
#    y 0.000000 3.175340 0.000000 
#    z -0.051630 0.000000 2.864490 
# 
# 
# High freq. dielectric constant tensor:
#      x y z
#    x 1.639170 0.000000 -0.001800 
#    y 0.000000 1.646910 0.000000 
#    z -0.001800 0.000000 1.592070 
# 
# From -- ./inp_files/38488.got.cif
#   From: 2010.06.25/outbox.cif.g09.slc.cpg/sg11_20_cif.got.tgz:38488.got - 2010.06.27 23:14:04.
