data_PCOD8068463
_publ_section_title
;
Structure prediction by ZEFSAII (Michael W. Deem and Ramdas Pophale) SiO2 
 PCOD8068463
Probable space group: P 21/M
;
_chemical_formula_sum "Si O2"
_cell_formula_units_Z 32
_cell_length_a 13.259308
_cell_length_b 20.829240
_cell_length_c 7.994121
_cell_angle_alpha 90.000000
_cell_angle_beta 135.948005
_cell_angle_gamma 90.000000
_cell_volume 1535.125980
_symmetry_space_group_name_H-M "P 21/M"
_symmetry_group_IT_number 11
_symmetry_cell_setting 'monoclinic'
loop_
_space_group_symop_operation_xyz
x,y,z
-x,1/2+y,-z
-x,-y,-z
x,1/2-y,z
loop_
_atom_site_type_symbol
_atom_site_label
_atom_site_fract_x
_atom_site_fract_y
_atom_site_fract_z
Si Si1 0.162047 0.605653 0.094168
Si Si2 0.709868 0.947419 0.207371
Si Si3 0.930120 0.512829 0.708708
Si Si4 0.674118 0.992714 0.637163
Si Si5 0.104455 0.824245 0.354766
Si Si6 0.448517 0.562849 0.137104
Si Si7 0.157796 0.095894 0.943773
Si Si8 0.239811 0.825564 0.873888
O O1 0.300997 0.557036 0.214670
O O2 0.187644 0.642082 0.299457
O O3 0.137838 0.654587 0.910326
O O4 0.017679 0.560672 0.938892
O O5 0.869347 0.948217 0.478986
O O6 0.586790 0.923024 0.184981
O O7 0.732566 0.897684 0.082356
O O8 0.670827 0.018135 0.091071
O O9 0.783977 0.484367 0.619881
O O10 0.034251 0.457644 0.764253
O O11 0.511078 0.978840 0.374492
O O12 0.737010 0.925295 0.779710
O O13 0.129682 0.750000 0.360040
O O14 0.168156 0.845720 0.611325
O O15 0.930869 0.838282 0.134302
O O16 0.386730 0.634568 0.085522
O O17 0.273532 0.750000 0.920221
#
# Coordination Sequence:
#
# PCOD8068463 Si02
#       8
#     4   4   4   4   4   4   4   4
#     4  11  20  38  65  88 119 147 189 246 307 352
#     4  10  21  31  59  87 115 154 188 239 300 342
#     4  10  17  33  56  90 118 144 174 239 308 347
#     4  10  20  34  59  89 120 150 183 242 305 350
#     4  11  23  39  61  87 117 152 196 246 288 352
#     4  10  22  40  54  87 122 153 202 242 287 345
#     4  11  18  34  55  86 118 145 186 239 296 352
#     4  11  25  42  60  83 115 161 205 240 283 349
#
# _framework density 20.845195
#
# number of rings (size 3 to 8) (size 9 to 14) (size 15 to 20)
#    0.000    1.500    2.500    4.500    3.500    2.000 
#    0.000    1.250    0.000    0.000    0.000    0.000 
#    0.000    0.000    0.000    0.000    0.000    0.000 
#
# Total GULP energy -396570.657056 kJ/mol
# GULP energy per Si atom -12392.833033 kJ/mol
# Density = 2.079775 g / cm^3
# Si number density = 20.845195 Si / 1000 Ang^3
#
#
#
# Elastic Constant Matrix: (Units=GPa)
#
#
# Indices 1 2 3 4 5 6 
#
# 1 22.3788 19.2486 23.9334 0.0000 -11.5432 0.0000
# 2 19.2486 95.4555 46.7571 0.0000 -4.3321 0.0000
# 3 23.9334 46.7571 115.7857 0.0000 -7.2065 0.0000
# 4 0.0000 0.0000 0.0000 28.4644 0.0000 -3.2829
# 5 -11.5432 -4.3321 -7.2065 0.0000 37.1302 0.0000
# 6 0.0000 0.0000 0.0000 -3.2829 0.0000 24.9649
#
#
#
# Elastic Compliance Matrix: (Units=1/GPa)
#
#
# Indices 1 2 3 4 5 6 
#
# 1 0.073684 -0.008853 -0.010420 0.000000 0.019852 0.000000
# 2 -0.008853 0.014132 -0.003994 0.000000 -0.001879 0.000000
# 3 -0.010420 -0.003994 0.012322 0.000000 -0.001314 0.000000
# 4 0.000000 0.000000 0.000000 0.035673 0.000000 0.004691
# 5 0.019852 -0.001879 -0.001314 0.000000 0.032630 0.000000
# 6 0.000000 0.000000 0.000000 0.004691 0.000000 0.040673
#
#
# Mechanical properties :
#
#
# Convention : Reuss Voigt Hill
#
# Bulk Modulus (GPa) = 18.65560 45.94426 32.29993
# Shear Modulus (GPa) = 18.28050 27.69062 22.98556
#
# Velocity S-wave (km/s) = 2.96457 3.64867 3.32426
# Velocity P-wave (km/s) = 4.54833 6.31181 5.50119
#
# Compressibility (1/GPa) = 0.05360321
#
# Stress axis : x y z
#
# Youngs Moduli (GPa) = 13.57152 70.75903 81.15847
#
# Poissons Ratio (x) = 0.62646 0.84567
# Poissons Ratio (y) = 0.12015 0.32414
# Poissons Ratio (z) = 0.14141 0.28261
#
# Static dielectric constant tensor:
#      x y z
#    x 4.025320 0.000000 -0.203260 
#    y 0.000000 3.506220 0.000000 
#    z -0.203260 0.000000 3.967600 
# 
# 
# High freq. dielectric constant tensor:
#      x y z
#    x 1.846560 0.000000 -0.015000 
#    y 0.000000 1.771800 0.000000 
#    z -0.015000 0.000000 1.821730 
# 
# From -- ./inp_files/23134.got.cif
#   From: 2010.06.25/outbox.cif.g09.slc.cpg/sg11_12_cif.got.tgz:23134.got - 2010.06.27 23:14:04.
