data_PCOD8068584
_publ_section_title
;
Structure prediction by ZEFSAII (Michael W. Deem and Ramdas Pophale) SiO2 
 PCOD8068584
Probable space group: P 21/M
;
_chemical_formula_sum "Si O2"
_cell_formula_units_Z 28
_cell_length_a 16.060142
_cell_length_b 8.852543
_cell_length_c 12.077543
_cell_angle_alpha 90.000000
_cell_angle_beta 75.814326
_cell_angle_gamma 90.000000
_cell_volume 1664.741526
_symmetry_space_group_name_H-M "P 21/M"
_symmetry_group_IT_number 11
_symmetry_cell_setting 'monoclinic'
loop_
_space_group_symop_operation_xyz
x,y,z
-x,1/2+y,-z
-x,-y,-z
x,1/2-y,z
loop_
_atom_site_type_symbol
_atom_site_label
_atom_site_fract_x
_atom_site_fract_y
_atom_site_fract_z
Si Si1 0.722589 0.076174 0.070155
Si Si2 0.213248 0.576401 0.701963
Si Si3 0.370120 0.424458 0.561488
Si Si4 0.951249 0.920325 0.175761
Si Si5 0.493364 0.424014 0.327393
Si Si6 0.113231 0.079567 0.053533
Si Si7 0.540880 0.571689 0.094248
O O1 0.705721 0.250000 0.045594
O O2 0.747825 0.055581 0.189137
O O3 0.638638 0.979535 0.074398
O O4 0.798581 0.014032 0.967354
O O5 0.208872 0.750000 0.667692
O O6 0.272963 0.485606 0.596103
O O7 0.117764 0.508157 0.726660
O O8 0.373912 0.250000 0.596978
O O9 0.405970 0.445389 0.425540
O O10 0.425594 0.521596 0.628508
O O11 0.960285 0.750000 0.217000
O O12 0.921256 0.921428 0.059427
O O13 0.043080 0.002634 0.156520
O O14 0.510209 0.250000 0.291380
O O15 0.485061 0.518869 0.217949
O O16 0.129659 0.250000 0.088925
O O17 0.536954 0.750000 0.086025
O O18 0.500000 0.500000 0.000000
#
# Coordination Sequence:
#
# PCOD8068584 Si02
#       7
#     4   4   4   4   4   4   4
#     4  10  19  31  46  65  90 121 158 196 236 281
#     4  10  18  27  43  65  94 125 157 194 232 280
#     4  10  19  30  48  70  95 125 158 195 236 284
#     4   9  16  25  38  58  87 120 155 190 229 276
#     4  10  20  34  49  69  94 122 158 198 239 284
#     4   9  16  26  40  59  85 118 155 190 230 278
#     4  12  24  37  53  70  93 124 161 203 245 286
#
# _framework density 16.819429
#
# number of rings (size 3 to 8) (size 9 to 14) (size 15 to 20)
#    0.000    2.000    1.429    3.857    0.000    6.286 
#    0.000    0.000    0.000    0.000    0.000    0.000 
#    0.000    1.143    0.000    4.286    0.000    6.571 
#
# Total GULP energy -347244.893471 kJ/mol
# GULP energy per Si atom -12401.603338 kJ/mol
# Density = 1.678115 g / cm^3
# Si number density = 16.819429 Si / 1000 Ang^3
#
#
#
# Elastic Constant Matrix: (Units=GPa)
#
#
# Indices 1 2 3 4 5 6 
#
# 1 53.3705 45.7202 46.7533 0.0000 -29.7137 0.0000
# 2 45.7202 148.1232 52.0716 0.0000 -19.0384 0.0000
# 3 46.7533 52.0716 76.8069 0.0000 -23.0914 0.0000
# 4 0.0000 0.0000 0.0000 25.1165 0.0000 -8.7910
# 5 -29.7137 -19.0384 -23.0914 0.0000 35.2050 0.0000
# 6 0.0000 0.0000 0.0000 -8.7910 0.0000 29.4035
#
#
#
# Elastic Compliance Matrix: (Units=1/GPa)
#
#
# Indices 1 2 3 4 5 6 
#
# 1 0.067007 -0.007242 -0.024979 0.000000 0.036255 0.000000
# 2 -0.007242 0.009678 -0.003011 0.000000 -0.002853 0.000000
# 3 -0.024979 -0.003011 0.029195 0.000000 -0.003561 0.000000
# 4 0.000000 0.000000 0.000000 0.044468 0.000000 0.013295
# 5 0.036255 -0.002853 -0.003561 0.000000 0.055126 0.000000
# 6 0.000000 0.000000 0.000000 0.013295 0.000000 0.037984
#
#
# Mechanical properties :
#
#
# Convention : Reuss Voigt Hill
#
# Bulk Modulus (GPa) = 28.23462 63.04344 45.63903
# Shear Modulus (GPa) = 15.35030 26.86204 21.10617
#
# Velocity S-wave (km/s) = 3.02429 4.00069 3.54626
# Velocity P-wave (km/s) = 5.38688 7.67493 6.63035
#
# Compressibility (1/GPa) = 0.03541751
#
# Stress axis : x y z
#
# Youngs Moduli (GPa) = 14.92388 103.32550 34.25224
#
# Poissons Ratio (x) = 0.74824 0.85557
# Poissons Ratio (y) = 0.10807 0.10314
# Poissons Ratio (z) = 0.37278 0.31113
#
# Static dielectric constant tensor:
#      x y z
#    x 3.099310 0.000000 -0.359930 
#    y 0.000000 3.397310 0.000000 
#    z -0.359930 0.000000 3.103220 
# 
# 
# High freq. dielectric constant tensor:
#      x y z
#    x 1.621200 0.000000 -0.049800 
#    y 0.000000 1.672510 0.000000 
#    z -0.049800 0.000000 1.613310 
# 
# From -- ./inp_files/37501.got.cif
#   From: 2010.06.25/outbox.cif.g09.slc.cpg/sg11_19_cif.got.tgz:37501.got - 2010.06.27 23:14:04.
