data_PCOD8068213
_publ_section_title
;
Structure prediction by ZEFSAII (Michael W. Deem and Ramdas Pophale) SiO2 
 PCOD8068213
Probable space group: P 21/M
;
_chemical_formula_sum "Si O2"
_cell_formula_units_Z 32
_cell_length_a 30.804599
_cell_length_b 8.941967
_cell_length_c 20.418691
_cell_angle_alpha 90.000000
_cell_angle_beta 158.383864
_cell_angle_gamma 90.000000
_cell_volume 2071.953925
_symmetry_space_group_name_H-M "P 21/M"
_symmetry_group_IT_number 11
_symmetry_cell_setting 'monoclinic'
loop_
_space_group_symop_operation_xyz
x,y,z
-x,1/2+y,-z
-x,-y,-z
x,1/2-y,z
loop_
_atom_site_type_symbol
_atom_site_label
_atom_site_fract_x
_atom_site_fract_y
_atom_site_fract_z
Si Si1 0.065143 0.925147 0.242200
Si Si2 0.798854 0.920808 0.828282
Si Si3 0.884649 0.922659 0.811766
Si Si4 0.373765 0.926658 0.319437
Si Si5 0.944046 0.573738 0.637101
Si Si6 0.793160 0.077049 0.025376
Si Si7 0.099243 0.578845 0.549302
Si Si8 0.866308 0.077452 0.263262
O O1 0.087610 0.750000 0.275150
O O2 0.929015 0.965319 0.036281
O O3 0.149661 0.996310 0.304458
O O4 0.105235 0.995928 0.367061
O O5 0.771439 0.750000 0.809860
O O6 0.787814 0.939434 0.733737
O O7 0.703164 0.030198 0.725322
O O8 0.911277 0.750000 0.834677
O O9 0.000000 0.000000 0.000000
O O10 0.390199 0.750000 0.340143
O O11 0.500000 0.000000 0.500000
O O12 0.308306 0.993537 0.162601
O O13 0.934147 0.750000 0.631031
O O14 0.865933 0.522256 0.464465
O O15 0.077362 0.514942 0.811840
O O16 0.794532 0.250000 0.009620
O O17 0.768580 0.049044 0.068812
O O18 0.102820 0.750000 0.531236
O O19 0.183276 0.553365 0.731922
O O20 0.970192 0.538586 0.394992
O O21 0.912218 0.250000 0.320237
#
# Coordination Sequence:
#
# PCOD8068213 Si02
#       8
#     4   4   4   4   4   4   4   4
#     4  10  18  27  41  62  84 106 136 171 203 241
#     4   9  18  31  44  59  79 102 133 172 208 245
#     4   9  17  28  42  60  81 105 133 166 203 244
#     4  11  21  32  45  60  79 105 139 177 217 251
#     4  10  17  26  39  55  79 109 139 165 197 241
#     4   8  15  27  41  55  70  99 136 169 205 245
#     4   9  15  22  34  54  76  99 128 164 200 233
#     4   8  14  25  38  51  71  98 131 164 198 242
#
# _framework density 15.444359
#
# number of rings (size 3 to 8) (size 9 to 14) (size 15 to 20)
#    0.000    2.750    1.250    3.375    0.000    3.000 
#    0.000    0.625    0.000    0.000    0.000    0.000 
#    0.000    0.000    0.000    1.125    0.000   12.250 
#
# Total GULP energy -396417.629811 kJ/mol
# GULP energy per Si atom -12388.050932 kJ/mol
# Density = 1.540921 g / cm^3
# Si number density = 15.444359 Si / 1000 Ang^3
#
#
#
# Elastic Constant Matrix: (Units=GPa)
#
#
# Indices 1 2 3 4 5 6 
#
# 1 135.1907 49.8131 36.0629 0.0000 -31.8495 0.0000
# 2 49.8131 75.7145 18.2895 0.0000 -7.9435 0.0000
# 3 36.0629 18.2895 36.2067 0.0000 -9.8938 0.0000
# 4 0.0000 0.0000 0.0000 13.0955 0.0000 -2.0885
# 5 -31.8495 -7.9435 -9.8938 0.0000 19.3565 0.0000
# 6 0.0000 0.0000 0.0000 -2.0885 0.0000 29.7633
#
#
#
# Elastic Compliance Matrix: (Units=1/GPa)
#
#
# Indices 1 2 3 4 5 6 
#
# 1 0.017070 -0.007171 -0.007566 0.000000 0.021277 0.000000
# 2 -0.007171 0.018174 -0.003748 0.000000 -0.006256 0.000000
# 3 -0.007566 -0.003748 0.038620 0.000000 0.005753 0.000000
# 4 0.000000 0.000000 0.000000 0.077227 0.000000 0.005419
# 5 0.021277 -0.006256 0.005753 0.000000 0.087046 0.000000
# 6 0.000000 0.000000 0.000000 0.005419 0.000000 0.033979
#
#
# Mechanical properties :
#
#
# Convention : Reuss Voigt Hill
#
# Bulk Modulus (GPa) = 27.10334 50.60479 38.85407
# Shear Modulus (GPa) = 15.55778 21.97282 18.76530
#
# Velocity S-wave (km/s) = 3.17731 3.77597 3.48950
# Velocity P-wave (km/s) = 5.57203 7.20053 6.43798
#
# Compressibility (1/GPa) = 0.03689582
#
# Stress axis : x y z
#
# Youngs Moduli (GPa) = 58.58211 55.02333 25.89311
#
# Poissons Ratio (x) = 0.39455 0.19590
# Poissons Ratio (y) = 0.42007 0.09704
# Poissons Ratio (z) = 0.44322 0.20622
#
# Static dielectric constant tensor:
#      x y z
#    x 3.448950 0.000000 -0.424170 
#    y 0.000000 3.000600 0.000000 
#    z -0.424170 0.000000 2.570830 
# 
# 
# High freq. dielectric constant tensor:
#      x y z
#    x 1.605640 0.000000 -0.038540 
#    y 0.000000 1.599330 0.000000 
#    z -0.038540 0.000000 1.512240 
# 
# From -- ./inp_files/67439.got.cif
#   From: 2010.06.25/outbox.cif.g09.slc.cpg/sg11_34_cif.got.tgz:67439.got - 2010.06.27 23:14:04.
