data_PCOD8068006
_publ_section_title
;
Structure prediction by ZEFSAII (Michael W. Deem and Ramdas Pophale) SiO2 
 PCOD8068006
Probable space group: P 2/M
;
_chemical_formula_sum "Si O2"
_cell_formula_units_Z 28
_cell_length_a 9.931740
_cell_length_b 9.137084
_cell_length_c 27.987225
_cell_angle_alpha 90.000000
_cell_angle_beta 38.050176
_cell_angle_gamma 90.000000
_cell_volume 1565.384882
_symmetry_space_group_name_H-M "P 2/M"
_symmetry_group_IT_number 10
_symmetry_cell_setting 'monoclinic'
loop_
_space_group_symop_operation_xyz
x,y,z
-x,y,-z
-x,-y,-z
x,-y,z
loop_
_atom_site_type_symbol
_atom_site_label
_atom_site_fract_x
_atom_site_fract_y
_atom_site_fract_z
Si Si1 0.758043 0.325954 0.560937
Si Si2 0.494024 0.674207 0.724429
Si Si3 0.290853 0.674347 0.531367
Si Si4 0.154917 0.326243 0.298238
Si Si5 0.000023 0.327613 0.858523
Si Si6 0.737958 0.671840 0.837598
Si Si7 0.634477 0.835632 0.010868
O O1 0.763439 0.500000 0.563079
O O2 0.600617 0.262722 0.646006
O O3 0.676391 0.273791 0.532129
O O4 0.000000 0.262339 0.500000
O O5 0.492627 0.500000 0.723216
O O6 0.635424 0.730628 0.730196
O O7 0.246078 0.731740 0.796079
O O8 0.500000 0.739195 0.500000
O O9 0.283814 0.500000 0.536767
O O10 0.067396 0.738000 0.616581
O O11 0.148138 0.500000 0.302962
O O12 0.169299 0.274468 0.239287
O O13 0.982203 0.500000 0.872183
O O14 0.913685 0.287467 0.829490
O O15 0.860561 0.248841 0.938691
O O16 0.689006 0.500000 0.851335
O O17 0.507257 0.752418 0.909727
O O18 0.684438 0.000000 0.014508
O O19 0.500000 0.836457 0.000000
#
# Coordination Sequence:
#
# PCOD8068006 Si02
#       7
#     4   4   4   4   4   4   4
#     4   9  14  22  34  50  78 118 154 179 210 256
#     4   9  16  25  38  57  85 120 153 182 217 264
#     4   9  16  22  32  52  82 118 152 183 216 256
#     4   9  16  26  37  56  87 121 151 180 220 266
#     4   9  17  28  45  68  90 114 148 186 220 260
#     4   9  17  28  45  67  91 116 145 184 225 262
#     4   9  17  31  50  69  89 114 146 182 223 270
#
# _framework density 17.886975
#
# number of rings (size 3 to 8) (size 9 to 14) (size 15 to 20)
#    0.000    3.000    1.429    0.429    2.000    1.714 
#    0.000    0.714    0.000    5.143    0.000    0.000 
#    0.000    2.286    0.000    0.143    0.000    0.000 
#
# Total GULP energy -347075.728679 kJ/mol
# GULP energy per Si atom -12395.561739 kJ/mol
# Density = 1.784626 g / cm^3
# Si number density = 17.886975 Si / 1000 Ang^3
#
#
#
# Elastic Constant Matrix: (Units=GPa)
#
#
# Indices 1 2 3 4 5 6 
#
# 1 115.8828 14.2453 60.4776 0.0000 -13.7858 0.0000
# 2 14.2453 24.0628 23.3397 0.0000 -2.7759 0.0000
# 3 60.4776 23.3397 131.7838 0.0000 -18.7862 0.0000
# 4 0.0000 0.0000 0.0000 0.9876 0.0000 0.6956
# 5 -13.7858 -2.7759 -18.7862 0.0000 34.1524 0.0000
# 6 0.0000 0.0000 0.0000 0.6956 0.0000 5.0496
#
#
#
# Elastic Compliance Matrix: (Units=1/GPa)
#
#
# Indices 1 2 3 4 5 6 
#
# 1 0.011544 -0.002101 -0.004651 0.000000 0.001931 0.000000
# 2 -0.002101 0.050584 -0.008170 0.000000 -0.001231 0.000000
# 3 -0.004651 -0.008170 0.011727 0.000000 0.003909 0.000000
# 4 0.000000 0.000000 0.000000 1.121428 0.000000 -0.154491
# 5 0.001931 -0.001231 0.003909 0.000000 0.032110 0.000000
# 6 0.000000 0.000000 0.000000 -0.154491 0.000000 0.219319
#
#
# Mechanical properties :
#
#
# Convention : Reuss Voigt Hill
#
# Bulk Modulus (GPa) = 22.72091 51.98386 37.35239
# Shear Modulus (GPa) = 3.35294 19.61570 11.48432
#
# Velocity S-wave (km/s) = 1.37062 3.31516 2.53662
# Velocity P-wave (km/s) = 3.90318 6.61659 5.43204
#
# Compressibility (1/GPa) = 0.04401232
#
# Stress axis : x y z
#
# Youngs Moduli (GPa) = 86.62173 19.76903 85.27576
#
# Poissons Ratio (x) = 0.04153 0.39658
# Poissons Ratio (y) = 0.18197 0.69672
# Poissons Ratio (z) = 0.40284 0.16152
#
# Static dielectric constant tensor:
#      x y z
#    x 3.372630 0.000000 -0.030680 
#    y 0.000000 2.719970 0.000000 
#    z -0.030680 0.000000 3.559260 
# 
# 
# High freq. dielectric constant tensor:
#      x y z
#    x 1.685940 0.000000 -0.001550 
#    y 0.000000 1.619870 0.000000 
#    z -0.001550 0.000000 1.705910 
# 
# From -- ./inp_files/79316.got.cif
#   From: 2010.06.25/outbox.cif.g09.slc.cpg/sg10_40_cif.got.tgz:79316.got - 2010.06.27 22:07:45.
