data_PCOD8068683
_publ_section_title
;
Structure prediction by ZEFSAII (Michael W. Deem and Ramdas Pophale) SiO2 
 PCOD8068683
Probable space group: P 21/M
;
_chemical_formula_sum "Si O2"
_cell_formula_units_Z 24
_cell_length_a 11.639278
_cell_length_b 8.985368
_cell_length_c 20.818967
_cell_angle_alpha 90.000000
_cell_angle_beta 45.749383
_cell_angle_gamma 90.000000
_cell_volume 1559.597966
_symmetry_space_group_name_H-M "P 21/M"
_symmetry_group_IT_number 11
_symmetry_cell_setting 'monoclinic'
loop_
_space_group_symop_operation_xyz
x,y,z
-x,1/2+y,-z
-x,-y,-z
x,1/2-y,z
loop_
_atom_site_type_symbol
_atom_site_label
_atom_site_fract_x
_atom_site_fract_y
_atom_site_fract_z
Si Si1 0.699208 0.081581 0.772373
Si Si2 0.461655 0.425192 0.270714
Si Si3 0.128614 0.922948 0.031857
Si Si4 0.224230 0.422234 0.866002
Si Si5 0.848248 0.418883 0.587930
Si Si6 0.670057 0.075702 0.925791
O O1 0.629800 0.250000 0.799828
O O2 0.854730 0.075019 0.664021
O O3 0.743135 0.031702 0.827406
O O4 0.563283 0.972867 0.794813
O O5 0.456320 0.250000 0.281580
O O6 0.634025 0.488231 0.225448
O O7 0.317651 0.499241 0.369101
O O8 0.165793 0.750000 0.002883
O O9 0.205212 0.978455 0.068892
O O10 0.937818 0.949630 0.111124
O O11 0.203821 0.020304 0.946286
O O12 0.271176 0.250000 0.850189
O O13 0.845805 0.250000 0.563488
O O14 0.000000 0.500000 0.500000
O O15 0.643220 0.250000 0.942323
O O16 0.500000 0.000000 0.000000
#
# Coordination Sequence:
#
# PCOD8068683 Si02
#       6
#     4   4   4   4   4   4
#     4   8  17  30  44  63  91 119 146 181 224 269
#     4  10  18  28  45  66  90 118 148 183 223 268
#     4   9  19  31  45  62  85 119 158 191 224 267
#     4  10  18  30  44  62  88 118 153 194 230 262
#     4   9  17  30  47  70  95 119 146 183 230 275
#     4  10  19  31  44  63  89 121 154 185 222 266
#
# _framework density 15.388582
#
# number of rings (size 3 to 8) (size 9 to 14) (size 15 to 20)
#    1.000    1.667    0.000    3.000    0.000    4.667 
#    0.000    0.000    0.000    0.000    0.000    1.167 
#    0.000    0.000    0.000    0.000    0.000    0.000 
#
# Total GULP energy -297352.713530 kJ/mol
# GULP energy per Si atom -12389.696397 kJ/mol
# Density = 1.535356 g / cm^3
# Si number density = 15.388582 Si / 1000 Ang^3
#
#
#
# Elastic Constant Matrix: (Units=GPa)
#
#
# Indices 1 2 3 4 5 6 
#
# 1 94.1673 39.1237 44.7892 0.0000 -11.3707 0.0000
# 2 39.1237 97.0142 40.3559 0.0000 -18.3770 0.0000
# 3 44.7892 40.3559 81.2205 0.0000 -18.6721 0.0000
# 4 0.0000 0.0000 0.0000 26.3821 0.0000 -7.3933
# 5 -11.3707 -18.3770 -18.6721 0.0000 27.4849 0.0000
# 6 0.0000 0.0000 0.0000 -7.3933 0.0000 21.0855
#
#
#
# Elastic Compliance Matrix: (Units=1/GPa)
#
#
# Indices 1 2 3 4 5 6 
#
# 1 0.015213 -0.003409 -0.006841 0.000000 -0.000633 0.000000
# 2 -0.003409 0.014389 -0.004008 0.000000 0.005488 0.000000
# 3 -0.006841 -0.004008 0.019920 0.000000 0.008023 0.000000
# 4 0.000000 0.000000 0.000000 0.042035 0.000000 0.014739
# 5 -0.000633 0.005488 0.008023 0.000000 0.045242 0.000000
# 6 0.000000 0.000000 0.000000 0.014739 0.000000 0.052594
#
#
# Mechanical properties :
#
#
# Convention : Reuss Voigt Hill
#
# Bulk Modulus (GPa) = 47.60390 57.88218 52.74304
# Shear Modulus (GPa) = 22.23089 24.86604 23.54846
#
# Velocity S-wave (km/s) = 3.80496 4.02416 3.91609
# Velocity P-wave (km/s) = 7.09263 7.69982 7.40245
#
# Compressibility (1/GPa) = 0.02100668
#
# Stress axis : x y z
#
# Youngs Moduli (GPa) = 65.73241 69.49528 50.19960
#
# Poissons Ratio (x) = 0.23694 0.34341
# Poissons Ratio (y) = 0.22411 0.20120
# Poissons Ratio (z) = 0.44967 0.27853
#
# Static dielectric constant tensor:
#      x y z
#    x 2.930420 0.000000 -0.028350 
#    y 0.000000 2.977310 0.000000 
#    z -0.028350 0.000000 2.830200 
# 
# 
# High freq. dielectric constant tensor:
#      x y z
#    x 1.568140 0.000000 -0.015750 
#    y 0.000000 1.600410 0.000000 
#    z -0.015750 0.000000 1.566890 
# 
# From -- ./inp_files/48696.got.cif
#   From: 2010.06.25/outbox.cif.g09.slc.cpg/sg11_25_cif.got.tgz:48696.got - 2010.06.27 23:14:04.
