data_PCOD8068373
_publ_section_title
;
Structure prediction by ZEFSAII (Michael W. Deem and Ramdas Pophale) SiO2 
 PCOD8068373
Probable space group: P 21/M
;
_chemical_formula_sum "Si O2"
_cell_formula_units_Z 32
_cell_length_a 12.718088
_cell_length_b 16.391433
_cell_length_c 18.244640
_cell_angle_alpha 90.000000
_cell_angle_beta 26.931686
_cell_angle_gamma 90.000000
_cell_volume 1722.673806
_symmetry_space_group_name_H-M "P 21/M"
_symmetry_group_IT_number 11
_symmetry_cell_setting 'monoclinic'
loop_
_space_group_symop_operation_xyz
x,y,z
-x,1/2+y,-z
-x,-y,-z
x,1/2-y,z
loop_
_atom_site_type_symbol
_atom_site_label
_atom_site_fract_x
_atom_site_fract_y
_atom_site_fract_z
Si Si1 0.143266 0.089807 0.709126
Si Si2 0.341562 0.420209 0.101512
Si Si3 0.551642 0.162072 0.535277
Si Si4 0.016492 0.985563 0.403778
Si Si5 0.948215 0.656459 0.846995
Si Si6 0.202367 0.657693 0.192638
Si Si7 0.911826 0.030671 0.131268
Si Si8 0.405543 0.000784 0.426916
O O1 0.344508 0.153018 0.605267
O O2 0.248647 0.016750 0.595530
O O3 0.947427 0.136680 0.785765
O O4 0.039634 0.044556 0.843976
O O5 0.145979 0.436199 0.285669
O O6 0.215630 0.397117 0.104075
O O7 0.500000 0.500000 0.000000
O O8 0.527835 0.348493 0.001042
O O9 0.528618 0.250000 0.588025
O O10 0.793170 0.155915 0.343590
O O11 0.529281 0.094991 0.612929
O O12 0.143585 0.901962 0.298341
O O13 0.745137 0.978899 0.550692
O O14 0.000000 0.000000 0.500000
O O15 0.856985 0.750000 0.912069
O O16 0.953720 0.611089 0.922763
O O17 0.150913 0.750000 0.249891
O O18 0.640221 0.053072 0.287769
O O19 0.000000 0.000000 0.000000
#
# Coordination Sequence:
#
# PCOD8068373 Si02
#       8
#     4   4   4   4   4   4   4   4
#     4  10  18  36  56  78 109 145 196 224 276 344
#     4  10  20  37  60  81 110 152 201 234 286 345
#     4  10  17  29  56  83 103 133 183 241 277 313
#     4  10  21  37  58  82 114 151 190 236 290 352
#     4  11  20  35  57  86 112 144 194 245 284 330
#     4  10  21  37  58  83 112 151 197 243 283 338
#     4  11  21  34  55  84 115 151 180 227 293 353
#     4  10  18  36  54  77 108 142 194 224 269 344
#
# _framework density 18.575773999999999
#
# number of rings (size 3 to 8) (size 9 to 14) (size 15 to 20)
#    0.000    1.750    3.750    3.000    0.000    3.000 
#    0.000    5.000    0.000    0.000    0.000    0.000 
#    0.000    0.000    0.000    0.000    0.000    0.000 
#
# Total GULP energy -396506.577629 kJ/mol
# GULP energy per Si atom -12390.830551 kJ/mol
# Density = 1.853349 g / cm^3
# Si number density = 18.575774 Si / 1000 Ang^3
#
#
#
# Elastic Constant Matrix: (Units=GPa)
#
#
# Indices 1 2 3 4 5 6 
#
# 1 130.4214 56.7781 62.4312 0.0000 -1.6143 0.0000
# 2 56.7781 119.6426 34.7567 0.0000 0.7257 0.0000
# 3 62.4312 34.7567 64.8885 0.0000 -7.4001 0.0000
# 4 0.0000 0.0000 0.0000 18.7288 0.0000 -2.1579
# 5 -1.6143 0.7257 -7.4001 0.0000 33.6522 0.0000
# 6 0.0000 0.0000 0.0000 -2.1579 0.0000 18.5474
#
#
#
# Elastic Compliance Matrix: (Units=1/GPa)
#
#
# Indices 1 2 3 4 5 6 
#
# 1 0.015537 -0.003491 -0.013319 0.000000 -0.002108 0.000000
# 2 -0.003491 0.010749 -0.002507 0.000000 -0.000951 0.000000
# 3 -0.013319 -0.002507 0.030260 0.000000 0.006069 0.000000
# 4 0.000000 0.000000 0.000000 0.054119 0.000000 0.006297
# 5 -0.002108 -0.000951 0.006069 0.000000 0.030970 0.000000
# 6 0.000000 0.000000 0.000000 0.006297 0.000000 0.054649
#
#
# Mechanical properties :
#
#
# Convention : Reuss Voigt Hill
#
# Bulk Modulus (GPa) = 55.82757 69.20939 62.51848
# Shear Modulus (GPa) = 20.75646 24.91811 22.83728
#
# Velocity S-wave (km/s) = 3.34637 3.66653 3.51010
# Velocity P-wave (km/s) = 6.71194 7.43393 7.08214
#
# Compressibility (1/GPa) = 0.01791230
#
# Stress axis : x y z
#
# Youngs Moduli (GPa) = 64.36328 93.03095 33.04639
#
# Poissons Ratio (x) = 0.32479 0.44014
# Poissons Ratio (y) = 0.22471 0.08285
# Poissons Ratio (z) = 0.85724 0.23323
#
# Static dielectric constant tensor:
#      x y z
#    x 3.616870 0.000000 -0.571550 
#    y 0.000000 3.570300 0.000000 
#    z -0.571550 0.000000 3.659110 
# 
# 
# High freq. dielectric constant tensor:
#      x y z
#    x 1.717470 0.000000 -0.033220 
#    y 0.000000 1.716240 0.000000 
#    z -0.033220 0.000000 1.705230 
# 
# From -- ./inp_files/59612.got.cif
#   From: 2010.06.25/outbox.cif.g09.slc.cpg/sg11_30_cif.got.tgz:59612.got - 2010.06.27 23:14:04.
