data_PCOD8068938
_publ_section_title
;
Structure prediction by ZEFSAII (Michael W. Deem and Ramdas Pophale) SiO2 
 PCOD8068938
Probable space group: P 21/M
;
_chemical_formula_sum "Si O2"
_cell_formula_units_Z 32
_cell_length_a 22.842073
_cell_length_b 9.227142
_cell_length_c 17.327026
_cell_angle_alpha 90.000000
_cell_angle_beta 29.566315
_cell_angle_gamma 90.000000
_cell_volume 1801.991835
_symmetry_space_group_name_H-M "P 21/M"
_symmetry_group_IT_number 11
_symmetry_cell_setting 'monoclinic'
loop_
_space_group_symop_operation_xyz
x,y,z
-x,1/2+y,-z
-x,-y,-z
x,1/2-y,z
loop_
_atom_site_type_symbol
_atom_site_label
_atom_site_fract_x
_atom_site_fract_y
_atom_site_fract_z
Si Si1 0.428460 0.077542 0.219480
Si Si2 0.371760 0.920027 0.732403
Si Si3 0.277374 0.916007 0.512943
Si Si4 0.061743 0.915963 0.657371
Si Si5 0.180143 0.922075 0.074718
Si Si6 0.745890 0.418859 0.687547
Si Si7 0.697449 0.079688 0.912442
Si Si8 0.391411 0.916449 0.537155
O O1 0.419273 0.250000 0.225969
O O2 0.369070 0.021869 0.366026
O O3 0.363376 0.010770 0.219966
O O4 0.563395 0.020615 0.064406
O O5 0.388870 0.750000 0.723806
O O6 0.342117 0.962933 0.677682
O O7 0.493924 0.992605 0.618881
O O8 0.265619 0.976538 0.907982
O O9 0.309634 0.750000 0.453964
O O10 0.143819 0.948414 0.637956
O O11 0.287788 0.942489 0.592945
O O12 0.019556 0.750000 0.704277
O O13 0.134102 0.954561 0.496461
O O14 0.949605 0.018107 0.792424
O O15 0.171207 0.750000 0.086452
O O16 0.229793 0.985862 0.098820
O O17 0.712539 0.250000 0.716948
O O18 0.764091 0.461402 0.756311
O O19 0.691533 0.250000 0.931128
O O20 0.431615 0.750000 0.493124
#
# Coordination Sequence:
#
# PCOD8068938 Si02
#       8
#     4   4   4   4   4   4   4   4
#     4  10  18  29  49  76 101 122 152 196 241 286
#     4   9  18  32  50  75 105 129 151 190 241 283
#     4   9  18  33  51  70  96 130 162 193 235 284
#     4   9  19  34  49  65  89 124 164 205 240 273
#     4  10  20  34  50  68  95 129 161 196 240 284
#     4   9  18  34  51  67  94 129 160 193 238 286
#     4   9  18  31  48  70  96 127 158 192 240 291
#     4   9  17  31  53  77  99 127 160 189 227 287
#
# _framework density 17.758127000000002
#
# number of rings (size 3 to 8) (size 9 to 14) (size 15 to 20)
#    0.000    2.750    0.000    2.250    0.000    4.500 
#    0.000    3.125    0.000    0.000    0.000    0.000 
#    0.000    0.000    0.000    0.000    0.000    0.000 
#
# Total GULP energy -396743.209320 kJ/mol
# GULP energy per Si atom -12398.225291 kJ/mol
# Density = 1.771771 g / cm^3
# Si number density = 17.758127 Si / 1000 Ang^3
#
#
#
# Elastic Constant Matrix: (Units=GPa)
#
#
# Indices 1 2 3 4 5 6 
#
# 1 144.9211 34.7001 83.6595 0.0000 8.4683 0.0000
# 2 34.7001 38.3813 35.0905 0.0000 -1.7208 0.0000
# 3 83.6595 35.0905 115.2596 0.0000 -2.8270 0.0000
# 4 0.0000 0.0000 0.0000 25.1062 0.0000 -5.7052
# 5 8.4683 -1.7208 -2.8270 0.0000 23.1684 0.0000
# 6 0.0000 0.0000 0.0000 -5.7052 0.0000 23.6835
#
#
#
# Elastic Compliance Matrix: (Units=1/GPa)
#
#
# Indices 1 2 3 4 5 6 
#
# 1 0.013147 -0.004573 -0.008302 0.000000 -0.006158 0.000000
# 2 -0.004573 0.037736 -0.008084 0.000000 0.003488 0.000000
# 3 -0.008302 -0.008084 0.017274 0.000000 0.004542 0.000000
# 4 0.000000 0.000000 0.000000 0.042138 0.000000 0.010151
# 5 -0.006158 0.003488 0.004542 0.000000 0.046226 0.000000
# 6 0.000000 0.000000 0.000000 0.010151 0.000000 0.044669
#
#
# Mechanical properties :
#
#
# Convention : Reuss Voigt Hill
#
# Bulk Modulus (GPa) = 38.10884 67.27356 52.69120
# Shear Modulus (GPa) = 19.85278 24.06574 21.95926
#
# Velocity S-wave (km/s) = 3.34721 3.68529 3.52031
# Velocity P-wave (km/s) = 6.03697 7.48826 6.80143
#
# Compressibility (1/GPa) = 0.02624063
#
# Stress axis : x y z
#
# Youngs Moduli (GPa) = 76.06033 26.50013 57.88904
#
# Poissons Ratio (x) = 0.12117 0.48059
# Poissons Ratio (y) = 0.34779 0.46798
# Poissons Ratio (z) = 0.63144 0.21423
#
# Static dielectric constant tensor:
#      x y z
#    x 3.547230 0.000000 0.179210 
#    y 0.000000 3.121210 0.000000 
#    z 0.179210 0.000000 3.201470 
# 
# 
# High freq. dielectric constant tensor:
#      x y z
#    x 1.696080 0.000000 0.009580 
#    y 0.000000 1.671640 0.000000 
#    z 0.009580 0.000000 1.672970 
# 
# From -- ./inp_files/61774.got.cif
#   From: 2010.06.25/outbox.cif.g09.slc.cpg/sg11_31_cif.got.tgz:61774.got - 2010.06.27 23:14:04.
