data_PCOD8068358
_publ_section_title
;
Structure prediction by ZEFSAII (Michael W. Deem and Ramdas Pophale) SiO2 
 PCOD8068358
Probable space group: P 21/M
;
_chemical_formula_sum "Si O2"
_cell_formula_units_Z 28
_cell_length_a 14.590630
_cell_length_b 16.522096
_cell_length_c 9.753430
_cell_angle_alpha 90.000000
_cell_angle_beta 40.934379
_cell_angle_gamma 90.000000
_cell_volume 1540.517443
_symmetry_space_group_name_H-M "P 21/M"
_symmetry_group_IT_number 11
_symmetry_cell_setting 'monoclinic'
loop_
_space_group_symop_operation_xyz
x,y,z
-x,1/2+y,-z
-x,-y,-z
x,1/2-y,z
loop_
_atom_site_type_symbol
_atom_site_label
_atom_site_fract_x
_atom_site_fract_y
_atom_site_fract_z
Si Si1 0.610994 0.567616 0.919659
Si Si2 0.483612 0.656284 0.670910
Si Si3 0.930870 0.155362 0.876055
Si Si4 0.649180 0.344830 0.711619
Si Si5 0.246819 0.343434 0.487552
Si Si6 0.731152 0.421877 0.892303
Si Si7 0.292012 0.844945 0.652418
O O1 0.706946 0.601778 0.690693
O O2 0.716392 0.520273 0.904616
O O3 0.500000 0.500000 0.000000
O O4 0.518742 0.638847 0.091652
O O5 0.442099 0.750000 0.728493
O O6 0.649898 0.642391 0.498886
O O7 0.423479 0.621992 0.594971
O O8 0.409667 0.614118 0.882875
O O9 0.909775 0.250000 0.865883
O O10 0.092447 0.131946 0.711538
O O11 0.868308 0.103583 0.821203
O O12 0.851967 0.132776 0.106698
O O13 0.675667 0.250000 0.694331
O O14 0.739524 0.388143 0.727590
O O15 0.704152 0.382209 0.504374
O O16 0.251760 0.250000 0.435068
O O17 0.308898 0.750000 0.614245
#
# Coordination Sequence:
#
# PCOD8068358 Si02
#       7
#     4   4   4   4   4   4   4
#     4  10  19  29  47  75  99 121 159 199 242 276
#     4   9  15  28  49  71  90 120 163 199 230 273
#     4   9  18  32  50  72  93 124 166 196 227 284
#     4  10  17  29  51  74  98 123 155 201 242 278
#     4  10  18  30  52  73  94 123 161 201 235 275
#     4  10  18  30  50  71  97 127 158 194 236 281
#     4   8  16  29  48  72  94 120 158 197 236 282
#
# _framework density 18.175711
#
# number of rings (size 3 to 8) (size 9 to 14) (size 15 to 20)
#    0.000    2.571    2.857    2.571    0.000    0.571 
#    0.000    2.857    3.143    3.429    0.000    0.000 
#    0.000    0.000    0.000    0.000    0.000    0.000 
#
# Total GULP energy -346976.565239 kJ/mol
# GULP energy per Si atom -12392.020187 kJ/mol
# Density = 1.813434 g / cm^3
# Si number density = 18.175711 Si / 1000 Ang^3
#
#
#
# Elastic Constant Matrix: (Units=GPa)
#
#
# Indices 1 2 3 4 5 6 
#
# 1 92.8501 6.8696 63.0493 0.0000 -3.4302 0.0000
# 2 6.8696 23.6228 8.9327 0.0000 -0.7589 0.0000
# 3 63.0493 8.9327 108.9621 0.0000 1.9879 0.0000
# 4 0.0000 0.0000 0.0000 8.4578 0.0000 -6.9571
# 5 -3.4302 -0.7589 1.9879 0.0000 38.9458 0.0000
# 6 0.0000 0.0000 0.0000 -6.9571 0.0000 15.9752
#
#
#
# Elastic Compliance Matrix: (Units=1/GPa)
#
#
# Indices 1 2 3 4 5 6 
#
# 1 0.017948 -0.001250 -0.010321 0.000000 0.002083 0.000000
# 2 -0.001250 0.043815 -0.002885 0.000000 0.000891 0.000000
# 3 -0.010321 -0.002885 0.015418 0.000000 -0.001752 0.000000
# 4 0.000000 0.000000 0.000000 0.184229 0.000000 0.080231
# 5 0.002083 0.000891 -0.001752 0.000000 0.025967 0.000000
# 6 0.000000 0.000000 0.000000 0.080231 0.000000 0.097537
#
#
# Mechanical properties :
#
#
# Convention : Reuss Voigt Hill
#
# Bulk Modulus (GPa) = 20.71695 42.57091 31.64393
# Shear Modulus (GPa) = 11.63022 22.44799 17.03911
#
# Velocity S-wave (km/s) = 2.53232 3.51815 3.06513
# Velocity P-wave (km/s) = 4.46913 6.32265 5.47490
#
# Compressibility (1/GPa) = 0.04826965
#
# Stress axis : x y z
#
# Youngs Moduli (GPa) = 55.71743 22.82322 64.85952
#
# Poissons Ratio (x) = 0.02852 0.66940
# Poissons Ratio (y) = 0.06963 0.18713
# Poissons Ratio (z) = 0.57504 0.06585
#
# Static dielectric constant tensor:
#      x y z
#    x 3.424820 0.000000 0.035660 
#    y 0.000000 3.440380 0.000000 
#    z 0.035660 0.000000 3.388910 
# 
# 
# High freq. dielectric constant tensor:
#      x y z
#    x 1.691810 0.000000 0.002410 
#    y 0.000000 1.688430 0.000000 
#    z 0.002410 0.000000 1.691820 
# 
# From -- ./inp_files/22699.got.cif
#   From: 2010.06.25/outbox.cif.g09.slc.cpg/sg11_12_cif.got.tgz:22699.got - 2010.06.27 23:14:04.
