data_PCOD8068929
_publ_section_title
;
Structure prediction by ZEFSAII (Michael W. Deem and Ramdas Pophale) SiO2 
 PCOD8068929
Probable space group: P 21/M
;
_chemical_formula_sum "Si O2"
_cell_formula_units_Z 32
_cell_length_a 17.955399
_cell_length_b 9.378610
_cell_length_c 11.979689
_cell_angle_alpha 90.000000
_cell_angle_beta 50.363988
_cell_angle_gamma 90.000000
_cell_volume 1553.578584
_symmetry_space_group_name_H-M "P 21/M"
_symmetry_group_IT_number 11
_symmetry_cell_setting 'monoclinic'
loop_
_space_group_symop_operation_xyz
x,y,z
-x,1/2+y,-z
-x,-y,-z
x,1/2-y,z
loop_
_atom_site_type_symbol
_atom_site_label
_atom_site_fract_x
_atom_site_fract_y
_atom_site_fract_z
Si Si1 0.144467 0.084384 0.817902
Si Si2 0.649753 0.595662 0.076486
Si Si3 0.416960 0.597372 0.041100
Si Si4 0.058777 0.584791 0.101984
Si Si5 0.144899 0.412424 0.205401
Si Si6 0.780553 0.090467 0.657636
Si Si7 0.512185 0.091005 0.596243
Si Si8 0.278952 0.918143 0.527575
O O1 0.168661 0.250000 0.822093
O O2 0.052311 0.074092 0.825720
O O3 0.234191 0.009709 0.670964
O O4 0.125295 0.999277 0.950304
O O5 0.619667 0.750000 0.050992
O O6 0.593192 0.580641 0.245791
O O7 0.622131 0.456432 0.037330
O O8 0.765894 0.590871 0.967751
O O9 0.463465 0.750000 0.975883
O O10 0.332857 0.602556 0.211210
O O11 0.500000 0.500000 0.000000
O O12 0.092654 0.750000 0.077038
O O13 0.065802 0.509008 0.217306
O O14 0.107922 0.250000 0.261613
O O15 0.168248 0.481295 0.305007
O O16 0.827004 0.250000 0.624541
O O17 0.777904 0.035688 0.531964
O O18 0.532493 0.250000 0.536139
O O19 0.604972 0.046123 0.584678
O O20 0.500000 0.000000 0.500000
O O21 0.261300 0.750000 0.564011
#
# Coordination Sequence:
#
# PCOD8068929 Si02
#       8
#     4   4   4   4   4   4   4   4
#     4  10  22  39  61  88 115 147 188 236 289 340
#     4   9  19  35  51  73 108 144 182 228 274 322
#     4  10  18  29  49  74 101 137 183 230 275 322
#     4  10  21  39  62  87 116 147 185 233 287 348
#     4  10  20  34  58  89 118 148 188 239 288 334
#     4   9  19  36  55  78 111 152 193 232 282 340
#     4  10  22  38  54  78 113 153 194 234 281 336
#     4  10  21  38  59  82 114 155 195 235 284 342
#
# _framework density 20.597607
#
# number of rings (size 3 to 8) (size 9 to 14) (size 15 to 20)
#    0.000    2.250    0.000    2.250    1.750    6.000 
#    0.000    1.875    0.000    0.000    0.000    0.000 
#    0.000    0.000    0.000    0.000    0.000    0.000 
#
# Total GULP energy -396436.280280 kJ/mol
# GULP energy per Si atom -12388.633759 kJ/mol
# Density = 2.055073 g / cm^3
# Si number density = 20.597607 Si / 1000 Ang^3
#
#
#
# Elastic Constant Matrix: (Units=GPa)
#
#
# Indices 1 2 3 4 5 6 
#
# 1 61.7119 27.6027 4.0441 0.0000 16.4955 0.0000
# 2 27.6027 117.3882 16.0229 0.0000 8.8302 0.0000
# 3 4.0441 16.0229 44.6882 0.0000 8.3139 0.0000
# 4 0.0000 0.0000 0.0000 -25.9362 0.0000 -26.8843
# 5 16.4955 8.8302 8.3139 0.0000 20.2867 0.0000
# 6 0.0000 0.0000 0.0000 -26.8843 0.0000 17.8446
#
#
#
# Elastic Compliance Matrix: (Units=1/GPa)
#
#
# Indices 1 2 3 4 5 6 
#
# 1 0.022721 -0.004394 0.002815 0.000000 -0.017716 0.000000
# 2 -0.004394 0.009956 -0.003281 0.000000 0.000584 0.000000
# 3 0.002815 -0.003281 0.025395 0.000000 -0.011269 0.000000
# 4 0.000000 0.000000 0.000000 -0.015051 0.000000 -0.022676
# 5 -0.017716 0.000584 -0.011269 0.000000 0.068062 0.000000
# 6 0.000000 0.000000 0.000000 -0.022676 0.000000 0.021876
#
#
# Mechanical properties :
#
#
# Convention : Reuss Voigt Hill
#
# Bulk Modulus (GPa) = 20.68140 35.45863 28.07002
# Shear Modulus (GPa) = 31.48695 14.18024 22.83360
#
# Velocity S-wave (km/s) = 3.91406 2.62666 3.33311
# Velocity P-wave (km/s) = 5.52168 5.14310 5.33575
#
# Compressibility (1/GPa) = 0.04835262
#
# Stress axis : x y z
#
# Youngs Moduli (GPa) = 44.01275 100.44332 39.37743
#
# Poissons Ratio (x) = 0.44137 -0.11086
# Poissons Ratio (y) = 0.19340 0.12918
# Poissons Ratio (z) = -0.12391 0.32952
#
# Static dielectric constant tensor:
#      x y z
#    x 2.806160 0.000000 0.349770 
#    y 0.000000 3.950230 0.000000 
#    z 0.349770 0.000000 3.361980 
# 
# 
# High freq. dielectric constant tensor:
#      x y z
#    x 1.800970 0.000000 0.003150 
#    y 0.000000 1.816010 0.000000 
#    z 0.003150 0.000000 1.788420 
# 
# From -- ./inp_files/42750.got.cif
#   From: 2010.06.25/outbox.cif.g09.slc.cpg/sg11_22_cif.got.tgz:42750.got - 2010.06.27 23:14:04.
