data_PCOD8068741
_publ_section_title
;
Structure prediction by ZEFSAII (Michael W. Deem and Ramdas Pophale) SiO2 
 PCOD8068741
Probable space group: P 21/M
;
_chemical_formula_sum "Si O2"
_cell_formula_units_Z 32
_cell_length_a 20.170515
_cell_length_b 8.999373
_cell_length_c 28.309963
_cell_angle_alpha 90.000000
_cell_angle_beta 21.017866
_cell_angle_gamma 90.000000
_cell_volume 1843.106051
_symmetry_space_group_name_H-M "P 21/M"
_symmetry_group_IT_number 11
_symmetry_cell_setting 'monoclinic'
loop_
_space_group_symop_operation_xyz
x,y,z
-x,1/2+y,-z
-x,-y,-z
x,1/2-y,z
loop_
_atom_site_type_symbol
_atom_site_label
_atom_site_fract_x
_atom_site_fract_y
_atom_site_fract_z
Si Si1 0.641184 0.576048 0.123289
Si Si2 0.819895 0.920558 0.101686
Si Si3 0.298632 0.075185 0.384684
Si Si4 0.758596 0.925018 0.943055
Si Si5 0.566923 0.421787 0.612266
Si Si6 0.463686 0.424139 0.074020
Si Si7 0.071409 0.922827 0.669429
Si Si8 0.956191 0.576935 0.643147
O O1 0.599924 0.750000 0.155697
O O2 0.757169 0.520124 0.091813
O O3 0.443406 0.493226 0.250812
O O4 0.759625 0.537855 0.997960
O O5 0.873412 0.750000 0.062259
O O6 0.651710 0.946972 0.251527
O O7 0.000000 0.000000 0.000000
O O8 0.291234 0.250000 0.382550
O O9 0.372608 0.031642 0.386870
O O10 0.091309 0.009297 0.516795
O O11 0.731120 0.750000 0.952864
O O12 0.953051 0.987739 0.792009
O O13 0.591563 0.008854 0.029259
O O14 0.596862 0.250000 0.608779
O O15 0.705492 0.455812 0.475759
O O16 0.501158 0.250000 0.043207
O O17 0.254727 0.455383 0.230068
O O18 0.500000 0.500000 0.000000
O O19 0.032939 0.750000 0.696430
O O20 0.992214 0.983860 0.672456
O O21 0.004915 0.750000 0.607566
#
# Coordination Sequence:
#
# PCOD8068741 Si02
#       8
#     4   4   4   4   4   4   4   4
#     4   9  19  35  52  70  99 133 163 195 243 307
#     4   9  17  30  50  75  98 127 160 197 242 289
#     4  10  18  28  47  72  95 121 162 210 249 286
#     4  10  19  33  52  73  96 128 168 206 247 297
#     4   8  15  29  47  69  99 127 156 192 240 295
#     4  11  21  33  49  71 101 133 167 209 251 294
#     4   8  13  26  48  70  91 121 161 198 234 283
#     4   9  17  31  48  66  94 129 164 202 247 293
#
# _framework density 17.361996000000001
#
# number of rings (size 3 to 8) (size 9 to 14) (size 15 to 20)
#    0.000    2.750    1.250    3.000    0.000    3.500 
#    0.000    0.625    0.000    0.750    0.000    0.000 
#    0.000    0.000    0.000    0.000    0.000    1.250 
#
# Total GULP energy -396448.115633 kJ/mol
# GULP energy per Si atom -12389.003614 kJ/mol
# Density = 1.732248 g / cm^3
# Si number density = 17.361996 Si / 1000 Ang^3
#
#
#
# Elastic Constant Matrix: (Units=GPa)
#
#
# Indices 1 2 3 4 5 6 
#
# 1 64.5139 26.6444 65.3720 0.0000 2.6628 0.0000
# 2 26.6444 58.1127 45.0164 0.0000 -0.6416 0.0000
# 3 65.3720 45.0164 180.4207 0.0000 3.6083 0.0000
# 4 0.0000 0.0000 0.0000 25.2458 0.0000 -5.6722
# 5 2.6628 -0.6416 3.6083 0.0000 25.9862 0.0000
# 6 0.0000 0.0000 0.0000 -5.6722 0.0000 18.1571
#
#
#
# Elastic Compliance Matrix: (Units=1/GPa)
#
#
# Indices 1 2 3 4 5 6 
#
# 1 0.026015 -0.005790 -0.007947 0.000000 -0.001705 0.000000
# 2 -0.005790 0.022661 -0.003589 0.000000 0.001651 0.000000
# 3 -0.007947 -0.003589 0.009329 0.000000 -0.000570 0.000000
# 4 0.000000 0.000000 0.000000 0.042601 0.000000 0.013308
# 5 -0.001705 0.001651 -0.000570 0.000000 0.038777 0.000000
# 6 0.000000 0.000000 0.000000 0.013308 0.000000 0.059232
#
#
# Mechanical properties :
#
#
# Convention : Reuss Voigt Hill
#
# Bulk Modulus (GPa) = 42.82295 64.12366 53.47330
# Shear Modulus (GPa) = 20.74229 24.94545 22.84387
#
# Velocity S-wave (km/s) = 3.46019 3.79461 3.63125
# Velocity P-wave (km/s) = 6.37826 7.49748 6.96040
#
# Compressibility (1/GPa) = 0.02335197
#
# Stress axis : x y z
#
# Youngs Moduli (GPa) = 38.43877 44.12798 107.19188
#
# Poissons Ratio (x) = 0.25552 0.85189
# Poissons Ratio (y) = 0.22258 0.38473
# Poissons Ratio (z) = 0.30548 0.15838
#
# Static dielectric constant tensor:
#      x y z
#    x 2.945120 0.000000 0.168360 
#    y 0.000000 3.076350 0.000000 
#    z 0.168360 0.000000 3.823670 
# 
# 
# High freq. dielectric constant tensor:
#      x y z
#    x 1.614910 0.000000 0.008700 
#    y 0.000000 1.654020 0.000000 
#    z 0.008700 0.000000 1.695410 
# 
# From -- ./inp_files/42739.got.cif
#   From: 2010.06.25/outbox.cif.g09.slc.cpg/sg11_22_cif.got.tgz:42739.got - 2010.06.27 23:14:04.
