data_PCOD8068699
_publ_section_title
;
Structure prediction by ZEFSAII (Michael W. Deem and Ramdas Pophale) SiO2 
 PCOD8068699
Probable space group: P 21/M
;
_chemical_formula_sum "Si O2"
_cell_formula_units_Z 32
_cell_length_a 21.143661
_cell_length_b 8.780537
_cell_length_c 30.389748
_cell_angle_alpha 90.000000
_cell_angle_beta 19.589649
_cell_angle_gamma 90.000000
_cell_volume 1891.636954
_symmetry_space_group_name_H-M "P 21/M"
_symmetry_group_IT_number 11
_symmetry_cell_setting 'monoclinic'
loop_
_space_group_symop_operation_xyz
x,y,z
-x,1/2+y,-z
-x,-y,-z
x,1/2-y,z
loop_
_atom_site_type_symbol
_atom_site_label
_atom_site_fract_x
_atom_site_fract_y
_atom_site_fract_z
Si Si1 0.782803 0.071304 0.546439
Si Si2 0.200844 0.926802 0.698855
Si Si3 0.152092 0.429667 0.932544
Si Si4 0.107466 0.426001 0.390050
Si Si5 0.139331 0.927499 0.034195
Si Si6 0.457211 0.072805 0.462427
Si Si7 0.523684 0.571192 0.650896
Si Si8 0.436851 0.426916 0.229843
O O1 0.762302 0.250000 0.549950
O O2 0.002608 0.022798 0.413388
O O3 0.721159 0.977581 0.543688
O O4 0.647742 0.029460 0.675901
O O5 0.149909 0.750000 0.730303
O O6 0.345347 0.964414 0.643548
O O7 0.289831 0.976944 0.594180
O O8 0.011642 0.022594 0.830442
O O9 0.141223 0.250000 0.935826
O O10 0.359524 0.485916 0.784495
O O11 0.101167 0.477869 0.015201
O O12 0.000000 0.500000 0.000000
O O13 0.065137 0.250000 0.421672
O O14 0.330319 0.460737 0.252403
O O15 0.000000 0.500000 0.500000
O O16 0.118613 0.750000 0.036842
O O17 0.344230 0.966088 0.920049
O O18 0.406260 0.250000 0.500019
O O19 0.474878 0.019966 0.400608
O O20 0.489953 0.750000 0.677601
O O21 0.409348 0.250000 0.261243
#
# Coordination Sequence:
#
# PCOD8068699 Si02
#       8
#     4   4   4   4   4   4   4   4
#     4  10  18  28  45  70 100 131 165 206 246 290
#     4  10  20  35  55  75  96 124 163 211 255 294
#     4  12  24  36  50  70 100 134 169 203 244 296
#     4   8  15  27  43  65  93 128 166 201 241 287
#     4  11  21  33  51  74 102 134 167 202 245 295
#     4   9  20  37  54  71  93 125 165 208 250 296
#     4  11  21  34  51  72 101 134 167 202 247 299
#     4   9  17  30  47  67  97 134 168 201 241 294
#
# _framework density 16.916566
#
# number of rings (size 3 to 8) (size 9 to 14) (size 15 to 20)
#    0.000    2.000    1.250    3.375    0.000    3.500 
#    0.000    0.000    0.000    0.000    0.000    0.875 
#    0.000    0.000    0.000    0.000    0.000    0.000 
#
# Total GULP energy -396652.674446 kJ/mol
# GULP energy per Si atom -12395.396076 kJ/mol
# Density = 1.687806 g / cm^3
# Si number density = 16.916566 Si / 1000 Ang^3
#
#
#
# Elastic Constant Matrix: (Units=GPa)
#
#
# Indices 1 2 3 4 5 6 
#
# 1 58.9301 22.3270 32.2675 0.0000 -14.4256 0.0000
# 2 22.3270 66.4047 27.2212 0.0000 -4.6620 0.0000
# 3 32.2675 27.2212 75.2736 0.0000 -10.2222 0.0000
# 4 0.0000 0.0000 0.0000 23.1175 0.0000 0.0613
# 5 -14.4256 -4.6620 -10.2222 0.0000 27.8041 0.0000
# 6 0.0000 0.0000 0.0000 0.0613 0.0000 25.0053
#
#
#
# Elastic Compliance Matrix: (Units=1/GPa)
#
#
# Indices 1 2 3 4 5 6 
#
# 1 0.025377 -0.004620 -0.007920 0.000000 0.009480 0.000000
# 2 -0.004620 0.018532 -0.004868 0.000000 -0.001079 0.000000
# 3 -0.007920 -0.004868 0.018705 0.000000 0.001952 0.000000
# 4 0.000000 0.000000 0.000000 0.043258 0.000000 -0.000106
# 5 0.009480 -0.001079 0.001952 0.000000 0.041421 0.000000
# 6 0.000000 0.000000 0.000000 -0.000106 0.000000 0.039992
#
#
# Mechanical properties :
#
#
# Convention : Reuss Voigt Hill
#
# Bulk Modulus (GPa) = 35.97352 40.47110 38.22231
# Shear Modulus (GPa) = 21.61064 23.10491 22.35778
#
# Velocity S-wave (km/s) = 3.57807 3.69970 3.63939
# Velocity P-wave (km/s) = 6.19528 6.49818 6.34854
#
# Compressibility (1/GPa) = 0.02779822
#
# Stress axis : x y z
#
# Youngs Moduli (GPa) = 39.40564 53.95981 53.46041
#
# Poissons Ratio (x) = 0.24930 0.42342
# Poissons Ratio (y) = 0.18206 0.26024
# Poissons Ratio (z) = 0.31210 0.26267
#
# Static dielectric constant tensor:
#      x y z
#    x 3.482810 0.000000 -0.451410 
#    y 0.000000 3.215930 0.000000 
#    z -0.451410 0.000000 3.183930 
# 
# 
# High freq. dielectric constant tensor:
#      x y z
#    x 1.645530 0.000000 -0.028030 
#    y 0.000000 1.663470 0.000000 
#    z -0.028030 0.000000 1.628460 
# 
# From -- ./inp_files/40685.got.cif
#   From: 2010.06.25/outbox.cif.g09.slc.cpg/sg11_21_cif.got.tgz:40685.got - 2010.06.27 23:14:04.
