data_PCOD8068979
_publ_section_title
;
Structure prediction by ZEFSAII (Michael W. Deem and Ramdas Pophale) SiO2 
 PCOD8068979
Probable space group: P 21/M
;
_chemical_formula_sum "Si O2"
_cell_formula_units_Z 32
_cell_length_a 15.756401
_cell_length_b 8.950251
_cell_length_c 14.387713
_cell_angle_alpha 90.000000
_cell_angle_beta 88.740493
_cell_angle_gamma 90.000000
_cell_volume 2028.518930
_symmetry_space_group_name_H-M "P 21/M"
_symmetry_group_IT_number 11
_symmetry_cell_setting 'monoclinic'
loop_
_space_group_symop_operation_xyz
x,y,z
-x,1/2+y,-z
-x,-y,-z
x,1/2-y,z
loop_
_atom_site_type_symbol
_atom_site_label
_atom_site_fract_x
_atom_site_fract_y
_atom_site_fract_z
Si Si1 0.168314 0.427755 0.113839
Si Si2 0.652424 0.924995 0.201395
Si Si3 0.407598 0.425701 0.399588
Si Si4 0.002843 0.574522 0.099622
Si Si5 0.818033 0.575340 0.097113
Si Si6 0.415349 0.422486 0.603668
Si Si7 0.502102 0.572445 0.899642
Si Si8 0.332433 0.072953 0.215055
O O1 0.159787 0.250000 0.118037
O O2 0.244628 0.490531 0.175668
O O3 0.080049 0.498868 0.154915
O O4 0.184818 0.486907 0.008382
O O5 0.640280 0.750000 0.178255
O O6 0.741378 0.990945 0.160527
O O7 0.652561 0.951346 0.312964
O O8 0.577286 0.017254 0.157547
O O9 0.415154 0.250000 0.388924
O O10 0.376639 0.472422 0.504148
O O11 0.500351 0.487309 0.375496
O O12 0.342892 0.484420 0.321576
O O13 0.019388 0.750000 0.089955
O O14 0.908973 0.542246 0.145146
O O15 0.000000 0.500000 0.000000
O O16 0.803251 0.750000 0.089842
O O17 0.441882 0.250000 0.597863
O O18 0.498897 0.750000 0.908696
O O19 0.588116 0.516999 0.847700
O O20 0.500000 0.500000 0.000000
O O21 0.328409 0.250000 0.210226
#
# Coordination Sequence:
#
# PCOD8068979 Si02
#       8
#     4   4   4   4   4   4   4   4
#     4   9  16  28  44  61  80 110 145 177 210 249
#     4  10  18  30  45  64  87 114 146 179 212 255
#     4   9  16  29  45  62  85 114 145 178 217 261
#     4   9  16  28  44  62  82 108 138 174 215 254
#     4   8  15  27  43  59  83 113 139 168 211 259
#     4   9  17  27  44  66  86 108 142 187 221 244
#     4  11  21  32  43  59  85 121 151 176 207 249
#     4   9  17  29  45  61  84 118 149 171 210 263
#
# _framework density 15.775055999999999
#
# number of rings (size 3 to 8) (size 9 to 14) (size 15 to 20)
#    0.000    2.750    1.250    2.250    0.000    2.000 
#    0.000    7.500    0.000    0.000    0.000    0.875 
#    0.000    0.000    0.000    0.000    0.000    0.000 
#
# Total GULP energy -396500.340528 kJ/mol
# GULP energy per Si atom -12390.635641 kJ/mol
# Density = 1.573915 g / cm^3
# Si number density = 15.775056 Si / 1000 Ang^3
#
#
#
# Elastic Constant Matrix: (Units=GPa)
#
#
# Indices 1 2 3 4 5 6 
#
# 1 147.9447 29.3688 66.8012 0.0000 11.0811 0.0000
# 2 29.3688 33.2581 21.5885 0.0000 1.1685 0.0000
# 3 66.8012 21.5885 103.7991 0.0000 12.7212 0.0000
# 4 0.0000 0.0000 0.0000 14.8316 0.0000 1.3801
# 5 11.0811 1.1685 12.7212 0.0000 14.1595 0.0000
# 6 0.0000 0.0000 0.0000 1.3801 0.0000 22.9197
#
#
#
# Elastic Compliance Matrix: (Units=1/GPa)
#
#
# Indices 1 2 3 4 5 6 
#
# 1 0.010467 -0.005789 -0.005154 0.000000 -0.003083 0.000000
# 2 -0.005789 0.038173 -0.004925 0.000000 0.005805 0.000000
# 3 -0.005154 -0.004925 0.015093 0.000000 -0.009120 0.000000
# 4 0.000000 0.000000 0.000000 0.067803 0.000000 -0.004083
# 5 -0.003083 0.005805 -0.009120 0.000000 0.080751 0.000000
# 6 0.000000 0.000000 0.000000 -0.004083 0.000000 0.043876
#
#
# Mechanical properties :
#
#
# Convention : Reuss Voigt Hill
#
# Bulk Modulus (GPa) = 31.25380 57.83542 44.54461
# Shear Modulus (GPa) = 16.74680 21.53174 19.13927
#
# Velocity S-wave (km/s) = 3.26176 3.69849 3.48697
# Velocity P-wave (km/s) = 5.83443 7.41489 6.67163
#
# Compressibility (1/GPa) = 0.03199611
#
# Stress axis : x y z
#
# Youngs Moduli (GPa) = 95.54288 26.19674 66.25545
#
# Poissons Ratio (x) = 0.15164 0.34149
# Poissons Ratio (y) = 0.55306 0.32633
# Poissons Ratio (z) = 0.49244 0.12903
#
# Static dielectric constant tensor:
#      x y z
#    x 3.443480 0.000000 0.095820 
#    y 0.000000 2.951390 0.000000 
#    z 0.095820 0.000000 3.314810 
# 
# 
# High freq. dielectric constant tensor:
#      x y z
#    x 1.598940 0.000000 0.003150 
#    y 0.000000 1.588980 0.000000 
#    z 0.003150 0.000000 1.588830 
# 
# From -- ./inp_files/51244.got.cif
#   From: 2010.06.25/outbox.cif.g09.slc.cpg/sg11_26_cif.got.tgz:51244.got - 2010.06.27 23:14:04.
