data_PCOD8068519
_publ_section_title
;
Structure prediction by ZEFSAII (Michael W. Deem and Ramdas Pophale) SiO2 
 PCOD8068519
Probable space group: P 21/M
;
_chemical_formula_sum "Si O2"
_cell_formula_units_Z 32
_cell_length_a 16.875670
_cell_length_b 9.132672
_cell_length_c 21.643122
_cell_angle_alpha 90.000000
_cell_angle_beta 145.408557
_cell_angle_gamma 90.000000
_cell_volume 1893.710565
_symmetry_space_group_name_H-M "P 21/M"
_symmetry_group_IT_number 11
_symmetry_cell_setting 'monoclinic'
loop_
_space_group_symop_operation_xyz
x,y,z
-x,1/2+y,-z
-x,-y,-z
x,1/2-y,z
loop_
_atom_site_type_symbol
_atom_site_label
_atom_site_fract_x
_atom_site_fract_y
_atom_site_fract_z
Si Si1 0.028276 0.577166 0.233094
Si Si2 0.072497 0.577028 0.400172
Si Si3 0.636917 0.422823 0.367212
Si Si4 0.234334 0.076895 0.773090
Si Si5 0.554974 0.075278 0.181425
Si Si6 0.472885 0.580401 0.573773
Si Si7 0.718441 0.919932 0.645304
Si Si8 0.276403 0.076562 0.939197
O O1 0.043889 0.750000 0.234241
O O2 0.073994 0.523140 0.330472
O O3 0.130601 0.496805 0.250269
O O4 0.867477 0.526438 0.119874
O O5 0.082360 0.750000 0.404148
O O6 0.206902 0.511352 0.522128
O O7 0.928141 0.532524 0.340874
O O8 0.648715 0.250000 0.368560
O O9 0.571361 0.484695 0.261885
O O10 0.537171 0.465311 0.360726
O O11 0.257747 0.250000 0.779549
O O12 0.282758 0.023855 0.872212
O O13 0.319005 0.987782 0.777195
O O14 0.559644 0.250000 0.180727
O O15 0.408255 0.013257 0.061250
O O16 0.430186 0.750000 0.537249
O O17 0.363973 0.485655 0.465492
O O18 0.630581 0.552047 0.651687
O O19 0.741309 0.750000 0.647564
O O20 0.278401 0.250000 0.939842
#
# Coordination Sequence:
#
# PCOD8068519 Si02
#       8
#     4   4   4   4   4   4   4   4
#     4   9  15  28  49  65  86 120 151 178 215 267
#     4   8  14  26  45  64  82 115 155 176 204 267
#     4   9  16  28  47  65  86 120 154 180 209 259
#     4   9  17  30  47  64  86 116 149 184 225 270
#     4  10  19  30  46  68  89 111 151 196 221 248
#     4   9  17  30  46  64  91 126 151 168 211 275
#     4  10  18  26  43  73  97 110 140 189 226 253
#     4   8  16  30  48  68  86 114 154 188 217 257
#
# _framework density 16.898040999999999
#
# number of rings (size 3 to 8) (size 9 to 14) (size 15 to 20)
#    0.000    3.000    1.250    2.250    0.000    1.000 
#    0.000    3.750    0.000    0.750    0.000    0.000 
#    0.000    0.000    0.000    0.000    0.000    0.375 
#
# Total GULP energy -396585.591081 kJ/mol
# GULP energy per Si atom -12393.299721 kJ/mol
# Density = 1.685958 g / cm^3
# Si number density = 16.898041 Si / 1000 Ang^3
#
#
#
# Elastic Constant Matrix: (Units=GPa)
#
#
# Indices 1 2 3 4 5 6 
#
# 1 135.7006 31.9237 81.2493 0.0000 16.3489 0.0000
# 2 31.9237 31.6954 19.9304 0.0000 7.3960 0.0000
# 3 81.2493 19.9304 97.5363 0.0000 1.1214 0.0000
# 4 0.0000 0.0000 0.0000 14.6053 0.0000 8.0102
# 5 16.3489 7.3960 1.1214 0.0000 26.2975 0.0000
# 6 0.0000 0.0000 0.0000 8.0102 0.0000 25.1058
#
#
#
# Elastic Compliance Matrix: (Units=1/GPa)
#
#
# Indices 1 2 3 4 5 6 
#
# 1 0.018463 -0.007997 -0.013646 0.000000 -0.008647 0.000000
# 2 -0.007997 0.042422 -0.001928 0.000000 -0.006877 0.000000
# 3 -0.013646 -0.001928 0.021921 0.000000 0.008091 0.000000
# 4 0.000000 0.000000 0.000000 0.082990 0.000000 -0.026479
# 5 -0.008647 -0.006877 0.008091 0.000000 0.044991 0.000000
# 6 0.000000 0.000000 0.000000 -0.026479 0.000000 0.048280
#
#
# Mechanical properties :
#
#
# Convention : Reuss Voigt Hill
#
# Bulk Modulus (GPa) = 28.03974 59.01544 43.52759
# Shear Modulus (GPa) = 15.71847 21.99033 18.85440
#
# Velocity S-wave (km/s) = 3.05322 3.61134 3.34394
# Velocity P-wave (km/s) = 5.39064 7.23804 6.38155
#
# Compressibility (1/GPa) = 0.03566367
#
# Stress axis : x y z
#
# Youngs Moduli (GPa) = 54.16261 23.57276 45.61812
#
# Poissons Ratio (x) = 0.18851 0.62252
# Poissons Ratio (y) = 0.43315 0.08793
# Poissons Ratio (z) = 0.73912 0.04544
#
# Static dielectric constant tensor:
#      x y z
#    x 3.273110 0.000000 0.147790 
#    y 0.000000 2.802230 0.000000 
#    z 0.147790 0.000000 3.545740 
# 
# 
# High freq. dielectric constant tensor:
#      x y z
#    x 1.650970 0.000000 0.021960 
#    y 0.000000 1.613380 0.000000 
#    z 0.021960 0.000000 1.639970 
# 
# From -- ./inp_files/54350.got.cif
#   From: 2010.06.25/outbox.cif.g09.slc.cpg/sg11_28_cif.got.tgz:54350.got - 2010.06.27 23:14:04.
