data_PCOD8068771
_publ_section_title
;
Structure prediction by ZEFSAII (Michael W. Deem and Ramdas Pophale) SiO2 
 PCOD8068771
Probable space group: P 21/M
;
_chemical_formula_sum "Si O2"
_cell_formula_units_Z 28
_cell_length_a 14.440250
_cell_length_b 8.721979
_cell_length_c 13.891200
_cell_angle_alpha 90.000000
_cell_angle_beta 76.178951
_cell_angle_gamma 90.000000
_cell_volume 1698.906889
_symmetry_space_group_name_H-M "P 21/M"
_symmetry_group_IT_number 11
_symmetry_cell_setting 'monoclinic'
loop_
_space_group_symop_operation_xyz
x,y,z
-x,1/2+y,-z
-x,-y,-z
x,1/2-y,z
loop_
_atom_site_type_symbol
_atom_site_label
_atom_site_fract_x
_atom_site_fract_y
_atom_site_fract_z
Si Si1 0.202223 0.574211 0.752147
Si Si2 0.966508 0.569020 0.107588
Si Si3 0.877246 0.926193 0.412881
Si Si4 0.930810 0.075450 0.731876
Si Si5 0.606566 0.071931 0.379663
Si Si6 0.392880 0.428631 0.417012
Si Si7 0.214423 0.568292 0.380743
O O1 0.180201 0.750000 0.781703
O O2 0.144199 0.473193 0.843837
O O3 0.172378 0.536861 0.651173
O O4 0.316681 0.541348 0.724836
O O5 0.973912 0.750000 0.100416
O O6 0.032675 0.497085 0.177423
O O7 0.000000 0.500000 0.000000
O O8 0.845790 0.750000 0.403074
O O9 0.990909 0.942630 0.371985
O O10 0.846883 0.979412 0.525067
O O11 0.916999 0.250000 0.764849
O O12 0.830648 0.015560 0.711647
O O13 0.607847 0.250000 0.411087
O O14 0.502121 0.026118 0.366094
O O15 0.632768 0.972701 0.467071
O O16 0.373732 0.250000 0.407607
O O17 0.325090 0.519763 0.359432
O O18 0.203213 0.750000 0.397438
#
# Coordination Sequence:
#
# PCOD8068771 Si02
#       7
#     4   4   4   4   4   4   4
#     4  10  18  30  49  71  94 124 158 193 234 283
#     4  10  20  36  54  74  96 119 150 192 239 286
#     4  10  18  29  43  64  92 125 160 197 230 269
#     4   8  18  32  46  64  91 122 155 190 231 281
#     4   9  18  31  45  64  92 126 163 197 234 276
#     4  10  19  29  43  64  93 128 163 200 233 267
#     4  11  19  29  43  63  92 129 162 191 227 274
#
# _framework density 16.481186000000001
#
# number of rings (size 3 to 8) (size 9 to 14) (size 15 to 20)
#    0.000    2.286    1.429    3.429    0.000    1.143 
#    0.000    7.857    0.000    0.000    0.000    1.000 
#    0.000    0.000    0.000    0.000    0.000    0.000 
#
# Total GULP energy -346981.384089 kJ/mol
# GULP energy per Si atom -12392.192289 kJ/mol
# Density = 1.644367 g / cm^3
# Si number density = 16.481186 Si / 1000 Ang^3
#
#
#
# Elastic Constant Matrix: (Units=GPa)
#
#
# Indices 1 2 3 4 5 6 
#
# 1 117.1747 29.8741 54.8491 0.0000 -1.5068 0.0000
# 2 29.8741 50.0550 23.9663 0.0000 -1.1057 0.0000
# 3 54.8491 23.9663 85.4462 0.0000 -5.6616 0.0000
# 4 0.0000 0.0000 0.0000 20.0626 0.0000 -3.2091
# 5 -1.5068 -1.1057 -5.6616 0.0000 17.0269 0.0000
# 6 0.0000 0.0000 0.0000 -3.2091 0.0000 24.3061
#
#
#
# Elastic Compliance Matrix: (Units=1/GPa)
#
#
# Indices 1 2 3 4 5 6 
#
# 1 0.013006 -0.004332 -0.007235 0.000000 -0.001536 0.000000
# 2 -0.004332 0.024527 -0.004109 0.000000 -0.000157 0.000000
# 3 -0.007235 -0.004109 0.017833 0.000000 0.005023 0.000000
# 4 0.000000 0.000000 0.000000 0.050919 0.000000 0.006723
# 5 -0.001536 -0.000157 0.005023 0.000000 0.060254 0.000000
# 6 0.000000 0.000000 0.000000 0.006723 0.000000 0.042030
#
#
# Mechanical properties :
#
#
# Convention : Reuss Voigt Hill
#
# Bulk Modulus (GPa) = 41.64346 52.22832 46.93589
# Shear Modulus (GPa) = 20.16723 21.87822 21.02272
#
# Velocity S-wave (km/s) = 3.50187 3.64739 3.57537
# Velocity P-wave (km/s) = 6.45545 7.03537 6.75164
#
# Compressibility (1/GPa) = 0.02401337
#
# Stress axis : x y z
#
# Youngs Moduli (GPa) = 76.88883 40.77069 56.07539
#
# Poissons Ratio (x) = 0.17661 0.40573
# Poissons Ratio (y) = 0.33307 0.23043
# Poissons Ratio (z) = 0.55632 0.16754
#
# Static dielectric constant tensor:
#      x y z
#    x 3.508440 0.000000 0.038940 
#    y 0.000000 3.099030 0.000000 
#    z 0.038940 0.000000 2.881430 
# 
# 
# High freq. dielectric constant tensor:
#      x y z
#    x 1.640500 0.000000 -0.004960 
#    y 0.000000 1.637010 0.000000 
#    z -0.004960 0.000000 1.584700 
# 
# From -- ./inp_files/50995.got.cif
#   From: 2010.06.25/outbox.cif.g09.slc.cpg/sg11_26_cif.got.tgz:50995.got - 2010.06.27 23:14:04.
