data_PCOD8068078
_publ_section_title
;
Structure prediction by ZEFSAII (Michael W. Deem and Ramdas Pophale) SiO2 
 PCOD8068078
Probable space group: P 2/M
;
_chemical_formula_sum "Si O2"
_cell_formula_units_Z 32
_cell_length_a 12.000000
_cell_length_b 9.000000
_cell_length_c 30.000000
_cell_angle_alpha 90.000000
_cell_angle_beta 30.000000
_cell_angle_gamma 90.000000
_cell_volume 1620.000000
_symmetry_space_group_name_H-M "P 2/M"
_symmetry_group_IT_number 10
_symmetry_cell_setting 'monoclinic'
loop_
_space_group_symop_operation_xyz
x,y,z
-x,y,-z
-x,-y,-z
x,-y,z
loop_
_atom_site_type_symbol
_atom_site_label
_atom_site_fract_x
_atom_site_fract_y
_atom_site_fract_z
Si Si1 0.770661 0.666875 0.099348
Si Si2 0.039059 0.174645 0.657458
Si Si3 0.409411 0.829481 0.389162
Si Si4 0.570977 0.829364 0.721442
Si Si5 0.620572 0.665197 0.830903
Si Si6 0.335209 0.827358 0.097310
Si Si7 0.845008 0.825575 0.284459
Si Si8 0.041974 0.676267 0.569767
O O1 0.812904 0.500000 0.103775
O O2 0.654301 0.766906 0.177692
O O3 0.613466 0.658486 0.111545
O O4 0.000000 0.736187 0.000000
O O5 0.780302 0.222151 0.748978
O O6 0.155007 0.261928 0.576322
O O7 0.150303 0.223744 0.665466
O O8 0.059893 0.000000 0.641818
O O9 0.466408 0.817607 0.317946
O O10 0.624500 0.755299 0.338901
O O11 0.186859 0.737120 0.478235
O O12 0.365689 0.000000 0.418521
O O13 0.788817 0.733598 0.657306
O O14 0.609297 0.000000 0.722988
O O15 0.728941 0.500000 0.795649
O O16 0.565815 0.726895 0.898360
O O17 0.075593 0.779283 0.179386
O O18 0.340186 0.000000 0.109711
O O19 0.500000 0.794641 0.000000
O O20 0.818088 0.000000 0.289662
O O21 0.040268 0.500000 0.569244
#
# Coordination Sequence:
#
# PCOD8068078 Si02
#       8
#     4   4   4   4   4   4   4   4
#     4  10  22  39  58  83 118 157 192 234 294 351
#     4  10  19  35  61  86 111 147 190 235 285 343
#     4  10  22  40  59  83 117 154 195 242 293 349
#     4  11  23  39  62  88 115 151 198 248 289 340
#     4  10  19  33  54  80 111 149 188 233 285 337
#     4   9  18  33  56  83 111 149 193 236 286 344
#     4   8  17  35  57  82 114 150 187 236 296 343
#     4  12  24  38  59  86 116 153 195 240 295 354
#
# _framework density 19.753086
#
# number of rings (size 3 to 8) (size 9 to 14) (size 15 to 20)
#    0.000    2.000    1.250    3.375    0.000    5.000 
#    0.000    6.875    0.000    0.000    0.000    0.000 
#    0.000    0.000    0.000    0.000    0.000    0.000 
#
# Total GULP energy -396661.326409 kJ/mol
# GULP energy per Si atom -12395.666450 kJ/mol
# Density = 1.970813 g / cm^3
# Si number density = 19.753086 Si / 1000 Ang^3
#
#
#
# Elastic Constant Matrix: (Units=GPa)
#
#
# Indices 1 2 3 4 5 6 
#
# 1 69.7170 37.6319 40.9581 0.0000 -0.3528 0.0000
# 2 37.6319 107.9414 55.3342 0.0000 9.5333 0.0000
# 3 40.9581 55.3342 135.1243 0.0000 10.2995 0.0000
# 4 0.0000 0.0000 0.0000 30.4227 0.0000 2.4031
# 5 -0.3528 9.5333 10.2995 0.0000 21.8157 0.0000
# 6 0.0000 0.0000 0.0000 2.4031 0.0000 16.1711
#
#
#
# Elastic Compliance Matrix: (Units=1/GPa)
#
#
# Indices 1 2 3 4 5 6 
#
# 1 0.019570 -0.005068 -0.004201 0.000000 0.004514 0.000000
# 2 -0.005068 0.013226 -0.003561 0.000000 -0.004180 0.000000
# 3 -0.004201 -0.003561 0.010393 0.000000 -0.003418 0.000000
# 4 0.000000 0.000000 0.000000 0.033261 0.000000 -0.004943
# 5 0.004514 -0.004180 -0.003418 0.000000 0.049352 0.000000
# 6 0.000000 0.000000 0.000000 -0.004943 0.000000 0.062573
#
#
# Mechanical properties :
#
#
# Convention : Reuss Voigt Hill
#
# Bulk Modulus (GPa) = 57.04898 64.51458 60.78178
# Shear Modulus (GPa) = 22.73991 25.60580 24.17285
#
# Velocity S-wave (km/s) = 3.39663 3.60431 3.50201
# Velocity P-wave (km/s) = 6.65782 7.07480 6.86947
#
# Compressibility (1/GPa) = 0.01752880
#
# Stress axis : x y z
#
# Youngs Moduli (GPa) = 51.09849 75.60848 96.22051
#
# Poissons Ratio (x) = 0.38319 0.40419
# Poissons Ratio (y) = 0.25897 0.34267
# Poissons Ratio (z) = 0.21465 0.26926
#
# Static dielectric constant tensor:
#      x y z
#    x 3.713100 0.000000 0.036270 
#    y 0.000000 3.599190 0.000000 
#    z 0.036270 0.000000 3.695780 
# 
# 
# High freq. dielectric constant tensor:
#      x y z
#    x 1.762710 0.000000 0.007360 
#    y 0.000000 1.758620 0.000000 
#    z 0.007360 0.000000 1.777040 
# 
# From -- ./inp_files/94920.got.cif
#   From: 2010.06.25/outbox.ucp.g09.slc.cvg/sg10_48_cif.got.tgz:94920.got - 2010.06.28 13:37:52.
