data_PCOD8068702
_publ_section_title
;
Structure prediction by ZEFSAII (Michael W. Deem and Ramdas Pophale) SiO2 
 PCOD8068702
Probable space group: P 21/M
;
_chemical_formula_sum "Si O2"
_cell_formula_units_Z 20
_cell_length_a 10.437295
_cell_length_b 8.793180
_cell_length_c 18.277085
_cell_angle_alpha 90.000000
_cell_angle_beta 137.806324
_cell_angle_gamma 90.000000
_cell_volume 1126.617889
_symmetry_space_group_name_H-M "P 21/M"
_symmetry_group_IT_number 11
_symmetry_cell_setting 'monoclinic'
loop_
_space_group_symop_operation_xyz
x,y,z
-x,1/2+y,-z
-x,-y,-z
x,1/2-y,z
loop_
_atom_site_type_symbol
_atom_site_label
_atom_site_fract_x
_atom_site_fract_y
_atom_site_fract_z
Si Si1 0.698968 0.573425 0.564517
Si Si2 0.413717 0.571496 0.223063
Si Si3 0.118651 0.427569 0.208318
Si Si4 0.183840 0.427360 0.542704
Si Si5 0.150582 0.430792 0.007067
O O1 0.500000 0.500000 0.500000
O O2 0.656306 0.750000 0.535526
O O3 0.852949 0.543889 0.693524
O O4 0.781402 0.504442 0.523903
O O5 0.370508 0.750000 0.201569
O O6 0.294665 0.502075 0.239735
O O7 0.635269 0.536072 0.329548
O O8 0.355767 0.493798 0.120784
O O9 0.112843 0.250000 0.186185
O O10 0.916257 0.505613 0.100311
O O11 0.146139 0.250000 0.520788
O O12 0.000000 0.500000 0.500000
O O13 0.150308 0.250000 0.006762
O O14 0.000000 0.500000 0.000000
#
# Coordination Sequence:
#
# PCOD8068702 Si02
#       5
#     4   4   4   4   4
#     4  10  20  34  53  78 106 136 172 215 261 308
#     4  10  18  31  50  72 103 135 170 213 254 303
#     4  10  18  29  49  76 104 133 167 209 259 307
#     4  10  22  37  53  76 106 140 175 213 258 309
#     4  10  18  28  45  71 103 134 168 209 255 305
#
# _framework density 17.752247000000001
#
# number of rings (size 3 to 8) (size 9 to 14) (size 15 to 20)
#    0.000    2.000    2.000    5.400    0.000    3.200 
#    0.000    0.000    0.000    1.200    0.000    0.000 
#    0.000    0.000    0.000    0.000    0.000    0.000 
#
# Total GULP energy -247931.147763 kJ/mol
# GULP energy per Si atom -12396.557388 kJ/mol
# Density = 1.771184 g / cm^3
# Si number density = 17.752247 Si / 1000 Ang^3
#
#
#
# Elastic Constant Matrix: (Units=GPa)
#
#
# Indices 1 2 3 4 5 6 
#
# 1 97.8463 36.8017 67.5269 0.0000 0.6752 0.0000
# 2 36.8017 109.3680 76.0856 0.0000 0.3304 0.0000
# 3 67.5269 76.0856 159.3188 0.0000 -3.8974 0.0000
# 4 0.0000 0.0000 0.0000 31.6771 0.0000 2.7669
# 5 0.6752 0.3304 -3.8974 0.0000 19.6424 0.0000
# 6 0.0000 0.0000 0.0000 2.7669 0.0000 21.7906
#
#
#
# Elastic Compliance Matrix: (Units=1/GPa)
#
#
# Indices 1 2 3 4 5 6 
#
# 1 0.014557 -0.000858 -0.005800 0.000000 -0.001637 0.000000
# 2 -0.000858 0.013789 -0.006257 0.000000 -0.001444 0.000000
# 3 -0.005800 -0.006257 0.011788 0.000000 0.002644 0.000000
# 4 0.000000 0.000000 0.000000 0.031923 0.000000 -0.004053
# 5 -0.001637 -0.001444 0.002644 0.000000 0.051515 0.000000
# 6 0.000000 0.000000 0.000000 -0.004053 0.000000 0.046406
#
#
# Mechanical properties :
#
#
# Convention : Reuss Voigt Hill
#
# Bulk Modulus (GPa) = 69.91234 80.81795 75.36514
# Shear Modulus (GPa) = 24.92807 27.02995 25.97901
#
# Velocity S-wave (km/s) = 3.75136 3.90631 3.82962
# Velocity P-wave (km/s) = 7.63095 8.12219 7.88040
#
# Compressibility (1/GPa) = 0.01430363
#
# Stress axis : x y z
#
# Youngs Moduli (GPa) = 68.69495 72.51906 84.83313
#
# Poissons Ratio (x) = 0.06225 0.49204
# Poissons Ratio (y) = 0.05897 0.53079
# Poissons Ratio (z) = 0.39844 0.45374
#
# Static dielectric constant tensor:
#      x y z
#    x 3.212270 0.000000 -0.269960 
#    y 0.000000 3.357190 0.000000 
#    z -0.269960 0.000000 4.370390 
# 
# 
# High freq. dielectric constant tensor:
#      x y z
#    x 1.627780 0.000000 -0.010350 
#    y 0.000000 1.696740 0.000000 
#    z -0.010350 0.000000 1.715110 
# 
# From -- ./inp_files/23908.got.cif
#   From: 2010.06.25/outbox.cif.g09.slc.cpg/sg11_12_cif.got.tgz:23908.got - 2010.06.27 23:14:04.
