data_PCOD8068036
_publ_section_title
;
Structure prediction by ZEFSAII (Michael W. Deem and Ramdas Pophale) SiO2 
 PCOD8068036
Probable space group: P 2/M
;
_chemical_formula_sum "Si O2"
_cell_formula_units_Z 28
_cell_length_a 23.368205
_cell_length_b 9.445022
_cell_length_c 20.504840
_cell_angle_alpha 90.000000
_cell_angle_beta 160.563585
_cell_angle_gamma 90.000000
_cell_volume 1505.970741
_symmetry_space_group_name_H-M "P 2/M"
_symmetry_group_IT_number 10
_symmetry_cell_setting 'monoclinic'
loop_
_space_group_symop_operation_xyz
x,y,z
-x,y,-z
-x,-y,-z
x,-y,z
loop_
_atom_site_type_symbol
_atom_site_label
_atom_site_fract_x
_atom_site_fract_y
_atom_site_fract_z
Si Si1 0.658432 0.657487 0.866496
Si Si2 0.462962 0.832351 0.888885
Si Si3 0.888069 0.833617 0.554695
Si Si4 0.087521 0.340731 0.156449
Si Si5 0.950374 0.657488 0.742312
Si Si6 0.481405 0.659272 0.550335
Si Si7 0.278546 0.833614 0.945170
O O1 0.575305 0.500000 0.786993
O O2 0.586878 0.730907 0.723039
O O3 0.620717 0.757626 0.887332
O O4 0.859398 0.640588 0.078199
O O5 0.271209 0.782828 0.661466
O O6 0.464799 0.000000 0.894402
O O7 0.500000 0.766659 0.000000
O O8 0.619059 0.782837 0.009319
O O9 0.854101 0.757619 0.587487
O O10 0.073897 0.793899 0.721701
O O11 0.880154 0.000000 0.559583
O O12 0.010343 0.500000 0.076575
O O13 0.049278 0.269092 0.185437
O O14 0.287579 0.340598 0.362741
O O15 0.000000 0.261832 0.000000
O O16 0.863625 0.500000 0.651939
O O17 0.500000 0.738164 0.500000
O O18 0.555883 0.500000 0.622115
O O19 0.299260 0.000000 0.978685
#
# Coordination Sequence:
#
# PCOD8068036 Si02
#       7
#     4   4   4   4   4   4   4
#     4   9  17  29  46  68  93 122 156 195 236 279
#     4   9  18  32  51  75  99 123 157 199 237 279
#     4   9  18  32  50  72  97 125 156 192 236 282
#     4   9  16  25  39  61  89 120 154 194 236 275
#     4   9  17  29  46  68  93 122 156 195 236 279
#     4   9  16  25  39  61  89 120 154 194 236 275
#     4   9  18  32  50  72  97 125 156 192 236 282
#
# _framework density 18.592658
#
# number of rings (size 3 to 8) (size 9 to 14) (size 15 to 20)
#    0.000    3.000    0.000    0.857    2.000    4.000 
#    0.000    2.857    0.000    2.571    0.000    4.000 
#    0.000    0.000    0.000    0.000    0.000    0.000 
#
# Total GULP energy -346879.426140 kJ/mol
# GULP energy per Si atom -12388.550934 kJ/mol
# Density = 1.855034 g / cm^3
# Si number density = 18.592658 Si / 1000 Ang^3
#
#
#
# Elastic Constant Matrix: (Units=GPa)
#
#
# Indices 1 2 3 4 5 6 
#
# 1 168.5527 32.8401 66.5119 0.0000 -28.1155 0.0000
# 2 32.8401 26.2351 24.2973 0.0000 -8.0905 0.0000
# 3 66.5119 24.2973 109.9780 0.0000 -27.3700 0.0000
# 4 0.0000 0.0000 0.0000 14.3543 0.0000 -5.7700
# 5 -28.1155 -8.0905 -27.3700 0.0000 36.8863 0.0000
# 6 0.0000 0.0000 0.0000 -5.7700 0.0000 20.4473
#
#
#
# Elastic Compliance Matrix: (Units=1/GPa)
#
#
# Indices 1 2 3 4 5 6 
#
# 1 0.009145 -0.007659 -0.003093 0.000000 0.002996 0.000000
# 2 -0.007659 0.054658 -0.007252 0.000000 0.000769 0.000000
# 3 -0.003093 -0.007252 0.014206 0.000000 0.006593 0.000000
# 4 0.000000 0.000000 0.000000 0.078579 0.000000 0.022174
# 5 0.002996 0.000769 0.006593 0.000000 0.034454 0.000000
# 6 0.000000 0.000000 0.000000 0.022174 0.000000 0.055164
#
#
# Mechanical properties :
#
#
# Convention : Reuss Voigt Hill
#
# Bulk Modulus (GPa) = 23.80900 61.34048 42.57474
# Shear Modulus (GPa) = 16.87957 26.41201 21.64579
#
# Velocity S-wave (km/s) = 3.01634 3.77312 3.41576
# Velocity P-wave (km/s) = 4.99645 7.21425 6.20523
#
# Compressibility (1/GPa) = 0.04200093
#
# Stress axis : x y z
#
# Youngs Moduli (GPa) = 109.34354 18.29556 70.39098
#
# Poissons Ratio (x) = 0.14013 0.21774
# Poissons Ratio (y) = 0.83750 0.51047
# Poissons Ratio (z) = 0.33823 0.13268
#
# Static dielectric constant tensor:
#      x y z
#    x 4.149190 0.000000 -0.442000 
#    y 0.000000 3.209400 0.000000 
#    z -0.442000 0.000000 3.682400 
# 
# 
# High freq. dielectric constant tensor:
#      x y z
#    x 1.732130 0.000000 -0.003130 
#    y 0.000000 1.652540 0.000000 
#    z -0.003130 0.000000 1.728820 
# 
# From -- ./inp_files/34660.got.cif
#   From: 2010.06.25/outbox.cif.g09.slc.cpg/sg10_18_cif.got.tgz:34660.got - 2010.06.27 22:07:45.
