data_PCOD8068503
_publ_section_title
;
Structure prediction by ZEFSAII (Michael W. Deem and Ramdas Pophale) SiO2 
 PCOD8068503
Probable space group: P 21/M
;
_chemical_formula_sum "Si O2"
_cell_formula_units_Z 32
_cell_length_a 22.884560
_cell_length_b 9.242078
_cell_length_c 13.763479
_cell_angle_alpha 90.000000
_cell_angle_beta 133.872372
_cell_angle_gamma 90.000000
_cell_volume 2098.488735
_symmetry_space_group_name_H-M "P 21/M"
_symmetry_group_IT_number 11
_symmetry_cell_setting 'monoclinic'
loop_
_space_group_symop_operation_xyz
x,y,z
-x,1/2+y,-z
-x,-y,-z
x,1/2-y,z
loop_
_atom_site_type_symbol
_atom_site_label
_atom_site_fract_x
_atom_site_fract_y
_atom_site_fract_z
Si Si1 0.966705 0.086945 0.733724
Si Si2 0.071212 0.082506 0.028833
Si Si3 0.466576 0.409558 0.820917
Si Si4 0.054144 0.421116 0.483941
Si Si5 0.604868 0.589600 0.046177
Si Si6 0.298666 0.421912 0.548805
Si Si7 0.236599 0.079031 0.682869
Si Si8 0.178390 0.918979 0.283772
O O1 0.958654 0.250000 0.682673
O O2 0.891026 0.052731 0.716300
O O3 0.970041 0.972541 0.651042
O O4 0.051453 0.072633 0.891000
O O5 0.074112 0.250000 0.065581
O O6 0.154065 0.000936 0.155238
O O7 0.000000 0.000000 0.000000
O O8 0.491908 0.250000 0.817166
O O9 0.435118 0.407624 0.894279
O O10 0.393678 0.464875 0.667669
O O11 0.548137 0.503768 0.905368
O O12 0.041129 0.250000 0.475092
O O13 0.147124 0.464871 0.614264
O O14 0.000000 0.500000 0.500000
O O15 0.611792 0.750000 0.010658
O O16 0.694986 0.518375 0.163040
O O17 0.287792 0.250000 0.521051
O O18 0.251609 0.477575 0.590963
O O19 0.262098 0.510009 0.416419
O O20 0.249517 0.250000 0.694475
O O21 0.190828 0.750000 0.276605
#
# Coordination Sequence:
#
# PCOD8068503 Si02
#       8
#     4   4   4   4   4   4   4   4
#     4   9  18  31  43  58  78 100 132 171 205 241
#     4   9  17  28  42  59  80 103 130 165 201 241
#     4   8  14  22  33  52  75  98 127 161 194 230
#     4  11  21  32  46  60  78 104 136 174 214 248
#     4   8  13  23  37  50  69  95 129 162 191 235
#     4   9  15  25  39  54  77 108 138 163 195 239
#     4   8  15  27  41  55  70 100 136 166 203 244
#     4  10  18  26  39  61  84 105 135 170 199 237
#
# _framework density 15.249069
#
# number of rings (size 3 to 8) (size 9 to 14) (size 15 to 20)
#    0.000    3.000    1.250    3.375    0.000    3.000 
#    0.000    3.125    0.000    0.000    0.000    0.000 
#    0.000    0.000    0.000    1.125    0.000   13.500 
#
# Total GULP energy -396504.838818 kJ/mol
# GULP energy per Si atom -12390.776213 kJ/mol
# Density = 1.521436 g / cm^3
# Si number density = 15.249069 Si / 1000 Ang^3
#
#
#
# Elastic Constant Matrix: (Units=GPa)
#
#
# Indices 1 2 3 4 5 6 
#
# 1 33.3986 22.6309 29.6443 0.0000 8.6044 0.0000
# 2 22.6309 83.3120 62.3026 0.0000 9.6671 0.0000
# 3 29.6443 62.3026 136.0638 0.0000 25.8916 0.0000
# 4 0.0000 0.0000 0.0000 30.5741 0.0000 1.5515
# 5 8.6044 9.6671 25.8916 0.0000 16.0423 0.0000
# 6 0.0000 0.0000 0.0000 1.5515 0.0000 14.7479
#
#
#
# Elastic Compliance Matrix: (Units=1/GPa)
#
#
# Indices 1 2 3 4 5 6 
#
# 1 0.040916 -0.007257 -0.003244 0.000000 -0.012337 0.000000
# 2 -0.007257 0.019685 -0.008538 0.000000 0.005811 0.000000
# 3 -0.003244 -0.008538 0.015379 0.000000 -0.017936 0.000000
# 4 0.000000 0.000000 0.000000 0.032883 0.000000 -0.003459
# 5 -0.012337 0.005811 -0.017936 0.000000 0.094398 0.000000
# 6 0.000000 0.000000 0.000000 -0.003459 0.000000 0.068170
#
#
# Mechanical properties :
#
#
# Convention : Reuss Voigt Hill
#
# Bulk Modulus (GPa) = 26.38382 53.54777 39.96580
# Shear Modulus (GPa) = 15.52097 21.48598 18.50347
#
# Velocity S-wave (km/s) = 3.19381 3.75774 3.48719
# Velocity P-wave (km/s) = 5.56238 7.34977 6.51764
#
# Compressibility (1/GPa) = 0.03790202
#
# Stress axis : x y z
#
# Youngs Moduli (GPa) = 24.44003 50.79913 65.02433
#
# Poissons Ratio (x) = 0.36866 0.21092
# Poissons Ratio (y) = 0.17737 0.55520
# Poissons Ratio (z) = 0.07928 0.43374
#
# Static dielectric constant tensor:
#      x y z
#    x 2.442340 0.000000 0.219760 
#    y 0.000000 2.985890 0.000000 
#    z 0.219760 0.000000 3.414160 
# 
# 
# High freq. dielectric constant tensor:
#      x y z
#    x 1.505480 0.000000 0.022400 
#    y 0.000000 1.584480 0.000000 
#    z 0.022400 0.000000 1.599070 
# 
# From -- ./inp_files/56034.got.cif
#   From: 2010.06.25/outbox.cif.g09.slc.cpg/sg11_29_cif.got.tgz:56034.got - 2010.06.27 23:14:04.
