data_PCOD8068892
_publ_section_title
;
Structure prediction by ZEFSAII (Michael W. Deem and Ramdas Pophale) SiO2 
 PCOD8068892
Probable space group: P 21/M
;
_chemical_formula_sum "Si O2"
_cell_formula_units_Z 32
_cell_length_a 24.976722
_cell_length_b 8.570714
_cell_length_c 20.081456
_cell_angle_alpha 90.000000
_cell_angle_beta 22.919804
_cell_angle_gamma 90.000000
_cell_volume 1674.136234
_symmetry_space_group_name_H-M "P 21/M"
_symmetry_group_IT_number 11
_symmetry_cell_setting 'monoclinic'
loop_
_space_group_symop_operation_xyz
x,y,z
-x,1/2+y,-z
-x,-y,-z
x,1/2-y,z
loop_
_atom_site_type_symbol
_atom_site_label
_atom_site_fract_x
_atom_site_fract_y
_atom_site_fract_z
Si Si1 0.637384 0.069994 0.138404
Si Si2 0.334780 0.432274 0.535975
Si Si3 0.871891 0.568140 0.342381
Si Si4 0.419532 0.568263 0.945280
Si Si5 0.287364 0.567863 0.357743
Si Si6 0.648758 0.566103 0.846907
Si Si7 0.835734 0.931247 0.014408
Si Si8 0.349914 0.933147 0.659064
O O1 0.670614 0.250000 0.116113
O O2 0.485434 0.027209 0.336736
O O3 0.651042 0.034115 0.044495
O O4 0.745438 0.961866 0.052281
O O5 0.320197 0.250000 0.569783
O O6 0.225661 0.486360 0.605994
O O7 0.303374 0.533337 0.637238
O O8 0.850869 0.750000 0.380548
O O9 0.833452 0.475718 0.453220
O O10 0.027177 0.532678 0.145206
O O11 0.448514 0.750000 0.922221
O O12 0.566973 0.485376 0.779356
O O13 0.314620 0.505345 0.122449
O O14 0.291114 0.750000 0.341270
O O15 0.251786 0.488143 0.326923
O O16 0.648016 0.750000 0.853334
O O17 0.500000 0.500000 0.000000
O O18 0.873460 0.750000 0.974888
O O19 0.755115 0.980964 0.172385
O O20 0.349248 0.750000 0.675041
O O21 0.500000 0.000000 0.500000
#
# Coordination Sequence:
#
# PCOD8068892 Si02
#       8
#     4   4   4   4   4   4   4   4
#     4  10  20  37  61  87 117 154 195 240 291 347
#     4  10  21  39  64  90 116 151 195 240 291 348
#     4  11  23  42  63  86 119 157 194 241 293 348
#     4  10  18  32  54  83 116 151 194 243 292 342
#     4  11  20  32  53  82 117 155 194 238 289 347
#     4  10  18  29  47  77 115 153 193 239 291 342
#     4  12  26  42  61  88 119 155 196 240 288 350
#     4  12  24  40  63  89 118 154 193 241 293 345
#
# _framework density 19.114335000000001
#
# number of rings (size 3 to 8) (size 9 to 14) (size 15 to 20)
#    0.000    1.250    2.500    6.750    0.000    2.500 
#    0.000    0.000    0.000    0.750    0.000    0.000 
#    0.000    0.000    0.000    0.000    0.000    0.000 
#
# Total GULP energy -396903.024611 kJ/mol
# GULP energy per Si atom -12403.219519 kJ/mol
# Density = 1.907083 g / cm^3
# Si number density = 19.114335 Si / 1000 Ang^3
#
#
#
# Elastic Constant Matrix: (Units=GPa)
#
#
# Indices 1 2 3 4 5 6 
#
# 1 114.2072 33.2663 46.5861 0.0000 23.6283 0.0000
# 2 33.2663 83.0287 9.2221 0.0000 9.9705 0.0000
# 3 46.5861 9.2221 79.3152 0.0000 9.2462 0.0000
# 4 0.0000 0.0000 0.0000 27.0858 0.0000 6.4781
# 5 23.6283 9.9705 9.2462 0.0000 35.4298 0.0000
# 6 0.0000 0.0000 0.0000 6.4781 0.0000 33.3632
#
#
#
# Elastic Compliance Matrix: (Units=1/GPa)
#
#
# Indices 1 2 3 4 5 6 
#
# 1 0.014188 -0.004121 -0.007102 0.000000 -0.006449 0.000000
# 2 -0.004121 0.013752 0.000982 0.000000 -0.001378 0.000000
# 3 -0.007102 0.000982 0.016652 0.000000 0.000114 0.000000
# 4 0.000000 0.000000 0.000000 0.038718 0.000000 -0.007518
# 5 -0.006449 -0.001378 0.000114 0.000000 0.032883 0.000000
# 6 0.000000 0.000000 0.000000 -0.007518 0.000000 0.031433
#
#
# Mechanical properties :
#
#
# Convention : Reuss Voigt Hill
#
# Bulk Modulus (GPa) = 41.47855 50.52224 46.00040
# Shear Modulus (GPa) = 28.38593 31.67419 30.03006
#
# Velocity S-wave (km/s) = 3.85783 4.07515 3.96798
# Velocity P-wave (km/s) = 6.44912 6.97363 6.71650
#
# Compressibility (1/GPa) = 0.02410884
#
# Stress axis : x y z
#
# Youngs Moduli (GPa) = 70.48394 72.71892 60.05323
#
# Poissons Ratio (x) = 0.29969 0.42651
# Poissons Ratio (y) = 0.29048 -0.05899
# Poissons Ratio (z) = 0.50059 -0.07143
#
# Static dielectric constant tensor:
#      x y z
#    x 4.283690 0.000000 0.426180 
#    y 0.000000 3.547140 0.000000 
#    z 0.426180 0.000000 3.441470 
# 
# 
# High freq. dielectric constant tensor:
#      x y z
#    x 1.748020 0.000000 0.029530 
#    y 0.000000 1.753820 0.000000 
#    z 0.029530 0.000000 1.723690 
# 
# From -- ./inp_files/66927.got.cif
#   From: 2010.06.25/outbox.cif.g09.slc.cpg/sg11_34_cif.got.tgz:66927.got - 2010.06.27 23:14:04.
