data_PCOD8068086
_publ_section_title
;
Structure prediction by ZEFSAII (Michael W. Deem and Ramdas Pophale) SiO2 
 PCOD8068086
Probable space group: P 2/M
;
_chemical_formula_sum "Si O2"
_cell_formula_units_Z 32
_cell_length_a 21.000000
_cell_length_b 9.000000
_cell_length_c 30.000000
_cell_angle_alpha 90.000000
_cell_angle_beta 160.000000
_cell_angle_gamma 90.000000
_cell_volume 1939.254213
_symmetry_space_group_name_H-M "P 2/M"
_symmetry_group_IT_number 10
_symmetry_cell_setting 'monoclinic'
loop_
_space_group_symop_operation_xyz
x,y,z
-x,y,-z
-x,-y,-z
x,-y,z
loop_
_atom_site_type_symbol
_atom_site_label
_atom_site_fract_x
_atom_site_fract_y
_atom_site_fract_z
Si Si1 0.220845 0.326953 0.553916
Si Si2 0.894261 0.331890 0.793240
Si Si3 0.609958 0.167395 0.252496
Si Si4 0.670928 0.833185 0.578569
Si Si5 0.558820 0.330705 0.640029
Si Si6 0.477489 0.172288 0.295680
Si Si7 0.870816 0.665919 0.371566
Si Si8 0.757536 0.165664 0.946570
O O1 0.255741 0.500000 0.568658
O O2 0.320459 0.281832 0.665000
O O3 0.313593 0.235697 0.574610
O O4 0.999303 0.292441 0.413217
O O5 0.911030 0.500000 0.788141
O O6 0.851904 0.235470 0.721460
O O7 0.735290 0.312014 0.724902
O O8 0.083646 0.284063 0.941078
O O9 0.695618 0.221531 0.261413
O O10 0.385761 0.171931 0.105919
O O11 0.678772 0.000000 0.308601
O O12 0.500000 0.825584 0.500000
O O13 0.621891 0.742350 0.501842
O O14 0.718428 0.000000 0.595594
O O15 0.509414 0.500000 0.617469
O O16 0.612667 0.249607 0.721008
O O17 0.347048 0.207383 0.167868
O O18 0.495362 0.000000 0.316967
O O19 0.791620 0.500000 0.314001
O O20 0.000000 0.677962 0.500000
O O21 0.843154 0.000000 0.999171
#
# Coordination Sequence:
#
# PCOD8068086 Si02
#       8
#     4   4   4   4   4   4   4   4
#     4   9  16  26  39  56  81 112 144 179 219 259
#     4  10  20  32  48  68  88 114 148 185 224 265
#     4   9  16  25  38  57  81 111 146 181 216 255
#     4   9  17  31  51  70  87 109 139 179 226 268
#     4  10  20  33  48  67  90 114 145 185 225 265
#     4  10  20  32  45  63  88 120 155 185 219 263
#     4   8  14  23  36  55  78 107 142 177 215 258
#     4   9  19  32  43  60  89 122 153 185 220 261
#
# _framework density 16.501189
#
# number of rings (size 3 to 8) (size 9 to 14) (size 15 to 20)
#    0.000    2.750    0.000    3.750    0.000    9.250 
#    0.000    2.500    0.000    0.000    0.000    0.000 
#    0.000    1.000    0.000   10.500    0.000    7.750 
#
# Total GULP energy -396560.200803 kJ/mol
# GULP energy per Si atom -12392.506275 kJ/mol
# Density = 1.646363 g / cm^3
# Si number density = 16.501189 Si / 1000 Ang^3
#
#
#
# Elastic Constant Matrix: (Units=GPa)
#
#
# Indices 1 2 3 4 5 6 
#
# 1 23.1354 46.5675 35.7131 0.0000 -5.5306 0.0000
# 2 46.5675 93.5099 66.2498 0.0000 23.4243 0.0000
# 3 35.7131 66.2498 44.2123 0.0000 -18.6178 0.0000
# 4 0.0000 0.0000 0.0000 22.2061 0.0000 2.3105
# 5 -5.5306 23.4243 -18.6178 0.0000 -19.8277 0.0000
# 6 0.0000 0.0000 0.0000 2.3105 0.0000 26.7036
#
#
#
# Elastic Compliance Matrix: (Units=1/GPa)
#
#
# Indices 1 2 3 4 5 6 
#
# 1 -0.268627 0.032109 0.155080 0.000000 -0.032755 0.000000
# 2 0.032109 0.007343 -0.026557 0.000000 0.024655 0.000000
# 3 0.155080 -0.026557 -0.067566 0.000000 -0.011188 0.000000
# 4 0.000000 0.000000 0.000000 0.045442 0.000000 -0.003932
# 5 -0.032755 0.024655 -0.011188 0.000000 -0.001665 0.000000
# 6 0.000000 0.000000 0.000000 -0.003932 0.000000 0.037788
#
#
# Mechanical properties :
#
#
# Convention : Reuss Voigt Hill
#
# Bulk Modulus (GPa) = -131.81343 50.87983 -40.46680
# Shear Modulus (GPa) = -8.75536 6.63821 -1.05858
#
# Velocity S-wave (km/s) = -2.30595 2.00788 -0.80182
# Velocity P-wave (km/s) = 9.33512 6.02299 5.04321
#
# Compressibility (1/GPa) = -0.00758648
#
# Stress axis : x y z
#
# Youngs Moduli (GPa) = -3.72263 136.18503 -14.80024
#
# Poissons Ratio (x) = -4.37278 2.29522
# Poissons Ratio (y) = 0.11953 -0.39305
# Poissons Ratio (z) = 0.57731 3.61670
#
# Static dielectric constant tensor:
#      x y z
#    x 3.206870 0.000000 0.331540 
#    y 0.000000 3.220290 0.000000 
#    z 0.331540 0.000000 2.897280 
# 
# 
# High freq. dielectric constant tensor:
#      x y z
#    x 1.607420 0.000000 0.023520 
#    y 0.000000 1.648100 0.000000 
#    z 0.023520 0.000000 1.590020 
# 
# From -- ./inp_files/54933.got.cif
#   From: 2010.06.25/outbox.ucp.g09.slc.cvg/sg10_28_cif.got.tgz:54933.got - 2010.06.28 13:37:52.
