data_PCOD8068083
_publ_section_title
;
Structure prediction by ZEFSAII (Michael W. Deem and Ramdas Pophale) SiO2 
 PCOD8068083
Probable space group: P 2/M
;
_chemical_formula_sum "Si O2"
_cell_formula_units_Z 28
_cell_length_a 30.000000
_cell_length_b 9.000000
_cell_length_c 30.000000
_cell_angle_alpha 90.000000
_cell_angle_beta 10.000000
_cell_angle_gamma 90.000000
_cell_volume 1406.550239
_symmetry_space_group_name_H-M "P 2/M"
_symmetry_group_IT_number 10
_symmetry_cell_setting 'monoclinic'
loop_
_space_group_symop_operation_xyz
x,y,z
-x,y,-z
-x,-y,-z
x,-y,z
loop_
_atom_site_type_symbol
_atom_site_label
_atom_site_fract_x
_atom_site_fract_y
_atom_site_fract_z
Si Si1 0.690954 0.328730 0.183417
Si Si2 0.884874 0.174774 0.379718
Si Si3 0.589521 0.823272 0.093736
Si Si4 0.025864 0.833327 0.526472
Si Si5 0.543636 0.323017 0.044967
Si Si6 0.739786 0.330211 0.239763
Si Si7 0.170754 0.822164 0.665213
O O1 0.692177 0.500000 0.165786
O O2 0.713010 0.318906 0.214025
O O3 0.429829 0.248408 0.427929
O O4 0.928598 0.238880 0.930053
O O5 0.644927 0.229737 0.644782
O O6 0.859571 0.237236 0.355116
O O7 0.885608 0.000000 0.376947
O O8 0.149776 0.230599 0.139816
O O9 0.567665 0.725679 0.071760
O O10 0.585117 0.000000 0.087904
O O11 0.000000 0.853173 0.500000
O O12 0.280975 0.742013 0.284799
O O13 0.038542 0.000000 0.535744
O O14 0.781975 0.744247 0.783880
O O15 0.543552 0.500000 0.040278
O O16 0.500000 0.249400 0.500000
O O17 0.748390 0.500000 0.248268
O O18 0.000000 0.249397 0.000000
O O19 0.182674 0.000000 0.657304
#
# Coordination Sequence:
#
# PCOD8068083 Si02
#       7
#     4   4   4   4   4   4   4
#     4  11  22  37  59  88 117 148 193 244 293 344
#     4   9  19  35  58  83 108 149 200 239 275 338
#     4  10  19  36  60  83 110 150 200 242 277 332
#     4  11  24  43  66  90 118 159 208 247 283 341
#     4  12  25  40  61  93 128 157 190 241 306 357
#     4   9  17  31  53  79 107 144 191 238 280 333
#     4  11  22  39  61  86 118 155 194 236 292 355
#
# _framework density 19.906860999999999
#
# number of rings (size 3 to 8) (size 9 to 14) (size 15 to 20)
#    0.000    1.571    0.000    5.571    0.000    8.571 
#    0.000    4.286    0.000    8.571    0.000    0.000 
#    0.000    0.000    0.000    0.000    0.000    0.000 
#
# Total GULP energy -347204.116851 kJ/mol
# GULP energy per Si atom -12400.147030 kJ/mol
# Density = 1.986155 g / cm^3
# Si number density = 19.906861 Si / 1000 Ang^3
#
#
#
# Elastic Constant Matrix: (Units=GPa)
#
#
# Indices 1 2 3 4 5 6 
#
# 1 88.2945 43.4727 70.6549 0.0000 -2.0896 0.0000
# 2 43.4727 105.2757 34.8944 0.0000 -17.4980 0.0000
# 3 70.6549 34.8944 181.6389 0.0000 -27.2246 0.0000
# 4 0.0000 0.0000 0.0000 29.5250 0.0000 -0.4022
# 5 -2.0896 -17.4980 -27.2246 0.0000 23.6931 0.0000
# 6 0.0000 0.0000 0.0000 -0.4022 0.0000 34.0375
#
#
#
# Elastic Compliance Matrix: (Units=1/GPa)
#
#
# Indices 1 2 3 4 5 6 
#
# 1 0.022998 -0.008910 -0.009563 0.000000 -0.015541 0.000000
# 2 -0.008910 0.014453 0.002623 0.000000 0.012902 0.000000
# 3 -0.009563 0.002623 0.010734 0.000000 0.013428 0.000000
# 4 0.000000 0.000000 0.000000 0.033875 0.000000 0.000400
# 5 -0.015541 0.012902 0.013428 0.000000 0.065794 0.000000
# 6 0.000000 0.000000 0.000000 0.000400 0.000000 0.029384
#
#
# Mechanical properties :
#
#
# Convention : Reuss Voigt Hill
#
# Bulk Modulus (GPa) = 60.66267 74.80590 67.73429
# Shear Modulus (GPa) = 23.31732 32.53026 27.92379
#
# Velocity S-wave (km/s) = 3.42617 4.04681 3.74936
# Velocity P-wave (km/s) = 6.79639 7.71331 7.26932
#
# Compressibility (1/GPa) = 0.01648460
#
# Stress axis : x y z
#
# Youngs Moduli (GPa) = 43.48288 69.18894 93.16089
#
# Poissons Ratio (x) = 0.61646 0.89093
# Poissons Ratio (y) = 0.38743 -0.24437
# Poissons Ratio (z) = 0.41584 -0.18149
#
# Static dielectric constant tensor:
#      x y z
#    x 3.757070 0.000000 -0.022070 
#    y 0.000000 3.603550 0.000000 
#    z -0.022070 0.000000 4.042040 
# 
# 
# High freq. dielectric constant tensor:
#      x y z
#    x 1.785060 0.000000 -0.001910 
#    y 0.000000 1.757730 0.000000 
#    z -0.001910 0.000000 1.804870 
# 
# From -- ./inp_files/95986.got.cif
#   From: 2010.06.25/outbox.ucp.g09.slc.cvg/sg10_48_cif.got.tgz:95986.got - 2010.06.28 13:37:52.
