data_PCOD8068139
_publ_section_title
;
Structure prediction by ZEFSAII (Michael W. Deem and Ramdas Pophale) SiO2 
 PCOD8068139
Probable space group: P 21/M
;
_chemical_formula_sum "Si O2"
_cell_formula_units_Z 32
_cell_length_a 11.528791
_cell_length_b 8.763009
_cell_length_c 23.022697
_cell_angle_alpha 90.000000
_cell_angle_beta 54.596295
_cell_angle_gamma 90.000000
_cell_volume 1895.828140
_symmetry_space_group_name_H-M "P 21/M"
_symmetry_group_IT_number 11
_symmetry_cell_setting 'monoclinic'
loop_
_space_group_symop_operation_xyz
x,y,z
-x,1/2+y,-z
-x,-y,-z
x,1/2-y,z
loop_
_atom_site_type_symbol
_atom_site_label
_atom_site_fract_x
_atom_site_fract_y
_atom_site_fract_z
Si Si1 0.383594 0.569669 0.958189
Si Si2 0.183552 0.570889 0.624594
Si Si3 0.610687 0.568602 0.514315
Si Si4 0.329299 0.569804 0.104136
Si Si5 0.807258 0.576277 0.195529
Si Si6 0.597284 0.926361 0.351980
Si Si7 0.976063 0.429541 0.765959
Si Si8 0.852539 0.428867 0.061741
O O1 0.395230 0.750000 0.951666
O O2 0.538714 0.501197 0.899064
O O3 0.271992 0.506023 0.943513
O O4 0.331526 0.514023 0.036661
O O5 0.179441 0.750000 0.614996
O O6 0.231627 0.488619 0.550166
O O7 0.295349 0.527254 0.641618
O O8 0.030043 0.512581 0.691554
O O9 0.500000 0.500000 0.500000
O O10 0.605192 0.750000 0.518395
O O11 0.561078 0.496761 0.591154
O O12 0.340709 0.750000 0.103854
O O13 0.183609 0.513076 0.175808
O O14 0.834404 0.750000 0.167343
O O15 0.649662 0.560564 0.270135
O O16 0.814403 0.466061 0.138860
O O17 0.928064 0.526617 0.206289
O O18 0.604098 0.750000 0.370650
O O19 0.985294 0.250000 0.752271
O O20 0.865695 0.250000 0.049782
O O21 0.000000 0.500000 0.000000
#
# Coordination Sequence:
#
# PCOD8068139 Si02
#       8
#     4   4   4   4   4   4   4   4
#     4   9  19  34  48  66  90 114 143 182 226 263
#     4  10  17  24  36  57  84 114 149 183 216 260
#     4  10  16  23  36  54  79 112 148 183 218 259
#     4   9  17  31  51  68  85 113 147 182 221 267
#     4   9  18  31  46  64  90 120 149 184 223 265
#     4   9  16  27  40  55  80 114 147 182 223 261
#     4   9  17  30  45  63  90 120 148 182 226 265
#     4  11  22  34  49  67  91 120 149 184 222 263
#
# _framework density 16.879166999999999
#
# number of rings (size 3 to 8) (size 9 to 14) (size 15 to 20)
#    0.000    2.500    0.000    6.000    0.000    6.000 
#    0.000    2.500    0.000    0.000    0.000    0.000 
#    0.000    1.000    0.000    3.250    0.000    6.625 
#
# Total GULP energy -396620.990315 kJ/mol
# GULP energy per Si atom -12394.405947 kJ/mol
# Density = 1.684075 g / cm^3
# Si number density = 16.879167 Si / 1000 Ang^3
#
#
#
# Elastic Constant Matrix: (Units=GPa)
#
#
# Indices 1 2 3 4 5 6 
#
# 1 83.0345 29.8624 56.0830 0.0000 -17.8496 0.0000
# 2 29.8624 74.1354 45.3811 0.0000 -11.4424 0.0000
# 3 56.0830 45.3811 131.4878 0.0000 -32.8154 0.0000
# 4 0.0000 0.0000 0.0000 32.4782 0.0000 -5.1721
# 5 -17.8496 -11.4424 -32.8154 0.0000 23.7836 0.0000
# 6 0.0000 0.0000 0.0000 -5.1721 0.0000 19.4024
#
#
#
# Elastic Compliance Matrix: (Units=1/GPa)
#
#
# Indices 1 2 3 4 5 6 
#
# 1 0.017767 -0.003184 -0.005390 0.000000 0.004366 0.000000
# 2 -0.003184 0.017673 -0.004905 0.000000 -0.000654 0.000000
# 3 -0.005390 -0.004905 0.015250 0.000000 0.014636 0.000000
# 4 0.000000 0.000000 0.000000 0.032155 0.000000 0.008572
# 5 0.004366 -0.000654 0.014636 0.000000 0.065202 0.000000
# 6 0.000000 0.000000 0.000000 0.008572 0.000000 0.053825
#
#
# Mechanical properties :
#
#
# Convention : Reuss Voigt Hill
#
# Bulk Modulus (GPa) = 42.13542 61.25674 51.69608
# Shear Modulus (GPa) = 21.12037 25.62157 23.37097
#
# Velocity S-wave (km/s) = 3.54117 3.90030 3.72506
# Velocity P-wave (km/s) = 6.46042 7.52684 7.01392
#
# Compressibility (1/GPa) = 0.02373300
#
# Stress axis : x y z
#
# Youngs Moduli (GPa) = 56.28417 56.58445 65.57529
#
# Poissons Ratio (x) = 0.18014 0.35343
# Poissons Ratio (y) = 0.17919 0.32164
# Poissons Ratio (z) = 0.30335 0.27754
#
# Static dielectric constant tensor:
#      x y z
#    x 2.891990 0.000000 -0.386570 
#    y 0.000000 3.140010 0.000000 
#    z -0.386570 0.000000 3.897450 
# 
# 
# High freq. dielectric constant tensor:
#      x y z
#    x 1.590030 0.000000 -0.031550 
#    y 0.000000 1.655320 0.000000 
#    z -0.031550 0.000000 1.664310 
# 
# From -- ./inp_files/64184.got.cif
#   From: 2010.06.25/outbox.cif.g09.slc.cpg/sg11_33_cif.got.tgz:64184.got - 2010.06.27 23:14:04.
