data_PCOD8068712
_publ_section_title
;
Structure prediction by ZEFSAII (Michael W. Deem and Ramdas Pophale) SiO2 
 PCOD8068712
Probable space group: P 21/M
;
_chemical_formula_sum "Si O2"
_cell_formula_units_Z 32
_cell_length_a 12.142548
_cell_length_b 9.813470
_cell_length_c 18.358936
_cell_angle_alpha 90.000000
_cell_angle_beta 129.746426
_cell_angle_gamma 90.000000
_cell_volume 1682.052204
_symmetry_space_group_name_H-M "P 21/M"
_symmetry_group_IT_number 11
_symmetry_cell_setting 'monoclinic'
loop_
_space_group_symop_operation_xyz
x,y,z
-x,1/2+y,-z
-x,-y,-z
x,1/2-y,z
loop_
_atom_site_type_symbol
_atom_site_label
_atom_site_fract_x
_atom_site_fract_y
_atom_site_fract_z
Si Si1 0.577984 0.907281 0.933288
Si Si2 0.694560 0.596304 0.833464
Si Si3 0.182346 0.902279 0.233015
Si Si4 0.913678 0.401852 0.514281
Si Si5 0.594839 0.102097 0.368175
Si Si6 0.491326 0.899224 0.431240
Si Si7 0.323146 0.408247 0.863982
Si Si8 0.998831 0.089648 0.709516
O O1 0.528382 0.750000 0.905391
O O2 0.694044 0.943063 0.918903
O O3 0.437483 0.002178 0.867756
O O4 0.660223 0.934570 0.043065
O O5 0.751075 0.750000 0.844485
O O6 0.797529 0.497954 0.829737
O O7 0.524828 0.585617 0.744182
O O8 0.132969 0.750000 0.186613
O O9 0.331084 0.888656 0.336583
O O10 0.074742 0.969930 0.247452
O O11 0.981823 0.250000 0.542028
O O12 0.757857 0.396746 0.410601
O O13 0.000000 0.500000 0.500000
O O14 0.916902 0.454286 0.600251
O O15 0.566768 0.250000 0.396424
O O16 0.592095 0.967155 0.414715
O O17 0.551795 0.750000 0.476587
O O18 0.500000 0.000000 0.500000
O O19 0.348633 0.250000 0.855044
O O20 0.164134 0.456871 0.774468
O O21 0.986634 0.250000 0.714735
#
# Coordination Sequence:
#
# PCOD8068712 Si02
#       8
#     4   4   4   4   4   4   4   4
#     4   9  18  33  53  77 104 129 164 210 255 300
#     4   9  18  32  51  74 102 133 163 206 258 298
#     4   9  18  33  51  72  97 131 171 206 244 296
#     4  10  21  35  50  71 100 134 171 209 251 300
#     4   9  18  32  47  65  93 129 164 200 245 291
#     4  10  18  28  46  69  92 123 164 207 246 285
#     4   9  18  33  54  77  99 133 171 205 248 301
#     4   9  18  34  53  72 101 136 168 205 251 299
#
# _framework density 19.024379
#
# number of rings (size 3 to 8) (size 9 to 14) (size 15 to 20)
#    0.000    2.750    0.000    1.125    1.750    3.500 
#    0.000    1.875    0.000    0.000    0.000    0.000 
#    0.000    0.000    0.000    0.000    0.000    0.000 
#
# Total GULP energy -396426.155788 kJ/mol
# GULP energy per Si atom -12388.317368 kJ/mol
# Density = 1.898108 g / cm^3
# Si number density = 19.024379 Si / 1000 Ang^3
#
#
#
# Elastic Constant Matrix: (Units=GPa)
#
#
# Indices 1 2 3 4 5 6 
#
# 1 93.0414 39.0261 10.2712 0.0000 -16.0917 0.0000
# 2 39.0261 92.5573 7.7082 0.0000 -13.1988 0.0000
# 3 10.2712 7.7082 28.8309 0.0000 -2.3884 0.0000
# 4 0.0000 0.0000 0.0000 17.9663 0.0000 -1.4478
# 5 -16.0917 -13.1988 -2.3884 0.0000 29.7815 0.0000
# 6 0.0000 0.0000 0.0000 -1.4478 0.0000 26.4720
#
#
#
# Elastic Compliance Matrix: (Units=1/GPa)
#
#
# Indices 1 2 3 4 5 6 
#
# 1 0.014065 -0.004923 -0.003268 0.000000 0.005156 0.000000
# 2 -0.004923 0.013465 -0.001583 0.000000 0.003181 0.000000
# 3 -0.003268 -0.001583 0.036309 0.000000 0.000445 0.000000
# 4 0.000000 0.000000 0.000000 0.055906 0.000000 0.003058
# 5 0.005156 0.003181 0.000445 0.000000 0.037809 0.000000
# 6 0.000000 0.000000 0.000000 0.003058 0.000000 0.037943
#
#
# Mechanical properties :
#
#
# Convention : Reuss Voigt Hill
#
# Bulk Modulus (GPa) = 22.57690 36.49340 29.53515
# Shear Modulus (GPa) = 21.75719 25.33889 23.54804
#
# Velocity S-wave (km/s) = 3.38546 3.65350 3.52203
# Velocity P-wave (km/s) = 5.21295 6.08453 5.66553
#
# Compressibility (1/GPa) = 0.04429306
#
# Stress axis : x y z
#
# Youngs Moduli (GPa) = 71.09655 74.26495 27.54128
#
# Poissons Ratio (x) = 0.36562 0.08999
# Poissons Ratio (y) = 0.35002 0.04359
# Poissons Ratio (z) = 0.23231 0.11754
#
# Static dielectric constant tensor:
#      x y z
#    x 3.508410 0.000000 -0.238200 
#    y 0.000000 3.698240 0.000000 
#    z -0.238200 0.000000 3.856500 
# 
# 
# High freq. dielectric constant tensor:
#      x y z
#    x 1.729750 0.000000 -0.006090 
#    y 0.000000 1.730200 0.000000 
#    z -0.006090 0.000000 1.725750 
# 
# From -- ./inp_files/64461.got.cif
#   From: 2010.06.25/outbox.cif.g09.slc.cpg/sg11_33_cif.got.tgz:64461.got - 2010.06.27 23:14:04.
