data_PCOD8068405
_publ_section_title
;
Structure prediction by ZEFSAII (Michael W. Deem and Ramdas Pophale) SiO2 
 PCOD8068405
Probable space group: P 21/M
;
_chemical_formula_sum "Si O2"
_cell_formula_units_Z 32
_cell_length_a 10.921837
_cell_length_b 17.446114
_cell_length_c 8.434795
_cell_angle_alpha 90.000000
_cell_angle_beta 86.381846
_cell_angle_gamma 90.000000
_cell_volume 1603.992827
_symmetry_space_group_name_H-M "P 21/M"
_symmetry_group_IT_number 11
_symmetry_cell_setting 'monoclinic'
loop_
_space_group_symop_operation_xyz
x,y,z
-x,1/2+y,-z
-x,-y,-z
x,1/2-y,z
loop_
_atom_site_type_symbol
_atom_site_label
_atom_site_fract_x
_atom_site_fract_y
_atom_site_fract_z
Si Si1 0.709835 0.834742 0.383496
Si Si2 0.672162 0.507223 0.819724
Si Si3 0.917606 0.565799 0.295610
Si Si4 0.848123 0.446614 0.562790
Si Si5 0.436132 0.018017 0.670161
Si Si6 0.077416 0.838474 0.708530
Si Si7 0.221357 0.952707 0.870581
Si Si8 0.787897 0.836819 0.734387
O O1 0.672117 0.750000 0.328925
O O2 0.844399 0.853929 0.299752
O O3 0.607088 0.893338 0.328057
O O4 0.721585 0.837334 0.571249
O O5 0.719257 0.465552 0.655420
O O6 0.525919 0.500219 0.810980
O O7 0.719313 0.595524 0.838120
O O8 0.711264 0.457908 0.968366
O O9 0.881900 0.522661 0.462745
O O10 0.881609 0.518863 0.141176
O O11 0.063700 0.572643 0.293050
O O12 0.853447 0.372624 0.450230
O O13 0.500000 0.000000 0.500000
O O14 0.316835 0.965064 0.714585
O O15 0.103056 0.750000 0.708122
O O16 0.146887 0.873170 0.857091
O O17 0.932569 0.857868 0.714740
O O18 0.772821 0.750000 0.809003
#
# Coordination Sequence:
#
# PCOD8068405 Si02
#       8
#     4   4   4   4   4   4   4   4
#     4  10  18  33  57  85 109 137 185 248 294 320
#     4  12  21  37  57  83 118 154 195 231 284 352
#     4   9  16  32  52  83 108 137 184 227 277 333
#     4  10  17  30  56  81 107 143 185 233 274 328
#     4  11  21  40  59  81 107 148 202 248 276 330
#     4  10  20  37  58  85 117 150 194 240 287 338
#     4  10  23  36  56  82 115 155 185 231 291 350
#     4  10  19  33  59  88 115 145 183 238 292 338
#
# _framework density 19.950215
#
# number of rings (size 3 to 8) (size 9 to 14) (size 15 to 20)
#    0.000    1.750    3.750    3.375    0.000    2.000 
#    0.000    6.875    0.000    0.000    0.000    0.000 
#    0.000    0.000    0.000    0.000    0.000    0.000 
#
# Total GULP energy -396479.088427 kJ/mol
# GULP energy per Si atom -12389.971513 kJ/mol
# Density = 1.990481 g / cm^3
# Si number density = 19.950215 Si / 1000 Ang^3
#
#
#
# Elastic Constant Matrix: (Units=GPa)
#
#
# Indices 1 2 3 4 5 6 
#
# 1 87.9194 55.1125 15.7330 0.0000 22.4717 0.0000
# 2 55.1125 139.4512 20.7759 0.0000 9.2786 0.0000
# 3 15.7330 20.7759 42.1315 0.0000 19.0522 0.0000
# 4 0.0000 0.0000 0.0000 17.8708 0.0000 3.4394
# 5 22.4717 9.2786 19.0522 0.0000 29.7608 0.0000
# 6 0.0000 0.0000 0.0000 3.4394 0.0000 30.3273
#
#
#
# Elastic Compliance Matrix: (Units=1/GPa)
#
#
# Indices 1 2 3 4 5 6 
#
# 1 0.018701 -0.006866 0.002561 0.000000 -0.013620 0.000000
# 2 -0.006866 0.010261 -0.004776 0.000000 0.005043 0.000000
# 3 0.002561 -0.004776 0.035658 0.000000 -0.023272 0.000000
# 4 0.000000 0.000000 0.000000 0.057206 0.000000 -0.006488
# 5 -0.013620 0.005043 -0.023272 0.000000 0.057211 0.000000
# 6 0.000000 0.000000 0.000000 -0.006488 0.000000 0.033709
#
#
# Mechanical properties :
#
#
# Convention : Reuss Voigt Hill
#
# Bulk Modulus (GPa) = 21.52509 50.30496 35.91503
# Shear Modulus (GPa) = 20.29271 27.45050 23.87161
#
# Velocity S-wave (km/s) = 3.19277 3.71340 3.46288
# Velocity P-wave (km/s) = 4.94009 6.60725 5.83354
#
# Compressibility (1/GPa) = 0.04645742
#
# Stress axis : x y z
#
# Youngs Moduli (GPa) = 53.47337 97.46035 28.04416
#
# Poissons Ratio (x) = 0.66918 -0.07183
# Poissons Ratio (y) = 0.36716 0.13395
# Poissons Ratio (z) = -0.13697 0.46550
#
# Static dielectric constant tensor:
#      x y z
#    x 3.956020 0.000000 0.233040 
#    y 0.000000 3.679070 0.000000 
#    z 0.233040 0.000000 3.317340 
# 
# 
# High freq. dielectric constant tensor:
#      x y z
#    x 1.782350 0.000000 0.022070 
#    y 0.000000 1.759380 0.000000 
#    z 0.022070 0.000000 1.755730 
# 
# From -- ./inp_files/18661.got.cif
#   From: 2010.06.25/outbox.cif.g09.slc.cpg/sg11_10_cif.got.tgz:18661.got - 2010.06.27 23:14:04.
