data_PCOD8068606
_publ_section_title
;
Structure prediction by ZEFSAII (Michael W. Deem and Ramdas Pophale) SiO2 
 PCOD8068606
Probable space group: P 21/M
;
_chemical_formula_sum "Si O2"
_cell_formula_units_Z 32
_cell_length_a 20.012501
_cell_length_b 9.198543
_cell_length_c 12.215368
_cell_angle_alpha 90.000000
_cell_angle_beta 124.264489
_cell_angle_gamma 90.000000
_cell_volume 1858.412776
_symmetry_space_group_name_H-M "P 21/M"
_symmetry_group_IT_number 11
_symmetry_cell_setting 'monoclinic'
loop_
_space_group_symop_operation_xyz
x,y,z
-x,1/2+y,-z
-x,-y,-z
x,1/2-y,z
loop_
_atom_site_type_symbol
_atom_site_label
_atom_site_fract_x
_atom_site_fract_y
_atom_site_fract_z
Si Si1 0.331342 0.077528 0.221303
Si Si2 0.801590 0.918362 0.069907
Si Si3 0.362614 0.923176 0.684886
Si Si4 0.544633 0.922464 0.835600
Si Si5 0.069327 0.918105 0.921126
Si Si6 0.280769 0.080780 0.411147
Si Si7 0.326285 0.419271 0.868361
Si Si8 0.895183 0.916070 0.828644
O O1 0.328851 0.250000 0.214349
O O2 0.413990 0.020836 0.239549
O O3 0.324440 0.025263 0.339977
O O4 0.255211 0.022054 0.080575
O O5 0.821265 0.750000 0.072869
O O6 0.757503 0.946033 0.144691
O O7 0.886163 0.005271 0.140524
O O8 0.359912 0.750000 0.684185
O O9 0.454304 0.984377 0.761587
O O10 0.313109 0.980514 0.536655
O O11 0.321695 0.984440 0.756060
O O12 0.543465 0.750000 0.832887
O O13 0.598019 0.973441 0.988412
O O14 0.090650 0.750000 0.937280
O O15 0.973009 0.946280 0.823583
O O16 0.103747 0.980823 0.065968
O O17 0.300283 0.250000 0.451870
O O18 0.184763 0.054542 0.315712
O O19 0.336014 0.250000 0.846673
O O20 0.895870 0.750000 0.872472
#
# Coordination Sequence:
#
# PCOD8068606 Si02
#       8
#     4   4   4   4   4   4   4   4
#     4   8  14  28  50  71  93 128 166 196 233 285
#     4   9  16  30  52  75  98 126 162 202 240 287
#     4  11  22  33  47  71 103 130 158 207 259 288
#     4   8  16  31  51  74  97 123 159 207 252 287
#     4  10  18  27  47  78 106 126 153 198 249 291
#     4  10  19  33  52  68  94 136 175 198 222 287
#     4   9  18  34  56  74  91 126 173 205 234 292
#     4   9  18  32  48  70 100 135 167 195 230 284
#
# _framework density 17.218995
#
# number of rings (size 3 to 8) (size 9 to 14) (size 15 to 20)
#    0.000    2.750    1.250    2.625    0.000    2.000 
#    0.000    0.625    0.000    3.000    0.000    0.000 
#    0.000    0.000    0.000    0.000    0.000    0.000 
#
# Total GULP energy -396680.651344 kJ/mol
# GULP energy per Si atom -12396.270355 kJ/mol
# Density = 1.717980 g / cm^3
# Si number density = 17.218995 Si / 1000 Ang^3
#
#
#
# Elastic Constant Matrix: (Units=GPa)
#
#
# Indices 1 2 3 4 5 6 
#
# 1 136.5847 52.4151 51.9931 0.0000 -9.3722 0.0000
# 2 52.4151 59.1716 30.5714 0.0000 -7.5516 0.0000
# 3 51.9931 30.5714 72.4672 0.0000 -20.1524 0.0000
# 4 0.0000 0.0000 0.0000 21.1981 0.0000 -0.6377
# 5 -9.3722 -7.5516 -20.1524 0.0000 16.4410 0.0000
# 6 0.0000 0.0000 0.0000 -0.6377 0.0000 26.5993
#
#
#
# Elastic Compliance Matrix: (Units=1/GPa)
#
#
# Indices 1 2 3 4 5 6 
#
# 1 0.012926 -0.008405 -0.007211 0.000000 -0.005330 0.000000
# 2 -0.008405 0.027114 -0.004972 0.000000 0.001568 0.000000
# 3 -0.007211 -0.004972 0.029269 0.000000 0.029482 0.000000
# 4 0.000000 0.000000 0.000000 0.047208 0.000000 0.001132
# 5 -0.005330 0.001568 0.029482 0.000000 0.094642 0.000000
# 6 0.000000 0.000000 0.000000 0.001132 0.000000 0.037622
#
#
# Mechanical properties :
#
#
# Convention : Reuss Voigt Hill
#
# Bulk Modulus (GPa) = 35.54447 59.79808 47.67128
# Shear Modulus (GPa) = 16.70372 21.73063 19.21718
#
# Velocity S-wave (km/s) = 3.11798 3.55634 3.34435
# Velocity P-wave (km/s) = 5.80085 7.18796 6.53133
#
# Compressibility (1/GPa) = 0.02813377
#
# Stress axis : x y z
#
# Youngs Moduli (GPa) = 77.36391 36.88106 34.16588
#
# Poissons Ratio (x) = 0.30998 0.24636
# Poissons Ratio (y) = 0.65023 0.16988
# Poissons Ratio (z) = 0.55784 0.18338
#
# Static dielectric constant tensor:
#      x y z
#    x 3.647990 0.000000 0.080660 
#    y 0.000000 2.973170 0.000000 
#    z 0.080660 0.000000 2.948370 
# 
# 
# High freq. dielectric constant tensor:
#      x y z
#    x 1.682440 0.000000 0.002660 
#    y 0.000000 1.642690 0.000000 
#    z 0.002660 0.000000 1.631140 
# 
# From -- ./inp_files/42924.got.cif
#   From: 2010.06.25/outbox.cif.g09.slc.cpg/sg11_22_cif.got.tgz:42924.got - 2010.06.27 23:14:04.
