data_PCOD8068011
_publ_section_title
;
Structure prediction by ZEFSAII (Michael W. Deem and Ramdas Pophale) SiO2 
 PCOD8068011
Probable space group: P 2/M
;
_chemical_formula_sum "Si O2"
_cell_formula_units_Z 28
_cell_length_a 18.772699
_cell_length_b 9.199689
_cell_length_c 17.836617
_cell_angle_alpha 90.000000
_cell_angle_beta 147.054912
_cell_angle_gamma 90.000000
_cell_volume 1675.249550
_symmetry_space_group_name_H-M "P 2/M"
_symmetry_group_IT_number 10
_symmetry_cell_setting 'monoclinic'
loop_
_space_group_symop_operation_xyz
x,y,z
-x,y,-z
-x,-y,-z
x,-y,z
loop_
_atom_site_type_symbol
_atom_site_label
_atom_site_fract_x
_atom_site_fract_y
_atom_site_fract_z
Si Si1 0.377388 0.664075 0.737223
Si Si2 0.655009 0.835528 0.148317
Si Si3 0.282944 0.167873 0.084844
Si Si4 0.587399 0.832386 0.375753
Si Si5 0.313136 0.335817 0.966728
Si Si6 0.855571 0.826944 0.887857
Si Si7 0.633176 0.827105 0.582184
O O1 0.323224 0.500000 0.689765
O O2 0.307270 0.753607 0.741557
O O3 0.344129 0.737665 0.628359
O O4 0.531812 0.666334 0.886321
O O5 0.708190 0.000000 0.198993
O O6 0.500000 0.835157 0.000000
O O7 0.725375 0.752845 0.141850
O O8 0.431979 0.191915 0.241665
O O9 0.245831 0.260905 0.978944
O O10 0.191309 0.223297 0.071420
O O11 0.257215 0.000000 0.042612
O O12 0.646449 0.780080 0.507202
O O13 0.619841 0.000000 0.387726
O O14 0.260838 0.500000 0.912866
O O15 0.757209 0.765138 0.737606
O O16 0.855407 0.000000 0.883957
O O17 0.000000 0.763467 0.000000
O O18 0.500000 0.762075 0.500000
O O19 0.627305 0.000000 0.582703
#
# Coordination Sequence:
#
# PCOD8068011 Si02
#       7
#     4   4   4   4   4   4   4
#     4   9  16  24  34  51  79 109 136 170 212 251
#     4   9  15  23  35  52  76 107 141 171 204 249
#     4   9  15  24  38  56  78 105 139 176 212 251
#     4   9  15  23  38  57  77 105 142 176 207 249
#     4   9  16  24  35  52  76 107 140 172 208 250
#     4   9  16  25  39  61  86 109 138 181 225 256
#     4   9  14  23  39  59  81 108 142 178 215 257
#
# _framework density 16.713927999999999
#
# number of rings (size 3 to 8) (size 9 to 14) (size 15 to 20)
#    0.000    3.000    1.429    1.286    0.000    5.143 
#    0.000    0.000    0.000    1.714    0.000    0.000 
#    0.000    1.143    0.000   13.429    0.000    6.571 
#
# Total GULP energy -347117.404511 kJ/mol
# GULP energy per Si atom -12397.050161 kJ/mol
# Density = 1.667589 g / cm^3
# Si number density = 16.713928 Si / 1000 Ang^3
#
#
#
# Elastic Constant Matrix: (Units=GPa)
#
#
# Indices 1 2 3 4 5 6 
#
# 1 132.6491 62.7679 63.3070 0.0000 -41.1342 0.0000
# 2 62.7679 96.6976 32.2818 0.0000 -23.9975 0.0000
# 3 63.3070 32.2818 69.0773 0.0000 -18.5121 0.0000
# 4 0.0000 0.0000 0.0000 5.2104 0.0000 -2.5649
# 5 -41.1342 -23.9975 -18.5121 0.0000 27.3262 0.0000
# 6 0.0000 0.0000 0.0000 -2.5649 0.0000 9.1817
#
#
#
# Elastic Compliance Matrix: (Units=1/GPa)
#
#
# Indices 1 2 3 4 5 6 
#
# 1 0.022403 -0.005232 -0.012561 0.000000 0.020620 0.000000
# 2 -0.005232 0.015290 -0.001054 0.000000 0.004838 0.000000
# 3 -0.012561 -0.001054 0.025861 0.000000 -0.002315 0.000000
# 4 0.000000 0.000000 0.000000 0.222524 0.000000 0.062161
# 5 0.020620 0.004838 -0.002315 0.000000 0.070315 0.000000
# 6 0.000000 0.000000 0.000000 0.062161 0.000000 0.126277
#
#
# Mechanical properties :
#
#
# Convention : Reuss Voigt Hill
#
# Bulk Modulus (GPa) = 38.66950 68.34859 53.50905
# Shear Modulus (GPa) = 9.45210 17.68147 13.56679
#
# Velocity S-wave (km/s) = 2.38065 3.25605 2.85214
# Velocity P-wave (km/s) = 5.54464 7.42413 6.55213
#
# Compressibility (1/GPa) = 0.02586017
#
# Stress axis : x y z
#
# Youngs Moduli (GPa) = 44.63685 65.40173 38.66898
#
# Poissons Ratio (x) = 0.34216 0.48571
# Poissons Ratio (y) = 0.23352 0.04077
# Poissons Ratio (z) = 0.56067 0.06895
#
# Static dielectric constant tensor:
#      x y z
#    x 3.182750 0.000000 -0.324820 
#    y 0.000000 2.986920 0.000000 
#    z -0.324820 0.000000 2.859310 
# 
# 
# High freq. dielectric constant tensor:
#      x y z
#    x 1.640790 0.000000 -0.042280 
#    y 0.000000 1.620650 0.000000 
#    z -0.042280 0.000000 1.593530 
# 
# From -- ./inp_files/56273.got.cif
#   From: 2010.06.25/outbox.cif.g09.slc.cpg/sg10_29_cif.got.tgz:56273.got - 2010.06.27 22:07:45.
