data_PCOD8068670
_publ_section_title
;
Structure prediction by ZEFSAII (Michael W. Deem and Ramdas Pophale) SiO2 
 PCOD8068670
Probable space group: P 21/M
;
_chemical_formula_sum "Si O2"
_cell_formula_units_Z 32
_cell_length_a 11.904457
_cell_length_b 30.748202
_cell_length_c 5.007988
_cell_angle_alpha 90.000000
_cell_angle_beta 101.506525
_cell_angle_gamma 90.000000
_cell_volume 1796.284974
_symmetry_space_group_name_H-M "P 21/M"
_symmetry_group_IT_number 11
_symmetry_cell_setting 'monoclinic'
loop_
_space_group_symop_operation_xyz
x,y,z
-x,1/2+y,-z
-x,-y,-z
x,1/2-y,z
loop_
_atom_site_type_symbol
_atom_site_label
_atom_site_fract_x
_atom_site_fract_y
_atom_site_fract_z
Si Si1 0.283573 0.557741 0.457853
Si Si2 0.096110 0.146771 0.812982
Si Si3 0.903207 0.798099 0.690204
Si Si4 0.100215 0.490420 0.341509
Si Si5 0.373778 0.513136 0.019582
Si Si6 0.826990 0.297701 0.193274
Si Si7 0.824718 0.148049 0.692579
Si Si8 0.821094 0.552340 0.120164
O O1 0.164852 0.535178 0.317084
O O2 0.317793 0.544788 0.773034
O O3 0.258716 0.608555 0.421671
O O4 0.380126 0.541146 0.295506
O O5 0.134513 0.167960 0.553500
O O6 0.171396 0.103966 0.906179
O O7 0.959949 0.135278 0.751600
O O8 0.134939 0.182063 0.047361
O O9 0.847766 0.750000 0.623804
O O10 0.038130 0.792625 0.761683
O O11 0.172503 0.457022 0.560005
O O12 0.000000 0.500000 0.500000
O O13 0.079510 0.468389 0.036034
O O14 0.298929 0.469111 0.033930
O O15 0.500000 0.500000 0.000000
O O16 0.770759 0.250000 0.119899
O O17 0.795211 0.314038 0.471060
O O18 0.785676 0.333274 0.959304
#
# Coordination Sequence:
#
# PCOD8068670 Si02
#       8
#     4   4   4   4   4   4   4   4
#     4  10  20  32  49  71  91 120 159 193 233 280
#     4  10  18  28  44  66  96 125 153 190 223 266
#     4   9  17  28  42  62  92 130 160 182 217 264
#     4  10  19  30  44  64  96 127 150 180 224 279
#     4  10  21  37  52  66  91 123 156 203 246 279
#     4   9  17  28  42  62  93 131 158 179 216 264
#     4  10  18  28  44  67  96 123 153 190 221 266
#     4  10  20  31  46  68  90 121 160 191 229 276
#
# _framework density 17.814546
#
# number of rings (size 3 to 8) (size 9 to 14) (size 15 to 20)
#    0.000    2.250    0.000    3.750    0.000    7.000 
#    0.000    0.000    0.000    0.000    0.000    0.000 
#    0.000   20.000    0.000    0.000    0.000    0.000 
#
# Total GULP energy -396522.485763 kJ/mol
# GULP energy per Si atom -12391.327680 kJ/mol
# Density = 1.777400 g / cm^3
# Si number density = 17.814546 Si / 1000 Ang^3
#
#
#
# Elastic Constant Matrix: (Units=GPa)
#
#
# Indices 1 2 3 4 5 6 
#
# 1 45.3734 25.6125 0.9817 0.0000 -10.5038 0.0000
# 2 25.6125 119.8179 20.8017 0.0000 0.3149 0.0000
# 3 0.9817 20.8017 85.3277 0.0000 -11.5852 0.0000
# 4 0.0000 0.0000 0.0000 107.3764 0.0000 -39.0771
# 5 -10.5038 0.3149 -11.5852 0.0000 16.8389 0.0000
# 6 0.0000 0.0000 0.0000 -39.0771 0.0000 30.9060
#
#
#
# Elastic Compliance Matrix: (Units=1/GPa)
#
#
# Indices 1 2 3 4 5 6 
#
# 1 0.031559 -0.007608 0.004615 0.000000 0.023003 0.000000
# 2 -0.007608 0.010598 -0.003494 0.000000 -0.007347 0.000000
# 3 0.004615 -0.003494 0.014249 0.000000 0.012747 0.000000
# 4 0.000000 0.000000 0.000000 0.017251 0.000000 0.021812
# 5 0.023003 -0.007347 0.012747 0.000000 0.082643 0.000000
# 6 0.000000 0.000000 0.000000 0.021812 0.000000 0.059935
#
#
# Mechanical properties :
#
#
# Convention : Reuss Voigt Hill
#
# Bulk Modulus (GPa) = 23.02410 38.36789 30.69600
# Shear Modulus (GPa) = 20.51826 44.56581 32.54203
#
# Velocity S-wave (km/s) = 3.39746 5.00708 4.27864
# Velocity P-wave (km/s) = 5.32378 7.41700 6.45580
#
# Compressibility (1/GPa) = 0.04343275
#
# Stress axis : x y z
#
# Youngs Moduli (GPa) = 31.68650 94.35642 70.18101
#
# Poissons Ratio (x) = 0.71784 -0.32387
# Poissons Ratio (y) = 0.24106 0.24519
# Poissons Ratio (z) = -0.14623 0.32966
#
# Static dielectric constant tensor:
#      x y z
#    x 2.805000 0.000000 -0.159180 
#    y 0.000000 3.358560 0.000000 
#    z -0.159180 0.000000 1.413870 
# 
# 
# High freq. dielectric constant tensor:
#      x y z
#    x 1.614400 0.000000 -0.016800 
#    y 0.000000 1.693510 0.000000 
#    z -0.016800 0.000000 1.714730 
# 
# From -- ./inp_files/5602.got.cif
#   From: 2010.06.25/outbox.cif.g09.slc.cpg/sg11_3_cif.got.tgz:5602.got - 2010.06.27 23:14:04.
