data_PCOD8068146
_publ_section_title
;
Structure prediction by ZEFSAII (Michael W. Deem and Ramdas Pophale) SiO2 
 PCOD8068146
Probable space group: P 21/M
;
_chemical_formula_sum "Si O2"
_cell_formula_units_Z 32
_cell_length_a 23.090172
_cell_length_b 9.004730
_cell_length_c 14.385469
_cell_angle_alpha 90.000000
_cell_angle_beta 135.425917
_cell_angle_gamma 90.000000
_cell_volume 2099.202706
_symmetry_space_group_name_H-M "P 21/M"
_symmetry_group_IT_number 11
_symmetry_cell_setting 'monoclinic'
loop_
_space_group_symop_operation_xyz
x,y,z
-x,1/2+y,-z
-x,-y,-z
x,1/2-y,z
loop_
_atom_site_type_symbol
_atom_site_label
_atom_site_fract_x
_atom_site_fract_y
_atom_site_fract_z
Si Si1 0.932172 0.574548 0.986781
Si Si2 0.535738 0.084266 0.179605
Si Si3 0.168510 0.423026 0.295363
Si Si4 0.607928 0.414873 0.055821
Si Si5 0.311953 0.075185 0.581963
Si Si6 0.955059 0.075675 0.533813
Si Si7 0.986006 0.572681 0.762552
Si Si8 0.234939 0.578041 0.667504
O O1 0.948385 0.750000 0.016797
O O2 0.846453 0.544598 0.831749
O O3 0.000000 0.500000 0.000000
O O4 0.934803 0.492514 0.089612
O O5 0.529298 0.250000 0.210192
O O6 0.572157 0.074726 0.118547
O O7 0.597305 0.996911 0.318700
O O8 0.442793 0.019059 0.072594
O O9 0.163681 0.250000 0.309910
O O10 0.259007 0.478819 0.431165
O O11 0.095867 0.488637 0.278284
O O12 0.597651 0.250000 0.004060
O O13 0.704732 0.458996 0.175490
O O14 0.325067 0.250000 0.600718
O O15 0.258322 0.027149 0.609189
O O16 0.975207 0.250000 0.561337
O O17 0.858001 0.046663 0.408507
O O18 0.988628 0.996575 0.663957
O O19 0.000000 0.000000 0.500000
O O20 0.992539 0.750000 0.764496
O O21 0.248744 0.750000 0.653325
#
# Coordination Sequence:
#
# PCOD8068146 Si02
#       8
#     4   4   4   4   4   4   4   4
#     4   9  16  27  41  60  82 106 136 171 208 248
#     4   9  16  24  33  52  77 101 131 165 196 233
#     4   8  15  25  39  59  82 106 136 169 201 241
#     4   8  14  25  38  51  70  97 130 165 199 239
#     4  10  16  24  39  57  79 109 137 165 201 239
#     4  11  22  34  47  63  82 107 138 178 220 256
#     4  10  18  31  45  60  80 105 138 176 212 252
#     4   9  18  30  42  57  75  99 134 173 210 244
#
# _framework density 15.243881999999999
#
# number of rings (size 3 to 8) (size 9 to 14) (size 15 to 20)
#    0.000    2.750    1.250    3.375    0.000    3.500 
#    0.000    1.875    0.000    0.000    0.000    0.000 
#    0.000    0.000    0.000    1.125    0.000   12.500 
#
# Total GULP energy -396479.585995 kJ/mol
# GULP energy per Si atom -12389.987062 kJ/mol
# Density = 1.520919 g / cm^3
# Si number density = 15.243882 Si / 1000 Ang^3
#
#
#
# Elastic Constant Matrix: (Units=GPa)
#
#
# Indices 1 2 3 4 5 6 
#
# 1 33.3623 23.7331 41.9795 0.0000 -2.4502 0.0000
# 2 23.7331 95.2098 67.8063 0.0000 3.4001 0.0000
# 3 41.9795 67.8063 160.7328 0.0000 7.7686 0.0000
# 4 0.0000 0.0000 0.0000 25.5715 0.0000 -0.1178
# 5 -2.4502 3.4001 7.7686 0.0000 16.6303 0.0000
# 6 0.0000 0.0000 0.0000 -0.1178 0.0000 14.4826
#
#
#
# Elastic Compliance Matrix: (Units=1/GPa)
#
#
# Indices 1 2 3 4 5 6 
#
# 1 0.048513 -0.004412 -0.011457 0.000000 0.013401 0.000000
# 2 -0.004412 0.015415 -0.005286 0.000000 -0.001332 0.000000
# 3 -0.011457 -0.005286 0.011738 0.000000 -0.006090 0.000000
# 4 0.000000 0.000000 0.000000 0.039107 0.000000 0.000318
# 5 0.013401 -0.001332 -0.006090 0.000000 0.065223 0.000000
# 6 0.000000 0.000000 0.000000 0.000318 0.000000 0.069051
#
#
# Mechanical properties :
#
#
# Convention : Reuss Voigt Hill
#
# Bulk Modulus (GPa) = 29.97984 61.81585 45.89784
# Shear Modulus (GPa) = 16.53017 21.72261 19.12639
#
# Velocity S-wave (km/s) = 3.29657 3.77902 3.54601
# Velocity P-wave (km/s) = 5.84802 7.72532 6.85127
#
# Compressibility (1/GPa) = 0.03335575
#
# Stress axis : x y z
#
# Youngs Moduli (GPa) = 20.61314 64.87046 85.19214
#
# Poissons Ratio (x) = 0.28622 0.97603
# Poissons Ratio (y) = 0.09095 0.45035
# Poissons Ratio (z) = 0.23616 0.34293
#
# Static dielectric constant tensor:
#      x y z
#    x 2.384980 0.000000 0.208870 
#    y 0.000000 3.030520 0.000000 
#    z 0.208870 0.000000 3.559520 
# 
# 
# High freq. dielectric constant tensor:
#      x y z
#    x 1.501650 0.000000 0.017080 
#    y 0.000000 1.592500 0.000000 
#    z 0.017080 0.000000 1.603600 
# 
# From -- ./inp_files/56028.got.cif
#   From: 2010.06.25/outbox.cif.g09.slc.cpg/sg11_29_cif.got.tgz:56028.got - 2010.06.27 23:14:04.
