data_PCOD8068347
_publ_section_title
;
Structure prediction by ZEFSAII (Michael W. Deem and Ramdas Pophale) SiO2 
 PCOD8068347
Probable space group: P 21/M
;
_chemical_formula_sum "Si O2"
_cell_formula_units_Z 32
_cell_length_a 25.251615
_cell_length_b 9.135045
_cell_length_c 20.106187
_cell_angle_alpha 90.000000
_cell_angle_beta 22.809295
_cell_angle_gamma 90.000000
_cell_volume 1797.986019
_symmetry_space_group_name_H-M "P 21/M"
_symmetry_group_IT_number 11
_symmetry_cell_setting 'monoclinic'
loop_
_space_group_symop_operation_xyz
x,y,z
-x,1/2+y,-z
-x,-y,-z
x,1/2-y,z
loop_
_atom_site_type_symbol
_atom_site_label
_atom_site_fract_x
_atom_site_fract_y
_atom_site_fract_z
Si Si1 0.944902 0.923033 0.848111
Si Si2 0.221421 0.423153 0.566688
Si Si3 0.189192 0.077000 0.375282
Si Si4 0.291038 0.578880 0.130315
Si Si5 0.185255 0.913583 0.737876
Si Si6 0.100574 0.580400 0.228971
Si Si7 0.135724 0.412068 0.917627
Si Si8 0.596792 0.577345 0.764850
O O1 0.974083 0.750000 0.810228
O O2 0.868223 0.981791 0.871693
O O3 0.847788 0.958378 0.024209
O O4 0.087363 0.007358 0.689510
O O5 0.198560 0.250000 0.599599
O O6 0.256516 0.489196 0.598378
O O7 0.346743 0.464098 0.373306
O O8 0.199917 0.250000 0.353966
O O9 0.305140 0.014504 0.290889
O O10 0.042440 0.031375 0.573448
O O11 0.205153 0.003494 0.285481
O O12 0.289979 0.750000 0.148656
O O13 0.222184 0.548912 0.139178
O O14 0.444599 0.513805 0.949775
O O15 0.245530 0.750000 0.665373
O O16 0.216413 0.979321 0.774988
O O17 0.024596 0.913445 0.911884
O O18 0.095211 0.750000 0.213992
O O19 0.194953 0.250000 0.836876
O O20 0.593287 0.750000 0.775912
#
# Coordination Sequence:
#
# PCOD8068347 Si02
#       8
#     4   4   4   4   4   4   4   4
#     4  10  19  30  47  71  97 124 163 205 239 283
#     4  10  17  29  48  67  95 132 162 196 243 289
#     4  10  19  34  52  71  96 127 161 200 244 293
#     4  10  21  35  51  73  97 126 163 202 241 289
#     4   9  16  25  39  65  97 126 160 199 235 282
#     4  10  20  34  51  71  98 129 162 197 243 295
#     4   8  15  26  39  61  93 127 157 191 238 288
#     4   9  18  33  51  71  98 128 162 200 241 289
#
# _framework density 17.797691
#
# number of rings (size 3 to 8) (size 9 to 14) (size 15 to 20)
#    0.000    2.500    1.250    2.625    0.000    4.500 
#    0.000    1.250    0.000    0.000    0.000    0.875 
#    0.000    0.000    0.000    0.000    0.000    0.000 
#
# Total GULP energy -396753.451683 kJ/mol
# GULP energy per Si atom -12398.545365 kJ/mol
# Density = 1.775718 g / cm^3
# Si number density = 17.797691 Si / 1000 Ang^3
#
#
#
# Elastic Constant Matrix: (Units=GPa)
#
#
# Indices 1 2 3 4 5 6 
#
# 1 90.9405 42.8979 32.4610 0.0000 22.0114 0.0000
# 2 42.8979 74.3005 19.4307 0.0000 17.2008 0.0000
# 3 32.4610 19.4307 30.4797 0.0000 5.1304 0.0000
# 4 0.0000 0.0000 0.0000 15.6850 0.0000 11.3884
# 5 22.0114 17.2008 5.1304 0.0000 33.8003 0.0000
# 6 0.0000 0.0000 0.0000 11.3884 0.0000 29.2801
#
#
#
# Elastic Compliance Matrix: (Units=1/GPa)
#
#
# Indices 1 2 3 4 5 6 
#
# 1 0.022764 -0.006179 -0.018820 0.000000 -0.008824 0.000000
# 2 -0.006179 0.019527 -0.005001 0.000000 -0.005155 0.000000
# 3 -0.018820 -0.005001 0.054952 0.000000 0.006460 0.000000
# 4 0.000000 0.000000 0.000000 0.088846 0.000000 -0.034556
# 5 -0.008824 -0.005155 0.006460 0.000000 0.036974 0.000000
# 6 0.000000 0.000000 0.000000 -0.034556 0.000000 0.047593
#
#
# Mechanical properties :
#
#
# Convention : Reuss Voigt Hill
#
# Bulk Modulus (GPa) = 26.84880 42.81111 34.82995
# Shear Modulus (GPa) = 14.57428 22.48180 18.52804
#
# Velocity S-wave (km/s) = 2.86472 3.55799 3.23001
# Velocity P-wave (km/s) = 5.10495 6.40200 5.78991
#
# Compressibility (1/GPa) = 0.03724561
#
# Stress axis : x y z
#
# Youngs Moduli (GPa) = 43.92881 51.21064 18.19758
#
# Poissons Ratio (x) = 0.31641 0.34247
# Poissons Ratio (y) = 0.27142 0.09100
# Poissons Ratio (z) = 0.82673 0.25608
#
# Static dielectric constant tensor:
#      x y z
#    x 3.411920 0.000000 0.230370 
#    y 0.000000 3.251270 0.000000 
#    z 0.230370 0.000000 3.170850 
# 
# 
# High freq. dielectric constant tensor:
#      x y z
#    x 1.687690 0.000000 0.029810 
#    y 0.000000 1.681320 0.000000 
#    z 0.029810 0.000000 1.657930 
# 
# From -- ./inp_files/67049.got.cif
#   From: 2010.06.25/outbox.cif.g09.slc.cpg/sg11_34_cif.got.tgz:67049.got - 2010.06.27 23:14:04.
