data_PCOD8068330
_publ_section_title
;
Structure prediction by ZEFSAII (Michael W. Deem and Ramdas Pophale) SiO2 
 PCOD8068330
Probable space group: P 21/M
;
_chemical_formula_sum "Si O2"
_cell_formula_units_Z 24
_cell_length_a 12.485043
_cell_length_b 15.825892
_cell_length_c 10.109258
_cell_angle_alpha 90.000000
_cell_angle_beta 46.310755
_cell_angle_gamma 90.000000
_cell_volume 1444.355074
_symmetry_space_group_name_H-M "P 21/M"
_symmetry_group_IT_number 11
_symmetry_cell_setting 'monoclinic'
loop_
_space_group_symop_operation_xyz
x,y,z
-x,1/2+y,-z
-x,-y,-z
x,1/2-y,z
loop_
_atom_site_type_symbol
_atom_site_label
_atom_site_fract_x
_atom_site_fract_y
_atom_site_fract_z
Si Si1 0.188797 0.502001 0.070845
Si Si2 0.067015 0.844533 0.303370
Si Si3 0.333585 0.508171 0.687373
Si Si4 0.065969 0.093669 0.831996
Si Si5 0.133884 0.843898 0.774215
Si Si6 0.938201 0.845676 0.697019
O O1 0.193154 0.584323 0.164490
O O2 0.185897 0.414491 0.155030
O O3 0.040545 0.510451 0.102377
O O4 0.328542 0.503262 0.852428
O O5 0.136610 0.750000 0.250070
O O6 0.944090 0.848245 0.291208
O O7 0.987663 0.867804 0.507245
O O8 0.500000 0.500000 0.500000
O O9 0.235574 0.432680 0.708882
O O10 0.272077 0.597097 0.689095
O O11 0.006385 0.144572 0.008864
O O12 0.196090 0.750000 0.741121
O O13 0.081053 0.856078 0.668431
O O14 0.873297 0.750000 0.762290
#
# Coordination Sequence:
#
# PCOD8068330 Si02
#       6
#     4   4   4   4   4   4
#     4   9  17  31  49  71  97 128 160 206 244 283
#     4   9  18  28  51  79  97 119 160 210 253 287
#     4  11  20  32  48  73 106 134 164 201 244 296
#     4   9  17  31  50  70  98 121 167 202 248 278
#     4  10  17  31  53  73  95 127 169 212 248 284
#     4  10  17  28  50  79  98 119 159 211 253 289
#
# _framework density 16.616412
#
# number of rings (size 3 to 8) (size 9 to 14) (size 15 to 20)
#    1.000    1.333    3.333    2.000    0.000    0.000 
#    0.000    2.500    0.000    4.000    0.000    4.667 
#    0.000    0.000    0.000    0.000    0.000    0.000 
#
# Total GULP energy -297392.667605 kJ/mol
# GULP energy per Si atom -12391.361150 kJ/mol
# Density = 1.657859 g / cm^3
# Si number density = 16.616412 Si / 1000 Ang^3
#
#
#
# Elastic Constant Matrix: (Units=GPa)
#
#
# Indices 1 2 3 4 5 6 
#
# 1 41.7244 18.5638 45.3350 0.0000 2.0381 0.0000
# 2 18.5638 115.4868 56.8492 0.0000 2.0432 0.0000
# 3 45.3350 56.8492 131.7819 0.0000 5.1242 0.0000
# 4 0.0000 0.0000 0.0000 20.9586 0.0000 8.3145
# 5 2.0381 2.0432 5.1242 0.0000 32.5351 0.0000
# 6 0.0000 0.0000 0.0000 8.3145 0.0000 18.1638
#
#
#
# Elastic Compliance Matrix: (Units=1/GPa)
#
#
# Indices 1 2 3 4 5 6 
#
# 1 0.038292 0.000417 -0.013340 0.000000 -0.000324 0.000000
# 2 0.000417 0.010998 -0.004890 0.000000 0.000053 0.000000
# 3 -0.013340 -0.004890 0.014331 0.000000 -0.001114 0.000000
# 4 0.000000 0.000000 0.000000 0.058300 0.000000 -0.026687
# 5 -0.000324 0.000053 -0.001114 0.000000 0.030928 0.000000
# 6 0.000000 0.000000 0.000000 -0.026687 0.000000 0.067270
#
#
# Mechanical properties :
#
#
# Convention : Reuss Voigt Hill
#
# Bulk Modulus (GPa) = 35.72177 58.94323 47.33250
# Shear Modulus (GPa) = 18.86246 25.54784 22.20515
#
# Velocity S-wave (km/s) = 3.37288 3.92536 3.65956
# Velocity P-wave (km/s) = 6.05913 7.48963 6.81203
#
# Compressibility (1/GPa) = 0.02799414
#
# Stress axis : x y z
#
# Youngs Moduli (GPa) = 26.11530 90.92418 69.78121
#
# Poissons Ratio (x) = -0.03796 0.93091
# Poissons Ratio (y) = -0.01090 0.34124
# Poissons Ratio (z) = 0.34839 0.44464
#
# Static dielectric constant tensor:
#      x y z
#    x 2.695720 0.000000 0.389930 
#    y 0.000000 3.274190 0.000000 
#    z 0.389930 0.000000 3.013330 
# 
# 
# High freq. dielectric constant tensor:
#      x y z
#    x 1.586880 0.000000 0.045560 
#    y 0.000000 1.656470 0.000000 
#    z 0.045560 0.000000 1.629390 
# 
# From -- ./inp_files/18535.got.cif
#   From: 2010.06.25/outbox.cif.g09.slc.cpg/sg11_10_cif.got.tgz:18535.got - 2010.06.27 23:14:04.
