data_PCOD8068573
_publ_section_title
;
Structure prediction by ZEFSAII (Michael W. Deem and Ramdas Pophale) SiO2 
 PCOD8068573
Probable space group: P 21/M
;
_chemical_formula_sum "Si O2"
_cell_formula_units_Z 24
_cell_length_a 26.747696
_cell_length_b 9.529404
_cell_length_c 11.666294
_cell_angle_alpha 90.000000
_cell_angle_beta 28.314776
_cell_angle_gamma 90.000000
_cell_volume 1410.431931
_symmetry_space_group_name_H-M "P 21/M"
_symmetry_group_IT_number 11
_symmetry_cell_setting 'monoclinic'
loop_
_space_group_symop_operation_xyz
x,y,z
-x,1/2+y,-z
-x,-y,-z
x,1/2-y,z
loop_
_atom_site_type_symbol
_atom_site_label
_atom_site_fract_x
_atom_site_fract_y
_atom_site_fract_z
Si Si1 0.106378 0.085193 0.298956
Si Si2 0.723676 0.593195 0.232607
Si Si3 0.371481 0.091875 0.345294
Si Si4 0.390541 0.913659 0.091010
Si Si5 0.747971 0.405043 0.843989
Si Si6 0.587969 0.401973 0.369141
O O1 0.085727 0.250000 0.364341
O O2 0.165939 0.020131 0.289859
O O3 0.167546 0.064188 0.054134
O O4 0.000000 0.000000 0.500000
O O5 0.684190 0.750000 0.277860
O O6 0.725521 0.581555 0.367426
O O7 0.637738 0.477277 0.377122
O O8 0.379400 0.250000 0.281433
O O9 0.343854 0.990811 0.296417
O O10 0.484809 0.051729 0.174844
O O11 0.372179 0.750000 0.145700
O O12 0.322281 0.964890 0.119307
O O13 0.797831 0.250000 0.713838
O O14 0.673796 0.379923 0.100047
O O15 0.500000 0.500000 0.500000
O O16 0.542666 0.250000 0.498187
#
# Coordination Sequence:
#
# PCOD8068573 Si02
#       6
#     4   4   4   4   4   4
#     4  10  20  34  53  74  94 118 152 196 246 295
#     4   9  18  32  48  67  92 123 157 192 233 281
#     4   9  17  30  47  68  98 132 162 191 224 268
#     4   9  17  29  46  69  98 131 162 191 225 267
#     4   9  18  32  48  67  94 126 158 194 236 280
#     4  10  18  27  42  65  94 125 154 188 230 277
#
# _framework density 17.016065000000001
#
# number of rings (size 3 to 8) (size 9 to 14) (size 15 to 20)
#    0.000    2.667    0.000    2.000    0.000    5.333 
#    0.000    3.333    0.000    1.000    0.000    0.000 
#    0.000    0.000    0.000    0.000    0.000    0.000 
#
# Total GULP energy -297319.860867 kJ/mol
# GULP energy per Si atom -12388.327536 kJ/mol
# Density = 1.697734 g / cm^3
# Si number density = 17.016065 Si / 1000 Ang^3
#
#
#
# Elastic Constant Matrix: (Units=GPa)
#
#
# Indices 1 2 3 4 5 6 
#
# 1 86.9113 32.3456 26.6393 0.0000 5.3315 0.0000
# 2 32.3456 94.6492 31.3534 0.0000 -5.0804 0.0000
# 3 26.6393 31.3534 51.8773 0.0000 5.6544 0.0000
# 4 0.0000 0.0000 0.0000 25.4447 0.0000 -0.4557
# 5 5.3315 -5.0804 5.6544 0.0000 24.1391 0.0000
# 6 0.0000 0.0000 0.0000 -0.4557 0.0000 18.0255
#
#
#
# Elastic Compliance Matrix: (Units=1/GPa)
#
#
# Indices 1 2 3 4 5 6 
#
# 1 0.014504 -0.003419 -0.005084 0.000000 -0.002732 0.000000
# 2 -0.003419 0.014575 -0.007665 0.000000 0.005618 0.000000
# 3 -0.005084 -0.007665 0.027269 0.000000 -0.006878 0.000000
# 4 0.000000 0.000000 0.000000 0.039319 0.000000 0.000994
# 5 -0.002732 0.005618 -0.006878 0.000000 0.044823 0.000000
# 6 0.000000 0.000000 0.000000 0.000994 0.000000 0.055502
#
#
# Mechanical properties :
#
#
# Convention : Reuss Voigt Hill
#
# Bulk Modulus (GPa) = 41.64624 46.01271 43.82947
# Shear Modulus (GPa) = 21.15668 23.06183 22.10925
#
# Velocity S-wave (km/s) = 3.52992 3.68543 3.60851
# Velocity P-wave (km/s) = 6.41417 6.72379 6.57080
#
# Compressibility (1/GPa) = 0.02401177
#
# Stress axis : x y z
#
# Youngs Moduli (GPa) = 68.94456 68.61287 36.67184
#
# Poissons Ratio (x) = 0.23462 0.18643
# Poissons Ratio (y) = 0.23575 0.28109
# Poissons Ratio (z) = 0.35049 0.52591
#
# Static dielectric constant tensor:
#      x y z
#    x 3.181590 0.000000 -0.010970 
#    y 0.000000 3.707160 0.000000 
#    z -0.010970 0.000000 3.145630 
# 
# 
# High freq. dielectric constant tensor:
#      x y z
#    x 1.637690 0.000000 0.012460 
#    y 0.000000 1.672270 0.000000 
#    z 0.012460 0.000000 1.626850 
# 
# From -- ./inp_files/33790.got.cif
#   From: 2010.06.25/outbox.cif.g09.slc.cpg/sg11_17_cif.got.tgz:33790.got - 2010.06.27 23:14:04.
