data_PCOD8068206
_publ_section_title
;
Structure prediction by ZEFSAII (Michael W. Deem and Ramdas Pophale) SiO2 
 PCOD8068206
Probable space group: P 21/M
;
_chemical_formula_sum "Si O2"
_cell_formula_units_Z 32
_cell_length_a 13.766280
_cell_length_b 8.735134
_cell_length_c 17.245100
_cell_angle_alpha 90.000000
_cell_angle_beta 102.039647
_cell_angle_gamma 90.000000
_cell_volume 2028.113684
_symmetry_space_group_name_H-M "P 21/M"
_symmetry_group_IT_number 11
_symmetry_cell_setting 'monoclinic'
loop_
_space_group_symop_operation_xyz
x,y,z
-x,1/2+y,-z
-x,-y,-z
x,1/2-y,z
loop_
_atom_site_type_symbol
_atom_site_label
_atom_site_fract_x
_atom_site_fract_y
_atom_site_fract_z
Si Si1 0.737805 0.070602 0.327078
Si Si2 0.276035 0.930602 0.435411
Si Si3 0.389991 0.070843 0.329317
Si Si4 0.341976 0.070188 0.827778
Si Si5 0.445675 0.428591 0.169015
Si Si6 0.107296 0.928827 0.521542
Si Si7 0.588779 0.570276 0.416009
Si Si8 0.604298 0.572527 0.002057
O O1 0.715888 0.250000 0.332484
O O2 0.839912 0.027045 0.388102
O O3 0.740086 0.020088 0.237310
O O4 0.646637 0.976994 0.347990
O O5 0.274936 0.750000 0.422621
O O6 0.174851 0.986846 0.460824
O O7 0.287902 0.015741 0.354174
O O8 0.368632 0.976284 0.504638
O O9 0.407590 0.250000 0.345259
O O10 0.386281 0.029725 0.237426
O O11 0.475074 0.974714 0.385966
O O12 0.326802 0.250000 0.812170
O O13 0.453697 0.025672 0.820707
O O14 0.322190 0.020472 0.915392
O O15 0.476383 0.250000 0.173684
O O16 0.369458 0.464939 0.083802
O O17 0.093895 0.750000 0.512976
O O18 0.000000 0.000000 0.500000
O O19 0.599238 0.750000 0.433608
O O20 0.589349 0.750000 0.011669
O O21 0.500000 0.500000 0.000000
#
# Coordination Sequence:
#
# PCOD8068206 Si02
#       8
#     4   4   4   4   4   4   4   4
#     4  10  19  31  45  65  91 118 147 178 221 268
#     4  10  21  35  47  63  87 114 144 178 219 263
#     4  11  20  29  43  63  88 120 154 184 215 255
#     4  10  17  25  41  63  86 114 154 190 217 253
#     4   9  17  28  41  56  85 123 153 185 223 254
#     4   9  20  36  53  68  85 110 139 178 224 270
#     4  11  20  30  44  62  86 116 150 187 220 251
#     4   8  15  26  38  56  81 114 152 187 219 253
#
# _framework density 15.778207999999999
#
# number of rings (size 3 to 8) (size 9 to 14) (size 15 to 20)
#    0.000    2.250    1.250    3.750    0.000    4.000 
#    0.000    0.000    0.000    0.000    0.000    0.000 
#    0.000    1.000    0.000    2.250    0.000    3.500 
#
# Total GULP energy -396474.631361 kJ/mol
# GULP energy per Si atom -12389.832230 kJ/mol
# Density = 1.574230 g / cm^3
# Si number density = 15.778208 Si / 1000 Ang^3
#
#
#
# Elastic Constant Matrix: (Units=GPa)
#
#
# Indices 1 2 3 4 5 6 
#
# 1 66.1660 19.2645 52.9315 0.0000 0.9521 0.0000
# 2 19.2645 40.0306 26.7685 0.0000 0.7669 0.0000
# 3 52.9315 26.7685 133.8964 0.0000 -3.5032 0.0000
# 4 0.0000 0.0000 0.0000 22.5577 0.0000 0.1511
# 5 0.9521 0.7669 -3.5032 0.0000 14.0813 0.0000
# 6 0.0000 0.0000 0.0000 0.1511 0.0000 20.4027
#
#
#
# Elastic Compliance Matrix: (Units=1/GPa)
#
#
# Indices 1 2 3 4 5 6 
#
# 1 0.023370 -0.005711 -0.008183 0.000000 -0.003305 0.000000
# 2 -0.005711 0.030360 -0.003870 0.000000 -0.002230 0.000000
# 3 -0.008183 -0.003870 0.011573 0.000000 0.003643 0.000000
# 4 0.000000 0.000000 0.000000 0.044333 0.000000 -0.000328
# 5 -0.003305 -0.002230 0.003643 0.000000 0.072268 0.000000
# 6 0.000000 0.000000 0.000000 -0.000328 0.000000 0.049015
#
#
# Mechanical properties :
#
#
# Convention : Reuss Voigt Hill
#
# Bulk Modulus (GPa) = 33.58703 48.66910 41.12806
# Shear Modulus (GPa) = 18.09146 20.81691 19.45418
#
# Velocity S-wave (km/s) = 3.38984 3.63622 3.51519
# Velocity P-wave (km/s) = 6.05430 6.96722 6.52674
#
# Compressibility (1/GPa) = 0.02977340
#
# Stress axis : x y z
#
# Youngs Moduli (GPa) = 42.78904 32.93790 86.41158
#
# Poissons Ratio (x) = 0.18812 0.70714
# Poissons Ratio (y) = 0.24438 0.33443
# Poissons Ratio (z) = 0.35016 0.12747
#
# Static dielectric constant tensor:
#      x y z
#    x 2.967870 0.000000 -0.043460 
#    y 0.000000 2.986900 0.000000 
#    z -0.043460 0.000000 3.716150 
# 
# 
# High freq. dielectric constant tensor:
#      x y z
#    x 1.537760 0.000000 -0.003350 
#    y 0.000000 1.616170 0.000000 
#    z -0.003350 0.000000 1.622250 
# 
# From -- ./inp_files/42432.got.cif
#   From: 2010.06.25/outbox.cif.g09.slc.cpg/sg11_22_cif.got.tgz:42432.got - 2010.06.27 23:14:04.
