data_PCOD8068201
_publ_section_title
;
Structure prediction by ZEFSAII (Michael W. Deem and Ramdas Pophale) SiO2 
 PCOD8068201
Probable space group: P 21/M
;
_chemical_formula_sum "Si O2"
_cell_formula_units_Z 28
_cell_length_a 27.363515
_cell_length_b 8.858684
_cell_length_c 21.391807
_cell_angle_alpha 90.000000
_cell_angle_beta 163.416795
_cell_angle_gamma 90.000000
_cell_volume 1479.973238
_symmetry_space_group_name_H-M "P 21/M"
_symmetry_group_IT_number 11
_symmetry_cell_setting 'monoclinic'
loop_
_space_group_symop_operation_xyz
x,y,z
-x,1/2+y,-z
-x,-y,-z
x,1/2-y,z
loop_
_atom_site_type_symbol
_atom_site_label
_atom_site_fract_x
_atom_site_fract_y
_atom_site_fract_z
Si Si1 0.990642 0.575772 0.602890
Si Si2 0.366617 0.430526 0.883888
Si Si3 0.380557 0.419402 0.442870
Si Si4 0.518869 0.573800 0.725182
Si Si5 0.356920 0.570264 0.003687
Si Si6 0.153866 0.924757 0.925387
Si Si7 0.745829 0.082111 0.823573
O O1 0.983474 0.750000 0.577641
O O2 0.820519 0.502687 0.365009
O O3 0.165186 0.511682 0.786185
O O4 0.992848 0.550135 0.681425
O O5 0.374770 0.250000 0.891458
O O6 0.413557 0.490660 0.009614
O O7 0.500000 0.500000 0.000000
O O8 0.333131 0.250000 0.402769
O O9 0.373587 0.516231 0.498319
O O10 0.240902 0.475020 0.220459
O O11 0.565636 0.434017 0.638213
O O12 0.493541 0.750000 0.706267
O O13 0.509471 0.484592 0.779428
O O14 0.701939 0.541394 0.918892
O O15 0.366945 0.750000 0.009749
O O16 0.220569 0.750000 0.999511
O O17 0.111850 0.954742 0.947637
O O18 0.770101 0.250000 0.827094
#
# Coordination Sequence:
#
# PCOD8068201 Si02
#       7
#     4   4   4   4   4   4   4
#     4   8  16  31  52  73  95 124 160 199 239 284
#     4  11  22  36  52  73  99 127 158 194 238 287
#     4   9  15  22  32  49  79 118 154 186 224 271
#     4  10  17  25  39  61  87 116 152 192 232 277
#     4  10  19  34  53  72  94 123 159 200 243 285
#     4   8  14  26  41  59  84 116 153 193 234 275
#     4   8  13  20  32  51  78 112 149 187 228 272
#
# _framework density 18.919262
#
# number of rings (size 3 to 8) (size 9 to 14) (size 15 to 20)
#    0.000    2.857    0.000    4.714    0.000    3.429 
#    0.000    6.429    0.000    0.000    0.000    0.000 
#    0.000    1.143    0.000    3.143    0.000   10.000 
#
# Total GULP energy -346896.955393 kJ/mol
# GULP energy per Si atom -12389.176978 kJ/mol
# Density = 1.887620 g / cm^3
# Si number density = 18.919262 Si / 1000 Ang^3
#
#
#
# Elastic Constant Matrix: (Units=GPa)
#
#
# Indices 1 2 3 4 5 6 
#
# 1 119.0636 46.2467 54.7883 0.0000 -39.3415 0.0000
# 2 46.2467 94.5734 24.2500 0.0000 -16.6512 0.0000
# 3 54.7883 24.2500 33.1043 0.0000 -25.5055 0.0000
# 4 0.0000 0.0000 0.0000 17.1192 0.0000 -10.0327
# 5 -39.3415 -16.6512 -25.5055 0.0000 34.5411 0.0000
# 6 0.0000 0.0000 0.0000 -10.0327 0.0000 30.2248
#
#
#
# Elastic Compliance Matrix: (Units=1/GPa)
#
#
# Indices 1 2 3 4 5 6 
#
# 1 0.036487 -0.002727 -0.063522 0.000000 -0.006662 0.000000
# 2 -0.002727 0.013270 -0.006197 0.000000 -0.001285 0.000000
# 3 -0.063522 -0.006197 0.189832 0.000000 0.064836 0.000000
# 4 0.000000 0.000000 0.000000 0.072521 0.000000 0.024072
# 5 -0.006662 -0.001285 0.064836 0.000000 0.068619 0.000000
# 6 0.000000 0.000000 0.000000 0.024072 0.000000 0.041076
#
#
# Mechanical properties :
#
#
# Convention : Reuss Voigt Hill
#
# Bulk Modulus (GPa) = 10.56021 55.25679 32.90850
# Shear Modulus (GPa) = 8.35750 24.47412 16.41581
#
# Velocity S-wave (km/s) = 2.10405 3.60058 2.94883
# Velocity P-wave (km/s) = 3.39066 6.82317 5.38759
#
# Compressibility (1/GPa) = 0.09469505
#
# Stress axis : x y z
#
# Youngs Moduli (GPa) = 27.40678 75.35633 5.26781
#
# Poissons Ratio (x) = 0.20552 0.33462
# Poissons Ratio (y) = 0.07475 0.03265
# Poissons Ratio (z) = 1.74095 0.46702
#
# Static dielectric constant tensor:
#      x y z
#    x 3.488460 0.000000 -0.687420 
#    y 0.000000 3.340100 0.000000 
#    z -0.687420 0.000000 3.514210 
# 
# 
# High freq. dielectric constant tensor:
#      x y z
#    x 1.718480 0.000000 -0.061830 
#    y 0.000000 1.725840 0.000000 
#    z -0.061830 0.000000 1.696850 
# 
# From -- ./inp_files/66889.got.cif
#   From: 2010.06.25/outbox.cif.g09.slc.cpg/sg11_34_cif.got.tgz:66889.got - 2010.06.27 23:14:04.
