data_PCOD8068855
_publ_section_title
;
Structure prediction by ZEFSAII (Michael W. Deem and Ramdas Pophale) SiO2 
 PCOD8068855
Probable space group: P 21/M
;
_chemical_formula_sum "Si O2"
_cell_formula_units_Z 28
_cell_length_a 11.406471
_cell_length_b 8.863111
_cell_length_c 16.595322
_cell_angle_alpha 90.000000
_cell_angle_beta 119.639473
_cell_angle_gamma 90.000000
_cell_volume 1458.210162
_symmetry_space_group_name_H-M "P 21/M"
_symmetry_group_IT_number 11
_symmetry_cell_setting 'monoclinic'
loop_
_space_group_symop_operation_xyz
x,y,z
-x,1/2+y,-z
-x,-y,-z
x,1/2-y,z
loop_
_atom_site_type_symbol
_atom_site_label
_atom_site_fract_x
_atom_site_fract_y
_atom_site_fract_z
Si Si1 0.825573 0.429373 0.116531
Si Si2 0.604857 0.428454 0.164227
Si Si3 0.304080 0.428756 0.073194
Si Si4 0.888146 0.928675 0.518929
Si Si5 0.904744 0.570540 0.706871
Si Si6 0.669130 0.928898 0.737673
Si Si7 0.633749 0.071644 0.355629
O O1 0.822670 0.250000 0.113077
O O2 0.706308 0.495982 0.132477
O O3 0.966320 0.489188 0.200042
O O4 0.807662 0.492730 0.020542
O O5 0.606575 0.250000 0.161453
O O6 0.452832 0.484552 0.095648
O O7 0.654262 0.476945 0.269764
O O8 0.289563 0.250000 0.060823
O O9 0.282110 0.484057 0.157507
O O10 0.900424 0.750000 0.517462
O O11 0.913268 0.987325 0.618273
O O12 0.739019 0.979714 0.444343
O O13 0.000000 0.000000 0.500000
O O14 0.901177 0.750000 0.706714
O O15 0.769941 0.505651 0.704190
O O16 0.672063 0.750000 0.740123
O O17 0.515907 0.979447 0.666922
O O18 0.656580 0.250000 0.374902
#
# Coordination Sequence:
#
# PCOD8068855 Si02
#       7
#     4   4   4   4   4   4   4
#     4  10  18  29  47  69  96 131 169 206 245 291
#     4   8  15  29  48  70  97 132 167 198 244 306
#     4   9  17  30  49  71  96 127 166 209 249 293
#     4  11  22  36  55  78 104 132 165 205 250 300
#     4   9  19  34  51  72 100 136 172 203 243 304
#     4   8  16  33  54  74  99 134 171 202 243 303
#     4   9  17  33  57  78  99 131 169 207 247 295
#
# _framework density 19.201622
#
# number of rings (size 3 to 8) (size 9 to 14) (size 15 to 20)
#    0.000    2.857    0.000    3.429    0.000    3.429 
#    0.000    6.429    0.000    3.429    0.000    0.000 
#    0.000    0.000    0.000    0.000    0.000    0.000 
#
# Total GULP energy -347111.130901 kJ/mol
# GULP energy per Si atom -12396.826104 kJ/mol
# Density = 1.915792 g / cm^3
# Si number density = 19.201622 Si / 1000 Ang^3
#
#
#
# Elastic Constant Matrix: (Units=GPa)
#
#
# Indices 1 2 3 4 5 6 
#
# 1 147.1277 24.1518 83.3655 0.0000 -8.7752 0.0000
# 2 24.1518 29.4564 30.8613 0.0000 1.2017 0.0000
# 3 83.3655 30.8613 160.8862 0.0000 11.9700 0.0000
# 4 0.0000 0.0000 0.0000 29.9271 0.0000 3.3116
# 5 -8.7752 1.2017 11.9700 0.0000 28.8299 0.0000
# 6 0.0000 0.0000 0.0000 3.3116 0.0000 16.6184
#
#
#
# Elastic Compliance Matrix: (Units=1/GPa)
#
#
# Indices 1 2 3 4 5 6 
#
# 1 0.010700 -0.003449 -0.005299 0.000000 0.005601 0.000000
# 2 -0.003449 0.043677 -0.006580 0.000000 -0.000138 0.000000
# 3 -0.005299 -0.006580 0.010652 0.000000 -0.005762 0.000000
# 4 0.000000 0.000000 0.000000 0.034168 0.000000 -0.006809
# 5 0.005601 -0.000138 -0.005762 0.000000 0.038789 0.000000
# 6 0.000000 0.000000 0.000000 -0.006809 0.000000 0.061531
#
#
# Mechanical properties :
#
#
# Convention : Reuss Voigt Hill
#
# Bulk Modulus (GPa) = 29.09469 68.24749 48.67109
# Shear Modulus (GPa) = 20.69264 28.34785 24.52025
#
# Velocity S-wave (km/s) = 3.28632 3.84647 3.57737
# Velocity P-wave (km/s) = 5.43921 7.43954 6.51659
#
# Compressibility (1/GPa) = 0.03437054
#
# Stress axis : x y z
#
# Youngs Moduli (GPa) = 93.45979 22.89558 93.87558
#
# Poissons Ratio (x) = 0.07898 0.49747
# Poissons Ratio (y) = 0.32238 0.61774
# Poissons Ratio (z) = 0.49527 0.15066
#
# Static dielectric constant tensor:
#      x y z
#    x 3.957990 0.000000 -0.069060 
#    y 0.000000 2.962840 0.000000 
#    z -0.069060 0.000000 3.626860 
# 
# 
# High freq. dielectric constant tensor:
#      x y z
#    x 1.753810 0.000000 0.001780 
#    y 0.000000 1.695000 0.000000 
#    z 0.001780 0.000000 1.755740 
# 
# From -- ./inp_files/49182.got.cif
#   From: 2010.06.25/outbox.cif.g09.slc.cpg/sg11_25_cif.got.tgz:49182.got - 2010.06.27 23:14:04.
