data_PCOD8068523
_publ_section_title
;
Structure prediction by ZEFSAII (Michael W. Deem and Ramdas Pophale) SiO2 
 PCOD8068523
Probable space group: P 21/M
;
_chemical_formula_sum "Si O2"
_cell_formula_units_Z 32
_cell_length_a 15.316425
_cell_length_b 9.310331
_cell_length_c 34.112460
_cell_angle_alpha 90.000000
_cell_angle_beta 153.316506
_cell_angle_gamma 90.000000
_cell_volume 2184.446950
_symmetry_space_group_name_H-M "P 21/M"
_symmetry_group_IT_number 11
_symmetry_cell_setting 'monoclinic'
loop_
_space_group_symop_operation_xyz
x,y,z
-x,1/2+y,-z
-x,-y,-z
x,1/2-y,z
loop_
_atom_site_type_symbol
_atom_site_label
_atom_site_fract_x
_atom_site_fract_y
_atom_site_fract_z
Si Si1 0.447279 0.091336 0.921214
Si Si2 0.446041 0.080036 0.589090
Si Si3 0.061388 0.079408 0.730408
Si Si4 0.880196 0.089165 0.397985
Si Si5 0.925778 0.078255 0.590586
Si Si6 0.135486 0.921150 0.271005
Si Si7 0.238094 0.091336 0.920288
Si Si8 0.713968 0.908300 0.394604
O O1 0.503845 0.250000 0.929172
O O2 0.360389 0.099502 0.929671
O O3 0.281803 0.022230 0.826408
O O4 0.646182 0.000147 0.000741
O O5 0.410502 0.250000 0.567258
O O6 0.652296 0.023825 0.656037
O O7 0.439081 0.047105 0.632968
O O8 0.284784 0.988646 0.501721
O O9 0.069877 0.250000 0.736905
O O10 0.984294 0.029169 0.657600
O O11 0.915743 0.021160 0.705885
O O12 0.816765 0.250000 0.359881
O O13 0.076484 0.095934 0.501231
O O14 0.711306 0.020574 0.357605
O O15 0.911895 0.988296 0.373011
O O16 0.919312 0.250000 0.582663
O O17 0.128888 0.750000 0.267924
O O18 0.973664 0.976822 0.174852
O O19 0.212769 0.250000 0.928011
O O20 0.664076 0.750000 0.357995
#
# Coordination Sequence:
#
# PCOD8068523 Si02
#       8
#     4   4   4   4   4   4   4   4
#     4   8  13  23  38  54  73  96 123 156 192 228
#     4   9  17  28  41  56  76 104 134 161 189 222
#     4   8  15  26  39  55  76 106 137 159 186 224
#     4   9  16  26  40  56  73  95 123 156 197 237
#     4  10  18  27  39  55  77 104 134 165 190 218
#     4   8  14  26  41  55  76 106 135 159 185 224
#     4   8  13  22  38  57  73  93 123 157 192 226
#     4   8  14  24  38  56  74  93 121 156 193 230
#
# _framework density 14.649016
#
# number of rings (size 3 to 8) (size 9 to 14) (size 15 to 20)
#    0.000    3.500    0.000    3.000    0.000    3.500 
#    0.000    1.875    0.000    3.000    0.000    0.000 
#    0.000    1.000    0.000    2.000    0.000    3.000 
#
# Total GULP energy -396488.255752 kJ/mol
# GULP energy per Si atom -12390.257992 kJ/mol
# Density = 1.461567 g / cm^3
# Si number density = 14.649016 Si / 1000 Ang^3
#
#
#
# Elastic Constant Matrix: (Units=GPa)
#
#
# Indices 1 2 3 4 5 6 
#
# 1 89.8684 38.5812 56.9264 0.0000 -5.0856 0.0000
# 2 38.5812 62.4808 39.1832 0.0000 -0.7875 0.0000
# 3 56.9264 39.1832 82.3984 0.0000 1.4170 0.0000
# 4 0.0000 0.0000 0.0000 18.0361 0.0000 -0.0541
# 5 -5.0856 -0.7875 1.4170 0.0000 1.8701 0.0000
# 6 0.0000 0.0000 0.0000 -0.0541 0.0000 15.4212
#
#
#
# Elastic Compliance Matrix: (Units=1/GPa)
#
#
# Indices 1 2 3 4 5 6 
#
# 1 0.033831 -0.005317 -0.022683 0.000000 0.106947 0.000000
# 2 -0.005317 0.024260 -0.007893 0.000000 0.001738 0.000000
# 3 -0.022683 -0.007893 0.033110 0.000000 -0.090097 0.000000
# 4 0.000000 0.000000 0.000000 0.055445 0.000000 0.000195
# 5 0.106947 0.001738 -0.090097 0.000000 0.894549 0.000000
# 6 0.000000 0.000000 0.000000 0.000195 0.000000 0.064846
#
#
# Mechanical properties :
#
#
# Convention : Reuss Voigt Hill
#
# Bulk Modulus (GPa) = 51.50866 56.01436 53.76151
# Shear Modulus (GPa) = 4.22191 13.73594 8.97893
#
# Velocity S-wave (km/s) = 1.69950 3.06546 2.47844
# Velocity P-wave (km/s) = 6.25214 7.13092 6.70594
#
# Compressibility (1/GPa) = 0.01941421
#
# Stress axis : x y z
#
# Youngs Moduli (GPa) = 29.55900 41.22047 30.20217
#
# Poissons Ratio (x) = 0.21916 0.68509
# Poissons Ratio (y) = 0.15716 0.23839
# Poissons Ratio (z) = 0.67050 0.32536
#
# Static dielectric constant tensor:
#      x y z
#    x 2.893250 0.000000 0.033250 
#    y 0.000000 2.874730 0.000000 
#    z 0.033250 0.000000 2.813510 
# 
# 
# High freq. dielectric constant tensor:
#      x y z
#    x 1.536520 0.000000 0.000800 
#    y 0.000000 1.547070 0.000000 
#    z 0.000800 0.000000 1.532460 
# 
# From -- ./inp_files/73328.got.cif
#   From: 2010.06.25/outbox.cif.g09.slc.cpg/sg11_37_cif.got.tgz:73328.got - 2010.06.27 23:14:04.
