data_PCOD8068322
_publ_section_title
;
Structure prediction by ZEFSAII (Michael W. Deem and Ramdas Pophale) SiO2 
 PCOD8068322
Probable space group: P 21/M
;
_chemical_formula_sum "Si O2"
_cell_formula_units_Z 32
_cell_length_a 15.615368
_cell_length_b 8.336968
_cell_length_c 16.982452
_cell_angle_alpha 90.000000
_cell_angle_beta 134.640590
_cell_angle_gamma 90.000000
_cell_volume 1573.088001
_symmetry_space_group_name_H-M "P 21/M"
_symmetry_group_IT_number 11
_symmetry_cell_setting 'monoclinic'
loop_
_space_group_symop_operation_xyz
x,y,z
-x,1/2+y,-z
-x,-y,-z
x,1/2-y,z
loop_
_atom_site_type_symbol
_atom_site_label
_atom_site_fract_x
_atom_site_fract_y
_atom_site_fract_z
Si Si1 0.143082 0.559095 0.252016
Si Si2 0.078180 0.563136 0.380513
Si Si3 0.890338 0.565461 0.027743
Si Si4 0.282216 0.564021 0.963133
Si Si5 0.251110 0.064175 0.621406
Si Si6 0.174803 0.933356 0.733158
Si Si7 0.710411 0.064433 0.792147
Si Si8 0.479417 0.560288 0.209884
O O1 0.144565 0.750000 0.253714
O O2 0.141286 0.497173 0.340905
O O3 0.259173 0.494849 0.276170
O O4 0.024597 0.500779 0.129024
O O5 0.045500 0.750000 0.351898
O O6 0.170583 0.538733 0.510896
O O7 0.957161 0.464947 0.317438
O O8 0.886956 0.750000 0.999283
O O9 0.819940 0.546005 0.064456
O O10 0.829547 0.457034 0.921777
O O11 0.254444 0.750000 0.964544
O O12 0.276411 0.533701 0.865599
O O13 0.411754 0.515465 0.084218
O O14 0.246550 0.250000 0.594034
O O15 0.386008 0.990610 0.704313
O O16 0.200855 0.048848 0.677087
O O17 0.180540 0.750000 0.707988
O O18 0.682203 0.250000 0.765316
O O19 0.595530 0.986279 0.763502
O O20 0.486876 0.750000 0.222920
#
# Coordination Sequence:
#
# PCOD8068322 Si02
#       8
#     4   4   4   4   4   4   4   4
#     4   9  18  31  52  79 108 141 178 217 267 321
#     4  11  22  39  58  80 111 143 179 224 272 320
#     4  10  17  28  47  79 115 143 174 214 266 317
#     4   9  18  34  56  81 109 143 178 215 266 327
#     4  11  23  39  57  78 105 144 187 226 269 317
#     4  11  22  37  59  86 110 136 176 224 275 328
#     4   9  17  33  54  77 106 145 182 214 261 321
#     4   8  17  35  57  78 107 145 184 219 258 314
#
# _framework density 20.342154000000001
#
# number of rings (size 3 to 8) (size 9 to 14) (size 15 to 20)
#    0.000    2.250    1.250    3.000    0.000    1.000 
#    0.000    7.500    0.000    0.000    0.000    0.000 
#    0.000    0.000    0.000    0.000    0.000    0.000 
#
# Total GULP energy -396594.171694 kJ/mol
# GULP energy per Si atom -12393.567865 kJ/mol
# Density = 2.029585 g / cm^3
# Si number density = 20.342154 Si / 1000 Ang^3
#
#
#
# Elastic Constant Matrix: (Units=GPa)
#
#
# Indices 1 2 3 4 5 6 
#
# 1 118.9495 4.6235 53.4331 0.0000 -15.5529 0.0000
# 2 4.6235 20.9837 -1.9074 0.0000 3.6287 0.0000
# 3 53.4331 -1.9074 55.9607 0.0000 6.5604 0.0000
# 4 0.0000 0.0000 0.0000 12.6131 0.0000 1.7081
# 5 -15.5529 3.6287 6.5604 0.0000 28.4395 0.0000
# 6 0.0000 0.0000 0.0000 1.7081 0.0000 16.5635
#
#
#
# Elastic Compliance Matrix: (Units=1/GPa)
#
#
# Indices 1 2 3 4 5 6 
#
# 1 0.021590 -0.010044 -0.023117 0.000000 0.018421 0.000000
# 2 -0.010044 0.053734 0.013227 0.000000 -0.015400 0.000000
# 3 -0.023117 0.013227 0.043243 0.000000 -0.024305 0.000000
# 4 0.000000 0.000000 0.000000 0.080405 0.000000 -0.008292
# 5 0.018421 -0.015400 -0.024305 0.000000 0.052808 0.000000
# 6 0.000000 0.000000 0.000000 -0.008292 0.000000 0.061229
#
#
# Mechanical properties :
#
#
# Convention : Reuss Voigt Hill
#
# Bulk Modulus (GPa) = 12.70649 34.24358 23.47504
# Shear Modulus (GPa) = 13.18875 20.83954 17.01415
#
# Velocity S-wave (km/s) = 2.54903 3.20418 2.89519
# Velocity P-wave (km/s) = 3.86307 5.52805 4.76879
#
# Compressibility (1/GPa) = 0.07869994
#
# Stress axis : x y z
#
# Youngs Moduli (GPa) = 46.31698 18.61002 23.12526
#
# Poissons Ratio (x) = 0.18692 0.53459
# Poissons Ratio (y) = 0.46521 -0.30588
# Poissons Ratio (z) = 1.07071 -0.24616
#
# Static dielectric constant tensor:
#      x y z
#    x 4.051730 0.000000 -0.053330 
#    y 0.000000 3.310120 0.000000 
#    z -0.053330 0.000000 3.693570 
# 
# 
# High freq. dielectric constant tensor:
#      x y z
#    x 1.799900 0.000000 -0.010840 
#    y 0.000000 1.765880 0.000000 
#    z -0.010840 0.000000 1.780090 
# 
# From -- ./inp_files/60761.got.cif
#   From: 2010.06.25/outbox.cif.g09.slc.cpg/sg11_31_cif.got.tgz:60761.got - 2010.06.27 23:14:04.
