data_PCOD8068381
_publ_section_title
;
Structure prediction by ZEFSAII (Michael W. Deem and Ramdas Pophale) SiO2 
 PCOD8068381
Probable space group: P 21/M
;
_chemical_formula_sum "Si O2"
_cell_formula_units_Z 32
_cell_length_a 19.544826
_cell_length_b 10.200623
_cell_length_c 11.250979
_cell_angle_alpha 90.000000
_cell_angle_beta 54.563258
_cell_angle_gamma 90.000000
_cell_volume 1827.580302
_symmetry_space_group_name_H-M "P 21/M"
_symmetry_group_IT_number 11
_symmetry_cell_setting 'monoclinic'
loop_
_space_group_symop_operation_xyz
x,y,z
-x,1/2+y,-z
-x,-y,-z
x,1/2-y,z
loop_
_atom_site_type_symbol
_atom_site_label
_atom_site_fract_x
_atom_site_fract_y
_atom_site_fract_z
Si Si1 0.317041 0.105749 0.384957
Si Si2 0.806698 0.094900 0.072382
Si Si3 0.917386 0.399058 0.428881
Si Si4 0.784873 0.100101 0.367848
Si Si5 0.788568 0.532151 0.727720
Si Si6 0.900078 0.896782 0.822729
Si Si7 0.326146 0.900988 0.976857
Si Si8 0.499561 0.096582 0.110272
O O1 0.305477 0.250000 0.454390
O O2 0.414938 0.075845 0.269068
O O3 0.284604 0.994192 0.505593
O O4 0.268049 0.111726 0.308385
O O5 0.826319 0.250000 0.031282
O O6 0.798667 0.061244 0.218137
O O7 0.721243 0.046476 0.093048
O O8 0.879984 0.004215 0.944052
O O9 0.916149 0.250000 0.470295
O O10 0.872778 0.419821 0.346480
O O11 0.868434 0.472586 0.581302
O O12 0.012847 0.448250 0.322097
O O13 0.752855 0.250000 0.412416
O O14 0.827923 0.617382 0.794761
O O15 0.726946 0.425989 0.849503
O O16 0.911503 0.750000 0.866332
O O17 0.333741 0.750000 0.951058
O O18 0.421454 0.953537 0.889896
O O19 0.508996 0.250000 0.061391
O O20 0.500000 0.000000 0.000000
#
# Coordination Sequence:
#
# PCOD8068381 Si02
#       8
#     4   4   4   4   4   4   4   4
#     4  10  20  32  49  74 104 129 158 199 247 293
#     4   9  19  36  54  72  93 127 171 209 240 285
#     4   9  18  31  48  73 100 129 165 205 246 291
#     4   9  19  36  55  70  93 129 171 208 240 286
#     4  10  17  30  49  70 101 133 166 193 242 293
#     4  10  20  32  48  73 103 130 159 203 254 296
#     4   9  17  30  51  74  98 129 165 200 239 286
#     4  10  19  32  49  76 105 132 159 195 239 289
#
# _framework density 17.50949
#
# number of rings (size 3 to 8) (size 9 to 14) (size 15 to 20)
#    0.000    2.500    1.250    1.125    0.000    2.500 
#    0.000    3.750    0.000    0.000    0.000    0.000 
#    0.000    0.000    0.000    0.000    0.000    0.000 
#
# Total GULP energy -396535.390285 kJ/mol
# GULP energy per Si atom -12391.730946 kJ/mol
# Density = 1.746964 g / cm^3
# Si number density = 17.509490 Si / 1000 Ang^3
#
#
#
# Elastic Constant Matrix: (Units=GPa)
#
#
# Indices 1 2 3 4 5 6 
#
# 1 72.2502 26.4099 47.7151 0.0000 -12.1022 0.0000
# 2 26.4099 56.5076 38.2750 0.0000 4.3040 0.0000
# 3 47.7151 38.2750 90.4886 0.0000 0.5451 0.0000
# 4 0.0000 0.0000 0.0000 26.8655 0.0000 -4.9754
# 5 -12.1022 4.3040 0.5451 0.0000 29.4217 0.0000
# 6 0.0000 0.0000 0.0000 -4.9754 0.0000 18.7792
#
#
#
# Elastic Compliance Matrix: (Units=1/GPa)
#
#
# Indices 1 2 3 4 5 6 
#
# 1 0.024823 -0.004960 -0.011059 0.000000 0.011141 0.000000
# 2 -0.004960 0.026146 -0.008410 0.000000 -0.005709 0.000000
# 3 -0.011059 -0.008410 0.020462 0.000000 -0.003698 0.000000
# 4 0.000000 0.000000 0.000000 0.039143 0.000000 0.010371
# 5 0.011141 -0.005709 -0.003698 0.000000 0.039475 0.000000
# 6 0.000000 0.000000 0.000000 0.010371 0.000000 0.055998
#
#
# Mechanical properties :
#
#
# Convention : Reuss Voigt Hill
#
# Bulk Modulus (GPa) = 44.29686 49.33849 46.81767
# Shear Modulus (GPa) = 19.05290 22.13636 20.59463
#
# Velocity S-wave (km/s) = 3.30229 3.55949 3.43330
# Velocity P-wave (km/s) = 6.31616 6.71808 6.52021
#
# Compressibility (1/GPa) = 0.02257496
#
# Stress axis : x y z
#
# Youngs Moduli (GPa) = 40.28491 38.24722 48.87167
#
# Poissons Ratio (x) = 0.18969 0.54045
# Poissons Ratio (y) = 0.19980 0.41099
# Poissons Ratio (z) = 0.44550 0.32164
#
# Static dielectric constant tensor:
#      x y z
#    x 4.315740 0.000000 -0.489980 
#    y 0.000000 3.195310 0.000000 
#    z -0.489980 0.000000 3.292750 
# 
# 
# High freq. dielectric constant tensor:
#      x y z
#    x 1.683430 0.000000 -0.010230 
#    y 0.000000 1.671440 0.000000 
#    z -0.010230 0.000000 1.661220 
# 
# From -- ./inp_files/41254.got.cif
#   From: 2010.06.25/outbox.cif.g09.slc.cpg/sg11_21_cif.got.tgz:41254.got - 2010.06.27 23:14:04.
