data_PCOD8068550
_publ_section_title
;
Structure prediction by ZEFSAII (Michael W. Deem and Ramdas Pophale) SiO2 
 PCOD8068550
Probable space group: P 21/M
;
_chemical_formula_sum "Si O2"
_cell_formula_units_Z 32
_cell_length_a 18.844307
_cell_length_b 8.579864
_cell_length_c 27.025552
_cell_angle_alpha 90.000000
_cell_angle_beta 152.146886
_cell_angle_gamma 90.000000
_cell_volume 2041.474625
_symmetry_space_group_name_H-M "P 21/M"
_symmetry_group_IT_number 11
_symmetry_cell_setting 'monoclinic'
loop_
_space_group_symop_operation_xyz
x,y,z
-x,1/2+y,-z
-x,-y,-z
x,1/2-y,z
loop_
_atom_site_type_symbol
_atom_site_label
_atom_site_fract_x
_atom_site_fract_y
_atom_site_fract_z
Si Si1 0.789129 0.431513 0.867990
Si Si2 0.083759 0.931216 0.620489
Si Si3 0.465352 0.929348 0.218506
Si Si4 0.357003 0.931466 0.969870
Si Si5 0.701842 0.569315 0.168260
Si Si6 0.784357 0.431172 0.402587
Si Si7 0.750165 0.565414 0.995466
Si Si8 0.004636 0.071608 0.923944
O O1 0.836212 0.250000 0.904844
O O2 0.613909 0.455517 0.776121
O O3 0.834194 0.479128 0.838196
O O4 0.886019 0.543625 0.962373
O O5 0.043805 0.750000 0.593357
O O6 0.180865 0.981968 0.632358
O O7 0.178016 0.968233 0.727466
O O8 0.926337 0.025691 0.524881
O O9 0.452619 0.750000 0.194418
O O10 0.639089 0.975787 0.332250
O O11 0.385829 0.030151 0.126647
O O12 0.338636 0.750000 0.946579
O O13 0.534064 0.976634 0.083702
O O14 0.272059 0.974338 0.967598
O O15 0.280367 0.028579 0.878460
O O16 0.736627 0.750000 0.198411
O O17 0.748981 0.250000 0.385151
O O18 0.750955 0.750000 0.005997
O O19 0.911829 0.497492 0.072750
O O20 0.001571 0.250000 0.907823
#
# Coordination Sequence:
#
# PCOD8068550 Si02
#       8
#     4   4   4   4   4   4   4   4
#     4   8  14  24  37  54  78 109 142 173 206 245
#     4  10  20  33  48  64  84 111 142 176 214 253
#     4  10  18  27  41  61  86 115 146 179 213 250
#     4  10  20  32  46  64  86 112 143 177 211 250
#     4  10  20  33  48  64  84 111 142 176 214 253
#     4  10  20  32  46  64  86 112 143 177 211 250
#     4  10  18  27  41  61  86 115 146 179 213 250
#     4   8  14  24  37  54  78 109 142 173 206 245
#
# _framework density 15.674944999999999
#
# number of rings (size 3 to 8) (size 9 to 14) (size 15 to 20)
#    0.000    2.500    0.000    3.000    0.000    6.000 
#    0.000    0.000    0.000    0.000    0.000    0.000 
#    0.000    1.000    0.000    2.750    0.000    4.500 
#
# Total GULP energy -396461.073300 kJ/mol
# GULP energy per Si atom -12389.408541 kJ/mol
# Density = 1.563927 g / cm^3
# Si number density = 15.674945 Si / 1000 Ang^3
#
#
#
# Elastic Constant Matrix: (Units=GPa)
#
#
# Indices 1 2 3 4 5 6 
#
# 1 127.1608 15.1157 37.3590 0.0000 12.5217 0.0000
# 2 15.1157 29.5742 9.0998 0.0000 3.9934 0.0000
# 3 37.3590 9.0998 57.3588 0.0000 3.1657 0.0000
# 4 0.0000 0.0000 0.0000 21.8874 0.0000 -1.1817
# 5 12.5217 3.9934 3.1657 0.0000 20.0191 0.0000
# 6 0.0000 0.0000 0.0000 -1.1817 0.0000 20.0805
#
#
#
# Elastic Compliance Matrix: (Units=1/GPa)
#
#
# Indices 1 2 3 4 5 6 
#
# 1 0.010487 -0.002801 -0.006108 0.000000 -0.005035 0.000000
# 2 -0.002801 0.037090 -0.003781 0.000000 -0.005049 0.000000
# 3 -0.006108 -0.003781 0.021952 0.000000 0.001104 0.000000
# 4 0.000000 0.000000 0.000000 0.045834 0.000000 0.002697
# 5 -0.005035 -0.005049 0.001104 0.000000 0.053934 0.000000
# 6 0.000000 0.000000 0.000000 0.002697 0.000000 0.049958
#
#
# Mechanical properties :
#
#
# Convention : Reuss Voigt Hill
#
# Bulk Modulus (GPa) = 22.65111 37.47141 30.06126
# Shear Modulus (GPa) = 19.27877 22.56538 20.92208
#
# Velocity S-wave (km/s) = 3.51081 3.79830 3.65738
# Velocity P-wave (km/s) = 5.56024 6.57216 6.08726
#
# Compressibility (1/GPa) = 0.04414795
#
# Stress axis : x y z
#
# Youngs Moduli (GPa) = 95.35235 26.96143 45.55471
#
# Poissons Ratio (x) = 0.07551 0.27827
# Poissons Ratio (y) = 0.26706 0.17226
# Poissons Ratio (z) = 0.58245 0.10195
#
# Static dielectric constant tensor:
#      x y z
#    x 3.392740 0.000000 0.220830 
#    y 0.000000 3.020520 0.000000 
#    z 0.220830 0.000000 2.618350 
# 
# 
# High freq. dielectric constant tensor:
#      x y z
#    x 1.610380 0.000000 0.016820 
#    y 0.000000 1.612400 0.000000 
#    z 0.016820 0.000000 1.548470 
# 
# From -- ./inp_files/61744.got.cif
#   From: 2010.06.25/outbox.cif.g09.slc.cpg/sg11_31_cif.got.tgz:61744.got - 2010.06.27 23:14:04.
