data_PCOD8068626
_publ_section_title
;
Structure prediction by ZEFSAII (Michael W. Deem and Ramdas Pophale) SiO2 
 PCOD8068626
Probable space group: P 21/M
;
_chemical_formula_sum "Si O2"
_cell_formula_units_Z 28
_cell_length_a 13.650785
_cell_length_b 8.946394
_cell_length_c 16.236344
_cell_angle_alpha 90.000000
_cell_angle_beta 64.697089
_cell_angle_gamma 90.000000
_cell_volume 1792.633662
_symmetry_space_group_name_H-M "P 21/M"
_symmetry_group_IT_number 11
_symmetry_cell_setting 'monoclinic'
loop_
_space_group_symop_operation_xyz
x,y,z
-x,1/2+y,-z
-x,-y,-z
x,1/2-y,z
loop_
_atom_site_type_symbol
_atom_site_label
_atom_site_fract_x
_atom_site_fract_y
_atom_site_fract_z
Si Si1 0.292769 0.072911 0.189260
Si Si2 0.110671 0.922651 0.548739
Si Si3 0.109217 0.923075 0.359314
Si Si4 0.610109 0.425886 0.989312
Si Si5 0.522746 0.073355 0.366208
Si Si6 0.659545 0.424804 0.469325
Si Si7 0.515935 0.425077 0.187392
O O1 0.291324 0.250000 0.181468
O O2 0.399808 0.011501 0.198071
O O3 0.187080 0.019945 0.274627
O O4 0.292202 0.002681 0.096660
O O5 0.077313 0.750000 0.572092
O O6 0.138861 0.955061 0.443458
O O7 0.214516 0.965908 0.566385
O O8 0.013453 0.026263 0.614782
O O9 0.121751 0.750000 0.332018
O O10 0.608834 0.250000 0.971854
O O11 0.500000 0.500000 0.000000
O O12 0.613246 0.458409 0.087109
O O13 0.512004 0.250000 0.368837
O O14 0.619559 0.024010 0.392885
O O15 0.547018 0.008547 0.265905
O O16 0.408234 0.009435 0.436846
O O17 0.640398 0.250000 0.490334
O O18 0.499140 0.250000 0.202360
#
# Coordination Sequence:
#
# PCOD8068626 Si02
#       7
#     4   4   4   4   4   4   4
#     4  10  18  28  42  61  86 113 139 169 207 247
#     4   9  18  31  43  59  85 112 139 172 207 243
#     4  10  19  29  43  62  82 109 143 173 205 245
#     4   9  16  27  41  59  84 111 140 171 205 245
#     4   9  16  27  43  62  84 111 141 167 198 241
#     4   9  17  28  42  61  85 111 138 170 204 237
#     4   8  15  26  41  61  84 111 139 166 198 241
#
# _framework density 15.619477
#
# number of rings (size 3 to 8) (size 9 to 14) (size 15 to 20)
#    0.000    2.857    0.000    3.000    0.000    1.143 
#    0.000    3.571    0.000    0.000    0.000    1.000 
#    0.000    0.000    0.000    0.000    0.000    0.000 
#
# Total GULP energy -347027.257608 kJ/mol
# GULP energy per Si atom -12393.830629 kJ/mol
# Density = 1.558393 g / cm^3
# Si number density = 15.619477 Si / 1000 Ang^3
#
#
#
# Elastic Constant Matrix: (Units=GPa)
#
#
# Indices 1 2 3 4 5 6 
#
# 1 73.1733 22.9004 46.2334 0.0000 2.7208 0.0000
# 2 22.9004 53.6296 40.8128 0.0000 -2.0196 0.0000
# 3 46.2334 40.8128 130.1375 0.0000 4.6719 0.0000
# 4 0.0000 0.0000 0.0000 25.8565 0.0000 -5.8080
# 5 2.7208 -2.0196 4.6719 0.0000 19.8448 0.0000
# 6 0.0000 0.0000 0.0000 -5.8080 0.0000 18.6287
#
#
#
# Elastic Compliance Matrix: (Units=1/GPa)
#
#
# Indices 1 2 3 4 5 6 
#
# 1 0.018229 -0.003894 -0.005195 0.000000 -0.001673 0.000000
# 2 -0.003894 0.025699 -0.006847 0.000000 0.004761 0.000000
# 3 -0.005195 -0.006847 0.011776 0.000000 -0.002757 0.000000
# 4 0.000000 0.000000 0.000000 0.041587 0.000000 0.012966
# 5 -0.001673 0.004761 -0.002757 0.000000 0.051754 0.000000
# 6 0.000000 0.000000 0.000000 0.012966 0.000000 0.057723
#
#
# Mechanical properties :
#
#
# Convention : Reuss Voigt Hill
#
# Bulk Modulus (GPa) = 41.95901 52.98151 47.47026
# Shear Modulus (GPa) = 20.27695 22.66560 21.47127
#
# Velocity S-wave (km/s) = 3.60694 3.81348 3.71165
# Velocity P-wave (km/s) = 6.65344 7.30643 6.98757
#
# Compressibility (1/GPa) = 0.02383278
#
# Stress axis : x y z
#
# Youngs Moduli (GPa) = 54.85644 38.91182 84.91705
#
# Poissons Ratio (x) = 0.15151 0.44116
# Poissons Ratio (y) = 0.21359 0.58145
# Poissons Ratio (z) = 0.28499 0.26644
#
# Static dielectric constant tensor:
#      x y z
#    x 2.887630 0.000000 0.218820 
#    y 0.000000 2.981860 0.000000 
#    z 0.218820 0.000000 3.401820 
# 
# 
# High freq. dielectric constant tensor:
#      x y z
#    x 1.565470 0.000000 0.002140 
#    y 0.000000 1.597840 0.000000 
#    z 0.002140 0.000000 1.601180 
# 
# From -- ./inp_files/51108.got.cif
#   From: 2010.06.25/outbox.cif.g09.slc.cpg/sg11_26_cif.got.tgz:51108.got - 2010.06.27 23:14:04.
