data_PCOD8068805
_publ_section_title
;
Structure prediction by ZEFSAII (Michael W. Deem and Ramdas Pophale) SiO2 
 PCOD8068805
Probable space group: P 21/M
;
_chemical_formula_sum "Si O2"
_cell_formula_units_Z 32
_cell_length_a 15.912495
_cell_length_b 8.855320
_cell_length_c 28.134923
_cell_angle_alpha 90.000000
_cell_angle_beta 152.293454
_cell_angle_gamma 90.000000
_cell_volume 1843.266667
_symmetry_space_group_name_H-M "P 21/M"
_symmetry_group_IT_number 11
_symmetry_cell_setting 'monoclinic'
loop_
_space_group_symop_operation_xyz
x,y,z
-x,1/2+y,-z
-x,-y,-z
x,1/2-y,z
loop_
_atom_site_type_symbol
_atom_site_label
_atom_site_fract_x
_atom_site_fract_y
_atom_site_fract_z
Si Si1 0.928346 0.929310 0.853979
Si Si2 0.708974 0.071445 0.555849
Si Si3 0.313741 0.570793 0.629147
Si Si4 0.301132 0.070804 0.723834
Si Si5 0.066535 0.571919 0.419758
Si Si6 0.310917 0.571020 0.186876
Si Si7 0.703654 0.572225 0.651250
Si Si8 0.303404 0.927664 0.075605
O O1 0.906294 0.750000 0.848805
O O2 0.831668 0.986797 0.757758
O O3 0.845049 0.009581 0.857756
O O4 0.140311 0.980272 0.959370
O O5 0.725266 0.250000 0.567667
O O6 0.838288 0.002812 0.579473
O O7 0.502518 0.023238 0.441046
O O8 0.774262 0.002793 0.638308
O O9 0.328551 0.750000 0.640209
O O10 0.257493 0.503579 0.651522
O O11 0.164345 0.516688 0.516533
O O12 0.501614 0.504925 0.703851
O O13 0.300737 0.250000 0.715370
O O14 0.497670 0.013348 0.841419
O O15 0.144869 0.023445 0.683011
O O16 0.086615 0.750000 0.426002
O O17 0.327899 0.750000 0.200073
O O18 0.264829 0.518985 0.110127
O O19 0.719780 0.750000 0.653369
O O20 0.310873 0.750000 0.078653
#
# Coordination Sequence:
#
# PCOD8068805 Si02
#       8
#     4   4   4   4   4   4   4   4
#     4  10  18  30  48  67  89 119 153 185 224 271
#     4   9  17  31  48  66  88 114 145 180 223 272
#     4  10  18  29  45  67  95 125 154 182 220 266
#     4   9  17  31  47  66  93 121 153 189 222 258
#     4   9  17  29  48  69  90 120 154 187 222 266
#     4  10  19  30  44  67  96 122 152 187 222 261
#     4   9  18  31  47  67  90 114 142 181 226 271
#     4   8  16  29  45  65  90 121 153 185 219 260
#
# _framework density 17.360482999999999
#
# number of rings (size 3 to 8) (size 9 to 14) (size 15 to 20)
#    0.000    2.750    0.000    3.000    0.000    2.500 
#    0.000    7.500    0.000    0.750    0.000    0.000 
#    0.000    0.000    0.000    0.000    0.000    0.000 
#
# Total GULP energy -396628.117346 kJ/mol
# GULP energy per Si atom -12394.628667 kJ/mol
# Density = 1.732097 g / cm^3
# Si number density = 17.360483 Si / 1000 Ang^3
#
#
#
# Elastic Constant Matrix: (Units=GPa)
#
#
# Indices 1 2 3 4 5 6 
#
# 1 122.2764 18.7690 77.8719 0.0000 14.1017 0.0000
# 2 18.7690 28.3671 20.3436 0.0000 2.0888 0.0000
# 3 77.8719 20.3436 144.7655 0.0000 5.2708 0.0000
# 4 0.0000 0.0000 0.0000 17.2171 0.0000 -1.6704
# 5 14.1017 2.0888 5.2708 0.0000 22.9983 0.0000
# 6 0.0000 0.0000 0.0000 -1.6704 0.0000 23.4269
#
#
#
# Elastic Compliance Matrix: (Units=1/GPa)
#
#
# Indices 1 2 3 4 5 6 
#
# 1 0.013735 -0.003867 -0.006606 0.000000 -0.006557 0.000000
# 2 -0.003867 0.040415 -0.003582 0.000000 -0.000479 0.000000
# 3 -0.006606 -0.003582 0.010896 0.000000 0.001879 0.000000
# 4 0.000000 0.000000 0.000000 0.058486 0.000000 0.004170
# 5 -0.006557 -0.000479 0.001879 0.000000 0.047115 0.000000
# 6 0.000000 0.000000 0.000000 0.004170 0.000000 0.042983
#
#
# Mechanical properties :
#
#
# Convention : Reuss Voigt Hill
#
# Bulk Modulus (GPa) = 27.07407 58.81980 42.94693
# Shear Modulus (GPa) = 19.68095 24.62342 22.15219
#
# Velocity S-wave (km/s) = 3.37065 3.77020 3.57601
# Velocity P-wave (km/s) = 5.54774 7.27375 6.46858
#
# Compressibility (1/GPa) = 0.03693571
#
# Stress axis : x y z
#
# Youngs Moduli (GPa) = 72.80619 24.74345 91.77494
#
# Poissons Ratio (x) = 0.09569 0.60628
# Poissons Ratio (y) = 0.28157 0.32871
# Poissons Ratio (z) = 0.48097 0.08862
#
# Static dielectric constant tensor:
#      x y z
#    x 3.264020 0.000000 0.182980 
#    y 0.000000 3.001160 0.000000 
#    z 0.182980 0.000000 3.627710 
# 
# 
# High freq. dielectric constant tensor:
#      x y z
#    x 1.655630 0.000000 0.012140 
#    y 0.000000 1.647730 0.000000 
#    z 0.012140 0.000000 1.670960 
# 
# From -- ./inp_files/51715.got.cif
#   From: 2010.06.25/outbox.cif.g09.slc.cpg/sg11_26_cif.got.tgz:51715.got - 2010.06.27 23:14:04.
