data_PCOD8068615
_publ_section_title
;
Structure prediction by ZEFSAII (Michael W. Deem and Ramdas Pophale) SiO2 
 PCOD8068615
Probable space group: P 21/M
;
_chemical_formula_sum "Si O2"
_cell_formula_units_Z 32
_cell_length_a 18.476355
_cell_length_b 9.125244
_cell_length_c 18.194171
_cell_angle_alpha 90.000000
_cell_angle_beta 136.610340
_cell_angle_gamma 90.000000
_cell_volume 2107.279855
_symmetry_space_group_name_H-M "P 21/M"
_symmetry_group_IT_number 11
_symmetry_cell_setting 'monoclinic'
loop_
_space_group_symop_operation_xyz
x,y,z
-x,1/2+y,-z
-x,-y,-z
x,1/2-y,z
loop_
_atom_site_type_symbol
_atom_site_label
_atom_site_fract_x
_atom_site_fract_y
_atom_site_fract_z
Si Si1 0.581621 0.584399 0.657438
Si Si2 0.090855 0.077873 0.474370
Si Si3 0.493174 0.921905 0.261064
Si Si4 0.653015 0.415160 0.577394
Si Si5 0.508905 0.919723 0.890670
Si Si6 0.346189 0.081585 0.866748
Si Si7 0.114466 0.420357 0.658964
Si Si8 0.278446 0.078710 0.509115
O O1 0.621210 0.750000 0.700341
O O2 0.582038 0.495592 0.733814
O O3 0.660819 0.504454 0.659375
O O4 0.465917 0.585119 0.538236
O O5 0.077737 0.250000 0.457905
O O6 0.123235 0.030524 0.580463
O O7 0.181692 0.021908 0.486859
O O8 0.979842 0.005419 0.370095
O O9 0.469942 0.750000 0.242876
O O10 0.615044 0.956075 0.367886
O O11 0.462859 0.990745 0.160958
O O12 0.693233 0.250000 0.620232
O O13 0.726609 0.492352 0.571301
O O14 0.491956 0.750000 0.858687
O O15 0.402326 0.979916 0.848367
O O16 0.606378 0.943730 0.017713
O O17 0.360605 0.250000 0.851595
O O18 0.223451 0.038959 0.779507
O O19 0.088723 0.250000 0.646010
O O20 0.271028 0.250000 0.485593
#
# Coordination Sequence:
#
# PCOD8068615 Si02
#       8
#     4   4   4   4   4   4   4   4
#     4   9  16  26  39  56  80 109 140 170 201 240
#     4   9  17  28  42  61  82 105 137 173 206 242
#     4  10  18  28  42  59  83 113 141 170 205 243
#     4   9  16  25  38  57  80 107 139 171 203 240
#     4  10  19  29  43  63  83 105 138 175 207 243
#     4   9  18  32  46  59  80 110 139 169 208 250
#     4   9  17  30  45  59  79 108 138 169 208 248
#     4   9  17  28  41  57  81 113 142 169 204 244
#
# _framework density 15.185454
#
# number of rings (size 3 to 8) (size 9 to 14) (size 15 to 20)
#    0.000    2.750    0.000    2.250    0.000    7.000 
#    0.000    2.500    0.000    0.000    0.000    0.000 
#    0.000    1.000    0.000    3.000    0.000    4.625 
#
# Total GULP energy -396823.453839 kJ/mol
# GULP energy per Si atom -12400.732932 kJ/mol
# Density = 1.515089 g / cm^3
# Si number density = 15.185454 Si / 1000 Ang^3
#
#
#
# Elastic Constant Matrix: (Units=GPa)
#
#
# Indices 1 2 3 4 5 6 
#
# 1 112.9520 53.4721 42.9342 0.0000 -13.7229 0.0000
# 2 53.4721 86.6034 35.7768 0.0000 -13.4481 0.0000
# 3 42.9342 35.7768 58.4501 0.0000 -4.3903 0.0000
# 4 0.0000 0.0000 0.0000 20.8628 0.0000 -4.6175
# 5 -13.7229 -13.4481 -4.3903 0.0000 24.4420 0.0000
# 6 0.0000 0.0000 0.0000 -4.6175 0.0000 30.0496
#
#
#
# Elastic Compliance Matrix: (Units=1/GPa)
#
#
# Indices 1 2 3 4 5 6 
#
# 1 0.014623 -0.005494 -0.007084 0.000000 0.003914 0.000000
# 2 -0.005494 0.018758 -0.006997 0.000000 0.005979 0.000000
# 3 -0.007084 -0.006997 0.026363 0.000000 -0.003092 0.000000
# 4 0.000000 0.000000 0.000000 0.049620 0.000000 0.007625
# 5 0.003914 0.005979 -0.003092 0.000000 0.045846 0.000000
# 6 0.000000 0.000000 0.000000 0.007625 0.000000 0.034450
#
#
# Mechanical properties :
#
#
# Convention : Reuss Voigt Hill
#
# Bulk Modulus (GPa) = 48.55947 58.04130 53.30039
# Shear Modulus (GPa) = 21.21586 23.45905 22.33745
#
# Velocity S-wave (km/s) = 3.74186 3.93471 3.83949
# Velocity P-wave (km/s) = 7.12150 7.67771 7.40483
#
# Compressibility (1/GPa) = 0.02059330
#
# Stress axis : x y z
#
# Youngs Moduli (GPa) = 68.38747 53.31017 37.93255
#
# Poissons Ratio (x) = 0.29290 0.26871
# Poissons Ratio (y) = 0.37573 0.26541
# Poissons Ratio (z) = 0.48445 0.37300
#
# Static dielectric constant tensor:
#      x y z
#    x 2.925810 0.000000 -0.116580 
#    y 0.000000 3.031330 0.000000 
#    z -0.116580 0.000000 2.678870 
# 
# 
# High freq. dielectric constant tensor:
#      x y z
#    x 1.573210 0.000000 -0.017360 
#    y 0.000000 1.593620 0.000000 
#    z -0.017360 0.000000 1.541440 
# 
# From -- ./inp_files/59885.got.cif
#   From: 2010.06.25/outbox.cif.g09.slc.cpg/sg11_30_cif.got.tgz:59885.got - 2010.06.27 23:14:04.
