data_PCOD8068724
_publ_section_title
;
Structure prediction by ZEFSAII (Michael W. Deem and Ramdas Pophale) SiO2 
 PCOD8068724
Probable space group: P 21/M
;
_chemical_formula_sum "Si O2"
_cell_formula_units_Z 32
_cell_length_a 15.810582
_cell_length_b 9.102431
_cell_length_c 14.468752
_cell_angle_alpha 90.000000
_cell_angle_beta 61.950389
_cell_angle_gamma 90.000000
_cell_volume 1837.685111
_symmetry_space_group_name_H-M "P 21/M"
_symmetry_group_IT_number 11
_symmetry_cell_setting 'monoclinic'
loop_
_space_group_symop_operation_xyz
x,y,z
-x,1/2+y,-z
-x,-y,-z
x,1/2-y,z
loop_
_atom_site_type_symbol
_atom_site_label
_atom_site_fract_x
_atom_site_fract_y
_atom_site_fract_z
Si Si1 0.105433 0.921215 0.843329
Si Si2 0.641887 0.078466 0.777247
Si Si3 0.662527 0.418902 0.559685
Si Si4 0.089052 0.921722 0.065297
Si Si5 0.444498 0.924158 0.867108
Si Si6 0.556359 0.582332 0.317696
Si Si7 0.268005 0.080100 0.645017
Si Si8 0.271125 0.577463 0.079892
O O1 0.104290 0.750000 0.821094
O O2 0.191296 0.995367 0.744923
O O3 0.120865 0.951899 0.943788
O O4 0.005984 0.989872 0.859881
O O5 0.615125 0.250000 0.794432
O O6 0.684963 0.038295 0.654765
O O7 0.719442 0.037463 0.816299
O O8 0.544974 0.991237 0.847444
O O9 0.688068 0.250000 0.527122
O O10 0.551425 0.451673 0.594217
O O11 0.729464 0.518235 0.460467
O O12 0.068692 0.750000 0.091987
O O13 0.172451 0.986122 0.088901
O O14 0.453346 0.750000 0.863835
O O15 0.414544 0.975475 0.780411
O O16 0.363382 0.984246 0.978352
O O17 0.563113 0.750000 0.278490
O O18 0.627177 0.553433 0.365989
O O19 0.239409 0.250000 0.656722
O O20 0.267846 0.750000 0.064905
#
# Coordination Sequence:
#
# PCOD8068724 Si02
#       8
#     4   4   4   4   4   4   4   4
#     4  10  20  34  52  75 103 129 153 190 241 292
#     4   9  18  33  49  67  97 134 166 198 239 283
#     4   9  18  32  48  67  95 130 164 199 239 281
#     4   9  18  34  54  75  99 127 159 194 235 286
#     4  10  18  28  46  73 102 131 163 198 235 279
#     4   9  19  33  47  68  99 132 163 196 239 287
#     4  11  21  32  50  73  96 126 164 202 239 285
#     4   9  17  30  50  73  97 128 164 199 238 284
#
# _framework density 17.413212000000001
#
# number of rings (size 3 to 8) (size 9 to 14) (size 15 to 20)
#    0.000    2.500    0.000    3.375    0.000    4.500 
#    0.000    2.500    0.000    0.750    0.000    0.000 
#    0.000    0.000    0.000    0.000    0.000    0.000 
#
# Total GULP energy -396798.360316 kJ/mol
# GULP energy per Si atom -12399.948760 kJ/mol
# Density = 1.737358 g / cm^3
# Si number density = 17.413212 Si / 1000 Ang^3
#
#
#
# Elastic Constant Matrix: (Units=GPa)
#
#
# Indices 1 2 3 4 5 6 
#
# 1 101.8522 38.2928 44.0261 0.0000 11.2179 0.0000
# 2 38.2928 67.6966 43.1845 0.0000 -1.6052 0.0000
# 3 44.0261 43.1845 87.2941 0.0000 1.3214 0.0000
# 4 0.0000 0.0000 0.0000 28.2468 0.0000 -3.2508
# 5 11.2179 -1.6052 1.3214 0.0000 20.4461 0.0000
# 6 0.0000 0.0000 0.0000 -3.2508 0.0000 22.7908
#
#
#
# Elastic Compliance Matrix: (Units=1/GPa)
#
#
# Indices 1 2 3 4 5 6 
#
# 1 0.014834 -0.005691 -0.004540 0.000000 -0.008292 0.000000
# 2 -0.005691 0.023883 -0.009029 0.000000 0.005581 0.000000
# 3 -0.004540 -0.009029 0.018203 0.000000 0.000606 0.000000
# 4 0.000000 0.000000 0.000000 0.035993 0.000000 0.005134
# 5 -0.008292 0.005581 0.000606 0.000000 0.053857 0.000000
# 6 0.000000 0.000000 0.000000 0.005134 0.000000 0.044610
#
#
# Mechanical properties :
#
#
# Convention : Reuss Voigt Hill
#
# Bulk Modulus (GPa) = 54.35209 56.42774 55.38992
# Shear Modulus (GPa) = 21.18340 23.05272 22.11806
#
# Velocity S-wave (km/s) = 3.49164 3.64244 3.56784
# Velocity P-wave (km/s) = 6.89466 7.08275 6.98933
#
# Compressibility (1/GPa) = 0.01839856
#
# Stress axis : x y z
#
# Youngs Moduli (GPa) = 67.41459 41.87062 54.93573
#
# Poissons Ratio (x) = 0.23828 0.24943
# Poissons Ratio (y) = 0.38365 0.49603
# Poissons Ratio (z) = 0.30609 0.37806
#
# Static dielectric constant tensor:
#      x y z
#    x 3.297500 0.000000 0.106740 
#    y 0.000000 3.164060 0.000000 
#    z 0.106740 0.000000 3.148870 
# 
# 
# High freq. dielectric constant tensor:
#      x y z
#    x 1.660480 0.000000 0.008450 
#    y 0.000000 1.666460 0.000000 
#    z 0.008450 0.000000 1.665450 
# 
# From -- ./inp_files/51617.got.cif
#   From: 2010.06.25/outbox.cif.g09.slc.cpg/sg11_26_cif.got.tgz:51617.got - 2010.06.27 23:14:04.
