data_PCOD8068648
_publ_section_title
;
Structure prediction by ZEFSAII (Michael W. Deem and Ramdas Pophale) SiO2 
 PCOD8068648
Probable space group: P 21/M
;
_chemical_formula_sum "Si O2"
_cell_formula_units_Z 32
_cell_length_a 21.428418
_cell_length_b 8.857334
_cell_length_c 23.319424
_cell_angle_alpha 90.000000
_cell_angle_beta 155.711674
_cell_angle_gamma 90.000000
_cell_volume 1820.538687
_symmetry_space_group_name_H-M "P 21/M"
_symmetry_group_IT_number 11
_symmetry_cell_setting 'monoclinic'
loop_
_space_group_symop_operation_xyz
x,y,z
-x,1/2+y,-z
-x,-y,-z
x,1/2-y,z
loop_
_atom_site_type_symbol
_atom_site_label
_atom_site_fract_x
_atom_site_fract_y
_atom_site_fract_z
Si Si1 0.367456 0.572050 0.925317
Si Si2 0.476539 0.427840 0.236579
Si Si3 0.703175 0.070624 0.746506
Si Si4 0.159364 0.926522 0.651165
Si Si5 0.459610 0.929526 0.835206
Si Si6 0.158919 0.928009 0.255972
Si Si7 0.827475 0.928455 0.960653
Si Si8 0.589760 0.428765 0.450671
O O1 0.390997 0.750000 0.948979
O O2 0.207814 0.536487 0.758282
O O3 0.500000 0.500000 0.000000
O O4 0.390663 0.498671 0.007544
O O5 0.486672 0.250000 0.239740
O O6 0.534046 0.494759 0.224398
O O7 0.581222 0.484226 0.377324
O O8 0.303947 0.478507 0.105270
O O9 0.697375 0.250000 0.743102
O O10 0.766690 0.005848 0.739581
O O11 0.535933 0.005769 0.615160
O O12 0.813343 0.011523 0.888354
O O13 0.136514 0.750000 0.623576
O O14 0.298315 0.982531 0.726868
O O15 0.000000 0.000000 0.500000
O O16 0.474854 0.750000 0.851607
O O17 0.164497 0.750000 0.254558
O O18 0.249365 0.979310 0.388513
O O19 0.986650 0.982018 0.120647
O O20 0.819638 0.750000 0.942535
O O21 0.562014 0.250000 0.430391
#
# Coordination Sequence:
#
# PCOD8068648 Si02
#       8
#     4   4   4   4   4   4   4   4
#     4   9  17  30  48  72  96 122 152 184 218 258
#     4   8  15  29  49  67  87 117 155 190 223 265
#     4  10  18  28  43  66  92 118 149 189 232 280
#     4   9  18  30  46  69  99 123 145 179 220 261
#     4   9  17  31  49  71  94 120 154 190 222 264
#     4   9  17  28  45  68  91 114 149 193 237 278
#     4   9  17  31  48  66  88 117 151 190 231 276
#     4   9  17  31  48  65  88 121 153 187 228 274
#
# _framework density 17.577217000000001
#
# number of rings (size 3 to 8) (size 9 to 14) (size 15 to 20)
#    0.000    3.000    0.000    3.000    0.000    2.500 
#    0.000    5.625    0.000    4.500    0.000    0.000 
#    0.000    0.000    0.000    0.000    0.000    0.000 
#
# Total GULP energy -396469.446860 kJ/mol
# GULP energy per Si atom -12389.670214 kJ/mol
# Density = 1.753721 g / cm^3
# Si number density = 17.577217 Si / 1000 Ang^3
#
#
#
# Elastic Constant Matrix: (Units=GPa)
#
#
# Indices 1 2 3 4 5 6 
#
# 1 113.6295 17.3809 71.2901 0.0000 -18.6782 0.0000
# 2 17.3809 36.1532 29.8173 0.0000 -2.0805 0.0000
# 3 71.2901 29.8173 175.5017 0.0000 -9.8637 0.0000
# 4 0.0000 0.0000 0.0000 25.9430 0.0000 -1.7461
# 5 -18.6782 -2.0805 -9.8637 0.0000 18.2397 0.0000
# 6 0.0000 0.0000 0.0000 -1.7461 0.0000 18.0883
#
#
#
# Elastic Compliance Matrix: (Units=1/GPa)
#
#
# Indices 1 2 3 4 5 6 
#
# 1 0.013944 -0.002213 -0.004641 0.000000 0.011517 0.000000
# 2 -0.002213 0.032528 -0.004689 0.000000 -0.001092 0.000000
# 3 -0.004641 -0.004689 0.008336 0.000000 -0.000779 0.000000
# 4 0.000000 0.000000 0.000000 0.038798 0.000000 0.003745
# 5 0.011517 -0.001092 -0.000779 0.000000 0.066073 0.000000
# 6 0.000000 0.000000 0.000000 0.003745 0.000000 0.055646
#
#
# Mechanical properties :
#
#
# Convention : Reuss Voigt Hill
#
# Bulk Modulus (GPa) = 31.52364 62.47345 46.99854
# Shear Modulus (GPa) = 20.08151 26.24060 23.16106
#
# Velocity S-wave (km/s) = 3.38372 3.86797 3.63392
# Velocity P-wave (km/s) = 5.76536 7.45437 6.66360
#
# Compressibility (1/GPa) = 0.03172223
#
# Stress axis : x y z
#
# Youngs Moduli (GPa) = 71.71655 30.74243 119.96357
#
# Poissons Ratio (x) = 0.06804 0.55672
# Poissons Ratio (y) = 0.15874 0.56248
# Poissons Ratio (z) = 0.33282 0.14414
#
# Static dielectric constant tensor:
#      x y z
#    x 3.400960 0.000000 -0.261490 
#    y 0.000000 3.101210 0.000000 
#    z -0.261490 0.000000 3.875410 
# 
# 
# High freq. dielectric constant tensor:
#      x y z
#    x 1.660040 0.000000 -0.014550 
#    y 0.000000 1.653610 0.000000 
#    z -0.014550 0.000000 1.688280 
# 
# From -- ./inp_files/27958.got.cif
#   From: 2010.06.25/outbox.cif.g09.slc.cpg/sg11_14_cif.got.tgz:27958.got - 2010.06.27 23:14:04.
