data_PCOD8068986
_publ_section_title
;
Structure prediction by ZEFSAII (Michael W. Deem and Ramdas Pophale) SiO2 
 PCOD8068986
Probable space group: P 21/M
;
_chemical_formula_sum "Si O2"
_cell_formula_units_Z 32
_cell_length_a 20.550048
_cell_length_b 8.763721
_cell_length_c 31.132574
_cell_angle_alpha 90.000000
_cell_angle_beta 159.067931
_cell_angle_gamma 90.000000
_cell_volume 2003.096220
_symmetry_space_group_name_H-M "P 21/M"
_symmetry_group_IT_number 11
_symmetry_cell_setting 'monoclinic'
loop_
_space_group_symop_operation_xyz
x,y,z
-x,1/2+y,-z
-x,-y,-z
x,1/2-y,z
loop_
_atom_site_type_symbol
_atom_site_label
_atom_site_fract_x
_atom_site_fract_y
_atom_site_fract_z
Si Si1 0.725775 0.918071 0.820553
Si Si2 0.012116 0.918111 0.073090
Si Si3 0.056634 0.431689 0.489810
Si Si4 0.239384 0.928318 0.758917
Si Si5 0.553116 0.068288 0.282791
Si Si6 0.270269 0.570535 0.044324
Si Si7 0.308592 0.929398 0.893973
Si Si8 0.648166 0.568904 0.994137
O O1 0.686025 0.750000 0.777527
O O2 0.546273 0.981852 0.734066
O O3 0.789052 0.022488 0.819658
O O4 0.884505 0.908228 0.953247
O O5 0.036493 0.750000 0.108455
O O6 0.923312 0.030182 0.053309
O O7 0.055142 0.250000 0.491473
O O8 0.253672 0.488373 0.597564
O O9 0.000000 0.500000 0.500000
O O10 0.914588 0.497552 0.367038
O O11 0.249517 0.750000 0.757051
O O12 0.184875 0.961517 0.775245
O O13 0.439767 0.991710 0.870126
O O14 0.572172 0.250000 0.291181
O O15 0.437374 0.014012 0.170532
O O16 0.302857 0.750000 0.066866
O O17 0.259883 0.513281 0.989327
O O18 0.326250 0.750000 0.913830
O O19 0.238093 0.014638 0.893418
O O20 0.500000 0.000000 0.000000
O O21 0.662039 0.750000 0.997882
#
# Coordination Sequence:
#
# PCOD8068986 Si02
#       8
#     4   4   4   4   4   4   4   4
#     4   8  15  27  42  58  80 111 145 179 216 259
#     4   9  16  26  41  61  85 112 141 177 218 257
#     4  11  21  33  47  64  87 119 156 190 223 258
#     4   8  17  31  46  61  83 114 146 183 222 257
#     4  10  20  33  45  61  87 118 151 189 226 257
#     4  11  20  29  43  64  89 119 151 179 214 266
#     4   9  16  29  46  64  84 110 144 181 222 266
#     4  10  18  30  46  65  89 115 143 181 226 266
#
# _framework density 15.975268
#
# number of rings (size 3 to 8) (size 9 to 14) (size 15 to 20)
#    0.000    2.500    0.000    5.250    0.000    4.500 
#    0.000    6.875    0.000    0.000    0.000    0.000 
#    0.000    1.000    0.000    3.000    0.000    4.875 
#
# Total GULP energy -396591.499836 kJ/mol
# GULP energy per Si atom -12393.484370 kJ/mol
# Density = 1.593891 g / cm^3
# Si number density = 15.975268 Si / 1000 Ang^3
#
#
#
# Elastic Constant Matrix: (Units=GPa)
#
#
# Indices 1 2 3 4 5 6 
#
# 1 111.5896 37.0371 50.7493 0.0000 -0.2321 0.0000
# 2 37.0371 75.0845 23.8087 0.0000 -0.0683 0.0000
# 3 50.7493 23.8087 59.7684 0.0000 -3.1398 0.0000
# 4 0.0000 0.0000 0.0000 16.9713 0.0000 1.1480
# 5 -0.2321 -0.0683 -3.1398 0.0000 25.5197 0.0000
# 6 0.0000 0.0000 0.0000 1.1480 0.0000 30.9403
#
#
#
# Elastic Compliance Matrix: (Units=1/GPa)
#
#
# Indices 1 2 3 4 5 6 
#
# 1 0.015624 -0.003982 -0.011749 0.000000 -0.001314 0.000000
# 2 -0.003982 0.016272 -0.003120 0.000000 -0.000377 0.000000
# 3 -0.011749 -0.003120 0.028126 0.000000 0.003345 0.000000
# 4 0.000000 0.000000 0.000000 0.059071 0.000000 -0.002192
# 5 -0.001314 -0.000377 0.003345 0.000000 0.039584 0.000000
# 6 0.000000 0.000000 0.000000 -0.002192 0.000000 0.032402
#
#
# Mechanical properties :
#
#
# Convention : Reuss Voigt Hill
#
# Bulk Modulus (GPa) = 44.80568 52.18141 48.49355
# Shear Modulus (GPa) = 21.16674 23.67608 22.42141
#
# Velocity S-wave (km/s) = 3.64396 3.85391 3.75041
# Velocity P-wave (km/s) = 6.76849 7.24833 7.01251
#
# Compressibility (1/GPa) = 0.02231860
#
# Stress axis : x y z
#
# Youngs Moduli (GPa) = 64.00593 61.45603 35.55482
#
# Poissons Ratio (x) = 0.24475 0.41772
# Poissons Ratio (y) = 0.25490 0.11094
# Poissons Ratio (z) = 0.75198 0.19175
#
# Static dielectric constant tensor:
#      x y z
#    x 3.218900 0.000000 -0.064810 
#    y 0.000000 3.179800 0.000000 
#    z -0.064810 0.000000 2.922910 
# 
# 
# High freq. dielectric constant tensor:
#      x y z
#    x 1.618870 0.000000 0.001370 
#    y 0.000000 1.622220 0.000000 
#    z 0.001370 0.000000 1.559780 
# 
# From -- ./inp_files/73640.got.cif
#   From: 2010.06.25/outbox.cif.g09.slc.cpg/sg11_37_cif.got.tgz:73640.got - 2010.06.27 23:14:04.
