data_PCOD8068258
_publ_section_title
;
Structure prediction by ZEFSAII (Michael W. Deem and Ramdas Pophale) SiO2 
 PCOD8068258
Probable space group: P 21/M
;
_chemical_formula_sum "Si O2"
_cell_formula_units_Z 28
_cell_length_a 14.342933
_cell_length_b 9.479115
_cell_length_c 16.883471
_cell_angle_alpha 90.000000
_cell_angle_beta 51.536731
_cell_angle_gamma 90.000000
_cell_volume 1797.352188
_symmetry_space_group_name_H-M "P 21/M"
_symmetry_group_IT_number 11
_symmetry_cell_setting 'monoclinic'
loop_
_space_group_symop_operation_xyz
x,y,z
-x,1/2+y,-z
-x,-y,-z
x,1/2-y,z
loop_
_atom_site_type_symbol
_atom_site_label
_atom_site_fract_x
_atom_site_fract_y
_atom_site_fract_z
Si Si1 0.596788 0.413517 0.120153
Si Si2 0.322470 0.409550 0.067983
Si Si3 0.952265 0.908127 0.765993
Si Si4 0.081658 0.415430 0.397565
Si Si5 0.175962 0.587559 0.907196
Si Si6 0.660733 0.585484 0.766829
Si Si7 0.034551 0.086389 0.861118
O O1 0.615922 0.250000 0.089890
O O2 0.690021 0.458007 0.138872
O O3 0.459534 0.442666 0.220809
O O4 0.615516 0.496093 0.029901
O O5 0.369666 0.250000 0.033117
O O6 0.181300 0.414494 0.131578
O O7 0.356532 0.476082 0.135469
O O8 0.002862 0.750000 0.751383
O O9 0.959300 0.950336 0.670138
O O10 0.029569 0.017081 0.776868
O O11 0.069650 0.250000 0.422301
O O12 0.218407 0.471285 0.338218
O O13 0.000000 0.500000 0.500000
O O14 0.169830 0.750000 0.882539
O O15 0.140420 0.487715 0.853664
O O16 0.089898 0.563263 0.027644
O O17 0.685854 0.750000 0.767455
O O18 0.066119 0.250000 0.834857
#
# Coordination Sequence:
#
# PCOD8068258 Si02
#       7
#     4   4   4   4   4   4   4
#     4  10  17  27  42  61  87 119 151 180 208 250
#     4   9  16  26  40  60  87 119 148 175 209 252
#     4   9  17  29  45  63  89 120 147 178 221 266
#     4   9  18  33  50  69  90 115 145 180 224 268
#     4   9  18  28  39  59  88 121 153 183 216 252
#     4   8  16  29  44  62  87 117 146 175 215 264
#     4  10  18  28  42  62  86 116 155 190 217 250
#
# _framework density 15.578471
#
# number of rings (size 3 to 8) (size 9 to 14) (size 15 to 20)
#    0.000    2.857    1.429    2.571    0.000    1.714 
#    0.000    2.857    0.000    0.000    0.000    1.000 
#    0.000    0.000    0.000    0.000    0.000    0.000 
#
# Total GULP energy -347028.238599 kJ/mol
# GULP energy per Si atom -12393.865664 kJ/mol
# Density = 1.554301 g / cm^3
# Si number density = 15.578471 Si / 1000 Ang^3
#
#
#
# Elastic Constant Matrix: (Units=GPa)
#
#
# Indices 1 2 3 4 5 6 
#
# 1 128.8247 54.2519 51.1280 0.0000 -2.8167 0.0000
# 2 54.2519 64.3081 39.4779 0.0000 2.3227 0.0000
# 3 51.1280 39.4779 74.0611 0.0000 -4.9679 0.0000
# 4 0.0000 0.0000 0.0000 23.7462 0.0000 4.5829
# 5 -2.8167 2.3227 -4.9679 0.0000 14.5081 0.0000
# 6 0.0000 0.0000 0.0000 4.5829 0.0000 20.1103
#
#
#
# Elastic Compliance Matrix: (Units=1/GPa)
#
#
# Indices 1 2 3 4 5 6 
#
# 1 0.013119 -0.008462 -0.004385 0.000000 0.002400 0.000000
# 2 -0.008462 0.029543 -0.010576 0.000000 -0.009994 0.000000
# 3 -0.004385 -0.010576 0.022746 0.000000 0.008630 0.000000
# 4 0.000000 0.000000 0.000000 0.044049 0.000000 -0.010038
# 5 0.002400 -0.009994 0.008630 0.000000 0.073948 0.000000
# 6 0.000000 0.000000 0.000000 -0.010038 0.000000 0.052013
#
#
# Mechanical properties :
#
#
# Convention : Reuss Voigt Hill
#
# Bulk Modulus (GPa) = 53.87615 61.87885 57.87750
# Shear Modulus (GPa) = 17.33393 19.82866 18.58129
#
# Velocity S-wave (km/s) = 3.33931 3.57154 3.45737
# Velocity P-wave (km/s) = 7.03753 7.53756 7.29183
#
# Compressibility (1/GPa) = 0.01856109
#
# Stress axis : x y z
#
# Youngs Moduli (GPa) = 76.22536 33.84942 43.96426
#
# Poissons Ratio (x) = 0.28645 0.19277
# Poissons Ratio (y) = 0.64505 0.46496
# Poissons Ratio (z) = 0.33423 0.35799
#
# Static dielectric constant tensor:
#      x y z
#    x 3.095780 0.000000 -0.039660 
#    y 0.000000 2.887440 0.000000 
#    z -0.039660 0.000000 2.622140 
# 
# 
# High freq. dielectric constant tensor:
#      x y z
#    x 1.601870 0.000000 0.002650 
#    y 0.000000 1.590340 0.000000 
#    z 0.002650 0.000000 1.551300 
# 
# From -- ./inp_files/50971.got.cif
#   From: 2010.06.25/outbox.cif.g09.slc.cpg/sg11_26_cif.got.tgz:50971.got - 2010.06.27 23:14:04.
