data_PCOD8068353
_publ_section_title
;
Structure prediction by ZEFSAII (Michael W. Deem and Ramdas Pophale) SiO2 
 PCOD8068353
Probable space group: P 21/M
;
_chemical_formula_sum "Si O2"
_cell_formula_units_Z 28
_cell_length_a 7.583747
_cell_length_b 29.204104
_cell_length_c 5.509413
_cell_angle_alpha 90.000000
_cell_angle_beta 57.352272
_cell_angle_gamma 90.000000
_cell_volume 1027.417236
_symmetry_space_group_name_H-M "P 21/M"
_symmetry_group_IT_number 11
_symmetry_cell_setting 'monoclinic'
loop_
_space_group_symop_operation_xyz
x,y,z
-x,1/2+y,-z
-x,-y,-z
x,1/2-y,z
loop_
_atom_site_type_symbol
_atom_site_label
_atom_site_fract_x
_atom_site_fract_y
_atom_site_fract_z
Si Si1 0.975878 0.696606 0.997997
Si Si2 0.321812 0.497371 0.360517
Si Si3 0.482101 0.197708 0.154114
Si Si4 0.970846 0.844991 0.500585
Si Si5 0.491375 0.668980 0.364137
Si Si6 0.392592 0.431799 0.728719
Si Si7 0.018444 0.060512 0.295186
O O1 0.028130 0.750000 0.970336
O O2 0.074672 0.675784 0.673007
O O3 0.069989 0.674280 0.176175
O O4 0.726417 0.688853 0.177888
O O5 0.406410 0.455937 0.459034
O O6 0.513560 0.531686 0.135791
O O7 0.165060 0.481093 0.273917
O O8 0.196510 0.535896 0.621030
O O9 0.406445 0.250000 0.198195
O O10 0.614023 0.189145 0.307867
O O11 0.278762 0.164947 0.316205
O O12 0.616255 0.185145 0.810936
O O13 0.008603 0.899675 0.482925
O O14 0.474082 0.614316 0.383440
O O15 0.150577 0.418633 0.969990
#
# Coordination Sequence:
#
# PCOD8068353 Si02
#       7
#     4   4   4   4   4   4   4
#     4  10  17  29  49  85 115 149 198 243 293 357
#     4  10  24  38  60  86 114 164 196 254 300 364
#     4  10  17  29  49  85 115 149 198 243 293 357
#     4  10  18  29  52  78 118 149 188 252 288 350
#     4  10  18  29  52  78 118 149 188 252 288 350
#     4  11  21  39  59  85 122 152 207 243 308 353
#     4  11  21  39  59  85 122 152 207 243 308 353
#
# _framework density 27.252804999999999
#
# number of rings (size 3 to 8) (size 9 to 14) (size 15 to 20)
#    0.000    1.714    2.857    6.857    0.000    0.000 
#    0.000    0.000    0.000    0.000    0.000   11.000 
#    0.000    0.000    0.000    0.000    0.000    0.000 
#
# Total GULP energy -347036.997149 kJ/mol
# GULP energy per Si atom -12394.178470 kJ/mol
# Density = 2.719078 g / cm^3
# Si number density = 27.252805 Si / 1000 Ang^3
#
#
#
# Elastic Constant Matrix: (Units=GPa)
#
#
# Indices 1 2 3 4 5 6 
#
# 1 74.4312 14.8585 23.6554 0.0000 37.3306 0.0000
# 2 14.8585 143.7507 33.2289 0.0000 4.1310 0.0000
# 3 23.6554 33.2289 155.6868 0.0000 32.9278 0.0000
# 4 0.0000 0.0000 0.0000 35.2543 0.0000 9.0630
# 5 37.3306 4.1310 32.9278 0.0000 35.6661 0.0000
# 6 0.0000 0.0000 0.0000 9.0630 0.0000 24.6733
#
#
#
# Elastic Compliance Matrix: (Units=1/GPa)
#
#
# Indices 1 2 3 4 5 6 
#
# 1 0.030145 -0.002890 0.003279 0.000000 -0.034245 0.000000
# 2 -0.002890 0.007610 -0.002036 0.000000 0.004023 0.000000
# 3 0.003279 -0.002036 0.008743 0.000000 -0.011268 0.000000
# 4 0.000000 0.000000 0.000000 0.031323 0.000000 -0.011506
# 5 -0.034245 0.004023 -0.011268 0.000000 0.073818 0.000000
# 6 0.000000 0.000000 0.000000 -0.011506 0.000000 0.044756
#
#
# Mechanical properties :
#
#
# Convention : Reuss Voigt Hill
#
# Bulk Modulus (GPa) = 23.14556 57.48382 40.31469
# Shear Modulus (GPa) = 23.35471 39.26046 31.30758
#
# Velocity S-wave (km/s) = 2.93057 3.79964 3.39305
# Velocity P-wave (km/s) = 4.46793 6.35518 5.49321
#
# Compressibility (1/GPa) = 0.04320484
#
# Stress axis : x y z
#
# Youngs Moduli (GPa) = 33.17273 131.40215 114.38232
#
# Poissons Ratio (x) = 0.37973 -0.37509
# Poissons Ratio (y) = 0.09586 0.23289
# Poissons Ratio (z) = -0.10878 0.26754
#
# Static dielectric constant tensor:
#      x y z
#    x 5.154330 0.000000 0.251860 
#    y 0.000000 4.832090 0.000000 
#    z 0.251860 0.000000 5.800360 
# 
# 
# High freq. dielectric constant tensor:
#      x y z
#    x 2.108010 0.000000 -0.007740 
#    y 0.000000 2.100130 0.000000 
#    z -0.007740 0.000000 2.109100 
# 
# From -- ./inp_files/3333.got.cif
#   From: 2010.06.25/outbox.cif.g09.slc.cpg/sg11_2_cif.got.tgz:3333.got - 2010.06.27 23:14:04.
