data_PCOD8068385
_publ_section_title
;
Structure prediction by ZEFSAII (Michael W. Deem and Ramdas Pophale) SiO2 
 PCOD8068385
Probable space group: P 21/M
;
_chemical_formula_sum "Si O2"
_cell_formula_units_Z 32
_cell_length_a 14.982545
_cell_length_b 8.974794
_cell_length_c 15.062958
_cell_angle_alpha 90.000000
_cell_angle_beta 78.205808
_cell_angle_gamma 90.000000
_cell_volume 1982.683533
_symmetry_space_group_name_H-M "P 21/M"
_symmetry_group_IT_number 11
_symmetry_cell_setting 'monoclinic'
loop_
_space_group_symop_operation_xyz
x,y,z
-x,1/2+y,-z
-x,-y,-z
x,1/2-y,z
loop_
_atom_site_type_symbol
_atom_site_label
_atom_site_fract_x
_atom_site_fract_y
_atom_site_fract_z
Si Si1 0.414568 0.926408 0.700558
Si Si2 0.750950 0.574229 0.737831
Si Si3 0.374085 0.075964 0.077012
Si Si4 0.710259 0.926961 0.414783
Si Si5 0.920680 0.424268 0.628170
Si Si6 0.106635 0.575464 0.570463
Si Si7 0.615330 0.926384 0.613557
Si Si8 0.429717 0.575460 0.898870
O O1 0.405406 0.750000 0.686732
O O2 0.513079 0.986495 0.648258
O O3 0.400374 0.969859 0.806051
O O4 0.337109 0.013357 0.663752
O O5 0.767866 0.750000 0.722235
O O6 0.710547 0.535595 0.842609
O O7 0.845642 0.487054 0.710889
O O8 0.681194 0.512964 0.677484
O O9 0.379321 0.250000 0.059277
O O10 0.466956 0.019576 0.105229
O O11 0.361350 0.998497 0.983997
O O12 0.717620 0.750000 0.411005
O O13 0.652019 0.982453 0.511383
O O14 0.810575 0.995000 0.397667
O O15 0.935642 0.250000 0.640649
O O16 0.887770 0.459638 0.535188
O O17 0.014349 0.508818 0.629984
O O18 0.110093 0.750000 0.589612
O O19 0.613508 0.750000 0.620688
O O20 0.423561 0.750000 0.912969
#
# Coordination Sequence:
#
# PCOD8068385 Si02
#       8
#     4   4   4   4   4   4   4   4
#     4  10  19  33  49  66  94 134 172 202 238 287
#     4  10  17  30  50  71  97 132 163 192 240 295
#     4   9  17  29  48  70  94 125 161 200 243 288
#     4  11  21  32  48  70  96 129 167 208 243 275
#     4  10  20  32  49  73  98 123 157 202 244 283
#     4  10  20  34  50  69  94 128 163 197 240 290
#     4   9  17  30  47  66  95 132 168 199 232 280
#     4   9  17  30  47  67  93 127 163 202 244 283
#
# _framework density 16.139741000000001
#
# number of rings (size 3 to 8) (size 9 to 14) (size 15 to 20)
#    0.000    2.250    2.500    1.500    0.000    2.000 
#    0.000    1.250    0.000    0.000    0.000    0.875 
#    0.000    0.000    0.000    0.000    0.000    0.000 
#
# Total GULP energy -396852.661475 kJ/mol
# GULP energy per Si atom -12401.645671 kJ/mol
# Density = 1.610301 g / cm^3
# Si number density = 16.139741 Si / 1000 Ang^3
#
#
#
# Elastic Constant Matrix: (Units=GPa)
#
#
# Indices 1 2 3 4 5 6 
#
# 1 116.1643 44.4278 64.2530 0.0000 -4.4516 0.0000
# 2 44.4278 53.7806 44.6057 0.0000 -1.6004 0.0000
# 3 64.2530 44.6057 115.2463 0.0000 -4.9275 0.0000
# 4 0.0000 0.0000 0.0000 26.6104 0.0000 -1.4795
# 5 -4.4516 -1.6004 -4.9275 0.0000 19.5710 0.0000
# 6 0.0000 0.0000 0.0000 -1.4795 0.0000 25.8673
#
#
#
# Elastic Compliance Matrix: (Units=1/GPa)
#
#
# Indices 1 2 3 4 5 6 
#
# 1 0.014350 -0.007698 -0.004962 0.000000 0.001385 0.000000
# 2 -0.007698 0.031518 -0.007958 0.000000 -0.001177 0.000000
# 3 -0.004962 -0.007958 0.014605 0.000000 0.001898 0.000000
# 4 0.000000 0.000000 0.000000 0.037699 0.000000 0.002156
# 5 0.001385 -0.001177 0.001898 0.000000 0.051793 0.000000
# 6 0.000000 0.000000 0.000000 0.002156 0.000000 0.038782
#
#
# Mechanical properties :
#
#
# Convention : Reuss Voigt Hill
#
# Bulk Modulus (GPa) = 51.97999 65.75156 58.86578
# Shear Modulus (GPa) = 21.15105 23.20339 22.17722
#
# Velocity S-wave (km/s) = 3.62400 3.79576 3.71087
# Velocity P-wave (km/s) = 7.05601 7.74840 7.41030
#
# Compressibility (1/GPa) = 0.01923817
#
# Stress axis : x y z
#
# Youngs Moduli (GPa) = 69.68491 31.72759 68.47175
#
# Poissons Ratio (x) = 0.24424 0.33975
# Poissons Ratio (y) = 0.53644 0.54487
# Poissons Ratio (z) = 0.34577 0.25247
#
# Static dielectric constant tensor:
#      x y z
#    x 2.951570 0.000000 -0.090740 
#    y 0.000000 2.916780 0.000000 
#    z -0.090740 0.000000 3.031240 
# 
# 
# High freq. dielectric constant tensor:
#      x y z
#    x 1.605400 0.000000 -0.010100 
#    y 0.000000 1.614530 0.000000 
#    z -0.010100 0.000000 1.608090 
# 
# From -- ./inp_files/51215.got.cif
#   From: 2010.06.25/outbox.cif.g09.slc.cpg/sg11_26_cif.got.tgz:51215.got - 2010.06.27 23:14:04.
