data_PCOD8068863
_publ_section_title
;
Structure prediction by ZEFSAII (Michael W. Deem and Ramdas Pophale) SiO2 
 PCOD8068863
Probable space group: P 21/M
;
_chemical_formula_sum "Si O2"
_cell_formula_units_Z 32
_cell_length_a 21.882712
_cell_length_b 8.639248
_cell_length_c 29.992425
_cell_angle_alpha 90.000000
_cell_angle_beta 19.126394
_cell_angle_gamma 90.000000
_cell_volume 1857.817445
_symmetry_space_group_name_H-M "P 21/M"
_symmetry_group_IT_number 11
_symmetry_cell_setting 'monoclinic'
loop_
_space_group_symop_operation_xyz
x,y,z
-x,1/2+y,-z
-x,-y,-z
x,1/2-y,z
loop_
_atom_site_type_symbol
_atom_site_label
_atom_site_fract_x
_atom_site_fract_y
_atom_site_fract_z
Si Si1 0.166561 0.567089 0.414799
Si Si2 0.528685 0.926893 0.551413
Si Si3 0.234535 0.930991 0.688658
Si Si4 0.504519 0.067247 0.131062
Si Si5 0.069738 0.567125 0.152971
Si Si6 0.043421 0.933602 0.595098
Si Si7 0.175004 0.568627 0.599345
Si Si8 0.373482 0.433135 0.125280
O O1 0.148913 0.750000 0.424393
O O2 0.369524 0.513560 0.259415
O O3 0.000000 0.500000 0.500000
O O4 0.147913 0.507520 0.478684
O O5 0.552906 0.750000 0.549411
O O6 0.312697 0.960445 0.685345
O O7 0.651283 0.959263 0.423261
O O8 0.608888 0.031577 0.536394
O O9 0.259898 0.750000 0.658654
O O10 0.020622 0.983784 0.828578
O O11 0.478710 0.250000 0.153109
O O12 0.449512 0.007821 0.120093
O O13 0.715813 0.014792 0.994432
O O14 0.051380 0.750000 0.161089
O O15 0.968222 0.514733 0.268455
O O16 0.039326 0.750000 0.598295
O O17 0.833723 0.998946 0.738788
O O18 0.144045 0.994608 0.570581
O O19 0.137598 0.750000 0.628390
O O20 0.378168 0.250000 0.119663
O O21 0.500000 0.500000 0.000000
#
# Coordination Sequence:
#
# PCOD8068863 Si02
#       8
#     4   4   4   4   4   4   4   4
#     4  11  21  37  57  73  92 122 163 207 248 288
#     4   9  16  26  41  64  95 128 160 195 234 276
#     4   9  16  26  42  64  93 129 164 193 228 282
#     4  10  21  36  51  70  98 128 159 202 247 283
#     4  10  19  30  46  70 102 131 157 197 242 282
#     4   9  19  34  50  68  95 126 155 198 244 280
#     4  10  18  29  47  70  98 130 162 194 235 289
#     4  10  19  33  49  67  97 127 156 192 232 284
#
# _framework density 17.224512000000001
#
# number of rings (size 3 to 8) (size 9 to 14) (size 15 to 20)
#    0.000    2.250    1.250    4.125    0.000    3.000 
#    0.000    3.125    0.000    0.000    0.000    0.875 
#    0.000    0.000    0.000    0.000    0.000    0.000 
#
# Total GULP energy -396594.793264 kJ/mol
# GULP energy per Si atom -12393.587289 kJ/mol
# Density = 1.718531 g / cm^3
# Si number density = 17.224512 Si / 1000 Ang^3
#
#
#
# Elastic Constant Matrix: (Units=GPa)
#
#
# Indices 1 2 3 4 5 6 
#
# 1 156.5227 32.8216 87.8118 0.0000 -24.8878 0.0000
# 2 32.8216 39.0816 24.1767 0.0000 -2.8524 0.0000
# 3 87.8118 24.1767 95.4525 0.0000 1.6556 0.0000
# 4 0.0000 0.0000 0.0000 24.7207 0.0000 -3.4610
# 5 -24.8878 -2.8524 1.6556 0.0000 27.1526 0.0000
# 6 0.0000 0.0000 0.0000 -3.4610 0.0000 24.1757
#
#
#
# Elastic Compliance Matrix: (Units=1/GPa)
#
#
# Indices 1 2 3 4 5 6 
#
# 1 0.020685 -0.004697 -0.018179 0.000000 0.019575 0.000000
# 2 -0.004697 0.031776 -0.003714 0.000000 -0.000741 0.000000
# 3 -0.018179 -0.003714 0.028467 0.000000 -0.018789 0.000000
# 4 0.000000 0.000000 0.000000 0.041279 0.000000 0.005910
# 5 0.019575 -0.000741 -0.018789 0.000000 0.055839 0.000000
# 6 0.000000 0.000000 0.000000 0.005910 0.000000 0.042210
#
#
# Mechanical properties :
#
#
# Convention : Reuss Voigt Hill
#
# Bulk Modulus (GPa) = 36.04015 64.51968 50.27991
# Shear Modulus (GPa) = 17.68748 24.95955 21.32351
#
# Velocity S-wave (km/s) = 3.20797 3.81080 3.52230
# Velocity P-wave (km/s) = 5.88987 7.54336 6.76731
#
# Compressibility (1/GPa) = 0.02774683
#
# Stress axis : x y z
#
# Youngs Moduli (GPa) = 48.34426 31.47026 35.12849
#
# Poissons Ratio (x) = 0.14782 0.63860
# Poissons Ratio (y) = 0.22708 0.13048
# Poissons Ratio (z) = 0.87885 0.11689
#
# Static dielectric constant tensor:
#      x y z
#    x 3.778180 0.000000 -0.343510 
#    y 0.000000 3.107380 0.000000 
#    z -0.343510 0.000000 3.145460 
# 
# 
# High freq. dielectric constant tensor:
#      x y z
#    x 1.673600 0.000000 -0.025970 
#    y 0.000000 1.663290 0.000000 
#    z -0.025970 0.000000 1.630270 
# 
# From -- ./inp_files/72046.got.cif
#   From: 2010.06.25/outbox.cif.g09.slc.cpg/sg11_37_cif.got.tgz:72046.got - 2010.06.27 23:14:04.
