data_PCOD8068205
_publ_section_title
;
Structure prediction by ZEFSAII (Michael W. Deem and Ramdas Pophale) SiO2 
 PCOD8068205
Probable space group: P 21/M
;
_chemical_formula_sum "Si O2"
_cell_formula_units_Z 32
_cell_length_a 11.444294
_cell_length_b 13.873729
_cell_length_c 14.209055
_cell_angle_alpha 90.000000
_cell_angle_beta 68.369060
_cell_angle_gamma 90.000000
_cell_volume 2097.167121
_symmetry_space_group_name_H-M "P 21/M"
_symmetry_group_IT_number 11
_symmetry_cell_setting 'monoclinic'
loop_
_space_group_symop_operation_xyz
x,y,z
-x,1/2+y,-z
-x,-y,-z
x,1/2-y,z
loop_
_atom_site_type_symbol
_atom_site_label
_atom_site_fract_x
_atom_site_fract_y
_atom_site_fract_z
Si Si1 0.513243 0.855691 0.911954
Si Si2 0.641873 0.483889 0.166651
Si Si3 0.191654 0.638708 0.748661
Si Si4 0.733634 0.857502 0.696462
Si Si5 0.599846 0.138643 0.464155
Si Si6 0.706278 0.636998 0.009921
Si Si7 0.428110 0.479155 0.380813
Si Si8 0.910199 0.864497 0.802971
O O1 0.452399 0.750000 0.943040
O O2 0.615778 0.849399 0.800021
O O3 0.579120 0.887340 0.989595
O O4 0.403660 0.927770 0.913338
O O5 0.749588 0.422517 0.184829
O O6 0.527855 0.506345 0.270793
O O7 0.701057 0.583577 0.111950
O O8 0.189709 0.750000 0.781328
O O9 0.269715 0.626589 0.629842
O O10 0.052171 0.598215 0.770802
O O11 0.762511 0.750000 0.647369
O O12 0.698532 0.931240 0.623384
O O13 0.851952 0.900007 0.720429
O O14 0.572954 0.250000 0.496589
O O15 0.485504 0.098862 0.435483
O O16 0.610462 0.078086 0.556853
O O17 0.717684 0.750000 0.027027
O O18 0.827082 0.598729 0.915568
O O19 0.902478 0.750000 0.803259
#
# Coordination Sequence:
#
# PCOD8068205 Si02
#       8
#     4   4   4   4   4   4   4   4
#     4   8  14  25  40  59  82 105 131 163 196 228
#     4  10  17  25  41  62  83 106 130 159 196 237
#     4   9  17  29  44  60  77 100 133 170 204 233
#     4   8  13  24  43  62  80 103 130 163 197 227
#     4   9  17  29  43  59  82 106 127 161 203 236
#     4   9  17  27  39  58  84 110 133 158 190 232
#     4   9  17  27  41  63  83 102 132 161 193 240
#     4   8  15  28  43  59  80 104 132 166 198 227
#
# _framework density 15.258679000000001
#
# number of rings (size 3 to 8) (size 9 to 14) (size 15 to 20)
#    0.000    3.250    0.000    2.625    0.000    4.000 
#    0.000    0.625    0.000    0.000    0.000    0.875 
#    0.000    0.000    0.000    0.000    0.000    0.000 
#
# Total GULP energy -396649.457120 kJ/mol
# GULP energy per Si atom -12395.295535 kJ/mol
# Density = 1.522395 g / cm^3
# Si number density = 15.258679 Si / 1000 Ang^3
#
#
#
# Elastic Constant Matrix: (Units=GPa)
#
#
# Indices 1 2 3 4 5 6 
#
# 1 103.5209 47.5613 40.1618 0.0000 4.5019 0.0000
# 2 47.5613 86.9024 51.4836 0.0000 8.8810 0.0000
# 3 40.1618 51.4836 65.6346 0.0000 11.6175 0.0000
# 4 0.0000 0.0000 0.0000 28.9514 0.0000 5.7396
# 5 4.5019 8.8810 11.6175 0.0000 14.6085 0.0000
# 6 0.0000 0.0000 0.0000 5.7396 0.0000 16.2312
#
#
#
# Elastic Compliance Matrix: (Units=1/GPa)
#
#
# Indices 1 2 3 4 5 6 
#
# 1 0.013719 -0.004722 -0.005179 0.000000 0.002762 0.000000
# 2 -0.004722 0.023124 -0.015151 0.000000 -0.000554 0.000000
# 3 -0.005179 -0.015151 0.033025 0.000000 -0.015457 0.000000
# 4 0.000000 0.000000 0.000000 0.037145 0.000000 -0.013135
# 5 0.002762 -0.000554 -0.015457 0.000000 0.080231 0.000000
# 6 0.000000 0.000000 0.000000 -0.013135 0.000000 0.066255
#
#
# Mechanical properties :
#
#
# Convention : Reuss Voigt Hill
#
# Bulk Modulus (GPa) = 50.59881 59.38571 54.99226
# Shear Modulus (GPa) = 16.11911 19.74830 17.93371
#
# Velocity S-wave (km/s) = 3.25374 3.60145 3.43200
# Velocity P-wave (km/s) = 6.88102 7.50318 7.19882
#
# Compressibility (1/GPa) = 0.01976331
#
# Stress axis : x y z
#
# Youngs Moduli (GPa) = 72.89371 43.24514 30.27970
#
# Poissons Ratio (x) = 0.20420 0.15683
# Poissons Ratio (y) = 0.34420 0.45877
# Poissons Ratio (z) = 0.37754 0.65521
#
# Static dielectric constant tensor:
#      x y z
#    x 3.079120 0.000000 0.124120 
#    y 0.000000 2.859050 0.000000 
#    z 0.124120 0.000000 2.746380 
# 
# 
# High freq. dielectric constant tensor:
#      x y z
#    x 1.578170 0.000000 0.013110 
#    y 0.000000 1.571180 0.000000 
#    z 0.013110 0.000000 1.562240 
# 
# From -- ./inp_files/35527.got.cif
#   From: 2010.06.25/outbox.cif.g09.slc.cpg/sg11_18_cif.got.tgz:35527.got - 2010.06.27 23:14:04.
