data_PCOD8068790
_publ_section_title
;
Structure prediction by ZEFSAII (Michael W. Deem and Ramdas Pophale) SiO2 
 PCOD8068790
Probable space group: P 21/M
;
_chemical_formula_sum "Si O2"
_cell_formula_units_Z 28
_cell_length_a 14.058456
_cell_length_b 8.718908
_cell_length_c 18.491620
_cell_angle_alpha 90.000000
_cell_angle_beta 48.564953
_cell_angle_gamma 90.000000
_cell_volume 1699.283764
_symmetry_space_group_name_H-M "P 21/M"
_symmetry_group_IT_number 11
_symmetry_cell_setting 'monoclinic'
loop_
_space_group_symop_operation_xyz
x,y,z
-x,1/2+y,-z
-x,-y,-z
x,1/2-y,z
loop_
_atom_site_type_symbol
_atom_site_label
_atom_site_fract_x
_atom_site_fract_y
_atom_site_fract_z
Si Si1 0.750554 0.930352 0.027908
Si Si2 0.007347 0.930707 0.826274
Si Si3 0.500296 0.431731 0.920727
Si Si4 0.882067 0.929367 0.100230
Si Si5 0.242308 0.931910 0.285868
Si Si6 0.875422 0.932563 0.525626
Si Si7 0.004296 0.568062 0.663282
O O1 0.748540 0.750000 0.016147
O O2 0.620432 0.000490 0.062144
O O3 0.761129 0.966531 0.109108
O O4 0.871943 0.996705 0.922754
O O5 0.010288 0.750000 0.832872
O O6 0.028891 0.982003 0.733216
O O7 0.123330 0.997491 0.816784
O O8 0.493783 0.250000 0.929725
O O9 0.626082 0.484141 0.815656
O O10 0.500000 0.500000 0.000000
O O11 0.901364 0.750000 0.098984
O O12 0.000000 0.000000 0.000000
O O13 0.226939 0.750000 0.297889
O O14 0.241072 0.002291 0.368050
O O15 0.130102 0.000293 0.293728
O O16 0.875081 0.750000 0.525831
O O17 0.000000 0.000000 0.500000
O O18 0.878631 0.996831 0.441970
O O19 0.000332 0.750000 0.655413
#
# Coordination Sequence:
#
# PCOD8068790 Si02
#       7
#     4   4   4   4   4   4   4
#     4   8  15  29  44  60  85 118 148 173 208 255
#     4   9  17  28  44  65  89 115 142 175 219 263
#     4  10  20  32  46  64  89 119 152 183 211 250
#     4   9  16  27  44  62  84 113 145 179 216 258
#     4  10  19  30  44  64  89 118 151 184 215 254
#     4  10  18  29  45  63  86 115 146 182 220 262
#     4  10  18  29  46  66  90 118 144 178 222 266
#
# _framework density 16.477530999999999
#
# number of rings (size 3 to 8) (size 9 to 14) (size 15 to 20)
#    0.000    2.571    0.000    6.000    0.000    3.429 
#    0.000    5.000    0.000    0.000    0.000    1.000 
#    0.000    0.000    0.000    0.000    0.000    0.000 
#
# Total GULP energy -346971.712612 kJ/mol
# GULP energy per Si atom -12391.846879 kJ/mol
# Density = 1.644003 g / cm^3
# Si number density = 16.477531 Si / 1000 Ang^3
#
#
#
# Elastic Constant Matrix: (Units=GPa)
#
#
# Indices 1 2 3 4 5 6 
#
# 1 113.8535 30.4412 68.6620 0.0000 23.9493 0.0000
# 2 30.4412 62.4052 44.3625 0.0000 11.1271 0.0000
# 3 68.6620 44.3625 141.2415 0.0000 22.3765 0.0000
# 4 0.0000 0.0000 0.0000 25.2803 0.0000 6.9789
# 5 23.9493 11.1271 22.3765 0.0000 27.3978 0.0000
# 6 0.0000 0.0000 0.0000 6.9789 0.0000 20.9733
#
#
#
# Elastic Compliance Matrix: (Units=1/GPa)
#
#
# Indices 1 2 3 4 5 6 
#
# 1 0.013814 -0.001917 -0.004966 0.000000 -0.007241 0.000000
# 2 -0.001917 0.021201 -0.005316 0.000000 -0.002593 0.000000
# 3 -0.004966 -0.005316 0.011640 0.000000 -0.003007 0.000000
# 4 0.000000 0.000000 0.000000 0.043558 0.000000 -0.014494
# 5 -0.007241 -0.002593 -0.003007 0.000000 0.046337 0.000000
# 6 0.000000 0.000000 0.000000 -0.014494 0.000000 0.052503
#
#
# Mechanical properties :
#
#
# Convention : Reuss Voigt Hill
#
# Bulk Modulus (GPa) = 44.93122 67.15909 56.04515
# Shear Modulus (GPa) = 22.63771 26.33256 24.48513
#
# Velocity S-wave (km/s) = 3.71057 4.00195 3.85901
# Velocity P-wave (km/s) = 6.75908 7.88673 7.34458
#
# Compressibility (1/GPa) = 0.02225624
#
# Stress axis : x y z
#
# Youngs Moduli (GPa) = 72.39157 47.16763 85.90743
#
# Poissons Ratio (x) = 0.09042 0.42662
# Poissons Ratio (y) = 0.13878 0.45671
# Poissons Ratio (z) = 0.35950 0.25076
#
# Static dielectric constant tensor:
#      x y z
#    x 3.343760 0.000000 0.283100 
#    y 0.000000 3.133450 0.000000 
#    z 0.283100 0.000000 3.593930 
# 
# 
# High freq. dielectric constant tensor:
#      x y z
#    x 1.611020 0.000000 0.026440 
#    y 0.000000 1.634230 0.000000 
#    z 0.026440 0.000000 1.624990 
# 
# From -- ./inp_files/59832.got.cif
#   From: 2010.06.25/outbox.cif.g09.slc.cpg/sg11_30_cif.got.tgz:59832.got - 2010.06.27 23:14:04.
