data_PCOD8068995
_publ_section_title
;
Structure prediction by ZEFSAII (Michael W. Deem and Ramdas Pophale) SiO2 
 PCOD8068995
Probable space group: P 21/M
;
_chemical_formula_sum "Si O2"
_cell_formula_units_Z 32
_cell_length_a 21.504466
_cell_length_b 8.796986
_cell_length_c 11.322033
_cell_angle_alpha 90.000000
_cell_angle_beta 122.735633
_cell_angle_gamma 90.000000
_cell_volume 1801.661296
_symmetry_space_group_name_H-M "P 21/M"
_symmetry_group_IT_number 11
_symmetry_cell_setting 'monoclinic'
loop_
_space_group_symop_operation_xyz
x,y,z
-x,1/2+y,-z
-x,-y,-z
x,1/2-y,z
loop_
_atom_site_type_symbol
_atom_site_label
_atom_site_fract_x
_atom_site_fract_y
_atom_site_fract_z
Si Si1 0.570944 0.420308 0.930475
Si Si2 0.725682 0.569935 0.355336
Si Si3 0.721842 0.929122 0.079078
Si Si4 0.141811 0.571537 0.875883
Si Si5 0.873568 0.916718 0.610583
Si Si6 0.007143 0.070391 0.879446
Si Si7 0.425276 0.919948 0.785282
Si Si8 0.925231 0.916754 0.404106
O O1 0.581164 0.250000 0.891242
O O2 0.494729 0.489503 0.801377
O O3 0.638933 0.524675 0.958269
O O4 0.567367 0.417838 0.067131
O O5 0.717644 0.750000 0.348509
O O6 0.739301 0.517642 0.232581
O O7 0.789798 0.517377 0.515467
O O8 0.650971 0.498978 0.330664
O O9 0.733035 0.750000 0.079252
O O10 0.774393 0.008391 0.033283
O O11 0.138988 0.750000 0.898558
O O12 0.083013 0.491310 0.901484
O O13 0.121938 0.531661 0.721657
O O14 0.877417 0.750000 0.677900
O O15 0.887630 0.888284 0.488476
O O16 0.933600 0.028031 0.729641
O O17 0.011588 0.250000 0.892894
O O18 0.000000 0.000000 0.000000
O O19 0.426052 0.750000 0.734614
O O20 0.935233 0.750000 0.352207
O O21 0.000000 0.000000 0.500000
#
# Coordination Sequence:
#
# PCOD8068995 Si02
#       8
#     4   4   4   4   4   4   4   4
#     4   9  16  26  39  59  89 130 171 205 244 291
#     4   9  17  29  45  67  98 132 165 205 248 294
#     4  10  18  30  46  69  99 132 169 208 251 295
#     4  12  23  35  52  75 104 133 168 210 253 303
#     4  10  20  35  53  75 103 132 167 209 255 302
#     4  12  26  43  60  75  96 129 170 212 259 308
#     4   9  16  25  38  59  89 129 171 206 240 288
#     4  11  20  32  50  75 102 131 164 204 252 302
#
# _framework density 17.761385000000001
#
# number of rings (size 3 to 8) (size 9 to 14) (size 15 to 20)
#    0.000    1.750    2.500    3.750    0.000    4.500 
#    0.000    0.000    0.000    0.000    0.000    0.000 
#    0.000    1.000    0.000    3.750    0.000    5.750 
#
# Total GULP energy -396498.495216 kJ/mol
# GULP energy per Si atom -12390.577976 kJ/mol
# Density = 1.772096 g / cm^3
# Si number density = 17.761385 Si / 1000 Ang^3
#
#
#
# Elastic Constant Matrix: (Units=GPa)
#
#
# Indices 1 2 3 4 5 6 
#
# 1 112.4503 56.2663 52.9394 0.0000 32.5740 0.0000
# 2 56.2663 117.2962 28.3436 0.0000 11.8843 0.0000
# 3 52.9394 28.3436 40.1562 0.0000 6.9912 0.0000
# 4 0.0000 0.0000 0.0000 20.7702 0.0000 6.2856
# 5 32.5740 11.8843 6.9912 0.0000 26.4615 0.0000
# 6 0.0000 0.0000 0.0000 6.2856 0.0000 29.4611
#
#
#
# Elastic Compliance Matrix: (Units=1/GPa)
#
#
# Indices 1 2 3 4 5 6 
#
# 1 0.051502 -0.006733 -0.055171 0.000000 -0.045799 0.000000
# 2 -0.006733 0.011365 0.000315 0.000000 0.003101 0.000000
# 3 -0.055171 0.000315 0.089743 0.000000 0.044064 0.000000
# 4 0.000000 0.000000 0.000000 0.051469 0.000000 -0.010981
# 5 -0.045799 0.003101 0.044064 0.000000 0.081134 0.000000
# 6 0.000000 0.000000 0.000000 -0.010981 0.000000 0.036286
#
#
# Mechanical properties :
#
#
# Convention : Reuss Voigt Hill
#
# Bulk Modulus (GPa) = 33.97723 60.55570 47.26646
# Shear Modulus (GPa) = 11.00136 24.16212 17.58174
#
# Velocity S-wave (km/s) = 2.49147 3.69233 3.14966
# Velocity P-wave (km/s) = 5.23908 7.23503 6.31639
#
# Compressibility (1/GPa) = 0.02943147
#
# Stress axis : x y z
#
# Youngs Moduli (GPa) = 19.41658 87.98922 11.14293
#
# Poissons Ratio (x) = 0.59247 0.61477
# Poissons Ratio (y) = 0.13074 -0.00351
# Poissons Ratio (z) = 1.07124 -0.02774
#
# Static dielectric constant tensor:
#      x y z
#    x 3.365750 0.000000 0.383060 
#    y 0.000000 3.450790 0.000000 
#    z 0.383060 0.000000 3.049300 
# 
# 
# High freq. dielectric constant tensor:
#      x y z
#    x 1.683520 0.000000 0.043350 
#    y 0.000000 1.699770 0.000000 
#    z 0.043350 0.000000 1.634030 
# 
# From -- ./inp_files/42554.got.cif
#   From: 2010.06.25/outbox.cif.g09.slc.cpg/sg11_22_cif.got.tgz:42554.got - 2010.06.27 23:14:04.
