data_PCOD8068770
_publ_section_title
;
Structure prediction by ZEFSAII (Michael W. Deem and Ramdas Pophale) SiO2 
 PCOD8068770
Probable space group: P 21/M
;
_chemical_formula_sum "Si O2"
_cell_formula_units_Z 32
_cell_length_a 28.917687
_cell_length_b 8.664307
_cell_length_c 19.319955
_cell_angle_alpha 90.000000
_cell_angle_beta 23.957588
_cell_angle_gamma 90.000000
_cell_volume 1965.594939
_symmetry_space_group_name_H-M "P 21/M"
_symmetry_group_IT_number 11
_symmetry_cell_setting 'monoclinic'
loop_
_space_group_symop_operation_xyz
x,y,z
-x,1/2+y,-z
-x,-y,-z
x,1/2-y,z
loop_
_atom_site_type_symbol
_atom_site_label
_atom_site_fract_x
_atom_site_fract_y
_atom_site_fract_z
Si Si1 0.062238 0.427540 0.751923
Si Si2 0.272501 0.568193 0.391616
Si Si3 0.408371 0.567525 0.573782
Si Si4 0.608767 0.933144 0.890182
Si Si5 0.189531 0.424281 0.714783
Si Si6 0.488303 0.431032 0.173891
Si Si7 0.422230 0.571874 0.398487
Si Si8 0.834996 0.928258 0.094688
O O1 0.071179 0.250000 0.717035
O O2 0.146688 0.527107 0.589264
O O3 0.091448 0.450753 0.792856
O O4 0.933974 0.487286 0.915999
O O5 0.292799 0.750000 0.365549
O O6 0.282917 0.504924 0.298233
O O7 0.366427 0.489025 0.312295
O O8 0.500000 0.500000 0.500000
O O9 0.401854 0.750000 0.589164
O O10 0.445416 0.517858 0.445485
O O11 0.285791 0.499748 0.761133
O O12 0.613458 0.750000 0.880282
O O13 0.500000 0.000000 0.000000
O O14 0.595404 0.989658 0.987755
O O15 0.239485 0.250000 0.641219
O O16 0.289873 0.544373 0.562001
O O17 0.138715 0.453620 0.860158
O O18 0.495988 0.250000 0.152441
O O19 0.499669 0.474300 0.239390
O O20 0.451176 0.750000 0.348048
O O21 0.834184 0.750000 0.075101
#
# Coordination Sequence:
#
# PCOD8068770 Si02
#       8
#     4   4   4   4   4   4   4   4
#     4  11  20  30  44  65  93 126 161 196 231 273
#     4  11  20  30  43  62  89 125 163 197 234 274
#     4  10  21  37  55  73  94 121 153 194 242 289
#     4  10  18  29  43  60  85 120 159 197 234 273
#     4   9  18  30  44  62  90 124 157 192 231 272
#     4  11  19  29  44  64  91 122 158 197 234 275
#     4  10  19  30  47  70  93 121 158 195 234 280
#     4  10  20  33  48  68  91 121 157 194 235 279
#
# _framework density 16.280056999999999
#
# number of rings (size 3 to 8) (size 9 to 14) (size 15 to 20)
#    0.000    1.750    1.250    6.750    0.000    2.500 
#    0.000    0.000    0.000    0.000    0.000    0.000 
#    0.000    1.000    0.000    3.750    0.000    5.750 
#
# Total GULP energy -396773.244579 kJ/mol
# GULP energy per Si atom -12399.163893 kJ/mol
# Density = 1.624300 g / cm^3
# Si number density = 16.280057 Si / 1000 Ang^3
#
#
#
# Elastic Constant Matrix: (Units=GPa)
#
#
# Indices 1 2 3 4 5 6 
#
# 1 62.7493 30.7855 47.0075 0.0000 5.1532 0.0000
# 2 30.7855 102.8207 38.2922 0.0000 6.5095 0.0000
# 3 47.0075 38.2922 94.4954 0.0000 12.6941 0.0000
# 4 0.0000 0.0000 0.0000 29.9277 0.0000 4.5891
# 5 5.1532 6.5095 12.6941 0.0000 21.5631 0.0000
# 6 0.0000 0.0000 0.0000 4.5891 0.0000 21.5977
#
#
#
# Elastic Compliance Matrix: (Units=1/GPa)
#
#
# Indices 1 2 3 4 5 6 
#
# 1 0.026528 -0.003594 -0.011982 0.000000 0.001799 0.000000
# 2 -0.003594 0.011954 -0.002917 0.000000 -0.001032 0.000000
# 3 -0.011982 -0.002917 0.018701 0.000000 -0.007265 0.000000
# 4 0.000000 0.000000 0.000000 0.034539 0.000000 -0.007339
# 5 0.001799 -0.001032 -0.007265 0.000000 0.050534 0.000000
# 6 0.000000 0.000000 0.000000 -0.007339 0.000000 0.047860
#
#
# Mechanical properties :
#
#
# Convention : Reuss Voigt Hill
#
# Bulk Modulus (GPa) = 49.51465 54.69284 52.10375
# Shear Modulus (GPa) = 21.38259 24.21639 22.79949
#
# Velocity S-wave (km/s) = 3.62805 3.86098 3.74633
# Velocity P-wave (km/s) = 6.93041 7.31739 7.12653
#
# Compressibility (1/GPa) = 0.02019604
#
# Stress axis : x y z
#
# Youngs Moduli (GPa) = 37.69601 83.65653 53.47313
#
# Poissons Ratio (x) = 0.30070 0.64070
# Poissons Ratio (y) = 0.13550 0.15599
# Poissons Ratio (z) = 0.45166 0.24404
#
# Static dielectric constant tensor:
#      x y z
#    x 3.000090 0.000000 0.489750 
#    y 0.000000 3.197840 0.000000 
#    z 0.489750 0.000000 3.163950 
# 
# 
# High freq. dielectric constant tensor:
#      x y z
#    x 1.582960 0.000000 0.036260 
#    y 0.000000 1.647130 0.000000 
#    z 0.036260 0.000000 1.610900 
# 
# From -- ./inp_files/67392.got.cif
#   From: 2010.06.25/outbox.cif.g09.slc.cpg/sg11_34_cif.got.tgz:67392.got - 2010.06.27 23:14:04.
