data_PCOD8068408
_publ_section_title
;
Structure prediction by ZEFSAII (Michael W. Deem and Ramdas Pophale) SiO2 
 PCOD8068408
Probable space group: P 21/M
;
_chemical_formula_sum "Si O2"
_cell_formula_units_Z 32
_cell_length_a 14.948242
_cell_length_b 9.123132
_cell_length_c 30.770342
_cell_angle_alpha 90.000000
_cell_angle_beta 28.851359
_cell_angle_gamma 90.000000
_cell_volume 2024.877761
_symmetry_space_group_name_H-M "P 21/M"
_symmetry_group_IT_number 11
_symmetry_cell_setting 'monoclinic'
loop_
_space_group_symop_operation_xyz
x,y,z
-x,1/2+y,-z
-x,-y,-z
x,1/2-y,z
loop_
_atom_site_type_symbol
_atom_site_label
_atom_site_fract_x
_atom_site_fract_y
_atom_site_fract_z
Si Si1 0.940132 0.077453 0.924739
Si Si2 0.275085 0.919854 0.399677
Si Si3 0.249318 0.419477 0.071546
Si Si4 0.326493 0.075069 0.895060
Si Si5 0.277632 0.576760 0.240856
Si Si6 0.677774 0.418829 0.874577
Si Si7 0.977975 0.080165 0.575332
Si Si8 0.332018 0.078728 0.794839
O O1 0.898522 0.250000 0.942858
O O2 0.157326 0.043545 0.838932
O O3 0.887133 0.010520 0.900927
O O4 0.831818 0.000874 0.009640
O O5 0.279041 0.750000 0.409935
O O6 0.482281 0.986685 0.306481
O O7 0.170406 0.949909 0.399194
O O8 0.170898 0.999117 0.483703
O O9 0.191923 0.250000 0.095077
O O10 0.227952 0.479242 0.129529
O O11 0.457421 0.443057 0.966076
O O12 0.306317 0.250000 0.908771
O O13 0.524341 0.015861 0.827751
O O14 0.300692 0.018050 0.856803
O O15 0.287556 0.750000 0.241943
O O16 0.239045 0.532780 0.207323
O O17 0.111624 0.516891 0.341933
O O18 0.722459 0.250000 0.866493
O O19 0.025256 0.250000 0.559567
O O20 0.368065 0.250000 0.785136
#
# Coordination Sequence:
#
# PCOD8068408 Si02
#       8
#     4   4   4   4   4   4   4   4
#     4  11  21  31  44  67  94 123 160 197 225 259
#     4   9  16  29  46  64  89 122 155 187 223 265
#     4  10  19  32  48  66  89 121 154 187 231 275
#     4  10  17  31  48  64  90 127 163 188 218 267
#     4   9  15  27  48  69  90 122 154 179 221 280
#     4   9  17  30  48  68  89 116 152 189 226 273
#     4   9  16  27  46  68  90 117 151 188 225 268
#     4   9  18  31  48  65  89 128 165 189 221 270
#
# _framework density 15.803424
#
# number of rings (size 3 to 8) (size 9 to 14) (size 15 to 20)
#    0.000    2.500    2.500    1.125    0.000    0.500 
#    0.000    3.750    0.000    0.000    0.000    0.875 
#    0.000    0.000    0.000    0.000    0.000    0.000 
#
# Total GULP energy -396747.421329 kJ/mol
# GULP energy per Si atom -12398.356917 kJ/mol
# Density = 1.576745 g / cm^3
# Si number density = 15.803424 Si / 1000 Ang^3
#
#
#
# Elastic Constant Matrix: (Units=GPa)
#
#
# Indices 1 2 3 4 5 6 
#
# 1 89.7600 40.0303 56.7538 0.0000 5.0503 0.0000
# 2 40.0303 52.1546 43.6054 0.0000 1.1597 0.0000
# 3 56.7538 43.6054 126.2660 0.0000 7.3132 0.0000
# 4 0.0000 0.0000 0.0000 22.8942 0.0000 2.8790
# 5 5.0503 1.1597 7.3132 0.0000 23.1956 0.0000
# 6 0.0000 0.0000 0.0000 2.8790 0.0000 20.3038
#
#
#
# Elastic Compliance Matrix: (Units=1/GPa)
#
#
# Indices 1 2 3 4 5 6 
#
# 1 0.018968 -0.010524 -0.004770 0.000000 -0.002100 0.000000
# 2 -0.010524 0.032856 -0.006778 0.000000 0.002786 0.000000
# 3 -0.004770 -0.006778 0.012554 0.000000 -0.002581 0.000000
# 4 0.000000 0.000000 0.000000 0.044472 0.000000 -0.006306
# 5 -0.002100 0.002786 -0.002581 0.000000 0.044243 0.000000
# 6 0.000000 0.000000 0.000000 -0.006306 0.000000 0.050146
#
#
# Mechanical properties :
#
#
# Convention : Reuss Voigt Hill
#
# Bulk Modulus (GPa) = 49.41925 60.99554 55.20739
# Shear Modulus (GPa) = 19.67514 21.79812 20.73663
#
# Velocity S-wave (km/s) = 3.53227 3.71796 3.62631
# Velocity P-wave (km/s) = 6.92640 7.55719 7.24866
#
# Compressibility (1/GPa) = 0.02023503
#
# Stress axis : x y z
#
# Youngs Moduli (GPa) = 52.71967 30.43571 79.65726
#
# Poissons Ratio (x) = 0.32031 0.37994
# Poissons Ratio (y) = 0.55483 0.53989
# Poissons Ratio (z) = 0.25146 0.20628
#
# Static dielectric constant tensor:
#      x y z
#    x 2.930460 0.000000 0.112810 
#    y 0.000000 2.848690 0.000000 
#    z 0.112810 0.000000 3.123800 
# 
# 
# High freq. dielectric constant tensor:
#      x y z
#    x 1.590990 0.000000 0.011130 
#    y 0.000000 1.588520 0.000000 
#    z 0.011130 0.000000 1.598650 
# 
# From -- ./inp_files/51206.got.cif
#   From: 2010.06.25/outbox.cif.g09.slc.cpg/sg11_26_cif.got.tgz:51206.got - 2010.06.27 23:14:04.
