data_PCOD8068306
_publ_section_title
;
Structure prediction by ZEFSAII (Michael W. Deem and Ramdas Pophale) SiO2 
 PCOD8068306
Probable space group: P 21/M
;
_chemical_formula_sum "Si O2"
_cell_formula_units_Z 28
_cell_length_a 6.625917
_cell_length_b 13.676448
_cell_length_c 20.666369
_cell_angle_alpha 90.000000
_cell_angle_beta 113.577154
_cell_angle_gamma 90.000000
_cell_volume 1716.431679
_symmetry_space_group_name_H-M "P 21/M"
_symmetry_group_IT_number 11
_symmetry_cell_setting 'monoclinic'
loop_
_space_group_symop_operation_xyz
x,y,z
-x,1/2+y,-z
-x,-y,-z
x,1/2-y,z
loop_
_atom_site_type_symbol
_atom_site_label
_atom_site_fract_x
_atom_site_fract_y
_atom_site_fract_z
Si Si1 0.247646 0.028253 0.547514
Si Si2 0.574862 0.137646 0.502349
Si Si3 0.037882 0.362904 0.629492
Si Si4 0.553177 0.040104 0.902933
Si Si5 0.843363 0.861858 0.212094
Si Si6 0.582533 0.639762 0.988797
Si Si7 0.060134 0.858716 0.108568
O O1 0.352628 0.108728 0.512216
O O2 0.228041 0.074673 0.616660
O O3 0.397269 0.929844 0.558856
O O4 0.000000 0.000000 0.500000
O O5 0.558449 0.250000 0.478516
O O6 0.788204 0.116603 0.574599
O O7 0.097522 0.250000 0.625660
O O8 0.049408 0.391813 0.706134
O O9 0.358779 0.067021 0.829037
O O10 0.779888 0.056782 0.894779
O O11 0.530847 0.926568 0.919738
O O12 0.561782 0.106511 0.968434
O O13 0.756291 0.750000 0.201423
O O14 0.028010 0.874514 0.180983
O O15 0.519249 0.750000 0.962052
O O16 0.834895 0.628781 0.041063
O O17 0.157610 0.750000 0.108794
#
# Coordination Sequence:
#
# PCOD8068306 Si02
#       7
#     4   4   4   4   4   4   4
#     4   9  17  29  46  69  94 119 149 185 221 260
#     4   9  17  29  46  69  95 122 151 183 221 266
#     4   9  17  29  45  67  95 122 148 182 225 269
#     4  10  17  28  46  63  85 117 145 177 225 267
#     4   9  18  29  42  66  93 115 145 179 213 263
#     4   9  18  29  42  64  87 108 144 187 222 265
#     4   9  16  27  42  61  87 114 143 181 223 267
#
# _framework density 16.312913000000002
#
# number of rings (size 3 to 8) (size 9 to 14) (size 15 to 20)
#    0.000    2.857    0.000    3.000    0.000    1.714 
#    0.000    2.857    0.000    0.857    0.000    0.000 
#    0.000    0.000    0.000    0.000    0.000    0.000 
#
# Total GULP energy -347023.823940 kJ/mol
# GULP energy per Si atom -12393.707998 kJ/mol
# Density = 1.627578 g / cm^3
# Si number density = 16.312913 Si / 1000 Ang^3
#
#
#
# Elastic Constant Matrix: (Units=GPa)
#
#
# Indices 1 2 3 4 5 6 
#
# 1 86.4159 41.9227 28.8591 0.0000 -15.1916 0.0000
# 2 41.9227 109.6796 39.4465 0.0000 -9.0804 0.0000
# 3 28.8591 39.4465 69.0309 0.0000 -10.5002 0.0000
# 4 0.0000 0.0000 0.0000 23.1244 0.0000 -5.3233
# 5 -15.1916 -9.0804 -10.5002 0.0000 12.5153 0.0000
# 6 0.0000 0.0000 0.0000 -5.3233 0.0000 25.0163
#
#
#
# Elastic Compliance Matrix: (Units=1/GPa)
#
#
# Indices 1 2 3 4 5 6 
#
# 1 0.017284 -0.004485 -0.002255 0.000000 0.015835 0.000000
# 2 -0.004485 0.012755 -0.005541 0.000000 -0.000838 0.000000
# 3 -0.002255 -0.005541 0.020137 0.000000 0.010138 0.000000
# 4 0.000000 0.000000 0.000000 0.045472 0.000000 0.009676
# 5 0.015835 -0.000838 0.010138 0.000000 0.107020 0.000000
# 6 0.000000 0.000000 0.000000 0.009676 0.000000 0.042033
#
#
# Mechanical properties :
#
#
# Convention : Reuss Voigt Hill
#
# Bulk Modulus (GPa) = 39.03876 53.95367 46.49621
# Shear Modulus (GPa) = 17.99845 22.45774 20.22810
#
# Velocity S-wave (km/s) = 3.32524 3.71440 3.52519
# Velocity P-wave (km/s) = 6.22303 7.17925 6.71817
#
# Compressibility (1/GPa) = 0.02561557
#
# Stress axis : x y z
#
# Youngs Moduli (GPa) = 57.85627 78.39931 49.65891
#
# Poissons Ratio (x) = 0.35160 0.11196
# Poissons Ratio (y) = 0.25947 0.27518
# Poissons Ratio (z) = 0.13044 0.43444
#
# Static dielectric constant tensor:
#      x y z
#    x 3.156890 0.000000 -0.173770 
#    y 0.000000 3.209180 0.000000 
#    z -0.173770 0.000000 2.918230 
# 
# 
# High freq. dielectric constant tensor:
#      x y z
#    x 1.636140 0.000000 -0.012030 
#    y 0.000000 1.622100 0.000000 
#    z -0.012030 0.000000 1.592480 
# 
# From -- ./inp_files/7940.got.cif
#   From: 2010.06.25/outbox.cif.g09.slc.cpg/sg11_4_cif.got.tgz:7940.got - 2010.06.27 23:14:04.
