data_PCOD8068566
_publ_section_title
;
Structure prediction by ZEFSAII (Michael W. Deem and Ramdas Pophale) SiO2 
 PCOD8068566
Probable space group: P 21/M
;
_chemical_formula_sum "Si O2"
_cell_formula_units_Z 32
_cell_length_a 11.373236
_cell_length_b 9.155742
_cell_length_c 20.686865
_cell_angle_alpha 90.000000
_cell_angle_beta 64.909473
_cell_angle_gamma 90.000000
_cell_volume 1950.865625
_symmetry_space_group_name_H-M "P 21/M"
_symmetry_group_IT_number 11
_symmetry_cell_setting 'monoclinic'
loop_
_space_group_symop_operation_xyz
x,y,z
-x,1/2+y,-z
-x,-y,-z
x,1/2-y,z
loop_
_atom_site_type_symbol
_atom_site_label
_atom_site_fract_x
_atom_site_fract_y
_atom_site_fract_z
Si Si1 0.485679 0.079979 0.771969
Si Si2 0.694038 0.080274 0.957561
Si Si3 0.729791 0.084980 0.348543
Si Si4 0.560751 0.911872 0.636579
Si Si5 0.533255 0.579356 0.892713
Si Si6 0.200889 0.420289 0.789193
Si Si7 0.366516 0.078795 0.516222
Si Si8 0.976397 0.078633 0.938686
O O1 0.508297 0.250000 0.778005
O O2 0.335926 0.041796 0.792986
O O3 0.574694 0.028802 0.690753
O O4 0.531730 0.994524 0.823724
O O5 0.686255 0.250000 0.940442
O O6 0.838097 0.030996 0.942558
O O7 0.652196 0.986458 0.905578
O O8 0.601939 0.045218 0.039872
O O9 0.779126 0.250000 0.347566
O O10 0.581812 0.080521 0.360562
O O11 0.816793 0.008460 0.273299
O O12 0.743770 0.996128 0.413096
O O13 0.585197 0.750000 0.659455
O O14 0.662116 0.943387 0.554063
O O15 0.556913 0.750000 0.878414
O O16 0.193227 0.250000 0.774068
O O17 0.086132 0.471116 0.862873
O O18 0.377653 0.250000 0.530753
O O19 0.500000 0.000000 0.500000
O O20 0.982120 0.250000 0.950479
O O21 0.000000 0.000000 0.000000
#
# Coordination Sequence:
#
# PCOD8068566 Si02
#       8
#     4   4   4   4   4   4   4   4
#     4  10  18  27  42  63  88 117 147 180 217 259
#     4   9  19  34  49  66  87 113 146 182 221 263
#     4   9  16  25  38  56  80 113 149 183 218 257
#     4   8  15  25  36  54  81 112 145 178 213 255
#     4  10  19  31  48  66  86 113 145 183 223 263
#     4   9  18  30  43  62  88 118 150 182 219 264
#     4   9  15  23  36  54  79 112 147 182 218 258
#     4  10  20  33  49  68  91 118 147 182 222 264
#
# _framework density 16.402975000000001
#
# number of rings (size 3 to 8) (size 9 to 14) (size 15 to 20)
#    0.000    2.750    0.000    3.000    0.000    5.500 
#    0.000    0.000    0.000    0.000    0.000    0.000 
#    0.000    1.000    0.000    3.000    0.000    4.875 
#
# Total GULP energy -396709.518701 kJ/mol
# GULP energy per Si atom -12397.172459 kJ/mol
# Density = 1.636564 g / cm^3
# Si number density = 16.402975 Si / 1000 Ang^3
#
#
#
# Elastic Constant Matrix: (Units=GPa)
#
#
# Indices 1 2 3 4 5 6 
#
# 1 61.3478 41.4833 54.0653 0.0000 8.0946 0.0000
# 2 41.4833 95.2953 71.2057 0.0000 12.9953 0.0000
# 3 54.0653 71.2057 148.7495 0.0000 14.5148 0.0000
# 4 0.0000 0.0000 0.0000 33.8993 0.0000 7.3497
# 5 8.0946 12.9953 14.5148 0.0000 16.8503 0.0000
# 6 0.0000 0.0000 0.0000 7.3497 0.0000 18.3400
#
#
#
# Elastic Compliance Matrix: (Units=1/GPa)
#
#
# Indices 1 2 3 4 5 6 
#
# 1 0.026589 -0.006551 -0.006305 0.000000 -0.002289 0.000000
# 2 -0.006551 0.018609 -0.005932 0.000000 -0.006095 0.000000
# 3 -0.006305 -0.005932 0.012132 0.000000 -0.002847 0.000000
# 4 0.000000 0.000000 0.000000 0.032306 0.000000 -0.012947
# 5 -0.002289 -0.006095 -0.002847 0.000000 0.067599 0.000000
# 6 0.000000 0.000000 0.000000 -0.012947 0.000000 0.059714
#
#
# Mechanical properties :
#
#
# Convention : Reuss Voigt Hill
#
# Bulk Modulus (GPa) = 50.62422 70.98902 60.80662
# Shear Modulus (GPa) = 19.14905 23.06047 21.10476
#
# Velocity S-wave (km/s) = 3.42045 3.75356 3.59087
# Velocity P-wave (km/s) = 6.82123 7.88402 7.37180
#
# Compressibility (1/GPa) = 0.01975339
#
# Stress axis : x y z
#
# Youngs Moduli (GPa) = 37.60985 53.73617 82.42832
#
# Poissons Ratio (x) = 0.35205 0.51968
# Poissons Ratio (y) = 0.24640 0.48899
# Poissons Ratio (z) = 0.23711 0.31878
#
# Static dielectric constant tensor:
#      x y z
#    x 2.674990 0.000000 0.069180 
#    y 0.000000 3.212240 0.000000 
#    z 0.069180 0.000000 3.492720 
# 
# 
# High freq. dielectric constant tensor:
#      x y z
#    x 1.569900 0.000000 0.014780 
#    y 0.000000 1.642680 0.000000 
#    z 0.014780 0.000000 1.644380 
# 
# From -- ./inp_files/40671.got.cif
#   From: 2010.06.25/outbox.cif.g09.slc.cpg/sg11_21_cif.got.tgz:40671.got - 2010.06.27 23:14:04.
