data_PCOD8068667
_publ_section_title
;
Structure prediction by ZEFSAII (Michael W. Deem and Ramdas Pophale) SiO2 
 PCOD8068667
Probable space group: P 21/M
;
_chemical_formula_sum "Si O2"
_cell_formula_units_Z 28
_cell_length_a 17.684656
_cell_length_b 8.768806
_cell_length_c 16.407337
_cell_angle_alpha 90.000000
_cell_angle_beta 40.783288
_cell_angle_gamma 90.000000
_cell_volume 1661.962438
_symmetry_space_group_name_H-M "P 21/M"
_symmetry_group_IT_number 11
_symmetry_cell_setting 'monoclinic'
loop_
_space_group_symop_operation_xyz
x,y,z
-x,1/2+y,-z
-x,-y,-z
x,1/2-y,z
loop_
_atom_site_type_symbol
_atom_site_label
_atom_site_fract_x
_atom_site_fract_y
_atom_site_fract_z
Si Si1 0.210736 0.568580 0.560007
Si Si2 0.421248 0.569365 0.133816
Si Si3 0.174882 0.073787 0.319276
Si Si4 0.970595 0.573534 0.399710
Si Si5 0.675016 0.081119 0.373421
Si Si6 0.433568 0.430095 0.295403
Si Si7 0.441502 0.081086 0.666877
O O1 0.214151 0.750000 0.546310
O O2 0.088404 0.500019 0.631845
O O3 0.228728 0.522381 0.640518
O O4 0.311939 0.499331 0.422411
O O5 0.434695 0.750000 0.125858
O O6 0.289093 0.526939 0.223638
O O7 0.465915 0.498216 0.181757
O O8 0.500000 0.500000 0.000000
O O9 0.205568 0.250000 0.278796
O O10 0.115332 0.049616 0.454827
O O11 0.090172 0.014774 0.317402
O O12 0.997640 0.750000 0.361930
O O13 0.706635 0.250000 0.317124
O O14 0.554361 0.083890 0.519253
O O15 0.666381 0.976325 0.300153
O O16 0.419728 0.250000 0.300481
O O17 0.536866 0.471767 0.273598
O O18 0.412044 0.250000 0.722961
#
# Coordination Sequence:
#
# PCOD8068667 Si02
#       7
#     4   4   4   4   4   4   4
#     4  10  18  28  44  66  94 126 159 195 235 282
#     4  12  24  38  54  71  95 124 161 203 244 286
#     4  10  20  34  50  70  95 124 160 198 241 285
#     4  10  19  30  48  71  97 127 160 197 238 286
#     4   8  15  25  37  58  87 120 154 188 229 276
#     4  11  20  31  46  65  90 122 159 196 237 284
#     4   9  16  26  40  59  84 118 155 191 231 276
#
# _framework density 16.847553999999999
#
# number of rings (size 3 to 8) (size 9 to 14) (size 15 to 20)
#    0.000    2.000    1.429    5.143    0.000    5.143 
#    0.000    0.000    0.000    0.000    0.000    0.000 
#    0.000    1.143    0.000    4.286    0.000    6.857 
#
# Total GULP energy -347169.255498 kJ/mol
# GULP energy per Si atom -12398.901982 kJ/mol
# Density = 1.680921 g / cm^3
# Si number density = 16.847554 Si / 1000 Ang^3
#
#
#
# Elastic Constant Matrix: (Units=GPa)
#
#
# Indices 1 2 3 4 5 6 
#
# 1 141.3311 38.9529 18.2858 0.0000 15.0517 0.0000
# 2 38.9529 81.0948 10.8569 0.0000 4.4888 0.0000
# 3 18.2858 10.8569 31.0501 0.0000 6.3051 0.0000
# 4 0.0000 0.0000 0.0000 18.4275 0.0000 1.4064
# 5 15.0517 4.4888 6.3051 0.0000 12.2889 0.0000
# 6 0.0000 0.0000 0.0000 1.4064 0.0000 35.0700
#
#
#
# Elastic Compliance Matrix: (Units=1/GPa)
#
#
# Indices 1 2 3 4 5 6 
#
# 1 0.009345 -0.003674 -0.002419 0.000000 -0.008863 0.000000
# 2 -0.003674 0.014461 -0.003052 0.000000 0.000784 0.000000
# 3 -0.002419 -0.003052 0.037809 0.000000 -0.015321 0.000000
# 4 0.000000 0.000000 0.000000 0.054433 0.000000 -0.002183
# 5 -0.008863 0.000784 -0.015321 0.000000 0.099804 0.000000
# 6 0.000000 0.000000 0.000000 -0.002183 0.000000 0.028602
#
#
# Mechanical properties :
#
#
# Convention : Reuss Voigt Hill
#
# Bulk Modulus (GPa) = 23.08140 43.29633 33.18887
# Shear Modulus (GPa) = 18.03839 25.51598 21.77718
#
# Velocity S-wave (km/s) = 3.27568 3.89591 3.59918
# Velocity P-wave (km/s) = 5.29497 6.78175 6.08395
#
# Compressibility (1/GPa) = 0.04332493
#
# Stress axis : x y z
#
# Youngs Moduli (GPa) = 107.00717 69.14969 26.44887
#
# Poissons Ratio (x) = 0.25408 0.06398
# Poissons Ratio (y) = 0.39319 0.08072
# Poissons Ratio (z) = 0.25885 0.21103
#
# Static dielectric constant tensor:
#      x y z
#    x 3.550220 0.000000 0.146530 
#    y 0.000000 3.347650 0.000000 
#    z 0.146530 0.000000 2.607310 
# 
# 
# High freq. dielectric constant tensor:
#      x y z
#    x 1.669520 0.000000 0.013150 
#    y 0.000000 1.668670 0.000000 
#    z 0.013150 0.000000 1.571190 
# 
# From -- ./inp_files/53232.got.cif
#   From: 2010.06.25/outbox.cif.g09.slc.cpg/sg11_27_cif.got.tgz:53232.got - 2010.06.27 23:14:04.
