data_PCOD8068291
_publ_section_title
;
Structure prediction by ZEFSAII (Michael W. Deem and Ramdas Pophale) SiO2 
 PCOD8068291
Probable space group: P 21/M
;
_chemical_formula_sum "Si O2"
_cell_formula_units_Z 32
_cell_length_a 19.209622
_cell_length_b 8.995323
_cell_length_c 28.642013
_cell_angle_alpha 90.000000
_cell_angle_beta 155.777540
_cell_angle_gamma 90.000000
_cell_volume 2030.579758
_symmetry_space_group_name_H-M "P 21/M"
_symmetry_group_IT_number 11
_symmetry_cell_setting 'monoclinic'
loop_
_space_group_symop_operation_xyz
x,y,z
-x,1/2+y,-z
-x,-y,-z
x,1/2-y,z
loop_
_atom_site_type_symbol
_atom_site_label
_atom_site_fract_x
_atom_site_fract_y
_atom_site_fract_z
Si Si1 0.908999 0.077341 0.085658
Si Si2 0.399234 0.921125 0.328970
Si Si3 0.780696 0.417153 0.686580
Si Si4 0.271849 0.921489 0.450680
Si Si5 0.078351 0.424946 0.092860
Si Si6 0.670420 0.574151 0.004701
Si Si7 0.102694 0.077322 0.770052
Si Si8 0.588553 0.576039 0.097638
O O1 0.871636 0.250000 0.069400
O O2 0.953587 0.037199 0.059594
O O3 0.066220 0.032405 0.214510
O O4 0.742201 0.985946 0.999391
O O5 0.395219 0.750000 0.311178
O O6 0.358820 0.942993 0.358942
O O7 0.586527 0.986514 0.434588
O O8 0.264711 0.009225 0.215350
O O9 0.857053 0.250000 0.737054
O O10 0.694098 0.440905 0.583678
O O11 0.287444 0.750000 0.475423
O O12 0.086348 0.990448 0.350087
O O13 0.096152 0.250000 0.096253
O O14 0.000000 0.500000 0.000000
O O15 0.649879 0.750000 0.990610
O O16 0.483396 0.502361 0.899579
O O17 0.795657 0.515943 0.122597
O O18 0.076986 0.250000 0.764700
O O19 0.208981 0.050540 0.787025
O O20 0.545497 0.750000 0.072266
O O21 0.500000 0.500000 0.000000
#
# Coordination Sequence:
#
# PCOD8068291 Si02
#       8
#     4   4   4   4   4   4   4   4
#     4  10  19  29  45  69  91 113 148 189 227 268
#     4  10  20  31  44  66  89 115 150 187 225 266
#     4   9  17  29  43  58  86 122 152 184 223 262
#     4  10  17  28  43  60  87 123 156 187 220 260
#     4  10  21  37  54  70  89 115 145 184 232 278
#     4  10  17  28  43  60  86 120 155 189 226 267
#     4   8  15  26  40  57  83 120 156 187 223 260
#     4   9  16  26  39  58  83 116 156 194 229 265
#
# _framework density 15.759047000000001
#
# number of rings (size 3 to 8) (size 9 to 14) (size 15 to 20)
#    0.000    2.500    1.250    3.000    0.000    2.500 
#    0.000    1.250    0.000    0.000    0.000    0.000 
#    0.000    1.000    0.000    3.000    0.000    4.000 
#
# Total GULP energy -396631.649455 kJ/mol
# GULP energy per Si atom -12394.739045 kJ/mol
# Density = 1.572318 g / cm^3
# Si number density = 15.759047 Si / 1000 Ang^3
#
#
#
# Elastic Constant Matrix: (Units=GPa)
#
#
# Indices 1 2 3 4 5 6 
#
# 1 71.2957 43.0153 49.5614 0.0000 16.1022 0.0000
# 2 43.0153 83.0184 41.6358 0.0000 6.3975 0.0000
# 3 49.5614 41.6358 82.3561 0.0000 12.3541 0.0000
# 4 0.0000 0.0000 0.0000 23.8250 0.0000 3.3495
# 5 16.1022 6.3975 12.3541 0.0000 22.6531 0.0000
# 6 0.0000 0.0000 0.0000 3.3495 0.0000 23.3183
#
#
#
# Elastic Compliance Matrix: (Units=1/GPa)
#
#
# Indices 1 2 3 4 5 6 
#
# 1 0.030591 -0.008834 -0.012040 0.000000 -0.012683 0.000000
# 2 -0.008834 0.018689 -0.004664 0.000000 0.003545 0.000000
# 3 -0.012040 -0.004664 0.022070 0.000000 -0.002161 0.000000
# 4 0.000000 0.000000 0.000000 0.042838 0.000000 -0.006153
# 5 -0.012683 0.003545 -0.002161 0.000000 0.053336 0.000000
# 6 0.000000 0.000000 0.000000 -0.006153 0.000000 0.043769
#
#
# Mechanical properties :
#
#
# Convention : Reuss Voigt Hill
#
# Bulk Modulus (GPa) = 49.32742 56.12169 52.72455
# Shear Modulus (GPa) = 18.57865 20.78979 19.68422
#
# Velocity S-wave (km/s) = 3.43726 3.63606 3.53806
# Velocity P-wave (km/s) = 6.86455 7.30189 7.08659
#
# Compressibility (1/GPa) = 0.02027270
#
# Stress axis : x y z
#
# Youngs Moduli (GPa) = 32.68989 53.50840 45.31027
#
# Poissons Ratio (x) = 0.47271 0.54555
# Poissons Ratio (y) = 0.28879 0.21131
# Poissons Ratio (z) = 0.39360 0.24954
#
# Static dielectric constant tensor:
#      x y z
#    x 3.072810 0.000000 0.374820 
#    y 0.000000 3.047350 0.000000 
#    z 0.374820 0.000000 2.807270 
# 
# 
# High freq. dielectric constant tensor:
#      x y z
#    x 1.587970 0.000000 0.034810 
#    y 0.000000 1.609920 0.000000 
#    z 0.034810 0.000000 1.566330 
# 
# From -- ./inp_files/67456.got.cif
#   From: 2010.06.25/outbox.cif.g09.slc.cpg/sg11_34_cif.got.tgz:67456.got - 2010.06.27 23:14:04.
