data_PCOD8068713
_publ_section_title
;
Structure prediction by ZEFSAII (Michael W. Deem and Ramdas Pophale) SiO2 
 PCOD8068713
Probable space group: P 21/M
;
_chemical_formula_sum "Si O2"
_cell_formula_units_Z 32
_cell_length_a 20.667965
_cell_length_b 8.851140
_cell_length_c 14.615284
_cell_angle_alpha 90.000000
_cell_angle_beta 137.509462
_cell_angle_gamma 90.000000
_cell_volume 1805.964670
_symmetry_space_group_name_H-M "P 21/M"
_symmetry_group_IT_number 11
_symmetry_cell_setting 'monoclinic'
loop_
_space_group_symop_operation_xyz
x,y,z
-x,1/2+y,-z
-x,-y,-z
x,1/2-y,z
loop_
_atom_site_type_symbol
_atom_site_label
_atom_site_fract_x
_atom_site_fract_y
_atom_site_fract_z
Si Si1 0.509164 0.074168 0.108741
Si Si2 0.162951 0.924414 0.933551
Si Si3 0.987086 0.422915 0.082635
Si Si4 0.189717 0.919376 0.698754
Si Si5 0.699538 0.577322 0.342423
Si Si6 0.662414 0.416262 0.983227
Si Si7 0.892125 0.574607 0.621337
Si Si8 0.961913 0.572788 0.347663
O O1 0.514117 0.250000 0.096799
O O2 0.605467 0.022673 0.260778
O O3 0.419640 0.036460 0.080462
O O4 0.500000 0.000000 0.000000
O O5 0.142186 0.750000 0.881822
O O6 0.278479 0.955847 0.048909
O O7 0.121485 0.948347 0.992955
O O8 0.106141 0.039104 0.809520
O O9 0.010607 0.250000 0.090012
O O10 0.062656 0.486689 0.236979
O O11 0.000000 0.500000 0.000000
O O12 0.180452 0.750000 0.647649
O O13 0.247220 0.032875 0.694732
O O14 0.082266 0.981125 0.610627
O O15 0.252398 0.915345 0.855220
O O16 0.666185 0.750000 0.299728
O O17 0.776745 0.553287 0.504647
O O18 0.614103 0.250000 0.927502
O O19 0.919973 0.750000 0.636201
O O20 0.931980 0.483184 0.573517
O O21 0.962295 0.750000 0.370213
#
# Coordination Sequence:
#
# PCOD8068713 Si02
#       8
#     4   4   4   4   4   4   4   4
#     4  12  23  34  49  70  98 131 169 215 257 295
#     4   8  16  31  49  70 101 133 162 199 246 293
#     4   9  17  32  54  80 106 131 157 191 240 300
#     4  10  19  31  47  66  94 130 166 207 251 291
#     4  11  22  35  51  68  90 126 173 215 249 291
#     4   9  17  31  50  69  93 129 170 211 250 288
#     4   9  20  37  51  67  97 132 163 200 247 297
#     4  10  18  28  46  69  94 126 167 206 240 287
#
# _framework density 17.719062999999998
#
# number of rings (size 3 to 8) (size 9 to 14) (size 15 to 20)
#    0.000    2.250    1.250    4.500    0.000    5.500 
#    0.000    0.000    0.000    0.000    0.000    0.875 
#    0.000    0.000    0.000    0.000    0.000    0.000 
#
# Total GULP energy -396604.988385 kJ/mol
# GULP energy per Si atom -12393.905887 kJ/mol
# Density = 1.767873 g / cm^3
# Si number density = 17.719063 Si / 1000 Ang^3
#
#
#
# Elastic Constant Matrix: (Units=GPa)
#
#
# Indices 1 2 3 4 5 6 
#
# 1 102.7915 30.6752 44.4007 0.0000 17.4818 0.0000
# 2 30.6752 90.9704 25.9978 0.0000 12.4957 0.0000
# 3 44.4007 25.9978 59.4953 0.0000 18.1875 0.0000
# 4 0.0000 0.0000 0.0000 20.3494 0.0000 2.3106
# 5 17.4818 12.4957 18.1875 0.0000 33.3056 0.0000
# 6 0.0000 0.0000 0.0000 2.3106 0.0000 30.1746
#
#
#
# Elastic Compliance Matrix: (Units=1/GPa)
#
#
# Indices 1 2 3 4 5 6 
#
# 1 0.014777 -0.001992 -0.009621 0.000000 -0.001755 0.000000
# 2 -0.001992 0.012949 -0.003608 0.000000 -0.001842 0.000000
# 3 -0.009621 -0.003608 0.028338 0.000000 -0.009071 0.000000
# 4 0.000000 0.000000 0.000000 0.049573 0.000000 -0.003796
# 5 -0.001755 -0.001842 -0.009071 0.000000 0.036591 0.000000
# 6 0.000000 0.000000 0.000000 -0.003796 0.000000 0.033431
#
#
# Mechanical properties :
#
#
# Convention : Reuss Voigt Hill
#
# Bulk Modulus (GPa) = 39.03120 50.60051 44.81585
# Shear Modulus (GPa) = 23.29467 26.91148 25.10308
#
# Velocity S-wave (km/s) = 3.62977 3.90139 3.76803
# Velocity P-wave (km/s) = 6.29624 6.99382 6.65418
#
# Compressibility (1/GPa) = 0.02562053
#
# Stress axis : x y z
#
# Youngs Moduli (GPa) = 67.67160 77.22857 35.28863
#
# Poissons Ratio (x) = 0.15386 0.33951
# Poissons Ratio (y) = 0.13482 0.12733
# Poissons Ratio (z) = 0.65107 0.27866
#
# Static dielectric constant tensor:
#      x y z
#    x 3.403170 0.000000 0.276200 
#    y 0.000000 3.309030 0.000000 
#    z 0.276200 0.000000 3.191310 
# 
# 
# High freq. dielectric constant tensor:
#      x y z
#    x 1.673200 0.000000 0.029120 
#    y 0.000000 1.687460 0.000000 
#    z 0.029120 0.000000 1.653450 
# 
# From -- ./inp_files/40653.got.cif
#   From: 2010.06.25/outbox.cif.g09.slc.cpg/sg11_21_cif.got.tgz:40653.got - 2010.06.27 23:14:04.
