data_PCOD8068893
_publ_section_title
;
Structure prediction by ZEFSAII (Michael W. Deem and Ramdas Pophale) SiO2 
 PCOD8068893
Probable space group: P 21/M
;
_chemical_formula_sum "Si O2"
_cell_formula_units_Z 32
_cell_length_a 14.938633
_cell_length_b 9.063404
_cell_length_c 30.648233
_cell_angle_alpha 90.000000
_cell_angle_beta 151.334791
_cell_angle_gamma 90.000000
_cell_volume 1990.531333
_symmetry_space_group_name_H-M "P 21/M"
_symmetry_group_IT_number 11
_symmetry_cell_setting 'monoclinic'
loop_
_space_group_symop_operation_xyz
x,y,z
-x,1/2+y,-z
-x,-y,-z
x,1/2-y,z
loop_
_atom_site_type_symbol
_atom_site_label
_atom_site_fract_x
_atom_site_fract_y
_atom_site_fract_z
Si Si1 0.747982 0.580597 0.745729
Si Si2 0.984282 0.577500 0.928038
Si Si3 0.663225 0.079082 0.394974
Si Si4 0.642306 0.420911 0.618271
Si Si5 0.943387 0.574997 0.579286
Si Si6 0.278764 0.423826 0.105462
Si Si7 0.261027 0.921099 0.436838
Si Si8 0.321558 0.575015 0.696909
O O1 0.770806 0.750000 0.740969
O O2 0.911345 0.533641 0.848913
O O3 0.552598 0.556407 0.686327
O O4 0.768990 0.477382 0.712267
O O5 0.020707 0.750000 0.946973
O O6 0.829501 0.528434 0.897052
O O7 0.179564 0.495753 0.020939
O O8 0.722135 0.250000 0.425104
O O9 0.697442 0.018365 0.360815
O O10 0.785131 0.979687 0.478864
O O11 0.589386 0.250000 0.601584
O O12 0.756992 0.445890 0.622666
O O13 0.454289 0.515315 0.537740
O O14 0.934336 0.750000 0.578854
O O15 0.909265 0.504860 0.612465
O O16 0.145046 0.519838 0.649179
O O17 0.277162 0.250000 0.098182
O O18 0.489822 0.485414 0.199800
O O19 0.256162 0.750000 0.447550
O O20 0.333448 0.750000 0.700046
#
# Coordination Sequence:
#
# PCOD8068893 Si02
#       8
#     4   4   4   4   4   4   4   4
#     4  10  18  29  48  70  96 129 154 181 232 287
#     4   9  17  29  46  69  94 121 153 188 230 278
#     4  10  18  31  47  64  93 132 163 188 226 277
#     4  10  20  32  49  70  92 117 154 198 233 275
#     4  11  21  31  46  69  94 124 164 204 227 262
#     4   9  16  30  48  65  89 124 158 191 228 270
#     4  10  20  34  48  65  92 125 154 189 240 284
#     4   9  18  32  48  66  93 129 165 194 231 274
#
# _framework density 16.076108999999999
#
# number of rings (size 3 to 8) (size 9 to 14) (size 15 to 20)
#    0.000    2.250    2.500    1.500    0.000    2.000 
#    0.000    2.500    0.000    0.000    0.000    0.875 
#    0.000    0.000    0.000    0.000    0.000    0.000 
#
# Total GULP energy -396808.340070 kJ/mol
# GULP energy per Si atom -12400.260627 kJ/mol
# Density = 1.603952 g / cm^3
# Si number density = 16.076109 Si / 1000 Ang^3
#
#
#
# Elastic Constant Matrix: (Units=GPa)
#
#
# Indices 1 2 3 4 5 6 
#
# 1 99.7933 39.1612 42.0627 0.0000 -9.9162 0.0000
# 2 39.1612 56.1524 29.6557 0.0000 -6.9305 0.0000
# 3 42.0627 29.6557 73.2597 0.0000 -11.5421 0.0000
# 4 0.0000 0.0000 0.0000 23.3154 0.0000 -3.8614
# 5 -9.9162 -6.9305 -11.5421 0.0000 21.0986 0.0000
# 6 0.0000 0.0000 0.0000 -3.8614 0.0000 23.4526
#
#
#
# Elastic Compliance Matrix: (Units=1/GPa)
#
#
# Indices 1 2 3 4 5 6 
#
# 1 0.015551 -0.007707 -0.005533 0.000000 0.001750 0.000000
# 2 -0.007707 0.026608 -0.006062 0.000000 0.001802 0.000000
# 3 -0.005533 -0.006062 0.020308 0.000000 0.006518 0.000000
# 4 0.000000 0.000000 0.000000 0.044092 0.000000 0.007260
# 5 0.001750 0.001802 0.006518 0.000000 0.052377 0.000000
# 6 0.000000 0.000000 0.000000 0.007260 0.000000 0.043834
#
#
# Mechanical properties :
#
#
# Convention : Reuss Voigt Hill
#
# Bulk Modulus (GPa) = 41.90760 50.10717 46.00739
# Shear Modulus (GPa) = 20.05383 21.46171 20.75777
#
# Velocity S-wave (km/s) = 3.53573 3.65774 3.59725
# Velocity P-wave (km/s) = 6.54166 7.00536 6.77748
#
# Compressibility (1/GPa) = 0.02386202
#
# Stress axis : x y z
#
# Youngs Moduli (GPa) = 64.30258 37.58322 49.24244
#
# Poissons Ratio (x) = 0.28967 0.27247
# Poissons Ratio (y) = 0.49561 0.29849
# Poissons Ratio (z) = 0.35580 0.22782
#
# Static dielectric constant tensor:
#      x y z
#    x 3.124020 0.000000 -0.060900 
#    y 0.000000 2.974830 0.000000 
#    z -0.060900 0.000000 3.080380 
# 
# 
# High freq. dielectric constant tensor:
#      x y z
#    x 1.603580 0.000000 -0.012620 
#    y 0.000000 1.612770 0.000000 
#    z -0.012620 0.000000 1.603530 
# 
# From -- ./inp_files/51224.got.cif
#   From: 2010.06.25/outbox.cif.g09.slc.cpg/sg11_26_cif.got.tgz:51224.got - 2010.06.27 23:14:04.
