data_PCOD8068338
_publ_section_title
;
Structure prediction by ZEFSAII (Michael W. Deem and Ramdas Pophale) SiO2 
 PCOD8068338
Probable space group: P 21/M
;
_chemical_formula_sum "Si O2"
_cell_formula_units_Z 32
_cell_length_a 11.886385
_cell_length_b 13.985941
_cell_length_c 15.725903
_cell_angle_alpha 90.000000
_cell_angle_beta 141.563892
_cell_angle_gamma 90.000000
_cell_volume 1625.163677
_symmetry_space_group_name_H-M "P 21/M"
_symmetry_group_IT_number 11
_symmetry_cell_setting 'monoclinic'
loop_
_space_group_symop_operation_xyz
x,y,z
-x,1/2+y,-z
-x,-y,-z
x,1/2-y,z
loop_
_atom_site_type_symbol
_atom_site_label
_atom_site_fract_x
_atom_site_fract_y
_atom_site_fract_z
Si Si1 0.474590 0.859356 0.224779
Si Si2 0.916730 0.025876 0.362399
Si Si3 0.964087 0.143438 0.678238
Si Si4 0.292997 0.520023 0.385015
Si Si5 0.847535 0.360239 0.849332
Si Si6 0.782808 0.639108 0.540822
Si Si7 0.482600 0.989417 0.888162
Si Si8 0.796373 0.854204 0.012955
O O1 0.517632 0.750000 0.231068
O O2 0.265030 0.874565 0.129968
O O3 0.613797 0.894322 0.381177
O O4 0.509026 0.909331 0.154730
O O5 0.709243 0.060159 0.245313
O O6 0.027311 0.115254 0.391315
O O7 0.000000 0.000000 0.500000
O O8 0.920915 0.927052 0.312323
O O9 0.947417 0.250000 0.628268
O O10 0.763772 0.098719 0.576449
O O11 0.065794 0.147332 0.827433
O O12 0.500000 0.500000 0.500000
O O13 0.224734 0.556700 0.254613
O O14 0.211363 0.418254 0.366600
O O15 0.810648 0.250000 0.795102
O O16 0.067285 0.376004 0.986972
O O17 0.770184 0.750000 0.555507
O O18 0.638328 0.928738 0.934581
O O19 0.500000 0.000000 0.000000
O O20 0.705500 0.750000 0.947535
#
# Coordination Sequence:
#
# PCOD8068338 Si02
#       8
#     4   4   4   4   4   4   4   4
#     4  10  21  38  62  89 117 156 204 248 297 363
#     4  11  22  38  58  84 115 153 201 249 301 355
#     4   9  19  35  56  82 113 153 199 239 289 362
#     4  10  17  28  56  89 119 148 191 247 292 342
#     4   9  18  36  62  91 119 157 205 247 294 364
#     4  10  21  36  55  85 123 160 197 243 298 358
#     4  12  24  39  61  88 117 154 206 255 301 354
#     4   9  19  37  61  84 113 154 196 241 296 358
#
# _framework density 19.690322999999999
#
# number of rings (size 3 to 8) (size 9 to 14) (size 15 to 20)
#    0.000    2.000    3.750    1.125    0.000    3.000 
#    0.000    0.000    0.000    0.750    0.000    0.000 
#    0.000    0.000    0.000    0.000    0.000    0.000 
#
# Total GULP energy -396417.701894 kJ/mol
# GULP energy per Si atom -12388.053184 kJ/mol
# Density = 1.964551 g / cm^3
# Si number density = 19.690323 Si / 1000 Ang^3
#
#
#
# Elastic Constant Matrix: (Units=GPa)
#
#
# Indices 1 2 3 4 5 6 
#
# 1 111.0974 34.9701 36.8984 0.0000 24.2813 0.0000
# 2 34.9701 94.5414 23.6977 0.0000 6.7600 0.0000
# 3 36.8984 23.6977 63.6978 0.0000 16.5433 0.0000
# 4 0.0000 0.0000 0.0000 26.0558 0.0000 0.8885
# 5 24.2813 6.7600 16.5433 0.0000 41.8419 0.0000
# 6 0.0000 0.0000 0.0000 0.8885 0.0000 31.0510
#
#
#
# Elastic Compliance Matrix: (Units=1/GPa)
#
#
# Indices 1 2 3 4 5 6 
#
# 1 0.012687 -0.003109 -0.004916 0.000000 -0.004917 0.000000
# 2 -0.003109 0.012428 -0.003087 0.000000 0.001017 0.000000
# 3 -0.004916 -0.003087 0.020979 0.000000 -0.004943 0.000000
# 4 0.000000 0.000000 0.000000 0.038417 0.000000 -0.001099
# 5 -0.004917 0.001017 -0.004943 0.000000 0.028543 0.000000
# 6 0.000000 0.000000 0.000000 -0.001099 0.000000 0.032237
#
#
# Mechanical properties :
#
#
# Convention : Reuss Voigt Hill
#
# Bulk Modulus (GPa) = 41.89164 51.16322 46.52743
# Shear Modulus (GPa) = 28.49484 31.37443 29.93463
#
# Velocity S-wave (km/s) = 3.80827 3.99606 3.90330
# Velocity P-wave (km/s) = 6.37641 6.87981 6.63289
#
# Compressibility (1/GPa) = 0.02387111
#
# Stress axis : x y z
#
# Youngs Moduli (GPa) = 78.82142 80.46060 47.66704
#
# Poissons Ratio (x) = 0.25016 0.23431
# Poissons Ratio (y) = 0.24506 0.14714
# Poissons Ratio (z) = 0.38746 0.24837
#
# Static dielectric constant tensor:
#      x y z
#    x 3.793250 0.000000 0.170610 
#    y 0.000000 3.088790 0.000000 
#    z 0.170610 0.000000 2.700100 
# 
# 
# High freq. dielectric constant tensor:
#      x y z
#    x 1.790170 0.000000 0.019090 
#    y 0.000000 1.766400 0.000000 
#    z 0.019090 0.000000 1.726610 
# 
# From -- ./inp_files/50412.got.cif
#   From: 2010.06.25/outbox.cif.g09.slc.cpg/sg11_26_cif.got.tgz:50412.got - 2010.06.27 23:14:04.
