data_PCOD8068845
_publ_section_title
;
Structure prediction by ZEFSAII (Michael W. Deem and Ramdas Pophale) SiO2 
 PCOD8068845
Probable space group: P 21/M
;
_chemical_formula_sum "Si O2"
_cell_formula_units_Z 32
_cell_length_a 12.314418
_cell_length_b 8.657942
_cell_length_c 24.019746
_cell_angle_alpha 90.000000
_cell_angle_beta 133.911041
_cell_angle_gamma 90.000000
_cell_volume 1844.935616
_symmetry_space_group_name_H-M "P 21/M"
_symmetry_group_IT_number 11
_symmetry_cell_setting 'monoclinic'
loop_
_space_group_symop_operation_xyz
x,y,z
-x,1/2+y,-z
-x,-y,-z
x,1/2-y,z
loop_
_atom_site_type_symbol
_atom_site_label
_atom_site_fract_x
_atom_site_fract_y
_atom_site_fract_z
Si Si1 0.304739 0.432096 0.575096
Si Si2 0.466026 0.071237 0.428452
Si Si3 0.382471 0.570708 0.999602
Si Si4 0.413409 0.068884 0.835081
Si Si5 0.724638 0.431249 0.317086
Si Si6 0.869285 0.926509 0.671982
Si Si7 0.049035 0.930852 0.412329
Si Si8 0.175927 0.569904 0.833780
O O1 0.296340 0.250000 0.576633
O O2 0.443474 0.479588 0.585832
O O3 0.333971 0.502617 0.645813
O O4 0.145748 0.492361 0.495590
O O5 0.515442 0.250000 0.445247
O O6 0.288651 0.050894 0.352513
O O7 0.500000 0.000000 0.500000
O O8 0.413425 0.750000 0.010465
O O9 0.426868 0.516845 0.078260
O O10 0.500000 0.500000 0.000000
O O11 0.217835 0.532299 0.914162
O O12 0.409165 0.250000 0.819270
O O13 0.400430 0.973047 0.773614
O O14 0.273873 0.031401 0.826280
O O15 0.745208 0.250000 0.329150
O O16 0.881320 0.504777 0.353641
O O17 0.886431 0.750000 0.657103
O O18 0.000560 0.970390 0.762368
O O19 0.874588 0.034585 0.619801
O O20 0.045511 0.750000 0.421909
O O21 0.208537 0.750000 0.832553
#
# Coordination Sequence:
#
# PCOD8068845 Si02
#       8
#     4   4   4   4   4   4   4   4
#     4  12  25  41  57  75 101 135 178 221 263 310
#     4  11  22  37  56  78 104 137 176 220 264 308
#     4   8  15  26  43  68 101 136 170 205 249 302
#     4  10  18  29  46  73 105 138 172 209 253 306
#     4  12  24  38  54  75 105 139 176 214 260 314
#     4  10  20  33  53  78 106 139 177 214 257 305
#     4  12  23  36  55  78 106 137 173 213 260 310
#     4   9  16  29  48  72 103 139 173 210 253 303
#
# _framework density 17.344778999999999
#
# number of rings (size 3 to 8) (size 9 to 14) (size 15 to 20)
#    0.000    1.500    2.500    4.500    0.000    1.000 
#    0.000    0.000    0.000    0.000    0.000    0.875 
#    0.000    0.000    0.000    0.000    0.000    0.000 
#
# Total GULP energy -396651.916203 kJ/mol
# GULP energy per Si atom -12395.372381 kJ/mol
# Density = 1.730530 g / cm^3
# Si number density = 17.344779 Si / 1000 Ang^3
#
#
#
# Elastic Constant Matrix: (Units=GPa)
#
#
# Indices 1 2 3 4 5 6 
#
# 1 55.6386 25.7769 35.0287 0.0000 -11.3853 0.0000
# 2 25.7769 112.1248 43.4477 0.0000 -9.0300 0.0000
# 3 35.0287 43.4477 150.1236 0.0000 -12.0794 0.0000
# 4 0.0000 0.0000 0.0000 23.1120 0.0000 -4.0514
# 5 -11.3853 -9.0300 -12.0794 0.0000 21.1056 0.0000
# 6 0.0000 0.0000 0.0000 -4.0514 0.0000 22.8396
#
#
#
# Elastic Compliance Matrix: (Units=1/GPa)
#
#
# Indices 1 2 3 4 5 6 
#
# 1 0.023798 -0.003225 -0.003876 0.000000 0.009240 0.000000
# 2 -0.003225 0.010638 -0.002201 0.000000 0.001552 0.000000
# 3 -0.003876 -0.002201 0.008343 0.000000 0.001742 0.000000
# 4 0.000000 0.000000 0.000000 0.044656 0.000000 0.007921
# 5 0.009240 0.001552 0.001742 0.000000 0.054026 0.000000
# 6 0.000000 0.000000 0.000000 0.007921 0.000000 0.045189
#
#
# Mechanical properties :
#
#
# Convention : Reuss Voigt Hill
#
# Bulk Modulus (GPa) = 41.36650 58.48815 49.92733
# Shear Modulus (GPa) = 23.43972 27.65369 25.54671
#
# Velocity S-wave (km/s) = 3.68013 3.99727 3.84197
# Velocity P-wave (km/s) = 6.47758 7.42282 6.96625
#
# Compressibility (1/GPa) = 0.02417415
#
# Stress axis : x y z
#
# Youngs Moduli (GPa) = 42.01989 94.00205 119.86260
#
# Poissons Ratio (x) = 0.30316 0.46460
# Poissons Ratio (y) = 0.13551 0.26387
# Poissons Ratio (z) = 0.16287 0.20694
#
# Static dielectric constant tensor:
#      x y z
#    x 2.984000 0.000000 0.039780 
#    y 0.000000 3.364610 0.000000 
#    z 0.039780 0.000000 3.898160 
# 
# 
# High freq. dielectric constant tensor:
#      x y z
#    x 1.622160 0.000000 -0.000230 
#    y 0.000000 1.682830 0.000000 
#    z -0.000230 0.000000 1.688130 
# 
# From -- ./inp_files/68327.got.cif
#   From: 2010.06.25/outbox.cif.g09.slc.cpg/sg11_35_cif.got.tgz:68327.got - 2010.06.27 23:14:04.
