data_PCOD8068604
_publ_section_title
;
Structure prediction by ZEFSAII (Michael W. Deem and Ramdas Pophale) SiO2 
 PCOD8068604
Probable space group: P 21/M
;
_chemical_formula_sum "Si O2"
_cell_formula_units_Z 28
_cell_length_a 13.532821
_cell_length_b 9.447783
_cell_length_c 13.764496
_cell_angle_alpha 90.000000
_cell_angle_beta 123.161211
_cell_angle_gamma 90.000000
_cell_volume 1473.241579
_symmetry_space_group_name_H-M "P 21/M"
_symmetry_group_IT_number 11
_symmetry_cell_setting 'monoclinic'
loop_
_space_group_symop_operation_xyz
x,y,z
-x,1/2+y,-z
-x,-y,-z
x,1/2-y,z
loop_
_atom_site_type_symbol
_atom_site_label
_atom_site_fract_x
_atom_site_fract_y
_atom_site_fract_z
Si Si1 0.444573 0.591120 0.706818
Si Si2 0.647859 0.589747 0.668337
Si Si3 0.448675 0.918669 0.063728
Si Si4 0.977072 0.091615 0.753856
Si Si5 0.166595 0.906432 0.134369
Si Si6 0.266817 0.914831 0.458645
Si Si7 0.176037 0.909442 0.922472
O O1 0.452450 0.750000 0.756805
O O2 0.520541 0.583465 0.649367
O O3 0.481517 0.473983 0.804236
O O4 0.311922 0.561152 0.593760
O O5 0.684977 0.750000 0.664029
O O6 0.738139 0.527071 0.795396
O O7 0.649962 0.500272 0.570768
O O8 0.467131 0.750000 0.065437
O O9 0.311453 0.961067 0.997295
O O10 0.500000 0.000000 0.000000
O O11 0.011289 0.250000 0.741744
O O12 0.939729 0.083139 0.846669
O O13 0.869702 0.035081 0.627809
O O14 0.095583 0.999158 0.804687
O O15 0.226485 0.750000 0.175029
O O16 0.120063 0.925308 0.999781
O O17 0.274175 0.750000 0.432675
O O18 0.170766 0.750000 0.881075
#
# Coordination Sequence:
#
# PCOD8068604 Si02
#       7
#     4   4   4   4   4   4   4
#     4  10  20  35  55  78 107 142 180 223 269 318
#     4  10  18  27  46  78 109 143 184 222 257 308
#     4  11  24  41  61  83 106 135 175 227 281 325
#     4   9  18  30  49  76 108 146 180 212 253 310
#     4   9  17  31  47  70 107 147 180 215 263 317
#     4   9  19  34  50  74 112 151 181 213 260 315
#     4  10  20  34  53  75 104 140 175 219 271 318
#
# _framework density 19.005707000000001
#
# number of rings (size 3 to 8) (size 9 to 14) (size 15 to 20)
#    0.000    2.286    1.429    2.571    0.000    5.143 
#    0.000    0.000    0.000    0.857    0.000    0.000 
#    0.000    0.000    0.000    0.000    0.000    0.000 
#
# Total GULP energy -347036.500481 kJ/mol
# GULP energy per Si atom -12394.160731 kJ/mol
# Density = 1.896245 g / cm^3
# Si number density = 19.005707 Si / 1000 Ang^3
#
#
#
# Elastic Constant Matrix: (Units=GPa)
#
#
# Indices 1 2 3 4 5 6 
#
# 1 40.5120 33.3435 45.3036 0.0000 7.4271 0.0000
# 2 33.3435 99.2906 64.1108 0.0000 8.5605 0.0000
# 3 45.3036 64.1108 123.1756 0.0000 20.6565 0.0000
# 4 0.0000 0.0000 0.0000 28.0619 0.0000 4.0761
# 5 7.4271 8.5605 20.6565 0.0000 18.8660 0.0000
# 6 0.0000 0.0000 0.0000 4.0761 0.0000 26.2718
#
#
#
# Elastic Compliance Matrix: (Units=1/GPa)
#
#
# Indices 1 2 3 4 5 6 
#
# 1 0.044639 -0.006626 -0.012894 0.000000 -0.000449 0.000000
# 2 -0.006626 0.016225 -0.006382 0.000000 0.002235 0.000000
# 3 -0.012894 -0.006382 0.018185 0.000000 -0.011939 0.000000
# 4 0.000000 0.000000 0.000000 0.036457 0.000000 -0.005656
# 5 -0.000449 0.002235 -0.011939 0.000000 0.065240 0.000000
# 6 0.000000 0.000000 0.000000 -0.005656 0.000000 0.038941
#
#
# Mechanical properties :
#
#
# Convention : Reuss Voigt Hill
#
# Bulk Modulus (GPa) = 36.70580 60.94378 48.82479
# Shear Modulus (GPa) = 17.82055 22.65461 20.23758
#
# Velocity S-wave (km/s) = 3.06542 3.45627 3.26669
# Velocity P-wave (km/s) = 5.64659 6.93277 6.32247
#
# Compressibility (1/GPa) = 0.02724365
#
# Stress axis : x y z
#
# Youngs Moduli (GPa) = 22.40176 61.63271 54.99046
#
# Poissons Ratio (x) = 0.40841 0.70905
# Poissons Ratio (y) = 0.14844 0.35098
# Poissons Ratio (z) = 0.28885 0.39337
#
# Static dielectric constant tensor:
#      x y z
#    x 3.119760 0.000000 0.174390 
#    y 0.000000 3.569660 0.000000 
#    z 0.174390 0.000000 3.496830 
# 
# 
# High freq. dielectric constant tensor:
#      x y z
#    x 1.694930 0.000000 0.020090 
#    y 0.000000 1.742790 0.000000 
#    z 0.020090 0.000000 1.737840 
# 
# From -- ./inp_files/51116.got.cif
#   From: 2010.06.25/outbox.cif.g09.slc.cpg/sg11_26_cif.got.tgz:51116.got - 2010.06.27 23:14:04.
