data_PCOD8068107
_publ_section_title
;
Structure prediction by ZEFSAII (Michael W. Deem and Ramdas Pophale) SiO2 
 PCOD8068107
Probable space group: P 2/M
;
_chemical_formula_sum "Si O2"
_cell_formula_units_Z 28
_cell_length_a 30.000000
_cell_length_b 9.000000
_cell_length_c 30.000000
_cell_angle_alpha 90.000000
_cell_angle_beta 170.000000
_cell_angle_gamma 90.000000
_cell_volume 1406.550239
_symmetry_space_group_name_H-M "P 2/M"
_symmetry_group_IT_number 10
_symmetry_cell_setting 'monoclinic'
loop_
_space_group_symop_operation_xyz
x,y,z
-x,y,-z
-x,-y,-z
x,-y,z
loop_
_atom_site_type_symbol
_atom_site_label
_atom_site_fract_x
_atom_site_fract_y
_atom_site_fract_z
Si Si1 0.634448 0.327340 0.796193
Si Si2 0.374508 0.328443 0.107235
Si Si3 0.432313 0.327579 0.984719
Si Si4 0.893791 0.171998 0.588459
Si Si5 0.843174 0.177520 0.721203
Si Si6 0.086278 0.172325 0.496876
Si Si7 0.765721 0.329213 0.736846
O O1 0.633642 0.500000 0.779989
O O2 0.650336 0.314728 0.864580
O O3 0.372032 0.248813 0.522536
O O4 0.878389 0.244428 0.015629
O O5 0.365257 0.500000 0.082877
O O6 0.640412 0.258621 0.353288
O O7 0.139358 0.240961 0.854238
O O8 0.422357 0.500000 0.989215
O O9 0.153765 0.255349 0.717399
O O10 0.500000 0.309493 0.000000
O O11 0.646256 0.244735 0.224573
O O12 0.936398 0.188932 0.578117
O O13 0.866725 0.000000 0.575767
O O14 0.775698 0.217973 0.705322
O O15 0.847404 0.000000 0.719145
O O16 0.083321 0.000000 0.508598
O O17 0.500000 0.299010 0.500000
O O18 0.782841 0.500000 0.737198
O O19 0.000000 0.290596 0.000000
#
# Coordination Sequence:
#
# PCOD8068107 Si02
#       7
#     4   4   4   4   4   4   4
#     4  11  24  43  64  88 123 164 205 248 297 362
#     4  11  24  41  64  92 120 158 207 252 297 355
#     4  11  24  41  62  90 122 157 200 251 304 354
#     4  11  24  41  62  90 125 160 197 248 305 360
#     4  12  25  40  63  95 126 158 201 254 307 355
#     4  11  24  41  62  90 122 160 203 244 297 363
#     4  10  21  38  61  87 118 160 203 242 295 361
#
# _framework density 19.906860999999999
#
# number of rings (size 3 to 8) (size 9 to 14) (size 15 to 20)
#    0.000    1.000    0.000    6.429    0.000   16.000 
#    0.000    0.000    0.000    0.000    0.000    0.000 
#    0.000    0.000    0.000    0.000    0.000    0.000 
#
# Total GULP energy -347369.786059 kJ/mol
# GULP energy per Si atom -12406.063788 kJ/mol
# Density = 1.986155 g / cm^3
# Si number density = 19.906861 Si / 1000 Ang^3
#
#
#
# Elastic Constant Matrix: (Units=GPa)
#
#
# Indices 1 2 3 4 5 6 
#
# 1 67.5886 34.1066 6.7463 0.0000 0.9148 0.0000
# 2 34.1066 148.0824 23.4678 0.0000 -1.4980 0.0000
# 3 6.7463 23.4678 113.4375 0.0000 0.0863 0.0000
# 4 0.0000 0.0000 0.0000 48.4077 0.0000 1.7976
# 5 0.9148 -1.4980 0.0863 0.0000 43.9164 0.0000
# 6 0.0000 0.0000 0.0000 1.7976 0.0000 34.0648
#
#
#
# Elastic Compliance Matrix: (Units=1/GPa)
#
#
# Indices 1 2 3 4 5 6 
#
# 1 0.016756 -0.003832 -0.000203 0.000000 -0.000479 0.000000
# 2 -0.003832 0.007861 -0.001399 0.000000 0.000351 0.000000
# 3 -0.000203 -0.001399 0.009117 0.000000 -0.000061 0.000000
# 4 0.000000 0.000000 0.000000 0.020698 0.000000 -0.001092
# 5 -0.000479 0.000351 -0.000061 0.000000 0.022793 0.000000
# 6 0.000000 0.000000 0.000000 -0.001092 0.000000 0.029413
#
#
# Mechanical properties :
#
#
# Convention : Reuss Voigt Hill
#
# Bulk Modulus (GPa) = 43.73349 50.86111 47.29730
# Shear Modulus (GPa) = 39.95920 42.93028 41.44474
#
# Velocity S-wave (km/s) = 4.48516 4.64891 4.56777
# Velocity P-wave (km/s) = 6.98849 7.37709 7.18542
#
# Compressibility (1/GPa) = 0.02286577
#
# Stress axis : x y z
#
# Youngs Moduli (GPa) = 59.68078 127.21441 109.68623
#
# Poissons Ratio (x) = 0.48747 0.02231
# Poissons Ratio (y) = 0.22869 0.15341
# Poissons Ratio (z) = 0.01214 0.17792
#
# Static dielectric constant tensor:
#      x y z
#    x 3.751750 0.000000 0.014320 
#    y 0.000000 4.023550 0.000000 
#    z 0.014320 0.000000 4.027840 
# 
# 
# High freq. dielectric constant tensor:
#      x y z
#    x 1.794380 0.000000 0.001180 
#    y 0.000000 1.801690 0.000000 
#    z 0.001180 0.000000 1.811860 
# 
# From -- ./inp_files/13569.got.cif
#   From: 2010.06.25/outbox.ucp.g09.slc.cvg/sg10_7_cif.got.tgz:13569.got - 2010.06.28 13:37:52.
