data_PCOD8068963
_publ_section_title
;
Structure prediction by ZEFSAII (Michael W. Deem and Ramdas Pophale) SiO2 
 PCOD8068963
Probable space group: P 21/M
;
_chemical_formula_sum "Si O2"
_cell_formula_units_Z 32
_cell_length_a 13.533253
_cell_length_b 8.518676
_cell_length_c 18.548776
_cell_angle_alpha 90.000000
_cell_angle_beta 50.527107
_cell_angle_gamma 90.000000
_cell_volume 1650.687666
_symmetry_space_group_name_H-M "P 21/M"
_symmetry_group_IT_number 11
_symmetry_cell_setting 'monoclinic'
loop_
_space_group_symop_operation_xyz
x,y,z
-x,1/2+y,-z
-x,-y,-z
x,1/2-y,z
loop_
_atom_site_type_symbol
_atom_site_label
_atom_site_fract_x
_atom_site_fract_y
_atom_site_fract_z
Si Si1 0.514838 0.065010 0.663325
Si Si2 0.468250 0.063082 0.846432
Si Si3 0.762833 0.065014 0.960792
Si Si4 0.979150 0.431885 0.674485
Si Si5 0.276801 0.064206 0.682039
Si Si6 0.016517 0.566844 0.810491
Si Si7 0.251930 0.435988 0.528410
Si Si8 0.291519 0.936966 0.175731
O O1 0.512704 0.250000 0.663482
O O2 0.493512 0.003096 0.753953
O O3 0.403475 0.999640 0.663004
O O4 0.652866 0.010437 0.572637
O O5 0.458843 0.250000 0.855707
O O6 0.583358 0.996202 0.842920
O O7 0.336628 0.987176 0.932698
O O8 0.783196 0.250000 0.953871
O O9 0.710506 0.008144 0.906668
O O10 0.897751 0.979262 0.917459
O O11 0.976082 0.250000 0.658245
O O12 0.107079 0.500484 0.576251
O O13 0.999473 0.454931 0.749768
O O14 0.837512 0.502169 0.722595
O O15 0.261692 0.250000 0.697861
O O16 0.287991 0.013024 0.593160
O O17 0.155871 0.979492 0.777362
O O18 0.011685 0.750000 0.793137
O O19 0.257962 0.250000 0.519038
O O20 0.290813 0.750000 0.179705
#
# Coordination Sequence:
#
# PCOD8068963 Si02
#       8
#     4   4   4   4   4   4   4   4
#     4  10  21  34  49  70 101 134 165 203 248 290
#     4  10  20  34  50  72 100 131 166 207 245 283
#     4  10  19  33  53  75  99 131 163 197 242 296
#     4   8  15  30  50  74 101 130 161 198 244 292
#     4   9  18  34  52  72  98 131 165 200 244 295
#     4  10  18  29  50  79 102 122 155 205 250 289
#     4   9  17  30  51  73  96 127 167 207 242 287
#     4   8  15  30  53  75  98 128 163 199 242 290
#
# _framework density 19.385860000000001
#
# number of rings (size 3 to 8) (size 9 to 14) (size 15 to 20)
#    0.000    2.750    0.000    3.750    0.000    3.000 
#    0.000    3.750    0.000    0.000    0.000    0.000 
#    0.000    0.000    0.000    0.000    0.000    0.000 
#
# Total GULP energy -396505.437578 kJ/mol
# GULP energy per Si atom -12390.794924 kJ/mol
# Density = 1.934174 g / cm^3
# Si number density = 19.385860 Si / 1000 Ang^3
#
#
#
# Elastic Constant Matrix: (Units=GPa)
#
#
# Indices 1 2 3 4 5 6 
#
# 1 34.0619 10.7680 56.1322 0.0000 -10.0131 0.0000
# 2 10.7680 18.0964 22.1396 0.0000 0.5765 0.0000
# 3 56.1322 22.1396 168.2951 0.0000 -26.1269 0.0000
# 4 0.0000 0.0000 0.0000 27.8675 0.0000 -7.2710
# 5 -10.0131 0.5765 -26.1269 0.0000 32.3474 0.0000
# 6 0.0000 0.0000 0.0000 -7.2710 0.0000 13.3441
#
#
#
# Elastic Compliance Matrix: (Units=1/GPa)
#
#
# Indices 1 2 3 4 5 6 
#
# 1 0.069400 -0.016943 -0.020051 0.000000 0.005590 0.000000
# 2 -0.016943 0.072562 -0.005613 0.000000 -0.011072 0.000000
# 3 -0.020051 -0.005613 0.014201 0.000000 0.005363 0.000000
# 4 0.000000 0.000000 0.000000 0.041831 0.000000 0.022793
# 5 0.005590 -0.011072 0.005363 0.000000 0.037174 0.000000
# 6 0.000000 0.000000 0.000000 0.022793 0.000000 0.087359
#
#
# Mechanical properties :
#
#
# Convention : Reuss Voigt Hill
#
# Bulk Modulus (GPa) = 14.09481 44.28145 29.18813
# Shear Modulus (GPa) = 11.59043 23.47270 17.53157
#
# Velocity S-wave (km/s) = 2.44781 3.48345 3.01050
# Velocity P-wave (km/s) = 3.90839 6.25068 5.21280
#
# Compressibility (1/GPa) = 0.07094810
#
# Stress axis : x y z
#
# Youngs Moduli (GPa) = 14.40925 13.78136 70.41984
#
# Poissons Ratio (x) = 0.23350 1.41195
# Poissons Ratio (y) = 0.24414 0.39530
# Poissons Ratio (z) = 0.28891 0.07736
#
# Static dielectric constant tensor:
#      x y z
#    x 3.767740 0.000000 -0.510430 
#    y 0.000000 3.180000 0.000000 
#    z -0.510430 0.000000 3.907470 
# 
# 
# High freq. dielectric constant tensor:
#      x y z
#    x 1.734790 0.000000 -0.037570 
#    y 0.000000 1.728420 0.000000 
#    z -0.037570 0.000000 1.758790 
# 
# From -- ./inp_files/54234.got.cif
#   From: 2010.06.25/outbox.cif.g09.slc.cpg/sg11_28_cif.got.tgz:54234.got - 2010.06.27 23:14:04.
