data_PCOD8068265
_publ_section_title
;
Structure prediction by ZEFSAII (Michael W. Deem and Ramdas Pophale) SiO2 
 PCOD8068265
Probable space group: P 21/M
;
_chemical_formula_sum "Si O2"
_cell_formula_units_Z 28
_cell_length_a 28.682155
_cell_length_b 9.015408
_cell_length_c 14.567652
_cell_angle_alpha 90.000000
_cell_angle_beta 152.452949
_cell_angle_gamma 90.000000
_cell_volume 1742.114663
_symmetry_space_group_name_H-M "P 21/M"
_symmetry_group_IT_number 11
_symmetry_cell_setting 'monoclinic'
loop_
_space_group_symop_operation_xyz
x,y,z
-x,1/2+y,-z
-x,-y,-z
x,1/2-y,z
loop_
_atom_site_type_symbol
_atom_site_label
_atom_site_fract_x
_atom_site_fract_y
_atom_site_fract_z
Si Si1 0.872347 0.076491 0.966363
Si Si2 0.394498 0.920464 0.813172
Si Si3 0.860899 0.922050 0.328084
Si Si4 0.773476 0.077109 0.337925
Si Si5 0.085621 0.074213 0.273427
Si Si6 0.907517 0.077061 0.227602
Si Si7 0.773961 0.075705 0.616828
O O1 0.887020 0.250000 0.006057
O O2 0.861712 0.013706 0.051243
O O3 0.971821 0.017239 0.088788
O O4 0.776952 0.041364 0.732214
O O5 0.417796 0.750000 0.836852
O O6 0.336483 0.945977 0.808206
O O7 0.327833 0.982065 0.610533
O O8 0.500000 0.000000 0.000000
O O9 0.831772 0.750000 0.278046
O O10 0.972422 0.949889 0.563251
O O11 0.778114 0.013003 0.242791
O O12 0.853743 0.981897 0.212139
O O13 0.803046 0.250000 0.390890
O O14 0.853124 0.980970 0.532229
O O15 0.094878 0.250000 0.282342
O O16 0.128455 0.001702 0.256022
O O17 0.883541 0.250000 0.202458
O O18 0.785417 0.250000 0.617254
#
# Coordination Sequence:
#
# PCOD8068265 Si02
#       7
#     4   4   4   4   4   4   4
#     4   9  16  28  44  62  90 124 156 185 215 260
#     4   9  19  33  49  69  90 114 147 186 232 277
#     4  10  18  29  44  66  92 121 158 192 223 259
#     4  10  19  31  47  67  91 121 154 188 227 273
#     4  10  17  27  42  64  91 121 154 185 217 260
#     4   9  17  29  43  62  91 127 159 186 219 258
#     4   9  18  31  45  64  89 119 152 185 223 271
#
# _framework density 16.072420999999999
#
# number of rings (size 3 to 8) (size 9 to 14) (size 15 to 20)
#    0.000    2.571    1.429    2.571    0.000    3.429 
#    0.000    1.429    0.000    0.000    0.000    1.000 
#    0.000    0.000    0.000    0.000    0.000    0.000 
#
# Total GULP energy -347000.068806 kJ/mol
# GULP energy per Si atom -12392.859600 kJ/mol
# Density = 1.603584 g / cm^3
# Si number density = 16.072421 Si / 1000 Ang^3
#
#
#
# Elastic Constant Matrix: (Units=GPa)
#
#
# Indices 1 2 3 4 5 6 
#
# 1 95.6192 24.7969 52.1213 0.0000 -21.7487 0.0000
# 2 24.7969 34.5012 17.7147 0.0000 -3.0029 0.0000
# 3 52.1213 17.7147 76.9456 0.0000 -12.0748 0.0000
# 4 0.0000 0.0000 0.0000 17.0229 0.0000 0.5364
# 5 -21.7487 -3.0029 -12.0748 0.0000 24.7782 0.0000
# 6 0.0000 0.0000 0.0000 0.5364 0.0000 27.7567
#
#
#
# Elastic Compliance Matrix: (Units=1/GPa)
#
#
# Indices 1 2 3 4 5 6 
#
# 1 0.021279 -0.008859 -0.010408 0.000000 0.012532 0.000000
# 2 -0.008859 0.036561 -0.003185 0.000000 -0.004897 0.000000
# 3 -0.010408 -0.003185 0.020882 0.000000 0.000655 0.000000
# 4 0.000000 0.000000 0.000000 0.058780 0.000000 -0.001136
# 5 0.012532 -0.004897 0.000655 0.000000 0.051083 0.000000
# 6 0.000000 0.000000 0.000000 -0.001136 0.000000 0.036049
#
#
# Mechanical properties :
#
#
# Convention : Reuss Voigt Hill
#
# Bulk Modulus (GPa) = 29.56933 44.03685 36.80309
# Shear Modulus (GPa) = 17.80551 21.40708 19.60630
#
# Velocity S-wave (km/s) = 3.33202 3.65350 3.49646
# Velocity P-wave (km/s) = 5.76547 6.72725 6.26484
#
# Compressibility (1/GPa) = 0.03381883
#
# Stress axis : x y z
#
# Youngs Moduli (GPa) = 46.99393 27.35170 47.88755
#
# Poissons Ratio (x) = 0.24232 0.49841
# Poissons Ratio (y) = 0.41633 0.15250
# Poissons Ratio (z) = 0.48911 0.08710
#
# Static dielectric constant tensor:
#      x y z
#    x 3.148470 0.000000 -0.260720 
#    y 0.000000 2.974440 0.000000 
#    z -0.260720 0.000000 2.896120 
# 
# 
# High freq. dielectric constant tensor:
#      x y z
#    x 1.611880 0.000000 -0.025880 
#    y 0.000000 1.613720 0.000000 
#    z -0.025880 0.000000 1.582850 
# 
# From -- ./inp_files/42622.got.cif
#   From: 2010.06.25/outbox.cif.g09.slc.cpg/sg11_22_cif.got.tgz:42622.got - 2010.06.27 23:14:04.
