data_PCOD8068649
_publ_section_title
;
Structure prediction by ZEFSAII (Michael W. Deem and Ramdas Pophale) SiO2 
 PCOD8068649
Probable space group: P 21/M
;
_chemical_formula_sum "Si O2"
_cell_formula_units_Z 32
_cell_length_a 17.904104
_cell_length_b 8.915494
_cell_length_c 24.134512
_cell_angle_alpha 90.000000
_cell_angle_beta 149.887007
_cell_angle_gamma 90.000000
_cell_volume 1932.798647
_symmetry_space_group_name_H-M "P 21/M"
_symmetry_group_IT_number 11
_symmetry_cell_setting 'monoclinic'
loop_
_space_group_symop_operation_xyz
x,y,z
-x,1/2+y,-z
-x,-y,-z
x,1/2-y,z
loop_
_atom_site_type_symbol
_atom_site_label
_atom_site_fract_x
_atom_site_fract_y
_atom_site_fract_z
Si Si1 0.459366 0.424356 0.531258
Si Si2 0.823336 0.076062 0.158264
Si Si3 0.612156 0.076721 0.112570
Si Si4 0.871487 0.577494 0.696224
Si Si5 0.963246 0.074282 0.864410
Si Si6 0.725272 0.427914 0.911566
Si Si7 0.594330 0.926425 0.928690
Si Si8 0.304627 0.927044 0.230920
O O1 0.500000 0.500000 0.500000
O O2 0.496443 0.250000 0.548232
O O3 0.286148 0.452063 0.434932
O O4 0.559832 0.493558 0.645279
O O5 0.789923 0.250000 0.122938
O O6 0.777001 0.040952 0.193346
O O7 0.997985 0.039739 0.263987
O O8 0.730503 0.976998 0.055383
O O9 0.576709 0.250000 0.085798
O O10 0.566710 0.029040 0.146315
O O11 0.500000 0.000000 0.000000
O O12 0.882774 0.750000 0.723680
O O13 0.881965 0.468731 0.755400
O O14 0.000074 0.250000 0.888142
O O15 0.853924 0.028905 0.844356
O O16 0.113137 0.981030 0.965693
O O17 0.722219 0.250000 0.910768
O O18 0.601560 0.490514 0.874438
O O19 0.688374 0.492574 0.826794
O O20 0.609738 0.750000 0.928179
O O21 0.321168 0.750000 0.238851
#
# Coordination Sequence:
#
# PCOD8068649 Si02
#       8
#     4   4   4   4   4   4   4   4
#     4  10  19  34  51  69  91 119 155 195 233 272
#     4   9  16  28  44  66  94 122 149 183 226 278
#     4   8  15  26  41  61  90 121 149 179 221 275
#     4  10  19  29  48  73  95 120 152 187 228 277
#     4  11  20  32  49  68  93 122 153 191 233 276
#     4  11  21  33  47  65  92 126 160 192 228 273
#     4  10  18  28  43  66  92 122 153 186 227 274
#     4   9  20  35  49  65  90 124 159 195 232 269
#
# _framework density 16.556303
#
# number of rings (size 3 to 8) (size 9 to 14) (size 15 to 20)
#    0.000    2.250    2.500    1.500    0.000    0.500 
#    0.000    3.125    0.000    0.000    0.000    0.875 
#    0.000    0.000    0.000    0.000    0.000    0.000 
#
# Total GULP energy -396521.828208 kJ/mol
# GULP energy per Si atom -12391.307132 kJ/mol
# Density = 1.651862 g / cm^3
# Si number density = 16.556303 Si / 1000 Ang^3
#
#
#
# Elastic Constant Matrix: (Units=GPa)
#
#
# Indices 1 2 3 4 5 6 
#
# 1 153.8895 35.2404 37.3245 0.0000 5.7336 0.0000
# 2 35.2404 42.6343 15.0402 0.0000 0.3824 0.0000
# 3 37.3245 15.0402 49.8066 0.0000 -2.8592 0.0000
# 4 0.0000 0.0000 0.0000 12.0519 0.0000 -1.0366
# 5 5.7336 0.3824 -2.8592 0.0000 21.0428 0.0000
# 6 0.0000 0.0000 0.0000 -1.0366 0.0000 22.5426
#
#
#
# Elastic Compliance Matrix: (Units=1/GPa)
#
#
# Indices 1 2 3 4 5 6 
#
# 1 0.009223 -0.005701 -0.005370 0.000000 -0.003139 0.000000
# 2 -0.005701 0.029827 -0.004713 0.000000 0.000371 0.000000
# 3 -0.005370 -0.004713 0.025816 0.000000 0.005057 0.000000
# 4 0.000000 0.000000 0.000000 0.083304 0.000000 0.003831
# 5 -0.003139 0.000371 0.005057 0.000000 0.049058 0.000000
# 6 0.000000 0.000000 0.000000 0.003831 0.000000 0.044537
#
#
# Mechanical properties :
#
#
# Convention : Reuss Voigt Hill
#
# Bulk Modulus (GPa) = 30.03325 46.83785 38.43555
# Shear Modulus (GPa) = 17.57886 21.70915 19.64400
#
# Velocity S-wave (km/s) = 3.26200 3.62502 3.44829
# Velocity P-wave (km/s) = 5.68920 6.77292 6.25458
#
# Compressibility (1/GPa) = 0.03329643
#
# Stress axis : x y z
#
# Youngs Moduli (GPa) = 108.42239 33.52666 38.73595
#
# Poissons Ratio (x) = 0.19113 0.20803
# Poissons Ratio (y) = 0.61811 0.18258
# Poissons Ratio (z) = 0.58228 0.15802
#
# Static dielectric constant tensor:
#      x y z
#    x 3.815030 0.000000 0.160150 
#    y 0.000000 3.031940 0.000000 
#    z 0.160150 0.000000 3.053360 
# 
# 
# High freq. dielectric constant tensor:
#      x y z
#    x 1.652350 0.000000 0.014950 
#    y 0.000000 1.633440 0.000000 
#    z 0.014950 0.000000 1.595110 
# 
# From -- ./inp_files/43813.got.cif
#   From: 2010.06.25/outbox.cif.g09.slc.cpg/sg11_22_cif.got.tgz:43813.got - 2010.06.27 23:14:04.
