data_PCOD8068137
_publ_section_title
;
Structure prediction by ZEFSAII (Michael W. Deem and Ramdas Pophale) SiO2 
 PCOD8068137
Probable space group: P 21/M
;
_chemical_formula_sum "Si O2"
_cell_formula_units_Z 28
_cell_length_a 22.463082
_cell_length_b 8.589291
_cell_length_c 18.146885
_cell_angle_alpha 90.000000
_cell_angle_beta 152.970509
_cell_angle_gamma 90.000000
_cell_volume 1591.160357
_symmetry_space_group_name_H-M "P 21/M"
_symmetry_group_IT_number 11
_symmetry_cell_setting 'monoclinic'
loop_
_space_group_symop_operation_xyz
x,y,z
-x,1/2+y,-z
-x,-y,-z
x,1/2-y,z
loop_
_atom_site_type_symbol
_atom_site_label
_atom_site_fract_x
_atom_site_fract_y
_atom_site_fract_z
Si Si1 0.431372 0.932312 0.735726
Si Si2 0.354012 0.065658 0.348407
Si Si3 0.600739 0.433244 0.458382
Si Si4 0.861467 0.065577 0.324320
Si Si5 0.313866 0.933038 0.157416
Si Si6 0.275346 0.065372 0.964649
Si Si7 0.633373 0.434659 0.178510
O O1 0.450245 0.750000 0.764799
O O2 0.349078 0.969094 0.569853
O O3 0.354600 0.994749 0.723114
O O4 0.579371 0.000514 0.894741
O O5 0.353097 0.250000 0.347781
O O6 0.500000 0.000000 0.500000
O O7 0.302371 0.000176 0.371133
O O8 0.264888 0.002477 0.182451
O O9 0.576951 0.250000 0.443802
O O10 0.464813 0.522961 0.315482
O O11 0.865427 0.250000 0.328835
O O12 0.755131 0.000686 0.265844
O O13 0.827732 0.005565 0.205892
O O14 0.000000 0.000000 0.500000
O O15 0.292520 0.750000 0.133828
O O16 0.234682 0.008386 0.001873
O O17 0.267888 0.250000 0.953712
O O18 0.629539 0.250000 0.169775
O O19 0.500000 0.500000 0.000000
#
# Coordination Sequence:
#
# PCOD8068137 Si02
#       7
#     4   4   4   4   4   4   4
#     4   8  15  27  45  67  92 120 154 197 244 289
#     4  10  16  23  34  52  81 118 156 191 232 281
#     4   9  15  24  37  56  84 119 153 190 239 287
#     4  11  23  36  52  73 100 132 168 206 251 299
#     4  10  17  25  38  58  85 117 156 195 233 285
#     4  10  18  31  49  67  92 123 158 201 249 293
#     4  10  19  33  52  75  97 126 165 207 249 297
#
# _framework density 17.597221999999999
#
# number of rings (size 3 to 8) (size 9 to 14) (size 15 to 20)
#    0.000    2.286    1.429    6.429    0.000    0.571 
#    0.000    0.714    0.000    0.000    0.000    0.000 
#    0.000    1.143    0.000    3.143    0.000    6.714 
#
# Total GULP energy -346921.774333 kJ/mol
# GULP energy per Si atom -12390.063369 kJ/mol
# Density = 1.755717 g / cm^3
# Si number density = 17.597222 Si / 1000 Ang^3
#
#
#
# Elastic Constant Matrix: (Units=GPa)
#
#
# Indices 1 2 3 4 5 6 
#
# 1 133.3981 34.4401 74.7542 0.0000 -46.4437 0.0000
# 2 34.4401 70.4404 29.4383 0.0000 -9.3339 0.0000
# 3 74.7542 29.4383 85.7741 0.0000 -26.1387 0.0000
# 4 0.0000 0.0000 0.0000 23.1482 0.0000 -10.5792
# 5 -46.4437 -9.3339 -26.1387 0.0000 36.9349 0.0000
# 6 0.0000 0.0000 0.0000 -10.5792 0.0000 20.8974
#
#
#
# Elastic Compliance Matrix: (Units=1/GPa)
#
#
# Indices 1 2 3 4 5 6 
#
# 1 0.020953 -0.002948 -0.012045 0.000000 0.017078 0.000000
# 2 -0.002948 0.016990 -0.003931 0.000000 -0.002195 0.000000
# 3 -0.012045 -0.003931 0.023698 0.000000 0.000631 0.000000
# 4 0.000000 0.000000 0.000000 0.056203 0.000000 0.028453
# 5 0.017078 -0.002195 0.000631 0.000000 0.048442 0.000000
# 6 0.000000 0.000000 0.000000 0.028453 0.000000 0.062257
#
#
# Mechanical properties :
#
#
# Convention : Reuss Voigt Hill
#
# Bulk Modulus (GPa) = 42.02903 62.98641 52.50772
# Shear Modulus (GPa) = 18.22681 26.26141 22.24411
#
# Velocity S-wave (km/s) = 3.22184 3.86730 3.55923
# Velocity P-wave (km/s) = 6.14623 7.47077 6.84063
#
# Compressibility (1/GPa) = 0.02379308
#
# Stress axis : x y z
#
# Youngs Moduli (GPa) = 47.72509 58.85979 42.19824
#
# Poissons Ratio (x) = 0.17350 0.50829
# Poissons Ratio (y) = 0.14068 0.16588
# Poissons Ratio (z) = 0.57486 0.23137
#
# Static dielectric constant tensor:
#      x y z
#    x 4.156800 0.000000 -1.017980 
#    y 0.000000 3.211120 0.000000 
#    z -1.017980 0.000000 3.193210 
# 
# 
# High freq. dielectric constant tensor:
#      x y z
#    x 1.683080 0.000000 -0.059400 
#    y 0.000000 1.682280 0.000000 
#    z -0.059400 0.000000 1.624520 
# 
# From -- ./inp_files/61295.got.cif
#   From: 2010.06.25/outbox.cif.g09.slc.cpg/sg11_31_cif.got.tgz:61295.got - 2010.06.27 23:14:04.
