data_PCOD8068870
_publ_section_title
;
Structure prediction by ZEFSAII (Michael W. Deem and Ramdas Pophale) SiO2 
 PCOD8068870
Probable space group: P 21/M
;
_chemical_formula_sum "Si O2"
_cell_formula_units_Z 32
_cell_length_a 17.910580
_cell_length_b 17.819206
_cell_length_c 11.466323
_cell_angle_alpha 90.000000
_cell_angle_beta 29.672114
_cell_angle_gamma 90.000000
_cell_volume 1811.585419
_symmetry_space_group_name_H-M "P 21/M"
_symmetry_group_IT_number 11
_symmetry_cell_setting 'monoclinic'
loop_
_space_group_symop_operation_xyz
x,y,z
-x,1/2+y,-z
-x,-y,-z
x,1/2-y,z
loop_
_atom_site_type_symbol
_atom_site_label
_atom_site_fract_x
_atom_site_fract_y
_atom_site_fract_z
Si Si1 0.567655 0.338191 0.959143
Si Si2 0.022678 0.838011 0.227725
Si Si3 0.994659 0.336390 0.268154
Si Si4 0.167346 0.914518 0.830831
Si Si5 0.299472 0.917581 0.421434
Si Si6 0.854128 0.579802 0.120903
Si Si7 0.866640 0.163924 0.677757
Si Si8 0.278368 0.094007 0.461694
O O1 0.584606 0.250000 0.912837
O O2 0.564791 0.379761 0.836353
O O3 0.708659 0.369831 0.844186
O O4 0.414766 0.355005 0.233986
O O5 0.987375 0.750000 0.281593
O O6 0.081479 0.872441 0.270551
O O7 0.871953 0.882539 0.402013
O O8 0.150916 0.853047 0.955026
O O9 0.969894 0.250000 0.265379
O O10 0.852897 0.385584 0.425246
O O11 0.002791 0.344317 0.397981
O O12 0.143120 0.367943 0.999219
O O13 0.303855 0.896230 0.554453
O O14 0.191929 0.996063 0.856078
O O15 0.019131 0.918957 0.952903
O O16 0.307525 0.007012 0.396019
O O17 0.738354 0.609516 0.376599
O O18 0.833724 0.250000 0.750197
#
# Coordination Sequence:
#
# PCOD8068870 Si02
#       8
#     4   4   4   4   4   4   4   4
#     4  10  19  32  49  67  88 119 157 186 214 266
#     4  10  18  29  47  71  95 117 147 189 231 265
#     4   9  15  26  45  65  87 119 157 187 214 261
#     4   8  15  27  43  64  91 119 145 180 226 267
#     4   9  17  30  46  65  93 121 149 185 226 265
#     4   8  15  27  42  65  94 117 143 184 227 263
#     4   8  17  31  45  64  92 122 149 183 224 264
#     4  10  19  30  47  70  95 118 144 186 235 270
#
# _framework density 17.664085
#
# number of rings (size 3 to 8) (size 9 to 14) (size 15 to 20)
#    0.000    3.000    0.000    4.125    0.000    5.500 
#    0.000    5.625    0.000    4.500    0.000    3.500 
#    0.000    0.000    0.000    0.000    0.000    0.000 
#
# Total GULP energy -396425.531956 kJ/mol
# GULP energy per Si atom -12388.297874 kJ/mol
# Density = 1.762388 g / cm^3
# Si number density = 17.664085 Si / 1000 Ang^3
#
#
#
# Elastic Constant Matrix: (Units=GPa)
#
#
# Indices 1 2 3 4 5 6 
#
# 1 69.1431 22.5877 34.2468 0.0000 20.6708 0.0000
# 2 22.5877 54.0982 22.2307 0.0000 9.6889 0.0000
# 3 34.2468 22.2307 94.0006 0.0000 23.3320 0.0000
# 4 0.0000 0.0000 0.0000 27.9545 0.0000 14.2388
# 5 20.6708 9.6889 23.3320 0.0000 21.3612 0.0000
# 6 0.0000 0.0000 0.0000 14.2388 0.0000 11.8655
#
#
#
# Elastic Compliance Matrix: (Units=1/GPa)
#
#
# Indices 1 2 3 4 5 6 
#
# 1 0.022466 -0.005286 -0.002928 0.000000 -0.016145 0.000000
# 2 -0.005286 0.022198 -0.002873 0.000000 -0.001815 0.000000
# 3 -0.002928 -0.002873 0.015582 0.000000 -0.012884 0.000000
# 4 0.000000 0.000000 0.000000 0.092016 0.000000 -0.110420
# 5 -0.016145 -0.001815 -0.012884 0.000000 0.077332 0.000000
# 6 0.000000 0.000000 0.000000 -0.110420 0.000000 0.216783
#
#
# Mechanical properties :
#
#
# Convention : Reuss Voigt Hill
#
# Bulk Modulus (GPa) = 26.26568 41.70802 33.98685
# Shear Modulus (GPa) = 10.38979 21.44803 15.91891
#
# Velocity S-wave (km/s) = 2.42789 3.48834 3.00526
# Velocity P-wave (km/s) = 4.77088 6.31567 5.59683
#
# Compressibility (1/GPa) = 0.03807250
#
# Stress axis : x y z
#
# Youngs Moduli (GPa) = 44.51138 45.04967 64.17568
#
# Poissons Ratio (x) = 0.23812 0.18788
# Poissons Ratio (y) = 0.23528 0.18440
# Poissons Ratio (z) = 0.13031 0.12945
#
# Static dielectric constant tensor:
#      x y z
#    x 3.251360 0.000000 0.656410 
#    y 0.000000 3.316380 0.000000 
#    z 0.656410 0.000000 3.681550 
# 
# 
# High freq. dielectric constant tensor:
#      x y z
#    x 1.643210 0.000000 0.047170 
#    y 0.000000 1.680470 0.000000 
#    z 0.047170 0.000000 1.677040 
# 
# From -- ./inp_files/36009.got.cif
#   From: 2010.06.25/outbox.cif.g09.slc.cpg/sg11_19_cif.got.tgz:36009.got - 2010.06.27 23:14:04.
