data_PCOD8068867
_publ_section_title
;
Structure prediction by ZEFSAII (Michael W. Deem and Ramdas Pophale) SiO2 
 PCOD8068867
Probable space group: P 21/M
;
_chemical_formula_sum "Si O2"
_cell_formula_units_Z 32
_cell_length_a 24.877564
_cell_length_b 8.974922
_cell_length_c 20.324805
_cell_angle_alpha 90.000000
_cell_angle_beta 156.562911
_cell_angle_gamma 90.000000
_cell_volume 1804.954502
_symmetry_space_group_name_H-M "P 21/M"
_symmetry_group_IT_number 11
_symmetry_cell_setting 'monoclinic'
loop_
_space_group_symop_operation_xyz
x,y,z
-x,1/2+y,-z
-x,-y,-z
x,1/2-y,z
loop_
_atom_site_type_symbol
_atom_site_label
_atom_site_fract_x
_atom_site_fract_y
_atom_site_fract_z
Si Si1 0.914042 0.423906 0.259061
Si Si2 0.672829 0.923235 0.743565
Si Si3 0.274081 0.422822 0.847888
Si Si4 0.575126 0.076000 0.228736
Si Si5 0.468321 0.426263 0.687729
Si Si6 0.220328 0.422625 0.637320
Si Si7 0.396946 0.076514 0.469483
Si Si8 0.751695 0.574304 0.969614
O O1 0.889804 0.250000 0.222103
O O2 0.821989 0.478583 0.215200
O O3 0.067735 0.462000 0.447633
O O4 0.877405 0.506724 0.150030
O O5 0.641470 0.750000 0.712578
O O6 0.714139 0.965161 0.713263
O O7 0.777069 0.962826 0.919836
O O8 0.535885 0.004049 0.605767
O O9 0.244135 0.250000 0.828635
O O10 0.243781 0.465207 0.739102
O O11 0.427970 0.464693 0.036093
O O12 0.591290 0.250000 0.260051
O O13 0.603654 0.989915 0.328685
O O14 0.683700 0.025368 0.297779
O O15 0.489538 0.250000 0.718803
O O16 0.367373 0.467222 0.512406
O O17 0.613957 0.502144 0.841926
O O18 0.254533 0.250000 0.662655
O O19 0.423423 0.250000 0.497499
O O20 0.742777 0.750000 0.972927
#
# Coordination Sequence:
#
# PCOD8068867 Si02
#       8
#     4   4   4   4   4   4   4   4
#     4  11  22  35  54  78 103 136 173 210 254 303
#     4   8  14  24  39  62  94 129 163 201 245 292
#     4  10  21  38  58  78 102 131 167 212 257 307
#     4  11  22  35  54  79 104 135 171 208 256 307
#     4  10  18  29  48  72 101 135 169 208 250 297
#     4  10  23  40  55  75 103 134 172 213 255 304
#     4   8  14  24  39  63  94 128 164 200 244 293
#     4  10  18  29  47  71 101 135 170 209 251 297
#
# _framework density 17.728978999999999
#
# number of rings (size 3 to 8) (size 9 to 14) (size 15 to 20)
#    0.000    2.250    1.250    2.250    0.000    3.000 
#    0.000    0.000    0.000    0.000    0.000    0.875 
#    0.000    0.000    0.000    0.000    0.000    0.000 
#
# Total GULP energy -396450.287359 kJ/mol
# GULP energy per Si atom -12389.071480 kJ/mol
# Density = 1.768863 g / cm^3
# Si number density = 17.728979 Si / 1000 Ang^3
#
#
#
# Elastic Constant Matrix: (Units=GPa)
#
#
# Indices 1 2 3 4 5 6 
#
# 1 123.6452 52.3939 93.0106 0.0000 -32.9827 0.0000
# 2 52.3939 71.2105 48.9832 0.0000 -9.5734 0.0000
# 3 93.0106 48.9832 90.1460 0.0000 -26.7196 0.0000
# 4 0.0000 0.0000 0.0000 78.7205 0.0000 17.1425
# 5 -32.9827 -9.5734 -26.7196 0.0000 40.4467 0.0000
# 6 0.0000 0.0000 0.0000 17.1425 0.0000 28.9695
#
#
#
# Elastic Compliance Matrix: (Units=1/GPa)
#
#
# Indices 1 2 3 4 5 6 
#
# 1 0.037574 -0.002295 -0.035564 0.000000 0.006603 0.000000
# 2 -0.002295 0.022949 -0.011250 0.000000 -0.003871 0.000000
# 3 -0.035564 -0.011250 0.055353 0.000000 0.004903 0.000000
# 4 0.000000 0.000000 0.000000 0.014582 0.000000 -0.008629
# 5 0.006603 -0.003871 0.004903 0.000000 0.032431 0.000000
# 6 0.000000 0.000000 0.000000 -0.008629 0.000000 0.039625
#
#
# Mechanical properties :
#
#
# Convention : Reuss Voigt Hill
#
# Bulk Modulus (GPa) = 56.62618 74.86414 65.74516
# Shear Modulus (GPa) = 16.30692 35.66827 25.98759
#
# Velocity S-wave (km/s) = 3.03609 4.49025 3.83276
# Velocity P-wave (km/s) = 6.65580 8.31876 7.53331
#
# Compressibility (1/GPa) = 0.01765968
#
# Stress axis : x y z
#
# Youngs Moduli (GPa) = 26.61431 43.57464 18.06571
#
# Poissons Ratio (x) = 0.09998 0.64249
# Poissons Ratio (y) = 0.06107 0.20324
# Poissons Ratio (z) = 0.94651 0.49021
#
# Static dielectric constant tensor:
#      x y z
#    x 3.578980 0.000000 -0.703990 
#    y 0.000000 3.310940 0.000000 
#    z -0.703990 0.000000 3.030120 
# 
# 
# High freq. dielectric constant tensor:
#      x y z
#    x 1.681600 0.000000 -0.048030 
#    y 0.000000 1.694840 0.000000 
#    z -0.048030 0.000000 1.666940 
# 
# From -- ./inp_files/67251.got.cif
#   From: 2010.06.25/outbox.cif.g09.slc.cpg/sg11_34_cif.got.tgz:67251.got - 2010.06.27 23:14:04.
