data_PCOD8068184
_publ_section_title
;
Structure prediction by ZEFSAII (Michael W. Deem and Ramdas Pophale) SiO2 
 PCOD8068184
Probable space group: P 21/M
;
_chemical_formula_sum "Si O2"
_cell_formula_units_Z 32
_cell_length_a 14.333399
_cell_length_b 20.119547
_cell_length_c 8.882190
_cell_angle_alpha 90.000000
_cell_angle_beta 138.627370
_cell_angle_gamma 90.000000
_cell_volume 1693.005352
_symmetry_space_group_name_H-M "P 21/M"
_symmetry_group_IT_number 11
_symmetry_cell_setting 'monoclinic'
loop_
_space_group_symop_operation_xyz
x,y,z
-x,1/2+y,-z
-x,-y,-z
x,1/2-y,z
loop_
_atom_site_type_symbol
_atom_site_label
_atom_site_fract_x
_atom_site_fract_y
_atom_site_fract_z
Si Si1 0.210915 0.948012 0.968268
Si Si2 0.085138 0.082835 0.281914
Si Si3 0.243946 0.416400 0.178890
Si Si4 0.253410 0.507815 0.703620
Si Si5 0.488958 0.413926 0.701301
Si Si6 0.655800 0.824497 0.931266
Si Si7 0.304931 0.324164 0.674124
Si Si8 0.496985 0.940722 0.839759
O O1 0.167154 0.964183 0.742133
O O2 0.082049 0.912544 0.896253
O O3 0.346767 0.898965 0.136830
O O4 0.256698 0.016020 0.102655
O O5 0.114004 0.076568 0.138029
O O6 0.157555 0.149608 0.428435
O O7 0.147786 0.019132 0.447976
O O8 0.389294 0.399231 0.439884
O O9 0.225604 0.355273 0.038284
O O10 0.353296 0.567869 0.762875
O O11 0.361803 0.449035 0.885394
O O12 0.437911 0.368606 0.779790
O O13 0.473802 0.492190 0.717163
O O14 0.612689 0.750000 0.826639
O O15 0.520427 0.875242 0.765142
O O16 0.714506 0.822326 0.170615
O O17 0.329448 0.250000 0.641630
#
# Coordination Sequence:
#
# PCOD8068184 Si02
#       8
#     4   4   4   4   4   4   4   4
#     4  11  21  32  54  85 113 141 180 232 280 327
#     4  11  21  35  52  82 112 145 185 222 284 327
#     4  11  21  34  51  78 119 148 186 224 273 334
#     4  10  17  31  57  81 110 138 178 232 285 319
#     4  10  20  35  60  83 111 146 186 235 281 323
#     4  11  21  33  55  84 110 143 185 233 283 330
#     4  10  20  38  60  81 108 144 189 232 280 343
#     4  10  16  33  57  84 109 136 185 240 276 318
#
# _framework density 18.901299999999999
#
# number of rings (size 3 to 8) (size 9 to 14) (size 15 to 20)
#    0.000    1.500    6.250    2.625    0.000    2.000 
#    0.000    0.625    0.000    0.750    0.000    6.125 
#    0.000    0.000    0.000    0.000    0.000    0.000 
#
# Total GULP energy -396531.766535 kJ/mol
# GULP energy per Si atom -12391.617704 kJ/mol
# Density = 1.885828 g / cm^3
# Si number density = 18.901300 Si / 1000 Ang^3
#
#
#
# Elastic Constant Matrix: (Units=GPa)
#
#
# Indices 1 2 3 4 5 6 
#
# 1 161.4597 46.7438 38.5518 0.0000 5.3655 0.0000
# 2 46.7438 99.2548 12.4473 0.0000 3.9908 0.0000
# 3 38.5518 12.4473 41.5672 0.0000 7.4104 0.0000
# 4 0.0000 0.0000 0.0000 12.4307 0.0000 -0.4912
# 5 5.3655 3.9908 7.4104 0.0000 34.4359 0.0000
# 6 0.0000 0.0000 0.0000 -0.4912 0.0000 17.2518
#
#
#
# Elastic Compliance Matrix: (Units=1/GPa)
#
#
# Indices 1 2 3 4 5 6 
#
# 1 0.008882 -0.003283 -0.007357 0.000000 0.000580 0.000000
# 2 -0.003283 0.011692 -0.000318 0.000000 -0.000775 0.000000
# 3 -0.007357 -0.000318 0.031993 0.000000 -0.005701 0.000000
# 4 0.000000 0.000000 0.000000 0.080536 0.000000 0.002293
# 5 0.000580 -0.000775 -0.005701 0.000000 0.030266 0.000000
# 6 0.000000 0.000000 0.000000 0.002293 0.000000 0.058030
#
#
# Mechanical properties :
#
#
# Convention : Reuss Voigt Hill
#
# Bulk Modulus (GPa) = 32.62725 55.30750 43.96738
# Shear Modulus (GPa) = 19.72130 26.45961 23.09045
#
# Velocity S-wave (km/s) = 3.23365 3.74556 3.49898
# Velocity P-wave (km/s) = 5.58940 6.93039 6.29570
#
# Compressibility (1/GPa) = 0.03064923
#
# Stress axis : x y z
#
# Youngs Moduli (GPa) = 112.59337 85.52560 31.25709
#
# Poissons Ratio (x) = 0.28081 0.22997
# Poissons Ratio (y) = 0.36969 0.00994
# Poissons Ratio (z) = 0.82840 0.02719
#
# Static dielectric constant tensor:
#      x y z
#    x 3.851610 0.000000 -0.173420 
#    y 0.000000 3.462300 0.000000 
#    z -0.173420 0.000000 3.259450 
# 
# 
# High freq. dielectric constant tensor:
#      x y z
#    x 1.752080 0.000000 -0.023800 
#    y 0.000000 1.701830 0.000000 
#    z -0.023800 0.000000 1.704920 
# 
# From -- ./inp_files/23099.got.cif
#   From: 2010.06.25/outbox.cif.g09.slc.cpg/sg11_12_cif.got.tgz:23099.got - 2010.06.27 23:14:04.
