data_PCOD8068654
_publ_section_title
;
Structure prediction by ZEFSAII (Michael W. Deem and Ramdas Pophale) SiO2 
 PCOD8068654
Probable space group: P 21/M
;
_chemical_formula_sum "Si O2"
_cell_formula_units_Z 32
_cell_length_a 15.625335
_cell_length_b 9.430626
_cell_length_c 14.692898
_cell_angle_alpha 90.000000
_cell_angle_beta 62.395339
_cell_angle_gamma 90.000000
_cell_volume 1918.634947
_symmetry_space_group_name_H-M "P 21/M"
_symmetry_group_IT_number 11
_symmetry_cell_setting 'monoclinic'
loop_
_space_group_symop_operation_xyz
x,y,z
-x,1/2+y,-z
-x,-y,-z
x,1/2-y,z
loop_
_atom_site_type_symbol
_atom_site_label
_atom_site_fract_x
_atom_site_fract_y
_atom_site_fract_z
Si Si1 0.608910 0.414392 0.858322
Si Si2 0.221446 0.584672 0.354566
Si Si3 0.160445 0.581931 0.774574
Si Si4 0.066315 0.417528 0.318018
Si Si5 0.773664 0.582692 0.093780
Si Si6 0.058460 0.417157 0.117796
Si Si7 0.149425 0.584031 0.579337
Si Si8 0.610765 0.585447 0.033923
O O1 0.618396 0.250000 0.878722
O O2 0.675061 0.454896 0.739294
O O3 0.499233 0.454166 0.886213
O O4 0.644974 0.500845 0.928066
O O5 0.197735 0.750000 0.353449
O O6 0.137189 0.497378 0.349922
O O7 0.223290 0.545322 0.461458
O O8 0.174665 0.750000 0.779905
O O9 0.231005 0.499300 0.808270
O O10 0.186853 0.528380 0.659011
O O11 0.050374 0.533161 0.850220
O O12 0.078554 0.250000 0.327035
O O13 0.091316 0.463674 0.202451
O O14 0.957657 0.471782 0.392738
O O15 0.781368 0.750000 0.107935
O O16 0.676590 0.543860 0.086994
O O17 0.865591 0.521693 0.992380
O O18 0.061957 0.250000 0.112146
O O19 0.136885 0.750000 0.599775
O O20 0.622873 0.750000 0.003793
#
# Coordination Sequence:
#
# PCOD8068654 Si02
#       8
#     4   4   4   4   4   4   4   4
#     4   9  18  31  47  68  91 114 142 176 213 257
#     4  10  18  28  44  66  90 114 144 181 218 254
#     4   9  17  30  45  60  82 113 147 177 207 248
#     4   9  16  28  45  64  88 118 149 175 207 257
#     4  10  18  28  44  64  85 110 141 176 216 256
#     4   8  15  27  42  61  86 114 140 169 209 258
#     4   8  16  30  45  61  86 120 150 177 212 255
#     4   9  18  32  48  66  90 117 141 171 217 266
#
# _framework density 16.678526000000002
#
# number of rings (size 3 to 8) (size 9 to 14) (size 15 to 20)
#    0.000    3.000    0.000    3.000    0.000    2.000 
#    0.000    3.750    0.000    0.750    0.000    0.000 
#    0.000    0.000    0.000    0.000    0.000    0.000 
#
# Total GULP energy -396645.644996 kJ/mol
# GULP energy per Si atom -12395.176406 kJ/mol
# Density = 1.664056 g / cm^3
# Si number density = 16.678526 Si / 1000 Ang^3
#
#
#
# Elastic Constant Matrix: (Units=GPa)
#
#
# Indices 1 2 3 4 5 6 
#
# 1 102.2349 38.6159 67.3628 0.0000 18.0777 0.0000
# 2 38.6159 35.3833 39.6811 0.0000 7.8555 0.0000
# 3 67.3628 39.6811 136.0279 0.0000 10.3420 0.0000
# 4 0.0000 0.0000 0.0000 19.4817 0.0000 5.4090
# 5 18.0777 7.8555 10.3420 0.0000 22.2456 0.0000
# 6 0.0000 0.0000 0.0000 5.4090 0.0000 24.2228
#
#
#
# Elastic Compliance Matrix: (Units=1/GPa)
#
#
# Indices 1 2 3 4 5 6 
#
# 1 0.020112 -0.014204 -0.005136 0.000000 -0.008940 0.000000
# 2 -0.014204 0.054052 -0.008459 0.000000 -0.003612 0.000000
# 3 -0.005136 -0.008459 0.012251 0.000000 0.001466 0.000000
# 4 0.000000 0.000000 0.000000 0.054723 0.000000 -0.012220
# 5 -0.008940 -0.003612 0.001466 0.000000 0.052812 0.000000
# 6 0.000000 0.000000 0.000000 -0.012220 0.000000 0.044012
#
#
# Mechanical properties :
#
#
# Convention : Reuss Voigt Hill
#
# Bulk Modulus (GPa) = 32.45068 62.77398 47.61233
# Shear Modulus (GPa) = 16.45642 21.72244 19.08943
#
# Velocity S-wave (km/s) = 3.14456 3.61282 3.38679
# Velocity P-wave (km/s) = 5.71692 7.42446 6.62592
#
# Compressibility (1/GPa) = 0.03081599
#
# Stress axis : x y z
#
# Youngs Moduli (GPa) = 49.72233 18.50064 81.62455
#
# Poissons Ratio (x) = 0.26279 0.41925
# Poissons Ratio (y) = 0.70626 0.69047
# Poissons Ratio (z) = 0.25539 0.15650
#
# Static dielectric constant tensor:
#      x y z
#    x 3.053460 0.000000 -0.008690 
#    y 0.000000 2.881920 0.000000 
#    z -0.008690 0.000000 3.409630 
# 
# 
# High freq. dielectric constant tensor:
#      x y z
#    x 1.627630 0.000000 0.007540 
#    y 0.000000 1.616960 0.000000 
#    z 0.007540 0.000000 1.643090 
# 
# From -- ./inp_files/38933.got.cif
#   From: 2010.06.25/outbox.cif.g09.slc.cpg/sg11_20_cif.got.tgz:38933.got - 2010.06.27 23:14:04.
