data_PCOD8068526
_publ_section_title
;
Structure prediction by ZEFSAII (Michael W. Deem and Ramdas Pophale) SiO2 
 PCOD8068526
Probable space group: P 21/M
;
_chemical_formula_sum "Si O2"
_cell_formula_units_Z 32
_cell_length_a 16.381419
_cell_length_b 8.943240
_cell_length_c 13.962668
_cell_angle_alpha 90.000000
_cell_angle_beta 94.834219
_cell_angle_gamma 90.000000
_cell_volume 2038.295513
_symmetry_space_group_name_H-M "P 21/M"
_symmetry_group_IT_number 11
_symmetry_cell_setting 'monoclinic'
loop_
_space_group_symop_operation_xyz
x,y,z
-x,1/2+y,-z
-x,-y,-z
x,1/2-y,z
loop_
_atom_site_type_symbol
_atom_site_label
_atom_site_fract_x
_atom_site_fract_y
_atom_site_fract_z
Si Si1 0.933760 0.572193 0.925325
Si Si2 0.151001 0.927678 0.657707
Si Si3 0.718843 0.574490 0.194990
Si Si4 0.242119 0.075293 0.017784
Si Si5 0.598943 0.417736 0.918498
Si Si6 0.978652 0.924382 0.722311
Si Si7 0.084381 0.425399 0.479941
Si Si8 0.557455 0.418384 0.137011
O O1 0.941534 0.750000 0.931514
O O2 0.948620 0.507234 0.819884
O O3 0.844438 0.519635 0.950432
O O4 0.000000 0.500000 0.000000
O O5 0.153673 0.750000 0.651650
O O6 0.067779 0.988558 0.700389
O O7 0.228547 0.986803 0.722316
O O8 0.155130 0.994923 0.549660
O O9 0.722227 0.750000 0.215944
O O10 0.754031 0.534266 0.093901
O O11 0.625732 0.518124 0.196454
O O12 0.256194 0.250000 0.034735
O O13 0.312260 0.992164 0.085067
O O14 0.602207 0.250000 0.878047
O O15 0.531561 0.510009 0.851539
O O16 0.574179 0.417739 0.026358
O O17 0.991452 0.750000 0.738159
O O18 0.908724 0.954155 0.634223
O O19 0.083002 0.250000 0.502922
O O20 0.000000 0.500000 0.500000
O O21 0.559130 0.250000 0.178198
#
# Coordination Sequence:
#
# PCOD8068526 Si02
#       8
#     4   4   4   4   4   4   4   4
#     4  10  19  31  44  60  83 112 145 178 209 241
#     4  10  18  28  42  61  83 109 139 172 212 254
#     4  10  18  27  39  59  86 113 140 170 205 247
#     4   9  18  29  41  58  82 112 145 177 207 241
#     4   9  16  26  41  58  78 106 139 173 207 244
#     4   8  16  29  44  59  79 108 141 175 210 247
#     4   9  16  28  44  61  79 103 135 172 213 254
#     4   9  16  26  40  58  80 107 137 169 206 247
#
# _framework density 15.699391
#
# number of rings (size 3 to 8) (size 9 to 14) (size 15 to 20)
#    0.000    2.750    0.000    3.375    0.000    4.000 
#    0.000    3.125    0.000    0.000    0.000    0.000 
#    0.000    1.000    0.000    2.750    0.000    4.000 
#
# Total GULP energy -396652.245665 kJ/mol
# GULP energy per Si atom -12395.382677 kJ/mol
# Density = 1.566366 g / cm^3
# Si number density = 15.699391 Si / 1000 Ang^3
#
#
#
# Elastic Constant Matrix: (Units=GPa)
#
#
# Indices 1 2 3 4 5 6 
#
# 1 112.8719 42.1284 49.2413 0.0000 17.3581 0.0000
# 2 42.1284 76.3094 35.8903 0.0000 11.0749 0.0000
# 3 49.2413 35.8903 88.5294 0.0000 15.9187 0.0000
# 4 0.0000 0.0000 0.0000 19.1844 0.0000 9.6749
# 5 17.3581 11.0749 15.9187 0.0000 17.6925 0.0000
# 6 0.0000 0.0000 0.0000 9.6749 0.0000 27.4468
#
#
#
# Elastic Compliance Matrix: (Units=1/GPa)
#
#
# Indices 1 2 3 4 5 6 
#
# 1 0.013460 -0.004355 -0.004577 0.000000 -0.006361 0.000000
# 2 -0.004355 0.017987 -0.004311 0.000000 -0.003108 0.000000
# 3 -0.004577 -0.004311 0.017056 0.000000 -0.008157 0.000000
# 4 0.000000 0.000000 0.000000 0.063395 0.000000 -0.022347
# 5 -0.006361 -0.003108 -0.008157 0.000000 0.072046 0.000000
# 6 0.000000 0.000000 0.000000 -0.022347 0.000000 0.044311
#
#
# Mechanical properties :
#
#
# Convention : Reuss Voigt Hill
#
# Bulk Modulus (GPa) = 45.41960 59.13674 52.27817
# Shear Modulus (GPa) = 19.07794 22.89478 20.98636
#
# Velocity S-wave (km/s) = 3.48976 3.82294 3.66014
# Velocity P-wave (km/s) = 6.72544 7.56548 7.15779
#
# Compressibility (1/GPa) = 0.02201693
#
# Stress axis : x y z
#
# Youngs Moduli (GPa) = 74.29279 55.59421 58.63002
#
# Poissons Ratio (x) = 0.24211 0.26837
# Poissons Ratio (y) = 0.32354 0.25276
# Poissons Ratio (z) = 0.34007 0.23967
#
# Static dielectric constant tensor:
#      x y z
#    x 2.998750 0.000000 0.138830 
#    y 0.000000 3.081800 0.000000 
#    z 0.138830 0.000000 3.063170 
# 
# 
# High freq. dielectric constant tensor:
#      x y z
#    x 1.587600 0.000000 0.026800 
#    y 0.000000 1.607870 0.000000 
#    z 0.026800 0.000000 1.569120 
# 
# From -- ./inp_files/51362.got.cif
#   From: 2010.06.25/outbox.cif.g09.slc.cpg/sg11_26_cif.got.tgz:51362.got - 2010.06.27 23:14:04.
