data_PCOD8068593
_publ_section_title
;
Structure prediction by ZEFSAII (Michael W. Deem and Ramdas Pophale) SiO2 
 PCOD8068593
Probable space group: P 21/M
;
_chemical_formula_sum "Si O2"
_cell_formula_units_Z 32
_cell_length_a 12.531771
_cell_length_b 8.999194
_cell_length_c 23.833526
_cell_angle_alpha 90.000000
_cell_angle_beta 133.611643
_cell_angle_gamma 90.000000
_cell_volume 1946.085646
_symmetry_space_group_name_H-M "P 21/M"
_symmetry_group_IT_number 11
_symmetry_cell_setting 'monoclinic'
loop_
_space_group_symop_operation_xyz
x,y,z
-x,1/2+y,-z
-x,-y,-z
x,1/2-y,z
loop_
_atom_site_type_symbol
_atom_site_label
_atom_site_fract_x
_atom_site_fract_y
_atom_site_fract_z
Si Si1 0.549666 0.424162 0.075202
Si Si2 0.391236 0.921200 0.501682
Si Si3 0.845254 0.075466 0.664767
Si Si4 0.729011 0.924456 0.827694
Si Si5 0.377195 0.077407 0.331201
Si Si6 0.947160 0.074108 0.087629
Si Si7 0.335463 0.573409 0.082560
Si Si8 0.110999 0.577361 0.809213
O O1 0.513270 0.250000 0.058318
O O2 0.468978 0.498440 0.098149
O O3 0.721868 0.452599 0.147673
O O4 0.500000 0.500000 0.000000
O O5 0.409201 0.750000 0.494896
O O6 0.224535 0.966067 0.422532
O O7 0.452240 0.955696 0.586803
O O8 0.500000 0.000000 0.500000
O O9 0.863023 0.250000 0.679084
O O10 0.741042 0.016240 0.676754
O O11 0.006097 0.002701 0.726145
O O12 0.724471 0.750000 0.840616
O O13 0.633196 0.962715 0.737922
O O14 0.896351 0.980629 0.879101
O O15 0.656651 0.018842 0.850868
O O16 0.335529 0.250000 0.324982
O O17 0.942948 0.250000 0.089729
O O18 0.919224 0.009917 0.139758
O O19 0.818449 0.017150 0.999961
O O20 0.352031 0.750000 0.085273
O O21 0.072202 0.750000 0.794369
#
# Coordination Sequence:
#
# PCOD8068593 Si02
#       8
#     4   4   4   4   4   4   4   4
#     4  11  22  37  56  74  95 125 165 208 247 291
#     4   8  15  26  41  65  96 129 160 193 236 287
#     4  10  18  27  43  72 103 125 159 204 242 286
#     4  10  19  32  50  71  96 130 171 201 230 285
#     4   9  16  29  48  66  95 137 167 192 237 293
#     4   9  17  32  50  69  95 128 164 197 233 286
#     4  11  22  36  51  70  99 130 164 206 249 286
#     4  10  19  34  52  70  95 130 166 197 239 294
#
# _framework density 16.443263999999999
#
# number of rings (size 3 to 8) (size 9 to 14) (size 15 to 20)
#    0.000    2.250    2.500    1.500    0.000    2.000 
#    0.000    0.625    0.000    0.000    0.000    0.875 
#    0.000    0.000    0.000    0.000    0.000    0.000 
#
# Total GULP energy -396583.553448 kJ/mol
# GULP energy per Si atom -12393.236045 kJ/mol
# Density = 1.640584 g / cm^3
# Si number density = 16.443264 Si / 1000 Ang^3
#
#
#
# Elastic Constant Matrix: (Units=GPa)
#
#
# Indices 1 2 3 4 5 6 
#
# 1 95.9092 39.9310 57.2188 0.0000 -3.1641 0.0000
# 2 39.9310 60.1622 51.9982 0.0000 5.9148 0.0000
# 3 57.2188 51.9982 156.3265 0.0000 5.8701 0.0000
# 4 0.0000 0.0000 0.0000 24.1948 0.0000 0.8185
# 5 -3.1641 5.9148 5.8701 0.0000 14.7285 0.0000
# 6 0.0000 0.0000 0.0000 0.8185 0.0000 23.4722
#
#
#
# Elastic Compliance Matrix: (Units=1/GPa)
#
#
# Indices 1 2 3 4 5 6 
#
# 1 0.016376 -0.008759 -0.003395 0.000000 0.008389 0.000000
# 2 -0.008759 0.028617 -0.005899 0.000000 -0.011023 0.000000
# 3 -0.003395 -0.005899 0.009685 0.000000 -0.002221 0.000000
# 4 0.000000 0.000000 0.000000 0.041380 0.000000 -0.001443
# 5 0.008389 -0.011023 -0.002221 0.000000 0.075010 0.000000
# 6 0.000000 0.000000 0.000000 -0.001443 0.000000 0.042654
#
#
# Mechanical properties :
#
#
# Convention : Reuss Voigt Hill
#
# Bulk Modulus (GPa) = 53.84570 67.85488 60.85029
# Shear Modulus (GPa) = 19.52979 23.36242 21.44610
#
# Velocity S-wave (km/s) = 3.45005 3.77343 3.61536
# Velocity P-wave (km/s) = 6.97767 7.76792 7.38338
#
# Compressibility (1/GPa) = 0.01857159
#
# Stress axis : x y z
#
# Youngs Moduli (GPa) = 61.06623 34.94367 103.25039
#
# Poissons Ratio (x) = 0.30607 0.35057
# Poissons Ratio (y) = 0.53488 0.60908
# Poissons Ratio (z) = 0.20734 0.20613
#
# Static dielectric constant tensor:
#      x y z
#    x 2.894890 0.000000 0.090400 
#    y 0.000000 3.036780 0.000000 
#    z 0.090400 0.000000 3.703480 
# 
# 
# High freq. dielectric constant tensor:
#      x y z
#    x 1.592240 0.000000 0.005510 
#    y 0.000000 1.629510 0.000000 
#    z 0.005510 0.000000 1.648560 
# 
# From -- ./inp_files/42484.got.cif
#   From: 2010.06.25/outbox.cif.g09.slc.cpg/sg11_22_cif.got.tgz:42484.got - 2010.06.27 23:14:04.
