data_PCOD8068651
_publ_section_title
;
Structure prediction by ZEFSAII (Michael W. Deem and Ramdas Pophale) SiO2 
 PCOD8068651
Probable space group: P 21/M
;
_chemical_formula_sum "Si O2"
_cell_formula_units_Z 24
_cell_length_a 14.323026
_cell_length_b 8.666396
_cell_length_c 26.843711
_cell_angle_alpha 90.000000
_cell_angle_beta 154.773779
_cell_angle_gamma 90.000000
_cell_volume 1420.111740
_symmetry_space_group_name_H-M "P 21/M"
_symmetry_group_IT_number 11
_symmetry_cell_setting 'monoclinic'
loop_
_space_group_symop_operation_xyz
x,y,z
-x,1/2+y,-z
-x,-y,-z
x,1/2-y,z
loop_
_atom_site_type_symbol
_atom_site_label
_atom_site_fract_x
_atom_site_fract_y
_atom_site_fract_z
Si Si1 0.026714 0.070595 0.434136
Si Si2 0.668707 0.069137 0.343242
Si Si3 0.813992 0.931674 0.240909
Si Si4 0.660685 0.933030 0.969275
Si Si5 0.739884 0.433189 0.106526
Si Si6 0.214994 0.432128 0.079726
O O1 0.032662 0.250000 0.423938
O O2 0.823999 0.027530 0.371842
O O3 0.001770 0.975123 0.371056
O O4 0.252841 0.021410 0.569756
O O5 0.677715 0.250000 0.358962
O O6 0.425767 0.010700 0.212625
O O7 0.781101 0.750000 0.221476
O O8 0.588438 0.009688 0.149347
O O9 0.889542 0.997792 0.223209
O O10 0.658543 0.750000 0.973799
O O11 0.766886 0.987496 0.968642
O O12 0.809444 0.007407 0.085187
O O13 0.742381 0.250000 0.109557
O O14 0.500000 0.500000 0.000000
O O15 0.204526 0.250000 0.076631
O O16 0.000000 0.500000 0.000000
#
# Coordination Sequence:
#
# PCOD8068651 Si02
#       6
#     4   4   4   4   4   4
#     4  10  18  30  48  70  97 127 159 197 242 290
#     4   9  18  33  47  67  96 127 161 199 243 284
#     4  11  19  28  45  70  97 129 160 192 238 294
#     4  10  18  32  47  65  95 128 160 202 243 281
#     4  10  18  28  43  66  94 125 158 195 237 290
#     4  10  21  35  51  70  97 130 166 205 240 280
#
# _framework density 16.900079999999999
#
# number of rings (size 3 to 8) (size 9 to 14) (size 15 to 20)
#    0.000    2.000    1.667    6.000    0.000    2.667 
#    0.000    0.000    0.000    0.000    0.000    1.167 
#    0.000    0.000    0.000    0.000    0.000    0.000 
#
# Total GULP energy -297561.753383 kJ/mol
# GULP energy per Si atom -12398.406391 kJ/mol
# Density = 1.686161 g / cm^3
# Si number density = 16.900080 Si / 1000 Ang^3
#
#
#
# Elastic Constant Matrix: (Units=GPa)
#
#
# Indices 1 2 3 4 5 6 
#
# 1 101.7394 33.4737 63.6545 0.0000 -26.7112 0.0000
# 2 33.4737 76.9929 30.1113 0.0000 -16.7357 0.0000
# 3 63.6545 30.1113 102.6104 0.0000 -22.8933 0.0000
# 4 0.0000 0.0000 0.0000 27.2402 0.0000 -6.9493
# 5 -26.7112 -16.7357 -22.8933 0.0000 33.4424 0.0000
# 6 0.0000 0.0000 0.0000 -6.9493 0.0000 26.4023
#
#
#
# Elastic Compliance Matrix: (Units=1/GPa)
#
#
# Indices 1 2 3 4 5 6 
#
# 1 0.018161 -0.002915 -0.008852 0.000000 0.006987 0.000000
# 2 -0.002915 0.015944 -0.001900 0.000000 0.004350 0.000000
# 3 -0.008852 -0.001900 0.016529 0.000000 0.003294 0.000000
# 4 0.000000 0.000000 0.000000 0.039353 0.000000 0.010358
# 5 0.006987 0.004350 0.003294 0.000000 0.039915 0.000000
# 6 0.000000 0.000000 0.000000 0.010358 0.000000 0.040602
#
#
# Mechanical properties :
#
#
# Convention : Reuss Voigt Hill
#
# Bulk Modulus (GPa) = 42.91696 59.53573 51.22635
# Shear Modulus (GPa) = 24.31853 27.69052 26.00453
#
# Velocity S-wave (km/s) = 3.79748 4.05221 3.92691
# Velocity P-wave (km/s) = 6.68412 7.56297 7.13708
#
# Compressibility (1/GPa) = 0.02330081
#
# Stress axis : x y z
#
# Youngs Moduli (GPa) = 55.06380 62.71876 60.49836
#
# Poissons Ratio (x) = 0.18283 0.53552
# Poissons Ratio (y) = 0.16051 0.11495
# Poissons Ratio (z) = 0.48741 0.11916
#
# Static dielectric constant tensor:
#      x y z
#    x 3.253210 0.000000 -0.664640 
#    y 0.000000 3.212760 0.000000 
#    z -0.664640 0.000000 3.169410 
# 
# 
# High freq. dielectric constant tensor:
#      x y z
#    x 1.631120 0.000000 -0.047560 
#    y 0.000000 1.663470 0.000000 
#    z -0.047560 0.000000 1.626630 
# 
# From -- ./inp_files/37238.got.cif
#   From: 2010.06.25/outbox.cif.g09.slc.cpg/sg11_19_cif.got.tgz:37238.got - 2010.06.27 23:14:04.
