data_PCOD8068944
_publ_section_title
;
Structure prediction by ZEFSAII (Michael W. Deem and Ramdas Pophale) SiO2 
 PCOD8068944
Probable space group: P 21/M
;
_chemical_formula_sum "Si O2"
_cell_formula_units_Z 32
_cell_length_a 21.239265
_cell_length_b 9.008965
_cell_length_c 16.652395
_cell_angle_alpha 90.000000
_cell_angle_beta 34.894090
_cell_angle_gamma 90.000000
_cell_volume 1822.777399
_symmetry_space_group_name_H-M "P 21/M"
_symmetry_group_IT_number 11
_symmetry_cell_setting 'monoclinic'
loop_
_space_group_symop_operation_xyz
x,y,z
-x,1/2+y,-z
-x,-y,-z
x,1/2-y,z
loop_
_atom_site_type_symbol
_atom_site_label
_atom_site_fract_x
_atom_site_fract_y
_atom_site_fract_z
Si Si1 0.158755 0.422858 0.285119
Si Si2 0.887168 0.074135 0.333711
Si Si3 0.699015 0.076919 0.249274
Si Si4 0.104306 0.919465 0.067981
Si Si5 0.276116 0.574997 0.024340
Si Si6 0.913504 0.422965 0.486820
Si Si7 0.316670 0.574979 0.553850
Si Si8 0.560991 0.925297 0.259012
O O1 0.186559 0.250000 0.257553
O O2 0.252114 0.506779 0.136580
O O3 0.161226 0.485373 0.372906
O O4 0.041408 0.456850 0.367758
O O5 0.889770 0.250000 0.328956
O O6 0.883518 0.019059 0.429552
O O7 0.780716 0.008510 0.399384
O O8 0.996337 0.019094 0.174630
O O9 0.665368 0.250000 0.278309
O O10 0.693054 0.012810 0.345498
O O11 0.613617 0.983690 0.286171
O O12 0.823290 0.054608 0.087497
O O13 0.066645 0.750000 0.115478
O O14 0.176063 0.966702 0.069969
O O15 0.293466 0.750000 0.012865
O O16 0.387128 0.502986 0.873276
O O17 0.887449 0.250000 0.525812
O O18 0.302622 0.750000 0.573422
O O19 0.432643 0.531265 0.393382
O O20 0.579680 0.750000 0.234114
#
# Coordination Sequence:
#
# PCOD8068944 Si02
#       8
#     4   4   4   4   4   4   4   4
#     4  10  18  29  49  77 103 129 163 202 242 290
#     4  10  19  33  51  70  99 136 169 199 239 298
#     4   9  18  34  52  72  99 130 164 207 257 296
#     4   9  18  30  46  70 100 131 161 199 246 294
#     4  10  19  32  51  74 103 133 160 202 254 296
#     4   9  18  30  46  72 103 134 162 196 242 294
#     4   9  19  34  52  72  97 132 169 207 250 293
#     4  10  19  32  52  76  98 125 167 213 251 289
#
# _framework density 17.555627000000001
#
# number of rings (size 3 to 8) (size 9 to 14) (size 15 to 20)
#    0.000    2.500    1.250    2.250    0.000    3.500 
#    0.000    2.500    0.000    0.750    0.000    0.000 
#    0.000    0.000    0.000    0.000    0.000    0.000 
#
# Total GULP energy -396839.974541 kJ/mol
# GULP energy per Si atom -12401.249204 kJ/mol
# Density = 1.751567 g / cm^3
# Si number density = 17.555627 Si / 1000 Ang^3
#
#
#
# Elastic Constant Matrix: (Units=GPa)
#
#
# Indices 1 2 3 4 5 6 
#
# 1 53.0124 22.9112 43.4863 0.0000 -4.4772 0.0000
# 2 22.9112 56.9731 46.6758 0.0000 1.4539 0.0000
# 3 43.4863 46.6758 125.6548 0.0000 4.0792 0.0000
# 4 0.0000 0.0000 0.0000 29.2372 0.0000 3.0835
# 5 -4.4772 1.4539 4.0792 0.0000 26.6954 0.0000
# 6 0.0000 0.0000 0.0000 3.0835 0.0000 18.3189
#
#
#
# Elastic Compliance Matrix: (Units=1/GPa)
#
#
# Indices 1 2 3 4 5 6 
#
# 1 0.028161 -0.004792 -0.008168 0.000000 0.006232 0.000000
# 2 -0.004792 0.026046 -0.007984 0.000000 -0.001002 0.000000
# 3 -0.008168 -0.007984 0.013850 0.000000 -0.003051 0.000000
# 4 0.000000 0.000000 0.000000 0.034821 0.000000 -0.005861
# 5 0.006232 -0.001002 -0.003051 0.000000 0.039026 0.000000
# 6 0.000000 0.000000 0.000000 -0.005861 0.000000 0.055575
#
#
# Mechanical properties :
#
#
# Convention : Reuss Voigt Hill
#
# Bulk Modulus (GPa) = 38.21377 51.30965 44.76171
# Shear Modulus (GPa) = 20.15395 23.02146 21.58770
#
# Velocity S-wave (km/s) = 3.39190 3.62518 3.51048
# Velocity P-wave (km/s) = 6.09545 6.84199 6.47948
#
# Compressibility (1/GPa) = 0.02616857
#
# Stress axis : x y z
#
# Youngs Moduli (GPa) = 35.50962 38.39391 72.20210
#
# Poissons Ratio (x) = 0.18398 0.58977
# Poissons Ratio (y) = 0.17016 0.57647
# Poissons Ratio (z) = 0.29005 0.30654
#
# Static dielectric constant tensor:
#      x y z
#    x 3.224670 0.000000 0.131990 
#    y 0.000000 3.125670 0.000000 
#    z 0.131990 0.000000 3.323010 
# 
# 
# High freq. dielectric constant tensor:
#      x y z
#    x 1.651850 0.000000 0.016040 
#    y 0.000000 1.670450 0.000000 
#    z 0.016040 0.000000 1.685150 
# 
# From -- ./inp_files/40661.got.cif
#   From: 2010.06.25/outbox.cif.g09.slc.cpg/sg11_21_cif.got.tgz:40661.got - 2010.06.27 23:14:04.
