data_PCOD8068331
_publ_section_title
;
Structure prediction by ZEFSAII (Michael W. Deem and Ramdas Pophale) SiO2 
 PCOD8068331
Probable space group: P 21/M
;
_chemical_formula_sum "Si O2"
_cell_formula_units_Z 32
_cell_length_a 12.779223
_cell_length_b 18.063083
_cell_length_c 15.408303
_cell_angle_alpha 90.000000
_cell_angle_beta 151.498653
_cell_angle_gamma 90.000000
_cell_volume 1697.199292
_symmetry_space_group_name_H-M "P 21/M"
_symmetry_group_IT_number 11
_symmetry_cell_setting 'monoclinic'
loop_
_space_group_symop_operation_xyz
x,y,z
-x,1/2+y,-z
-x,-y,-z
x,1/2-y,z
loop_
_atom_site_type_symbol
_atom_site_label
_atom_site_fract_x
_atom_site_fract_y
_atom_site_fract_z
Si Si1 0.307081 0.037306 0.467784
Si Si2 0.599413 0.337411 0.066502
Si Si3 0.190141 0.604723 0.476264
Si Si4 0.830741 0.663837 0.340384
Si Si5 0.083327 0.336069 0.397537
Si Si6 0.195876 0.527276 0.205423
Si Si7 0.455658 0.163240 0.147505
Si Si8 0.950708 0.166087 0.801666
O O1 0.241875 0.119820 0.448716
O O2 0.568386 0.026766 0.669731
O O3 0.183537 0.980209 0.441099
O O4 0.218763 0.026095 0.305572
O O5 0.607187 0.250000 0.082837
O O6 0.544918 0.369948 0.121781
O O7 0.833912 0.364539 0.202075
O O8 0.413339 0.361750 0.863213
O O9 0.426436 0.621841 0.688302
O O10 0.002817 0.616513 0.411048
O O11 0.166381 0.658352 0.376391
O O12 0.872832 0.750000 0.349157
O O13 0.853474 0.647415 0.457625
O O14 0.111428 0.250000 0.394998
O O15 0.151383 0.611730 0.201467
O O16 0.000000 0.500000 0.000000
O O17 0.505034 0.250000 0.190013
O O18 0.201897 0.144646 0.970144
O O19 0.921983 0.250000 0.814480
#
# Coordination Sequence:
#
# PCOD8068331 Si02
#       8
#     4   4   4   4   4   4   4   4
#     4  10  24  40  58  83 105 144 191 228 281 340
#     4   9  17  30  49  76 113 150 183 217 259 313
#     4  11  19  32  54  80 118 148 177 223 275 325
#     4  10  18  31  53  80 114 155 184 215 267 320
#     4  10  21  38  57  80 114 152 188 224 262 319
#     4  10  22  44  63  76 110 146 178 235 298 333
#     4  10  17  28  50  81 114 147 179 216 267 321
#     4  10  20  33  57  88 109 136 187 234 274 330
#
# _framework density 18.854592
#
# number of rings (size 3 to 8) (size 9 to 14) (size 15 to 20)
#    0.000    2.000    2.500    1.875    0.000    2.000 
#    0.000    1.250    0.000    0.000    0.000    0.000 
#    0.000    0.000    0.000    0.000    0.000    0.000 
#
# Total GULP energy -396827.195100 kJ/mol
# GULP energy per Si atom -12400.849847 kJ/mol
# Density = 1.881168 g / cm^3
# Si number density = 18.854592 Si / 1000 Ang^3
#
#
#
# Elastic Constant Matrix: (Units=GPa)
#
#
# Indices 1 2 3 4 5 6 
#
# 1 92.7897 54.9443 53.3336 0.0000 7.3047 0.0000
# 2 54.9443 71.8344 53.3099 0.0000 1.5110 0.0000
# 3 53.3336 53.3099 126.7791 0.0000 3.4108 0.0000
# 4 0.0000 0.0000 0.0000 17.1617 0.0000 11.3738
# 5 7.3047 1.5110 3.4108 0.0000 19.3204 0.0000
# 6 0.0000 0.0000 0.0000 11.3738 0.0000 24.1663
#
#
#
# Elastic Compliance Matrix: (Units=1/GPa)
#
#
# Indices 1 2 3 4 5 6 
#
# 1 0.021189 -0.013933 -0.002883 0.000000 -0.006412 0.000000
# 2 -0.013933 0.029397 -0.006611 0.000000 0.004136 0.000000
# 3 -0.002883 -0.006611 0.011894 0.000000 -0.000493 0.000000
# 4 0.000000 0.000000 0.000000 0.084684 0.000000 -0.039856
# 5 -0.006412 0.004136 -0.000493 0.000000 0.053947 0.000000
# 6 0.000000 0.000000 0.000000 -0.039856 0.000000 0.060138
#
#
# Mechanical properties :
#
#
# Convention : Reuss Voigt Hill
#
# Bulk Modulus (GPa) = 63.99457 68.28655 66.14056
# Shear Modulus (GPa) = 15.95864 20.78404 18.37134
#
# Velocity S-wave (km/s) = 2.91246 3.32374 3.12488
# Velocity P-wave (km/s) = 6.73236 7.14323 6.94084
#
# Compressibility (1/GPa) = 0.01562632
#
# Stress axis : x y z
#
# Youngs Moduli (GPa) = 47.19491 34.01708 84.07810
#
# Poissons Ratio (x) = 0.47394 0.24237
# Poissons Ratio (y) = 0.65755 0.55587
# Poissons Ratio (z) = 0.13605 0.22490
#
# Static dielectric constant tensor:
#      x y z
#    x 3.286090 0.000000 0.026240 
#    y 0.000000 3.232150 0.000000 
#    z 0.026240 0.000000 3.755560 
# 
# 
# High freq. dielectric constant tensor:
#      x y z
#    x 1.719280 0.000000 0.000400 
#    y 0.000000 1.710200 0.000000 
#    z 0.000400 0.000000 1.751310 
# 
# From -- ./inp_files/50709.got.cif
#   From: 2010.06.25/outbox.cif.g09.slc.cpg/sg11_26_cif.got.tgz:50709.got - 2010.06.27 23:14:04.
