data_PCOD8068474
_publ_section_title
;
Structure prediction by ZEFSAII (Michael W. Deem and Ramdas Pophale) SiO2 
 PCOD8068474
Probable space group: P 21/M
;
_chemical_formula_sum "Si O2"
_cell_formula_units_Z 32
_cell_length_a 9.743995
_cell_length_b 17.577338
_cell_length_c 14.636680
_cell_angle_alpha 90.000000
_cell_angle_beta 42.386805
_cell_angle_gamma 90.000000
_cell_volume 1689.965640
_symmetry_space_group_name_H-M "P 21/M"
_symmetry_group_IT_number 11
_symmetry_cell_setting 'monoclinic'
loop_
_space_group_symop_operation_xyz
x,y,z
-x,1/2+y,-z
-x,-y,-z
x,1/2-y,z
loop_
_atom_site_type_symbol
_atom_site_label
_atom_site_fract_x
_atom_site_fract_y
_atom_site_fract_z
Si Si1 0.961582 0.339117 0.774717
Si Si2 0.261887 0.991070 0.126152
Si Si3 0.580779 0.427027 0.577750
Si Si4 0.173635 0.398741 0.847901
Si Si5 0.557387 0.403628 0.386748
Si Si6 0.964742 0.937775 0.591585
Si Si7 0.203041 0.164955 0.475991
Si Si8 0.982744 0.436082 0.116908
O O1 0.891293 0.250000 0.802815
O O2 0.778519 0.400384 0.865802
O O3 0.086151 0.348948 0.807733
O O4 0.088701 0.366254 0.623160
O O5 0.177687 0.026508 0.261006
O O6 0.162925 0.041630 0.095766
O O7 0.500000 0.000000 0.000000
O O8 0.420810 0.389969 0.728774
O O9 0.514769 0.390361 0.514166
O O10 0.546039 0.517154 0.592672
O O11 0.815517 0.407828 0.482325
O O12 0.124366 0.487764 0.865543
O O13 0.073339 0.378527 0.995054
O O14 0.443186 0.341680 0.380239
O O15 0.798747 0.392188 0.256244
O O16 0.847579 0.871383 0.596701
O O17 0.000000 0.000000 0.500000
O O18 0.135159 0.250000 0.495231
#
# Coordination Sequence:
#
# PCOD8068474 Si02
#       8
#     4   4   4   4   4   4   4   4
#     4  10  20  38  60  88 120 153 199 258 313 366
#     4  11  23  38  59  90 122 162 209 251 302 367
#     4  10  18  31  60  84 110 144 199 245 292 338
#     4   9  18  32  54  86 111 144 187 238 293 353
#     4  10  17  34  56  83 110 147 188 248 294 348
#     4  12  22  37  59  90 122 161 206 252 300 361
#     4  11  23  38  60  90 123 160 203 255 316 370
#     4   9  19  32  54  82 116 142 187 246 290 341
#
# _framework density 18.935296999999998
#
# number of rings (size 3 to 8) (size 9 to 14) (size 15 to 20)
#    0.000    1.750    5.000    0.000    1.750    2.000 
#    0.000    3.750    0.000    2.250    0.000    0.000 
#    0.000    0.000    0.000    0.000    0.000    0.000 
#
# Total GULP energy -396447.052408 kJ/mol
# GULP energy per Si atom -12388.970388 kJ/mol
# Density = 1.889220 g / cm^3
# Si number density = 18.935297 Si / 1000 Ang^3
#
#
#
# Elastic Constant Matrix: (Units=GPa)
#
#
# Indices 1 2 3 4 5 6 
#
# 1 111.6949 35.9344 54.9971 0.0000 -10.3177 0.0000
# 2 35.9344 56.6941 35.1930 0.0000 0.3007 0.0000
# 3 54.9971 35.1930 135.4438 0.0000 -10.2786 0.0000
# 4 0.0000 0.0000 0.0000 13.3471 0.0000 4.6732
# 5 -10.3177 0.3007 -10.2786 0.0000 40.8311 0.0000
# 6 0.0000 0.0000 0.0000 4.6732 0.0000 21.3076
#
#
#
# Elastic Compliance Matrix: (Units=1/GPa)
#
#
# Indices 1 2 3 4 5 6 
#
# 1 0.012804 -0.005979 -0.003463 0.000000 0.002408 0.000000
# 2 -0.005979 0.023920 -0.003992 0.000000 -0.002692 0.000000
# 3 -0.003463 -0.003992 0.009952 0.000000 0.001660 0.000000
# 4 0.000000 0.000000 0.000000 0.081154 0.000000 -0.017799
# 5 0.002408 -0.002692 0.001660 0.000000 0.025537 0.000000
# 6 0.000000 0.000000 0.000000 -0.017799 0.000000 0.050835
#
#
# Mechanical properties :
#
#
# Convention : Reuss Voigt Hill
#
# Bulk Modulus (GPa) = 50.48045 61.78686 56.13366
# Shear Modulus (GPa) = 21.03728 26.94440 23.99084
#
# Velocity S-wave (km/s) = 3.33680 3.77632 3.56334
# Velocity P-wave (km/s) = 6.44693 7.19135 6.82929
#
# Compressibility (1/GPa) = 0.01980965
#
# Stress axis : x y z
#
# Youngs Moduli (GPa) = 78.10126 41.80556 100.47800
#
# Poissons Ratio (x) = 0.24994 0.34794
# Poissons Ratio (y) = 0.46694 0.40110
# Poissons Ratio (z) = 0.27045 0.16689
#
# Static dielectric constant tensor:
#      x y z
#    x 2.915350 0.000000 -0.017750 
#    y 0.000000 3.052650 0.000000 
#    z -0.017750 0.000000 3.720910 
# 
# 
# High freq. dielectric constant tensor:
#      x y z
#    x 1.736620 0.000000 0.004170 
#    y 0.000000 1.694480 0.000000 
#    z 0.004170 0.000000 1.743170 
# 
# From -- ./inp_files/48234.got.cif
#   From: 2010.06.25/outbox.cif.g09.slc.cpg/sg11_25_cif.got.tgz:48234.got - 2010.06.27 23:14:04.
