data_PCOD8068119
_publ_section_title
;
Structure prediction by ZEFSAII (Michael W. Deem and Ramdas Pophale) SiO2 
 PCOD8068119
Probable space group: P 21/M
;
_chemical_formula_sum "Si O2"
_cell_formula_units_Z 32
_cell_length_a 12.136759
_cell_length_b 15.424473
_cell_length_c 8.792934
_cell_angle_alpha 90.000000
_cell_angle_beta 90.203376
_cell_angle_gamma 90.000000
_cell_volume 1646.054234
_symmetry_space_group_name_H-M "P 21/M"
_symmetry_group_IT_number 11
_symmetry_cell_setting 'monoclinic'
loop_
_space_group_symop_operation_xyz
x,y,z
-x,1/2+y,-z
-x,-y,-z
x,1/2-y,z
loop_
_atom_site_type_symbol
_atom_site_label
_atom_site_fract_x
_atom_site_fract_y
_atom_site_fract_z
Si Si1 0.497783 0.905491 0.433984
Si Si2 0.731291 0.844792 0.428106
Si Si3 0.742370 0.348880 0.928273
Si Si4 0.733117 0.654137 0.065437
Si Si5 0.120208 0.502151 0.569930
Si Si6 0.119187 0.502341 0.929586
Si Si7 0.497132 0.650708 0.108485
Si Si8 0.740220 0.347963 0.571662
O O1 0.607574 0.856500 0.492852
O O2 0.500342 0.913615 0.251453
O O3 0.385973 0.857534 0.485531
O O4 0.500000 0.000000 0.500000
O O5 0.774665 0.750000 0.480971
O O6 0.727893 0.849606 0.246717
O O7 0.811963 0.919146 0.492783
O O8 0.778035 0.250000 0.959925
O O9 0.616121 0.365465 0.984861
O O10 0.750969 0.370615 0.749759
O O11 0.822280 0.408912 0.024707
O O12 0.773203 0.750000 0.011613
O O13 0.813953 0.580310 0.002426
O O14 0.606951 0.636631 0.006295
O O15 0.109896 0.497237 0.749938
O O16 0.180879 0.589936 0.523281
O O17 0.000000 0.500000 0.500000
O O18 0.000000 0.500000 0.000000
O O19 0.495031 0.750000 0.172366
O O20 0.778988 0.250000 0.540078
#
# Coordination Sequence:
#
# PCOD8068119 Si02
#       8
#     4   4   4   4   4   4   4   4
#     4  10  15  26  52  86 112 139 175 223 275 331
#     4   9  17  32  53  79 110 142 179 224 275 334
#     4   9  19  36  58  82 110 145 183 220 273 340
#     4   8  16  32  55  79 104 136 179 226 272 329
#     4  11  23  38  56  81 111 144 193 242 280 329
#     4  11  23  37  55  81 107 145 190 236 284 323
#     4   8  15  30  53  81 108 139 182 225 268 333
#     4  10  20  36  58  84 114 150 184 225 277 338
#
# _framework density 19.440429000000002
#
# number of rings (size 3 to 8) (size 9 to 14) (size 15 to 20)
#    0.000    2.500    1.250    3.375    0.000    2.000 
#    0.000    2.500    0.000    2.250    0.000    0.000 
#    0.000    0.000    0.000    0.000    0.000    0.000 
#
# Total GULP energy -396639.580117 kJ/mol
# GULP energy per Si atom -12394.986879 kJ/mol
# Density = 1.939618 g / cm^3
# Si number density = 19.440429 Si / 1000 Ang^3
#
#
#
# Elastic Constant Matrix: (Units=GPa)
#
#
# Indices 1 2 3 4 5 6 
#
# 1 170.2124 76.7321 33.7248 0.0000 -1.3744 0.0000
# 2 76.7321 136.9954 32.1771 0.0000 -0.7049 0.0000
# 3 33.7248 32.1771 37.2134 0.0000 1.8549 0.0000
# 4 0.0000 0.0000 0.0000 28.0427 0.0000 1.5063
# 5 -1.3744 -0.7049 1.8549 0.0000 24.7671 0.0000
# 6 0.0000 0.0000 0.0000 1.5063 0.0000 25.6241
#
#
#
# Elastic Compliance Matrix: (Units=1/GPa)
#
#
# Indices 1 2 3 4 5 6 
#
# 1 0.008421 -0.003655 -0.004507 0.000000 0.000701 0.000000
# 2 -0.003655 0.010764 -0.006023 0.000000 0.000555 0.000000
# 3 -0.004507 -0.006023 0.036321 0.000000 -0.003142 0.000000
# 4 0.000000 0.000000 0.000000 0.035773 0.000000 -0.002103
# 5 0.000701 0.000555 -0.003142 0.000000 0.040666 0.000000
# 6 0.000000 0.000000 0.000000 -0.002103 0.000000 0.039149
#
#
# Mechanical properties :
#
#
# Convention : Reuss Voigt Hill
#
# Bulk Modulus (GPa) = 36.84941 69.96545 53.40743
# Shear Modulus (GPa) = 23.97992 29.13926 26.55959
#
# Velocity S-wave (km/s) = 3.51594 3.87576 3.70023
# Velocity P-wave (km/s) = 5.95640 7.48976 6.76665
#
# Compressibility (1/GPa) = 0.02713748
#
# Stress axis : x y z
#
# Youngs Moduli (GPa) = 118.74963 92.90241 27.53265
#
# Poissons Ratio (x) = 0.33952 0.12408
# Poissons Ratio (y) = 0.43398 0.16583
# Poissons Ratio (z) = 0.53515 0.55954
#
# Static dielectric constant tensor:
#      x y z
#    x 3.823660 0.000000 -0.012660 
#    y 0.000000 3.779760 0.000000 
#    z -0.012660 0.000000 3.059480 
# 
# 
# High freq. dielectric constant tensor:
#      x y z
#    x 1.767430 0.000000 -0.000720 
#    y 0.000000 1.766620 0.000000 
#    z -0.000720 0.000000 1.704340 
# 
# From -- ./inp_files/18068.got.cif
#   From: 2010.06.25/outbox.cif.g09.slc.cpg/sg11_10_cif.got.tgz:18068.got - 2010.06.27 23:14:04.
