data_PCOD8068882
_publ_section_title
;
Structure prediction by ZEFSAII (Michael W. Deem and Ramdas Pophale) SiO2 
 PCOD8068882
Probable space group: P 21/M
;
_chemical_formula_sum "Si O2"
_cell_formula_units_Z 24
_cell_length_a 25.215156
_cell_length_b 8.932037
_cell_length_c 17.386241
_cell_angle_alpha 90.000000
_cell_angle_beta 23.208876
_cell_angle_gamma 90.000000
_cell_volume 1543.145916
_symmetry_space_group_name_H-M "P 21/M"
_symmetry_group_IT_number 11
_symmetry_cell_setting 'monoclinic'
loop_
_space_group_symop_operation_xyz
x,y,z
-x,1/2+y,-z
-x,-y,-z
x,1/2-y,z
loop_
_atom_site_type_symbol
_atom_site_label
_atom_site_fract_x
_atom_site_fract_y
_atom_site_fract_z
Si Si1 0.270764 0.582722 0.479131
Si Si2 0.789992 0.076000 0.759075
Si Si3 0.995937 0.917415 0.783736
Si Si4 0.473912 0.072143 0.952969
Si Si5 0.946072 0.925468 0.148236
Si Si6 0.061732 0.074991 0.308040
O O1 0.293778 0.750000 0.481623
O O2 0.159558 0.587699 0.558424
O O3 0.409140 0.516822 0.261249
O O4 0.208720 0.479080 0.630029
O O5 0.751113 0.250000 0.812719
O O6 0.914147 0.041940 0.537696
O O7 0.827119 0.021665 0.795486
O O8 0.666711 0.979243 0.893618
O O9 0.941001 0.750000 0.873334
O O10 0.934780 0.978247 0.785481
O O11 0.959234 0.023162 0.905636
O O12 0.477851 0.250000 0.956781
O O13 0.500000 0.000000 0.000000
O O14 0.951635 0.750000 0.131016
O O15 0.000000 0.000000 0.000000
O O16 0.096222 0.250000 0.270136
#
# Coordination Sequence:
#
# PCOD8068882 Si02
#       6
#     4   4   4   4   4   4
#     4   8  17  32  46  65  94 125 155 191 234 279
#     4  10  20  31  45  67  94 125 164 203 237 276
#     4   8  15  29  47  66  92 121 153 192 237 279
#     4  11  21  33  48  67  95 130 164 197 238 284
#     4  10  18  29  47  72  98 123 154 192 240 289
#     4   9  17  32  48  64  90 127 163 200 240 277
#
# _framework density 15.552645
#
# number of rings (size 3 to 8) (size 9 to 14) (size 15 to 20)
#    1.000    1.667    0.000    3.000    0.000    5.333 
#    0.000    0.000    0.000    0.000    0.000    1.167 
#    0.000    0.000    0.000    0.000    0.000    0.000 
#
# Total GULP energy -297375.974036 kJ/mol
# GULP energy per Si atom -12390.665585 kJ/mol
# Density = 1.551725 g / cm^3
# Si number density = 15.552645 Si / 1000 Ang^3
#
#
#
# Elastic Constant Matrix: (Units=GPa)
#
#
# Indices 1 2 3 4 5 6 
#
# 1 107.1694 47.6188 47.7672 0.0000 14.0580 0.0000
# 2 47.6188 90.5561 45.0998 0.0000 13.0844 0.0000
# 3 47.7672 45.0998 75.4766 0.0000 11.1523 0.0000
# 4 0.0000 0.0000 0.0000 24.0280 0.0000 1.2991
# 5 14.0580 13.0844 11.1523 0.0000 24.4003 0.0000
# 6 0.0000 0.0000 0.0000 1.2991 0.0000 29.7020
#
#
#
# Elastic Compliance Matrix: (Units=1/GPa)
#
#
# Indices 1 2 3 4 5 6 
#
# 1 0.014275 -0.003950 -0.006190 0.000000 -0.003277 0.000000
# 2 -0.003950 0.017276 -0.007282 0.000000 -0.003660 0.000000
# 3 -0.006190 -0.007282 0.021892 0.000000 -0.002535 0.000000
# 4 0.000000 0.000000 0.000000 0.041717 0.000000 -0.001825
# 5 -0.003277 -0.003660 -0.002535 0.000000 0.045992 0.000000
# 6 0.000000 0.000000 0.000000 -0.001825 0.000000 0.033748
#
#
# Mechanical properties :
#
#
# Convention : Reuss Voigt Hill
#
# Bulk Modulus (GPa) = 53.76644 61.57485 57.67064
# Shear Modulus (GPa) = 23.15431 24.47381 23.81406
#
# Velocity S-wave (km/s) = 3.86264 3.97118 3.91729
# Velocity P-wave (km/s) = 7.38505 7.79129 7.59089
#
# Compressibility (1/GPa) = 0.01859896
#
# Stress axis : x y z
#
# Youngs Moduli (GPa) = 70.05276 57.88525 45.67859
#
# Poissons Ratio (x) = 0.22867 0.28273
# Poissons Ratio (y) = 0.27673 0.33263
# Poissons Ratio (z) = 0.43360 0.42151
#
# Static dielectric constant tensor:
#      x y z
#    x 2.936950 0.000000 -0.003640 
#    y 0.000000 3.028740 0.000000 
#    z -0.003640 0.000000 2.796270 
# 
# 
# High freq. dielectric constant tensor:
#      x y z
#    x 1.586650 0.000000 0.006240 
#    y 0.000000 1.602810 0.000000 
#    z 0.006240 0.000000 1.564850 
# 
# From -- ./inp_files/62113.got.cif
#   From: 2010.06.25/outbox.cif.g09.slc.cpg/sg11_32_cif.got.tgz:62113.got - 2010.06.27 23:14:04.
