data_PCOD8068803
_publ_section_title
;
Structure prediction by ZEFSAII (Michael W. Deem and Ramdas Pophale) SiO2 
 PCOD8068803
Probable space group: P 21/M
;
_chemical_formula_sum "Si O2"
_cell_formula_units_Z 24
_cell_length_a 26.010476
_cell_length_b 8.633530
_cell_length_c 19.665967
_cell_angle_alpha 90.000000
_cell_angle_beta 160.948873
_cell_angle_gamma 90.000000
_cell_volume 1441.510413
_symmetry_space_group_name_H-M "P 21/M"
_symmetry_group_IT_number 11
_symmetry_cell_setting 'monoclinic'
loop_
_space_group_symop_operation_xyz
x,y,z
-x,1/2+y,-z
-x,-y,-z
x,1/2-y,z
loop_
_atom_site_type_symbol
_atom_site_label
_atom_site_fract_x
_atom_site_fract_y
_atom_site_fract_z
Si Si1 0.602666 0.424993 0.390058
Si Si2 0.973246 0.433815 0.623516
Si Si3 0.713230 0.068467 0.046958
Si Si4 0.105970 0.431431 0.191190
Si Si5 0.106477 0.925360 0.327148
Si Si6 0.840615 0.566338 0.331731
O O1 0.551579 0.250000 0.344764
O O2 0.450134 0.532497 0.194330
O O3 0.718461 0.492858 0.593597
O O4 0.702696 0.428101 0.444307
O O5 0.960214 0.250000 0.602642
O O6 0.938859 0.495376 0.656493
O O7 0.836718 0.507241 0.404652
O O8 0.147077 0.486646 0.819746
O O9 0.745993 0.250000 0.089303
O O10 0.702754 0.002536 0.111412
O O11 0.119543 0.250000 0.198886
O O12 0.029371 0.473713 0.169412
O O13 0.000000 0.500000 0.000000
O O14 0.042604 0.750000 0.240941
O O15 0.835694 0.750000 0.322845
O O16 0.000000 0.500000 0.500000
#
# Coordination Sequence:
#
# PCOD8068803 Si02
#       6
#     4   4   4   4   4   4
#     4   9  18  34  51  73  99 127 162 202 243 288
#     4  10  18  32  51  72  98 131 165 205 246 286
#     4  11  20  31  48  73  99 131 168 204 243 289
#     4  10  18  31  53  77 100 127 160 196 236 288
#     4   8  18  33  51  73  99 127 162 200 243 290
#     4  10  18  29  45  67  94 130 169 206 241 284
#
# _framework density 16.649204000000001
#
# number of rings (size 3 to 8) (size 9 to 14) (size 15 to 20)
#    1.000    1.333    0.000    7.000    0.000    1.333 
#    0.000    0.833    0.000    1.000    0.000    0.000 
#    0.000    0.000    0.000    0.000    0.000    0.000 
#
# Total GULP energy -297356.766597 kJ/mol
# GULP energy per Si atom -12389.865275 kJ/mol
# Density = 1.661131 g / cm^3
# Si number density = 16.649204 Si / 1000 Ang^3
#
#
#
# Elastic Constant Matrix: (Units=GPa)
#
#
# Indices 1 2 3 4 5 6 
#
# 1 40.0105 10.9100 5.7405 0.0000 -7.3317 0.0000
# 2 10.9100 95.2183 19.3334 0.0000 -7.5519 0.0000
# 3 5.7405 19.3334 83.1266 0.0000 -7.5179 0.0000
# 4 0.0000 0.0000 0.0000 29.5177 0.0000 -5.1841
# 5 -7.3317 -7.5519 -7.5179 0.0000 18.2498 0.0000
# 6 0.0000 0.0000 0.0000 -5.1841 0.0000 22.3367
#
#
#
# Elastic Compliance Matrix: (Units=1/GPa)
#
#
# Indices 1 2 3 4 5 6 
#
# 1 0.027496 -0.002268 -0.000475 0.000000 0.009912 0.000000
# 2 -0.002268 0.011448 -0.002243 0.000000 0.002902 0.000000
# 3 -0.000475 -0.002243 0.012966 0.000000 0.004222 0.000000
# 4 0.000000 0.000000 0.000000 0.035318 0.000000 0.008197
# 5 0.009912 0.002902 0.004222 0.000000 0.061717 0.000000
# 6 0.000000 0.000000 0.000000 0.008197 0.000000 0.046672
#
#
# Mechanical properties :
#
#
# Convention : Reuss Voigt Hill
#
# Bulk Modulus (GPa) = 23.84478 32.25811 28.05145
# Shear Modulus (GPa) = 22.77192 26.17896 24.47544
#
# Velocity S-wave (km/s) = 3.70232 3.96963 3.83830
# Velocity P-wave (km/s) = 5.71220 6.35829 6.04388
#
# Compressibility (1/GPa) = 0.04193789
#
# Stress axis : x y z
#
# Youngs Moduli (GPa) = 36.36844 87.35377 77.12326
#
# Poissons Ratio (x) = 0.19811 0.03663
# Poissons Ratio (y) = 0.08248 0.17302
# Poissons Ratio (z) = 0.01727 0.19597
#
# Static dielectric constant tensor:
#      x y z
#    x 3.083290 0.000000 -0.319920 
#    y 0.000000 3.175960 0.000000 
#    z -0.319920 0.000000 3.205700 
# 
# 
# High freq. dielectric constant tensor:
#      x y z
#    x 1.610300 0.000000 -0.017650 
#    y 0.000000 1.658450 0.000000 
#    z -0.017650 0.000000 1.626750 
# 
# From -- ./inp_files/67364.got.cif
#   From: 2010.06.25/outbox.cif.g09.slc.cpg/sg11_34_cif.got.tgz:67364.got - 2010.06.27 23:14:04.
