data_PCOD8068459
_publ_section_title
;
Structure prediction by ZEFSAII (Michael W. Deem and Ramdas Pophale) SiO2 
 PCOD8068459
Probable space group: P 21/M
;
_chemical_formula_sum "Si O2"
_cell_formula_units_Z 32
_cell_length_a 19.272641
_cell_length_b 16.214004
_cell_length_c 11.122735
_cell_angle_alpha 90.000000
_cell_angle_beta 148.669688
_cell_angle_gamma 90.000000
_cell_volume 1807.266889
_symmetry_space_group_name_H-M "P 21/M"
_symmetry_group_IT_number 11
_symmetry_cell_setting 'monoclinic'
loop_
_space_group_symop_operation_xyz
x,y,z
-x,1/2+y,-z
-x,-y,-z
x,1/2-y,z
loop_
_atom_site_type_symbol
_atom_site_label
_atom_site_fract_x
_atom_site_fract_y
_atom_site_fract_z
Si Si1 0.549405 0.344412 0.779561
Si Si2 0.145898 0.502054 0.669745
Si Si3 0.746236 0.043874 0.937467
Si Si4 0.260764 0.843688 0.726677
Si Si5 0.294961 0.454501 0.361200
Si Si6 0.936488 0.842816 0.904265
Si Si7 0.181561 0.577692 0.374243
Si Si8 0.952829 0.931514 0.695945
O O1 0.517974 0.250000 0.698453
O O2 0.416794 0.397995 0.580356
O O3 0.655815 0.377429 0.838472
O O4 0.601260 0.349655 0.994472
O O5 0.246766 0.486700 0.930371
O O6 0.157594 0.595401 0.638035
O O7 0.152577 0.433403 0.572847
O O8 0.000000 0.500000 0.500000
O O9 0.893364 0.074607 0.117377
O O10 0.679012 0.990214 0.733441
O O11 0.205528 0.750000 0.648029
O O12 0.274079 0.874401 0.608273
O O13 0.160237 0.401132 0.161803
O O14 0.283066 0.530533 0.436255
O O15 0.897125 0.750000 0.876826
O O16 0.917993 0.856492 0.733133
O O17 0.091328 0.858176 0.166072
O O18 0.072159 0.516141 0.269141
#
# Coordination Sequence:
#
# PCOD8068459 Si02
#       8
#     4   4   4   4   4   4   4   4
#     4  10  22  36  51  74 101 135 176 213 251 297
#     4   8  16  28  51  73  99 135 169 204 249 303
#     4  10  17  33  54  74 100 136 174 207 245 299
#     4   9  18  33  51  74 102 130 169 218 256 293
#     4  11  20  35  53  75 104 138 173 206 249 314
#     4  11  20  31  52  78 106 134 162 212 267 303
#     4  10  18  33  53  76 104 129 169 212 256 308
#     4   9  16  32  51  76 103 130 165 213 251 307
#
# _framework density 17.706295000000001
#
# number of rings (size 3 to 8) (size 9 to 14) (size 15 to 20)
#    0.000    2.250    2.500    1.875    0.000    1.000 
#    0.000    1.875    0.000    1.500    0.000    0.000 
#    0.000    0.000    0.000    0.000    0.000    0.000 
#
# Total GULP energy -396467.986183 kJ/mol
# GULP energy per Si atom -12389.624568 kJ/mol
# Density = 1.766599 g / cm^3
# Si number density = 17.706295 Si / 1000 Ang^3
#
#
#
# Elastic Constant Matrix: (Units=GPa)
#
#
# Indices 1 2 3 4 5 6 
#
# 1 93.5432 45.0009 47.3847 0.0000 -25.0148 0.0000
# 2 45.0009 90.7057 50.6588 0.0000 -16.6876 0.0000
# 3 47.3847 50.6588 83.5287 0.0000 -14.2188 0.0000
# 4 0.0000 0.0000 0.0000 26.0977 0.0000 -0.1036
# 5 -25.0148 -16.6876 -14.2188 0.0000 30.2400 0.0000
# 6 0.0000 0.0000 0.0000 -0.1036 0.0000 14.3068
#
#
#
# Elastic Compliance Matrix: (Units=1/GPa)
#
#
# Indices 1 2 3 4 5 6 
#
# 1 0.018484 -0.003639 -0.006541 0.000000 0.010206 0.000000
# 2 -0.003639 0.018064 -0.008377 0.000000 0.003019 0.000000
# 3 -0.006541 -0.008377 0.020713 0.000000 -0.000294 0.000000
# 4 0.000000 0.000000 0.000000 0.038319 0.000000 0.000277
# 5 0.010206 0.003019 -0.000294 0.000000 0.043039 0.000000
# 6 0.000000 0.000000 0.000000 0.000277 0.000000 0.069899
#
#
# Mechanical properties :
#
#
# Convention : Reuss Voigt Hill
#
# Bulk Modulus (GPa) = 49.63787 61.54072 55.58930
# Shear Modulus (GPa) = 19.81393 22.44446 21.12919
#
# Velocity S-wave (km/s) = 3.34882 3.56420 3.45819
# Velocity P-wave (km/s) = 6.56108 7.19513 6.88540
#
# Compressibility (1/GPa) = 0.02014591
#
# Stress axis : x y z
#
# Youngs Moduli (GPa) = 54.10205 55.35781 48.27866
#
# Poissons Ratio (x) = 0.20146 0.31579
# Poissons Ratio (y) = 0.19689 0.40444
# Poissons Ratio (z) = 0.35388 0.46374
#
# Static dielectric constant tensor:
#      x y z
#    x 3.555830 0.000000 -0.331410 
#    y 0.000000 2.174610 0.000000 
#    z -0.331410 0.000000 3.046480 
# 
# 
# High freq. dielectric constant tensor:
#      x y z
#    x 1.686320 0.000000 -0.021990 
#    y 0.000000 1.665270 0.000000 
#    z -0.021990 0.000000 1.675450 
# 
# From -- ./inp_files/35529.got.cif
#   From: 2010.06.25/outbox.cif.g09.slc.cpg/sg11_18_cif.got.tgz:35529.got - 2010.06.27 23:14:04.
