data_PCOD8068742
_publ_section_title
;
Structure prediction by ZEFSAII (Michael W. Deem and Ramdas Pophale) SiO2 
 PCOD8068742
Probable space group: P 21/M
;
_chemical_formula_sum "Si O2"
_cell_formula_units_Z 24
_cell_length_a 20.535279
_cell_length_b 8.936559
_cell_length_c 11.849082
_cell_angle_alpha 90.000000
_cell_angle_beta 38.947468
_cell_angle_gamma 90.000000
_cell_volume 1366.895343
_symmetry_space_group_name_H-M "P 21/M"
_symmetry_group_IT_number 11
_symmetry_cell_setting 'monoclinic'
loop_
_space_group_symop_operation_xyz
x,y,z
-x,1/2+y,-z
-x,-y,-z
x,1/2-y,z
loop_
_atom_site_type_symbol
_atom_site_label
_atom_site_fract_x
_atom_site_fract_y
_atom_site_fract_z
Si Si1 0.109932 0.424150 0.855343
Si Si2 0.722484 0.924478 0.194167
Si Si3 0.414978 0.581020 0.452893
Si Si4 0.608295 0.426185 0.890622
Si Si5 0.283987 0.425577 0.448964
Si Si6 0.642180 0.582941 0.073107
O O1 0.089400 0.250000 0.884591
O O2 0.171620 0.473650 0.885461
O O3 0.175916 0.469003 0.655103
O O4 0.000000 0.500000 0.000000
O O5 0.700414 0.750000 0.249499
O O6 0.730970 0.953742 0.047361
O O7 0.627633 0.020991 0.371107
O O8 0.374545 0.750000 0.486345
O O9 0.378184 0.473177 0.402116
O O10 0.538397 0.577104 0.287380
O O11 0.596061 0.250000 0.893113
O O12 0.702621 0.485707 0.686203
O O13 0.500000 0.500000 0.000000
O O14 0.640770 0.464231 0.974571
O O15 0.291692 0.250000 0.414642
O O16 0.657838 0.750000 0.001145
#
# Coordination Sequence:
#
# PCOD8068742 Si02
#       6
#     4   4   4   4   4   4
#     4   9  19  35  57  81 103 131 167 215 270 313
#     4   9  19  34  50  72 104 138 172 212 262 313
#     4  10  18  28  47  74 103 137 174 210 252 303
#     4  12  23  34  51  75 106 144 181 214 250 300
#     4  10  20  35  53  75 105 139 176 217 259 305
#     4  10  20  33  49  71 104 143 177 210 253 305
#
# _framework density 17.558038
#
# number of rings (size 3 to 8) (size 9 to 14) (size 15 to 20)
#    0.000    2.000    1.667    4.000    0.000    4.667 
#    0.000    0.000    0.000    1.000    0.000    0.000 
#    0.000    0.000    0.000    0.000    0.000    0.000 
#
# Total GULP energy -297527.416636 kJ/mol
# GULP energy per Si atom -12396.975693 kJ/mol
# Density = 1.751808 g / cm^3
# Si number density = 17.558038 Si / 1000 Ang^3
#
#
#
# Elastic Constant Matrix: (Units=GPa)
#
#
# Indices 1 2 3 4 5 6 
#
# 1 102.5223 46.3175 60.0248 0.0000 12.5489 0.0000
# 2 46.3175 94.3491 50.7706 0.0000 6.0444 0.0000
# 3 60.0248 50.7706 86.6297 0.0000 5.1431 0.0000
# 4 0.0000 0.0000 0.0000 31.0190 0.0000 2.8284
# 5 12.5489 6.0444 5.1431 0.0000 24.9768 0.0000
# 6 0.0000 0.0000 0.0000 2.8284 0.0000 25.9002
#
#
#
# Elastic Compliance Matrix: (Units=1/GPa)
#
#
# Indices 1 2 3 4 5 6 
#
# 1 0.017828 -0.002786 -0.010355 0.000000 -0.006151 0.000000
# 2 -0.002786 0.016006 -0.007394 0.000000 -0.000951 0.000000
# 3 -0.010355 -0.007394 0.022917 0.000000 0.002273 0.000000
# 4 0.000000 0.000000 0.000000 0.032563 0.000000 -0.003556
# 5 -0.006151 -0.000951 0.002273 0.000000 0.042890 0.000000
# 6 0.000000 0.000000 0.000000 -0.003556 0.000000 0.038998
#
#
# Mechanical properties :
#
#
# Convention : Reuss Voigt Hill
#
# Bulk Modulus (GPa) = 63.77002 66.41412 65.09207
# Shear Modulus (GPa) = 22.98870 24.80510 23.89690
#
# Velocity S-wave (km/s) = 3.62235 3.76273 3.69321
# Velocity P-wave (km/s) = 7.34123 7.53559 7.43904
#
# Compressibility (1/GPa) = 0.01568135
#
# Stress axis : x y z
#
# Youngs Moduli (GPa) = 56.09109 62.47541 43.63629
#
# Poissons Ratio (x) = 0.17405 0.45186
# Poissons Ratio (y) = 0.15626 0.32265
# Poissons Ratio (z) = 0.58083 0.46194
#
# Static dielectric constant tensor:
#      x y z
#    x 3.230820 0.000000 0.157040 
#    y 0.000000 3.352570 0.000000 
#    z 0.157040 0.000000 3.231540 
# 
# 
# High freq. dielectric constant tensor:
#      x y z
#    x 1.667110 0.000000 0.020390 
#    y 0.000000 1.685410 0.000000 
#    z 0.020390 0.000000 1.653800 
# 
# From -- ./inp_files/36974.got.cif
#   From: 2010.06.25/outbox.cif.g09.slc.cpg/sg11_19_cif.got.tgz:36974.got - 2010.06.27 23:14:04.
