data_PCOD8068785
_publ_section_title
;
Structure prediction by ZEFSAII (Michael W. Deem and Ramdas Pophale) SiO2 
 PCOD8068785
Probable space group: P 21/M
;
_chemical_formula_sum "Si O2"
_cell_formula_units_Z 32
_cell_length_a 15.077490
_cell_length_b 9.395643
_cell_length_c 30.603977
_cell_angle_alpha 90.000000
_cell_angle_beta 151.574010
_cell_angle_gamma 90.000000
_cell_volume 2063.771082
_symmetry_space_group_name_H-M "P 21/M"
_symmetry_group_IT_number 11
_symmetry_cell_setting 'monoclinic'
loop_
_space_group_symop_operation_xyz
x,y,z
-x,1/2+y,-z
-x,-y,-z
x,1/2-y,z
loop_
_atom_site_type_symbol
_atom_site_label
_atom_site_fract_x
_atom_site_fract_y
_atom_site_fract_z
Si Si1 0.947955 0.917332 0.578268
Si Si2 0.029044 0.415705 0.080113
Si Si3 0.329260 0.584679 0.701359
Si Si4 0.251264 0.415643 0.423533
Si Si5 0.656696 0.918015 0.381446
Si Si6 0.738024 0.913055 0.904474
Si Si7 0.323617 0.586408 0.373523
Si Si8 0.256135 0.584061 0.245576
O O1 0.912582 0.750000 0.564034
O O2 0.890556 0.976294 0.601149
O O3 0.813659 0.978662 0.482301
O O4 0.161507 0.957188 0.661165
O O5 0.997401 0.250000 0.075599
O O6 0.182185 0.443664 0.109135
O O7 0.097583 0.491168 0.153784
O O8 0.832903 0.484254 0.980880
O O9 0.320120 0.750000 0.683791
O O10 0.310558 0.492342 0.650233
O O11 0.519525 0.551109 0.809421
O O12 0.220447 0.250000 0.401125
O O13 0.212345 0.495572 0.361232
O O14 0.457531 0.448502 0.530642
O O15 0.674533 0.750000 0.382100
O O16 0.456860 0.960131 0.314096
O O17 0.777145 0.750000 0.934811
O O18 0.288292 0.750000 0.369343
O O19 0.245699 0.547403 0.292192
O O20 0.217773 0.750000 0.220155
#
# Coordination Sequence:
#
# PCOD8068785 Si02
#       8
#     4   4   4   4   4   4   4   4
#     4   9  17  30  47  65  90 125 158 185 219 262
#     4  10  19  30  46  66  89 115 149 190 228 267
#     4  10  19  31  46  65  91 122 156 191 220 256
#     4   9  16  29  46  65  88 118 154 187 219 261
#     4  10  18  29  44  64  92 126 158 183 212 259
#     4   9  18  31  44  63  89 118 150 185 226 268
#     4   9  17  29  45  65  90 119 150 184 224 266
#     4  10  18  29  46  66  92 124 151 179 222 273
#
# _framework density 15.505596000000001
#
# number of rings (size 3 to 8) (size 9 to 14) (size 15 to 20)
#    0.000    2.500    2.500    0.750    0.000    1.500 
#    0.000    1.250    0.000    0.000    0.000    0.875 
#    0.000    0.000    0.000    0.000    0.000    0.000 
#
# Total GULP energy -396815.714697 kJ/mol
# GULP energy per Si atom -12400.491084 kJ/mol
# Density = 1.547030 g / cm^3
# Si number density = 15.505596 Si / 1000 Ang^3
#
#
#
# Elastic Constant Matrix: (Units=GPa)
#
#
# Indices 1 2 3 4 5 6 
#
# 1 116.3421 49.9310 62.1120 0.0000 -4.9419 0.0000
# 2 49.9310 54.5555 46.0405 0.0000 -8.6569 0.0000
# 3 62.1120 46.0405 102.6072 0.0000 -6.4187 0.0000
# 4 0.0000 0.0000 0.0000 21.8732 0.0000 -7.7424
# 5 -4.9419 -8.6569 -6.4187 0.0000 20.5027 0.0000
# 6 0.0000 0.0000 0.0000 -7.7424 0.0000 21.9860
#
#
#
# Elastic Compliance Matrix: (Units=1/GPa)
#
#
# Indices 1 2 3 4 5 6 
#
# 1 0.015624 -0.010545 -0.004864 0.000000 -0.002209 0.000000
# 2 -0.010545 0.038138 -0.010078 0.000000 0.010406 0.000000
# 3 -0.004864 -0.010078 0.017210 0.000000 -0.000040 0.000000
# 4 0.000000 0.000000 0.000000 0.052228 0.000000 0.018392
# 5 -0.002209 0.010406 -0.000040 0.000000 0.052623 0.000000
# 6 0.000000 0.000000 0.000000 0.018392 0.000000 0.051960
#
#
# Mechanical properties :
#
#
# Convention : Reuss Voigt Hill
#
# Bulk Modulus (GPa) = 50.00907 65.51911 57.76409
# Shear Modulus (GPa) = 17.51771 20.56713 19.04242
#
# Velocity S-wave (km/s) = 3.36485 3.64597 3.50823
# Velocity P-wave (km/s) = 6.88611 7.75055 7.33108
#
# Compressibility (1/GPa) = 0.01999637
#
# Stress axis : x y z
#
# Youngs Moduli (GPa) = 64.00322 26.22063 58.10496
#
# Poissons Ratio (x) = 0.27650 0.28265
# Poissons Ratio (y) = 0.67493 0.58560
# Poissons Ratio (z) = 0.31134 0.26426
#
# Static dielectric constant tensor:
#      x y z
#    x 2.963560 0.000000 -0.026410 
#    y 0.000000 2.873220 0.000000 
#    z -0.026410 0.000000 2.893120 
# 
# 
# High freq. dielectric constant tensor:
#      x y z
#    x 1.578780 0.000000 -0.006930 
#    y 0.000000 1.585940 0.000000 
#    z -0.006930 0.000000 1.583360 
# 
# From -- ./inp_files/51240.got.cif
#   From: 2010.06.25/outbox.cif.g09.slc.cpg/sg11_26_cif.got.tgz:51240.got - 2010.06.27 23:14:04.
