data_PCOD8068311
_publ_section_title
;
Structure prediction by ZEFSAII (Michael W. Deem and Ramdas Pophale) SiO2 
 PCOD8068311
Probable space group: P 21/M
;
_chemical_formula_sum "Si O2"
_cell_formula_units_Z 24
_cell_length_a 12.222038
_cell_length_b 8.766625
_cell_length_c 14.223236
_cell_angle_alpha 90.000000
_cell_angle_beta 110.825537
_cell_angle_gamma 90.000000
_cell_volume 1424.398571
_symmetry_space_group_name_H-M "P 21/M"
_symmetry_group_IT_number 11
_symmetry_cell_setting 'monoclinic'
loop_
_space_group_symop_operation_xyz
x,y,z
-x,1/2+y,-z
-x,-y,-z
x,1/2-y,z
loop_
_atom_site_type_symbol
_atom_site_label
_atom_site_fract_x
_atom_site_fract_y
_atom_site_fract_z
Si Si1 0.396150 0.931334 0.530728
Si Si2 0.054665 0.425717 0.146398
Si Si3 0.464435 0.569576 0.275724
Si Si4 0.414919 0.929155 0.049660
Si Si5 0.831960 0.572407 0.014196
Si Si6 0.736815 0.927977 0.661661
O O1 0.395248 0.750000 0.529319
O O2 0.500000 0.000000 0.500000
O O3 0.418305 0.993558 0.643021
O O4 0.277182 0.996271 0.446463
O O5 0.017933 0.250000 0.124071
O O6 0.132653 0.475572 0.080670
O O7 0.130060 0.453546 0.263645
O O8 0.937315 0.525995 0.116672
O O9 0.469989 0.750000 0.290994
O O10 0.459941 0.520139 0.166033
O O11 0.348442 0.507395 0.289976
O O12 0.417518 0.750000 0.039589
O O13 0.283687 0.984284 0.990719
O O14 0.500000 0.000000 0.000000
O O15 0.806222 0.750000 0.015458
O O16 0.704576 0.750000 0.647673
#
# Coordination Sequence:
#
# PCOD8068311 Si02
#       6
#     4   4   4   4   4   4
#     4  10  18  27  42  65  94 126 158 194 237 289
#     4   9  18  30  47  71  99 131 161 195 242 290
#     4  10  19  31  46  66  93 126 161 200 241 285
#     4  11  23  36  52  71  96 129 168 207 244 288
#     4  10  19  32  49  70  97 128 164 202 242 288
#     4  10  17  28  46  69  98 129 159 194 237 289
#
# _framework density 16.849215999999998
#
# number of rings (size 3 to 8) (size 9 to 14) (size 15 to 20)
#    0.000    2.000    1.667    5.500    0.000    4.000 
#    0.000    0.000    0.000    0.000    0.000    1.167 
#    0.000    0.000    0.000    0.000    0.000    0.000 
#
# Total GULP energy -297556.909367 kJ/mol
# GULP energy per Si atom -12398.204557 kJ/mol
# Density = 1.681087 g / cm^3
# Si number density = 16.849216 Si / 1000 Ang^3
#
#
#
# Elastic Constant Matrix: (Units=GPa)
#
#
# Indices 1 2 3 4 5 6 
#
# 1 72.4376 23.9263 49.1362 0.0000 8.6332 0.0000
# 2 23.9263 73.7340 49.2146 0.0000 7.0488 0.0000
# 3 49.1362 49.2146 121.7319 0.0000 22.0271 0.0000
# 4 0.0000 0.0000 0.0000 28.6436 0.0000 5.0915
# 5 8.6332 7.0488 22.0271 0.0000 22.4913 0.0000
# 6 0.0000 0.0000 0.0000 5.0915 0.0000 24.6722
#
#
#
# Elastic Compliance Matrix: (Units=1/GPa)
#
#
# Indices 1 2 3 4 5 6 
#
# 1 0.019122 -0.001438 -0.007159 0.000000 0.000122 0.000000
# 2 -0.001438 0.018747 -0.007335 0.000000 0.001861 0.000000
# 3 -0.007159 -0.007335 0.015991 0.000000 -0.010614 0.000000
# 4 0.000000 0.000000 0.000000 0.036241 0.000000 -0.007479
# 5 0.000122 0.001861 -0.010614 0.000000 0.054226 0.000000
# 6 0.000000 0.000000 0.000000 -0.007479 0.000000 0.042075
#
#
# Mechanical properties :
#
#
# Convention : Reuss Voigt Hill
#
# Bulk Modulus (GPa) = 45.46655 56.93974 51.20314
# Shear Modulus (GPa) = 22.16331 24.86984 23.51658
#
# Velocity S-wave (km/s) = 3.63077 3.84607 3.73997
# Velocity P-wave (km/s) = 6.67979 7.32053 7.00748
#
# Compressibility (1/GPa) = 0.02199419
#
# Stress axis : x y z
#
# Youngs Moduli (GPa) = 52.29697 53.34135 62.53694
#
# Poissons Ratio (x) = 0.07672 0.44770
# Poissons Ratio (y) = 0.07521 0.45873
# Poissons Ratio (z) = 0.37439 0.39128
#
# Static dielectric constant tensor:
#      x y z
#    x 2.784160 0.000000 0.329260 
#    y 0.000000 3.261800 0.000000 
#    z 0.329260 0.000000 3.666780 
# 
# 
# High freq. dielectric constant tensor:
#      x y z
#    x 1.594930 0.000000 0.033640 
#    y 0.000000 1.667730 0.000000 
#    z 0.033640 0.000000 1.656700 
# 
# From -- ./inp_files/48704.got.cif
#   From: 2010.06.25/outbox.cif.g09.slc.cpg/sg11_25_cif.got.tgz:48704.got - 2010.06.27 23:14:04.
