data_PCOD8068141
_publ_section_title
;
Structure prediction by ZEFSAII (Michael W. Deem and Ramdas Pophale) SiO2 
 PCOD8068141
Probable space group: P 21/M
;
_chemical_formula_sum "Si O2"
_cell_formula_units_Z 24
_cell_length_a 9.180996
_cell_length_b 8.514217
_cell_length_c 30.103178
_cell_angle_alpha 90.000000
_cell_angle_beta 31.305763
_cell_angle_gamma 90.000000
_cell_volume 1222.700883
_symmetry_space_group_name_H-M "P 21/M"
_symmetry_group_IT_number 11
_symmetry_cell_setting 'monoclinic'
loop_
_space_group_symop_operation_xyz
x,y,z
-x,1/2+y,-z
-x,-y,-z
x,1/2-y,z
loop_
_atom_site_type_symbol
_atom_site_label
_atom_site_fract_x
_atom_site_fract_y
_atom_site_fract_z
Si Si1 0.130247 0.433872 0.011364
Si Si2 0.213402 0.063219 0.480260
Si Si3 0.818005 0.563766 0.325660
Si Si4 0.390092 0.432139 0.819896
Si Si5 0.962184 0.063891 0.637201
Si Si6 0.637522 0.565986 0.844139
O O1 0.174734 0.250000 0.997575
O O2 0.905960 0.475670 0.108887
O O3 0.435290 0.517751 0.938490
O O4 0.000000 0.500000 0.000000
O O5 0.220153 0.250000 0.477906
O O6 0.117355 0.996894 0.553449
O O7 0.514976 0.994401 0.389844
O O8 0.000000 0.000000 0.500000
O O9 0.836984 0.750000 0.317068
O O10 0.883417 0.500954 0.358607
O O11 0.039589 0.485749 0.233272
O O12 0.320841 0.250000 0.832655
O O13 0.631767 0.486903 0.722080
O O14 0.524366 0.463058 0.832859
O O15 0.977246 0.250000 0.634028
O O16 0.613230 0.750000 0.840661
#
# Coordination Sequence:
#
# PCOD8068141 Si02
#       6
#     4   4   4   4   4   4
#     4  10  16  23  36  60  94 130 161 196 238 287
#     4  11  22  37  53  74 100 131 166 205 249 299
#     4  10  19  34  53  75  99 129 165 208 252 295
#     4   9  15  26  42  64  93 127 162 201 243 288
#     4   8  17  32  52  74 100 130 166 206 249 293
#     4  10  17  26  41  65  95 129 162 198 240 290
#
# _framework density 19.628677
#
# number of rings (size 3 to 8) (size 9 to 14) (size 15 to 20)
#    0.000    2.333    0.000    8.000    0.000    0.000 
#    0.000    9.167    0.000    0.000    0.000    1.167 
#    0.000    0.000    0.000    0.000    0.000    0.000 
#
# Total GULP energy -297396.067925 kJ/mol
# GULP energy per Si atom -12391.502830 kJ/mol
# Density = 1.958400 g / cm^3
# Si number density = 19.628677 Si / 1000 Ang^3
#
#
#
# Elastic Constant Matrix: (Units=GPa)
#
#
# Indices 1 2 3 4 5 6 
#
# 1 46.8920 15.2864 35.9954 0.0000 -19.4001 0.0000
# 2 15.2864 89.3827 40.6128 0.0000 -11.2562 0.0000
# 3 35.9954 40.6128 171.8376 0.0000 -44.3396 0.0000
# 4 0.0000 0.0000 0.0000 34.3964 0.0000 -7.8514
# 5 -19.4001 -11.2562 -44.3396 0.0000 18.2097 0.0000
# 6 0.0000 0.0000 0.0000 -7.8514 0.0000 16.4633
#
#
#
# Elastic Compliance Matrix: (Units=1/GPa)
#
#
# Indices 1 2 3 4 5 6 
#
# 1 0.041931 -0.002956 0.007992 0.000000 0.062304 0.000000
# 2 -0.002956 0.012756 -0.003157 0.000000 -0.002952 0.000000
# 3 0.007992 -0.003157 0.017715 0.000000 0.049698 0.000000
# 4 0.000000 0.000000 0.000000 0.032624 0.000000 0.015559
# 5 0.062304 -0.002952 0.049698 0.000000 0.240480 0.000000
# 6 0.000000 0.000000 0.000000 0.015559 0.000000 0.068161
#
#
# Mechanical properties :
#
#
# Convention : Reuss Voigt Hill
#
# Bulk Modulus (GPa) = 13.13047 54.65572 33.89309
# Shear Modulus (GPa) = 11.48639 28.22841 19.85740
#
# Velocity S-wave (km/s) = 2.42168 3.79637 3.18410
# Velocity P-wave (km/s) = 3.81095 6.86454 5.55181
#
# Compressibility (1/GPa) = 0.07615874
#
# Stress axis : x y z
#
# Youngs Moduli (GPa) = 23.84871 78.39294 56.44812
#
# Poissons Ratio (x) = 0.23174 -0.45111
# Poissons Ratio (y) = 0.07050 0.17823
# Poissons Ratio (z) = -0.19059 0.24752
#
# Static dielectric constant tensor:
#      x y z
#    x 2.911670 0.000000 -0.143780 
#    y 0.000000 3.457210 0.000000 
#    z -0.143780 0.000000 4.927080 
# 
# 
# High freq. dielectric constant tensor:
#      x y z
#    x 1.680900 0.000000 -0.021340 
#    y 0.000000 1.763330 0.000000 
#    z -0.021340 0.000000 1.802330 
# 
# From -- ./inp_files/63168.got.cif
#   From: 2010.06.25/outbox.cif.g09.slc.cpg/sg11_32_cif.got.tgz:63168.got - 2010.06.27 23:14:04.
