data_PCOD8068264
_publ_section_title
;
Structure prediction by ZEFSAII (Michael W. Deem and Ramdas Pophale) SiO2 
 PCOD8068264
Probable space group: P 21/M
;
_chemical_formula_sum "Si O2"
_cell_formula_units_Z 32
_cell_length_a 19.430801
_cell_length_b 8.746819
_cell_length_c 29.018552
_cell_angle_alpha 90.000000
_cell_angle_beta 23.942037
_cell_angle_gamma 90.000000
_cell_volume 2001.436130
_symmetry_space_group_name_H-M "P 21/M"
_symmetry_group_IT_number 11
_symmetry_cell_setting 'monoclinic'
loop_
_space_group_symop_operation_xyz
x,y,z
-x,1/2+y,-z
-x,-y,-z
x,1/2-y,z
loop_
_atom_site_type_symbol
_atom_site_label
_atom_site_fract_x
_atom_site_fract_y
_atom_site_fract_z
Si Si1 0.773335 0.930598 0.552930
Si Si2 0.094480 0.571413 0.899209
Si Si3 0.423317 0.932189 0.092881
Si Si4 0.891624 0.931182 0.669354
Si Si5 0.827148 0.429405 0.007953
Si Si6 0.602564 0.923150 0.075438
Si Si7 0.399302 0.928963 0.769233
Si Si8 0.247451 0.573942 0.337304
O O1 0.791765 0.750000 0.534385
O O2 0.589639 0.995312 0.648761
O O3 0.798532 0.971539 0.590964
O O4 0.916717 0.017405 0.435016
O O5 0.059360 0.750000 0.919265
O O6 0.295240 0.537537 0.785358
O O7 0.000000 0.500000 0.000000
O O8 0.017159 0.497243 0.900016
O O9 0.407260 0.750000 0.100681
O O10 0.545482 0.983534 0.060175
O O11 0.236833 0.002985 0.213882
O O12 0.500000 0.000000 0.000000
O O13 0.874236 0.750000 0.677857
O O14 0.855110 0.006422 0.642523
O O15 0.843099 0.250000 0.000497
O O16 0.758343 0.477888 0.999863
O O17 0.701539 0.495741 0.124614
O O18 0.665956 0.750000 0.032675
O O19 0.446985 0.938111 0.205802
O O20 0.415930 0.750000 0.768156
O O21 0.193221 0.750000 0.378419
#
# Coordination Sequence:
#
# PCOD8068264 Si02
#       8
#     4   4   4   4   4   4   4   4
#     4  11  19  30  45  63  90 123 157 195 229 269
#     4   9  16  27  40  58  83 117 156 193 230 268
#     4  10  21  38  56  74  93 117 148 187 236 282
#     4  11  22  34  47  66  89 119 154 190 229 272
#     4  10  17  27  42  63  88 119 157 192 228 269
#     4   9  18  30  46  68  92 118 152 190 227 270
#     4   8  16  27  40  59  85 120 158 191 227 267
#     4  10  19  31  44  63  89 120 156 193 232 271
#
# _framework density 15.988519
#
# number of rings (size 3 to 8) (size 9 to 14) (size 15 to 20)
#    0.000    2.250    1.250    4.875    0.000    2.500 
#    0.000    1.875    0.000    0.000    0.000    0.000 
#    0.000    1.000    0.000    3.000    0.000    4.000 
#
# Total GULP energy -396628.367695 kJ/mol
# GULP energy per Si atom -12394.636490 kJ/mol
# Density = 1.595213 g / cm^3
# Si number density = 15.988519 Si / 1000 Ang^3
#
#
#
# Elastic Constant Matrix: (Units=GPa)
#
#
# Indices 1 2 3 4 5 6 
#
# 1 72.8055 31.1039 51.7561 0.0000 -11.9795 0.0000
# 2 31.1039 70.5822 26.1198 0.0000 -8.5951 0.0000
# 3 51.7561 26.1198 82.1517 0.0000 -11.4545 0.0000
# 4 0.0000 0.0000 0.0000 21.9257 0.0000 -2.0016
# 5 -11.9795 -8.5951 -11.4545 0.0000 22.7740 0.0000
# 6 0.0000 0.0000 0.0000 -2.0016 0.0000 23.4803
#
#
#
# Elastic Compliance Matrix: (Units=1/GPa)
#
#
# Indices 1 2 3 4 5 6 
#
# 1 0.027677 -0.006129 -0.014820 0.000000 0.004792 0.000000
# 2 -0.006129 0.017719 -0.001387 0.000000 0.002766 0.000000
# 3 -0.014820 -0.001387 0.022358 0.000000 0.002926 0.000000
# 4 0.000000 0.000000 0.000000 0.045966 0.000000 0.003918
# 5 0.004792 0.002766 0.002926 0.000000 0.048946 0.000000
# 6 0.000000 0.000000 0.000000 0.003918 0.000000 0.042923
#
#
# Mechanical properties :
#
#
# Convention : Reuss Voigt Hill
#
# Bulk Modulus (GPa) = 43.32212 49.27768 46.29990
# Shear Modulus (GPa) = 19.38317 21.40664 20.39490
#
# Velocity S-wave (km/s) = 3.48561 3.66303 3.57542
# Velocity P-wave (km/s) = 6.58437 6.98413 6.78719
#
# Compressibility (1/GPa) = 0.02308289
#
# Stress axis : x y z
#
# Youngs Moduli (GPa) = 36.13044 56.43754 44.72593
#
# Poissons Ratio (x) = 0.34590 0.66285
# Poissons Ratio (y) = 0.22144 0.06202
# Poissons Ratio (z) = 0.53546 0.07826
#
# Static dielectric constant tensor:
#      x y z
#    x 3.017390 0.000000 -0.381590 
#    y 0.000000 3.049720 0.000000 
#    z -0.381590 0.000000 3.052160 
# 
# 
# High freq. dielectric constant tensor:
#      x y z
#    x 1.593290 0.000000 -0.036350 
#    y 0.000000 1.621490 0.000000 
#    z -0.036350 0.000000 1.581990 
# 
# From -- ./inp_files/73613.got.cif
#   From: 2010.06.25/outbox.cif.g09.slc.cpg/sg11_37_cif.got.tgz:73613.got - 2010.06.27 23:14:04.
