data_PCOD8068746
_publ_section_title
;
Structure prediction by ZEFSAII (Michael W. Deem and Ramdas Pophale) SiO2 
 PCOD8068746
Probable space group: P 21/M
;
_chemical_formula_sum "Si O2"
_cell_formula_units_Z 28
_cell_length_a 9.666564
_cell_length_b 8.810421
_cell_length_c 28.436813
_cell_angle_alpha 90.000000
_cell_angle_beta 38.702516
_cell_angle_gamma 90.000000
_cell_volume 1514.335547
_symmetry_space_group_name_H-M "P 21/M"
_symmetry_group_IT_number 11
_symmetry_cell_setting 'monoclinic'
loop_
_space_group_symop_operation_xyz
x,y,z
-x,1/2+y,-z
-x,-y,-z
x,1/2-y,z
loop_
_atom_site_type_symbol
_atom_site_label
_atom_site_fract_x
_atom_site_fract_y
_atom_site_fract_z
Si Si1 0.830821 0.074997 0.438670
Si Si2 0.723623 0.428974 0.203772
Si Si3 0.634448 0.575989 0.401634
Si Si4 0.069751 0.427068 0.764018
Si Si5 0.679816 0.072775 0.803953
Si Si6 0.809017 0.571450 0.081375
Si Si7 0.271212 0.570834 0.314420
O O1 0.897358 0.250000 0.421343
O O2 0.628059 0.040635 0.528011
O O3 0.761780 0.030134 0.404314
O O4 0.043811 0.979904 0.399805
O O5 0.714359 0.250000 0.200467
O O6 0.895606 0.474851 0.198613
O O7 0.811204 0.500757 0.132380
O O8 0.483080 0.493006 0.282324
O O9 0.679152 0.750000 0.405191
O O10 0.724786 0.545480 0.325658
O O11 0.049155 0.250000 0.782894
O O12 0.844235 0.492749 0.799977
O O13 0.726402 0.250000 0.789587
O O14 0.423801 0.035707 0.883132
O O15 0.739954 0.010028 0.736358
O O16 0.845633 0.750000 0.076799
O O17 0.000000 0.500000 0.000000
O O18 0.304462 0.750000 0.309458
#
# Coordination Sequence:
#
# PCOD8068746 Si02
#       7
#     4   4   4   4   4   4   4
#     4  10  18  28  47  78 108 137 180 235 279 319
#     4  11  23  37  54  82 113 141 175 224 273 324
#     4   9  18  31  49  73 106 145 184 224 275 328
#     4  10  18  35  56  77 106 145 184 222 268 327
#     4   8  16  31  56  81 103 135 181 220 258 313
#     4  10  20  38  62  88 112 143 177 216 262 318
#     4  10  18  34  55  76 102 143 188 227 270 326
#
# _framework density 18.489958000000001
#
# number of rings (size 3 to 8) (size 9 to 14) (size 15 to 20)
#    0.000    2.286    1.429    3.429    0.000    1.143 
#    0.000    2.857    0.000    0.000    0.000    0.000 
#    0.000    0.000    0.000    0.000    0.000    0.000 
#
# Total GULP energy -347162.463564 kJ/mol
# GULP energy per Si atom -12398.659413 kJ/mol
# Density = 1.844787 g / cm^3
# Si number density = 18.489958 Si / 1000 Ang^3
#
#
#
# Elastic Constant Matrix: (Units=GPa)
#
#
# Indices 1 2 3 4 5 6 
#
# 1 112.4831 41.0977 42.6817 0.0000 -9.0793 0.0000
# 2 41.0977 94.2564 43.2334 0.0000 -4.6403 0.0000
# 3 42.6817 43.2334 100.5312 0.0000 -14.9621 0.0000
# 4 0.0000 0.0000 0.0000 29.9656 0.0000 -3.0327
# 5 -9.0793 -4.6403 -14.9621 0.0000 23.9816 0.0000
# 6 0.0000 0.0000 0.0000 -3.0327 0.0000 25.7536
#
#
#
# Elastic Compliance Matrix: (Units=1/GPa)
#
#
# Indices 1 2 3 4 5 6 
#
# 1 0.011490 -0.003494 -0.003118 0.000000 0.001728 0.000000
# 2 -0.003494 0.014305 -0.004909 0.000000 -0.001618 0.000000
# 3 -0.003118 -0.004909 0.014402 0.000000 0.006855 0.000000
# 4 0.000000 0.000000 0.000000 0.033774 0.000000 0.003977
# 5 0.001728 -0.001618 0.006855 0.000000 0.046317 0.000000
# 6 0.000000 0.000000 0.000000 0.003977 0.000000 0.039298
#
#
# Mechanical properties :
#
#
# Convention : Reuss Voigt Hill
#
# Bulk Modulus (GPa) = 58.29544 62.36623 60.33083
# Shear Modulus (GPa) = 26.54675 27.95735 27.25205
#
# Velocity S-wave (km/s) = 3.79322 3.89270 3.84328
# Velocity P-wave (km/s) = 7.12610 7.34896 7.23839
#
# Compressibility (1/GPa) = 0.01715400
#
# Stress axis : x y z
#
# Youngs Moduli (GPa) = 87.03495 69.90543 69.43302
#
# Poissons Ratio (x) = 0.24428 0.21649
# Poissons Ratio (y) = 0.30414 0.34085
# Poissons Ratio (z) = 0.27138 0.34317
#
# Static dielectric constant tensor:
#      x y z
#    x 3.377950 0.000000 -0.250550 
#    y 0.000000 3.304200 0.000000 
#    z -0.250550 0.000000 3.415020 
# 
# 
# High freq. dielectric constant tensor:
#      x y z
#    x 1.704120 0.000000 -0.019940 
#    y 0.000000 1.710030 0.000000 
#    z -0.019940 0.000000 1.708820 
# 
# From -- ./inp_files/28645.got.cif
#   From: 2010.06.25/outbox.cif.g09.slc.cpg/sg11_15_cif.got.tgz:28645.got - 2010.06.27 23:14:04.
