data_PCOD8068678
_publ_section_title
;
Structure prediction by ZEFSAII (Michael W. Deem and Ramdas Pophale) SiO2 
 PCOD8068678
Probable space group: P 21/M
;
_chemical_formula_sum "Si O2"
_cell_formula_units_Z 32
_cell_length_a 20.428752
_cell_length_b 8.938953
_cell_length_c 25.488531
_cell_angle_alpha 90.000000
_cell_angle_beta 157.108008
_cell_angle_gamma 90.000000
_cell_volume 1810.579230
_symmetry_space_group_name_H-M "P 21/M"
_symmetry_group_IT_number 11
_symmetry_cell_setting 'monoclinic'
loop_
_space_group_symop_operation_xyz
x,y,z
-x,1/2+y,-z
-x,-y,-z
x,1/2-y,z
loop_
_atom_site_type_symbol
_atom_site_label
_atom_site_fract_x
_atom_site_fract_y
_atom_site_fract_z
Si Si1 0.142451 0.427498 0.140955
Si Si2 0.646391 0.077385 0.138726
Si Si3 0.969055 0.427074 0.837865
Si Si4 0.352226 0.073134 0.126239
Si Si5 0.837245 0.073127 0.627121
Si Si6 0.434981 0.425715 0.074468
Si Si7 0.525717 0.572622 0.673839
Si Si8 0.866500 0.073969 0.211210
O O1 0.119662 0.250000 0.122697
O O2 0.135135 0.488114 0.194497
O O3 0.323558 0.477855 0.252707
O O4 0.000000 0.500000 0.000000
O O5 0.617078 0.250000 0.107418
O O6 0.614359 0.040113 0.177020
O O7 0.823152 0.033961 0.241014
O O8 0.500000 0.000000 0.000000
O O9 0.954512 0.250000 0.836084
O O10 0.891883 0.476855 0.725415
O O11 0.160771 0.484150 0.981606
O O12 0.348245 0.250000 0.128166
O O13 0.453158 0.022993 0.148412
O O14 0.442647 0.005367 0.244388
O O15 0.847358 0.250000 0.628560
O O16 0.649942 0.010438 0.478285
O O17 0.958137 0.003329 0.672538
O O18 0.388980 0.250000 0.037766
O O19 0.280900 0.513827 0.934992
O O20 0.517783 0.750000 0.670922
O O21 0.883974 0.250000 0.215150
#
# Coordination Sequence:
#
# PCOD8068678 Si02
#       8
#     4   4   4   4   4   4   4   4
#     4  11  21  35  55  78 103 131 161 202 249 294
#     4   8  15  25  40  67  99 128 160 198 243 289
#     4  10  19  33  53  76  98 126 165 205 242 287
#     4   9  15  28  51  75  96 122 162 207 240 277
#     4  10  20  35  53  71  95 132 170 202 239 292
#     4   9  15  27  49  73  96 129 169 202 238 293
#     4   9  19  34  52  73  97 125 163 205 243 286
#     4  10  18  28  44  70 104 132 157 203 253 290
#
# _framework density 17.673901000000001
#
# number of rings (size 3 to 8) (size 9 to 14) (size 15 to 20)
#    0.000    2.500    2.500    0.750    0.000    1.500 
#    0.000    1.250    0.000    0.750    0.000    0.000 
#    0.000    0.000    0.000    0.000    0.000    0.625 
#
# Total GULP energy -396509.768349 kJ/mol
# GULP energy per Si atom -12390.930261 kJ/mol
# Density = 1.763367 g / cm^3
# Si number density = 17.673901 Si / 1000 Ang^3
#
#
#
# Elastic Constant Matrix: (Units=GPa)
#
#
# Indices 1 2 3 4 5 6 
#
# 1 183.6459 31.8825 75.1583 0.0000 16.8109 0.0000
# 2 31.8825 28.8298 22.5047 0.0000 7.1528 0.0000
# 3 75.1583 22.5047 115.5682 0.0000 5.0203 0.0000
# 4 0.0000 0.0000 0.0000 12.8821 0.0000 5.3958
# 5 16.8109 7.1528 5.0203 0.0000 26.9335 0.0000
# 6 0.0000 0.0000 0.0000 5.3958 0.0000 25.2341
#
#
#
# Elastic Compliance Matrix: (Units=1/GPa)
#
#
# Indices 1 2 3 4 5 6 
#
# 1 0.008386 -0.005142 -0.004319 0.000000 -0.003064 0.000000
# 2 -0.005142 0.046594 -0.005374 0.000000 -0.008162 0.000000
# 3 -0.004319 -0.005374 0.012430 0.000000 0.001806 0.000000
# 4 0.000000 0.000000 0.000000 0.085263 0.000000 -0.018232
# 5 -0.003064 -0.008162 0.001806 0.000000 0.040872 0.000000
# 6 0.000000 0.000000 0.000000 -0.018232 0.000000 0.043527
#
#
# Mechanical properties :
#
#
# Convention : Reuss Voigt Hill
#
# Bulk Modulus (GPa) = 26.49876 65.23721 45.86798
# Shear Modulus (GPa) = 17.90038 26.24318 22.07178
#
# Velocity S-wave (km/s) = 3.18593 3.85756 3.53772
# Velocity P-wave (km/s) = 5.34408 7.53875 6.53422
#
# Compressibility (1/GPa) = 0.03773761
#
# Stress axis : x y z
#
# Youngs Moduli (GPa) = 119.24344 21.46216 80.45016
#
# Poissons Ratio (x) = 0.11037 0.34750
# Poissons Ratio (y) = 0.61320 0.43237
# Poissons Ratio (z) = 0.51506 0.11535
#
# Static dielectric constant tensor:
#      x y z
#    x 3.941840 0.000000 0.156660 
#    y 0.000000 2.997810 0.000000 
#    z 0.156660 0.000000 3.217400 
# 
# 
# High freq. dielectric constant tensor:
#      x y z
#    x 1.708520 0.000000 0.013280 
#    y 0.000000 1.659200 0.000000 
#    z 0.013280 0.000000 1.649060 
# 
# From -- ./inp_files/66444.got.cif
#   From: 2010.06.25/outbox.cif.g09.slc.cpg/sg11_34_cif.got.tgz:66444.got - 2010.06.27 23:14:04.
