data_PCOD8068645
_publ_section_title
;
Structure prediction by ZEFSAII (Michael W. Deem and Ramdas Pophale) SiO2 
 PCOD8068645
Probable space group: P 21/M
;
_chemical_formula_sum "Si O2"
_cell_formula_units_Z 32
_cell_length_a 16.962478
_cell_length_b 8.737697
_cell_length_c 13.627169
_cell_angle_alpha 90.000000
_cell_angle_beta 100.958649
_cell_angle_gamma 90.000000
_cell_volume 1982.893114
_symmetry_space_group_name_H-M "P 21/M"
_symmetry_group_IT_number 11
_symmetry_cell_setting 'monoclinic'
loop_
_space_group_symop_operation_xyz
x,y,z
-x,1/2+y,-z
-x,-y,-z
x,1/2-y,z
loop_
_atom_site_type_symbol
_atom_site_label
_atom_site_fract_x
_atom_site_fract_y
_atom_site_fract_z
Si Si1 0.320398 0.069526 0.875291
Si Si2 0.407993 0.070928 0.084901
Si Si3 0.322730 0.068282 0.258560
Si Si4 0.561988 0.070190 0.232823
Si Si5 0.165358 0.570012 0.159425
Si Si6 0.470898 0.931616 0.391853
Si Si7 0.171393 0.573858 0.932507
Si Si8 0.993682 0.927018 0.893213
O O1 0.328322 0.250000 0.864193
O O2 0.351028 0.990198 0.781914
O O3 0.228747 0.027209 0.877375
O O4 0.376115 1.000000 0.975967
O O5 0.394740 0.250000 0.075090
O O6 0.353827 0.008426 0.160744
O O7 0.500312 0.029573 0.129396
O O8 0.327157 0.250000 0.271821
O O9 0.231625 0.009234 0.244761
O O10 0.380461 0.992875 0.353245
O O11 0.564115 0.250000 0.255657
O O12 0.533536 0.985749 0.323871
O O13 0.171121 0.750000 0.173245
O O14 0.078770 0.512837 0.180363
O O15 0.175277 0.520132 0.047437
O O16 0.469912 0.750000 0.395757
O O17 0.500000 0.000000 0.500000
O O18 0.198102 0.750000 0.932339
O O19 0.081804 0.552179 0.865664
O O20 0.971039 0.750000 0.897443
O O21 0.000000 0.000000 0.000000
#
# Coordination Sequence:
#
# PCOD8068645 Si02
#       8
#     4   4   4   4   4   4   4   4
#     4  11  19  28  43  65  91 124 161 196 231 273
#     4   8  16  28  42  62  88 120 155 190 229 268
#     4  10  18  31  49  71  95 124 158 195 236 279
#     4  10  20  34  48  66  91 121 155 193 234 278
#     4  10  18  28  43  65  91 122 161 199 236 279
#     4  11  22  38  56  74  94 120 152 192 239 287
#     4   9  18  29  40  59  88 125 163 196 235 276
#     4   9  17  28  41  58  84 120 161 201 238 278
#
# _framework density 16.138036
#
# number of rings (size 3 to 8) (size 9 to 14) (size 15 to 20)
#    0.000    2.250    1.250    4.875    0.000    2.500 
#    0.000    1.250    0.000    0.000    0.000    0.000 
#    0.000    1.000    0.000    3.750    0.000    5.750 
#
# Total GULP energy -396633.889330 kJ/mol
# GULP energy per Si atom -12394.809042 kJ/mol
# Density = 1.610130 g / cm^3
# Si number density = 16.138036 Si / 1000 Ang^3
#
#
#
# Elastic Constant Matrix: (Units=GPa)
#
#
# Indices 1 2 3 4 5 6 
#
# 1 110.9004 49.5342 45.2467 0.0000 8.3870 0.0000
# 2 49.5342 99.0657 34.3106 0.0000 4.3983 0.0000
# 3 45.2467 34.3106 58.9121 0.0000 8.8651 0.0000
# 4 0.0000 0.0000 0.0000 19.5559 0.0000 0.5435
# 5 8.3870 4.3983 8.8651 0.0000 14.3878 0.0000
# 6 0.0000 0.0000 0.0000 0.5435 0.0000 30.9818
#
#
#
# Elastic Compliance Matrix: (Units=1/GPa)
#
#
# Indices 1 2 3 4 5 6 
#
# 1 0.014471 -0.004261 -0.008331 0.000000 -0.001999 0.000000
# 2 -0.004261 0.013907 -0.005027 0.000000 0.001330 0.000000
# 3 -0.008331 -0.005027 0.027928 0.000000 -0.010815 0.000000
# 4 0.000000 0.000000 0.000000 0.051161 0.000000 -0.000898
# 5 -0.001999 0.001330 -0.010815 0.000000 0.076926 0.000000
# 6 0.000000 0.000000 0.000000 -0.000898 0.000000 0.032293
#
#
# Mechanical properties :
#
#
# Convention : Reuss Voigt Hill
#
# Bulk Modulus (GPa) = 47.46749 58.56234 53.01491
# Shear Modulus (GPa) = 19.30901 22.30421 20.80661
#
# Velocity S-wave (km/s) = 3.46279 3.72168 3.59456
# Velocity P-wave (km/s) = 6.74278 7.40507 7.08167
#
# Compressibility (1/GPa) = 0.02106705
#
# Stress axis : x y z
#
# Youngs Moduli (GPa) = 69.10451 71.90653 35.80594
#
# Poissons Ratio (x) = 0.30642 0.29832
# Poissons Ratio (y) = 0.29448 0.17999
# Poissons Ratio (z) = 0.57574 0.36145
#
# Static dielectric constant tensor:
#      x y z
#    x 3.424900 0.000000 0.071370 
#    y 0.000000 3.058110 0.000000 
#    z 0.071370 0.000000 2.737220 
# 
# 
# High freq. dielectric constant tensor:
#      x y z
#    x 1.627000 0.000000 0.003650 
#    y 0.000000 1.630200 0.000000 
#    z 0.003650 0.000000 1.559070 
# 
# From -- ./inp_files/51315.got.cif
#   From: 2010.06.25/outbox.cif.g09.slc.cpg/sg11_26_cif.got.tgz:51315.got - 2010.06.27 23:14:04.
