data_PCOD8068513
_publ_section_title
;
Structure prediction by ZEFSAII (Michael W. Deem and Ramdas Pophale) SiO2 
 PCOD8068513
Probable space group: P 21/M
;
_chemical_formula_sum "Si O2"
_cell_formula_units_Z 28
_cell_length_a 23.068223
_cell_length_b 9.556628
_cell_length_c 12.034345
_cell_angle_alpha 90.000000
_cell_angle_beta 43.690512
_cell_angle_gamma 90.000000
_cell_volume 1832.610396
_symmetry_space_group_name_H-M "P 21/M"
_symmetry_group_IT_number 11
_symmetry_cell_setting 'monoclinic'
loop_
_space_group_symop_operation_xyz
x,y,z
-x,1/2+y,-z
-x,-y,-z
x,1/2-y,z
loop_
_atom_site_type_symbol
_atom_site_label
_atom_site_fract_x
_atom_site_fract_y
_atom_site_fract_z
Si Si1 0.269284 0.415097 0.027203
Si Si2 0.993143 0.591111 0.669416
Si Si3 0.229414 0.416021 0.836023
Si Si4 0.595595 0.905938 0.473469
Si Si5 0.953830 0.912200 0.971463
Si Si6 0.451496 0.095200 0.718906
Si Si7 0.129369 0.588116 0.306622
O O1 0.255062 0.250000 0.065582
O O2 0.217752 0.504996 0.189509
O O3 0.234436 0.467292 0.956174
O O4 0.368003 0.453224 0.900703
O O5 0.959071 0.750000 0.696537
O O6 0.085139 0.573430 0.488028
O O7 0.000774 0.562124 0.789726
O O8 0.929176 0.481479 0.705503
O O9 0.236006 0.250000 0.830935
O O10 0.309653 0.470273 0.652940
O O11 0.142472 0.466110 0.902364
O O12 0.593249 0.750000 0.526729
O O13 0.568794 0.903883 0.382793
O O14 0.530614 0.996428 0.636282
O O15 0.956276 0.750000 0.001892
O O16 0.000000 0.000000 0.000000
O O17 0.477194 0.250000 0.722184
O O18 0.144270 0.750000 0.254861
#
# Coordination Sequence:
#
# PCOD8068513 Si02
#       7
#     4   4   4   4   4   4   4
#     4   9  15  26  41  56  81 116 141 158 201 257
#     4   9  18  32  45  57  81 115 138 165 217 260
#     4   8  14  26  42  55  74 111 144 163 200 256
#     4   8  13  22  36  52  72 102 138 166 192 234
#     4  10  19  32  47  60  81 111 144 177 210 247
#     4   8  14  22  34  53  77 106 135 160 194 242
#     4  10  18  26  42  66  84 103 141 180 203 240
#
# _framework density 15.278752000000001
#
# number of rings (size 3 to 8) (size 9 to 14) (size 15 to 20)
#    0.000    3.143    1.429    2.143    0.000    1.714 
#    0.000    2.857    0.000    0.000    0.000    0.000 
#    0.000    1.143    0.000    2.571    0.000    4.571 
#
# Total GULP energy -346982.833157 kJ/mol
# GULP energy per Si atom -12392.244041 kJ/mol
# Density = 1.524398 g / cm^3
# Si number density = 15.278752 Si / 1000 Ang^3
#
#
#
# Elastic Constant Matrix: (Units=GPa)
#
#
# Indices 1 2 3 4 5 6 
#
# 1 55.4344 30.4266 47.2321 0.0000 -12.0883 0.0000
# 2 30.4266 74.3586 62.5357 0.0000 -13.7778 0.0000
# 3 47.2321 62.5357 122.9324 0.0000 -29.3029 0.0000
# 4 0.0000 0.0000 0.0000 27.3903 0.0000 -5.9353
# 5 -12.0883 -13.7778 -29.3029 0.0000 23.7547 0.0000
# 6 0.0000 0.0000 0.0000 -5.9353 0.0000 19.2700
#
#
#
# Elastic Compliance Matrix: (Units=1/GPa)
#
#
# Indices 1 2 3 4 5 6 
#
# 1 0.027575 -0.004191 -0.008070 0.000000 0.001647 0.000000
# 2 -0.004191 0.024183 -0.011129 0.000000 -0.001835 0.000000
# 3 -0.008070 -0.011129 0.020368 0.000000 0.014564 0.000000
# 4 0.000000 0.000000 0.000000 0.039120 0.000000 0.012049
# 5 0.001647 -0.001835 0.014564 0.000000 0.059836 0.000000
# 6 0.000000 0.000000 0.000000 0.012049 0.000000 0.055605
#
#
# Mechanical properties :
#
#
# Convention : Reuss Voigt Hill
#
# Bulk Modulus (GPa) = 39.45520 59.23491 49.34505
# Shear Modulus (GPa) = 17.73585 21.58506 19.66045
#
# Velocity S-wave (km/s) = 3.41077 3.76273 3.59107
# Velocity P-wave (km/s) = 6.43357 7.59810 7.03996
#
# Compressibility (1/GPa) = 0.02534520
#
# Stress axis : x y z
#
# Youngs Moduli (GPa) = 36.26500 41.35194 49.09724
#
# Poissons Ratio (x) = 0.17332 0.39621
# Poissons Ratio (y) = 0.15200 0.54639
# Poissons Ratio (z) = 0.29266 0.46019
#
# Static dielectric constant tensor:
#      x y z
#    x 2.559120 0.000000 -0.388130 
#    y 0.000000 2.952890 0.000000 
#    z -0.388130 0.000000 3.228950 
# 
# 
# High freq. dielectric constant tensor:
#      x y z
#    x 1.525700 0.000000 -0.034770 
#    y 0.000000 1.577780 0.000000 
#    z -0.034770 0.000000 1.591300 
# 
# From -- ./inp_files/42307.got.cif
#   From: 2010.06.25/outbox.cif.g09.slc.cpg/sg11_22_cif.got.tgz:42307.got - 2010.06.27 23:14:04.
