data_PCOD8068460
_publ_section_title
;
Structure prediction by ZEFSAII (Michael W. Deem and Ramdas Pophale) SiO2 
 PCOD8068460
Probable space group: P 21/M
;
_chemical_formula_sum "Si O2"
_cell_formula_units_Z 32
_cell_length_a 16.384250
_cell_length_b 18.307334
_cell_length_c 10.222614
_cell_angle_alpha 90.000000
_cell_angle_beta 35.088947
_cell_angle_gamma 90.000000
_cell_volume 1762.650519
_symmetry_space_group_name_H-M "P 21/M"
_symmetry_group_IT_number 11
_symmetry_cell_setting 'monoclinic'
loop_
_space_group_symop_operation_xyz
x,y,z
-x,1/2+y,-z
-x,-y,-z
x,1/2-y,z
loop_
_atom_site_type_symbol
_atom_site_label
_atom_site_fract_x
_atom_site_fract_y
_atom_site_fract_z
Si Si1 0.470411 0.085061 0.035074
Si Si2 0.768452 0.333376 0.268206
Si Si3 0.465993 0.334559 0.770362
Si Si4 0.138845 0.924168 0.099208
Si Si5 0.071551 0.832245 0.681958
Si Si6 0.754595 0.390339 0.770834
Si Si7 0.188736 0.085934 0.077916
Si Si8 0.832716 0.555381 0.600347
O O1 0.303145 0.095838 0.289354
O O2 0.498618 0.117825 0.855272
O O3 0.582985 0.121456 0.987465
O O4 0.500000 0.000000 0.000000
O O5 0.810333 0.250000 0.182053
O O6 0.598944 0.341512 0.498912
O O7 0.837201 0.359484 0.314280
O O8 0.828176 0.384485 0.077663
O O9 0.438850 0.250000 0.844869
O O10 0.331313 0.367431 0.870452
O O11 0.198511 0.876340 0.141769
O O12 0.968940 0.933271 0.331455
O O13 0.216881 0.002483 0.998899
O O14 0.019169 0.750000 0.771077
O O15 0.169004 0.833368 0.424633
O O16 0.933150 0.882181 0.853878
O O17 0.802679 0.470004 0.657875
O O18 0.138032 0.090255 0.295512
#
# Coordination Sequence:
#
# PCOD8068460 Si02
#       8
#     4   4   4   4   4   4   4   4
#     4   9  18  31  57  85 111 143 185 233 276 322
#     4  10  24  40  53  77 115 152 183 227 287 343
#     4  10  20  37  57  80 116 151 184 230 286 334
#     4  11  20  36  57  80 120 147 177 234 284 335
#     4  11  20  34  55  80 108 142 191 234 268 329
#     4  10  17  33  55  82 108 139 186 228 271 322
#     4  10  19  35  57  85 107 142 192 235 275 329
#     4   9  17  33  54  83 116 139 170 235 284 318
#
# _framework density 18.154478000000001
#
# number of rings (size 3 to 8) (size 9 to 14) (size 15 to 20)
#    0.000    2.000    3.750    1.875    0.000    1.500 
#    0.000    1.875    0.000    0.000    0.000    0.000 
#    0.000    0.000    0.000    0.000    0.000    0.000 
#
# Total GULP energy -396725.539884 kJ/mol
# GULP energy per Si atom -12397.673121 kJ/mol
# Density = 1.811316 g / cm^3
# Si number density = 18.154478 Si / 1000 Ang^3
#
#
#
# Elastic Constant Matrix: (Units=GPa)
#
#
# Indices 1 2 3 4 5 6 
#
# 1 106.4601 38.2241 48.1401 0.0000 -12.0852 0.0000
# 2 38.2241 72.8591 46.0000 0.0000 4.1916 0.0000
# 3 48.1401 46.0000 84.1067 0.0000 -7.4779 0.0000
# 4 0.0000 0.0000 0.0000 27.8918 0.0000 2.3797
# 5 -12.0852 4.1916 -7.4779 0.0000 30.8623 0.0000
# 6 0.0000 0.0000 0.0000 2.3797 0.0000 28.3974
#
#
#
# Elastic Compliance Matrix: (Units=1/GPa)
#
#
# Indices 1 2 3 4 5 6 
#
# 1 0.013783 -0.004258 -0.005139 0.000000 0.004730 0.000000
# 2 -0.004258 0.023328 -0.010988 0.000000 -0.007498 0.000000
# 3 -0.005139 -0.010988 0.021252 0.000000 0.004629 0.000000
# 4 0.000000 0.000000 0.000000 0.036111 0.000000 -0.003026
# 5 0.004730 -0.007498 0.004629 0.000000 0.036394 0.000000
# 6 0.000000 0.000000 0.000000 -0.003026 0.000000 0.035468
#
#
# Mechanical properties :
#
#
# Convention : Reuss Voigt Hill
#
# Bulk Modulus (GPa) = 56.84395 58.68382 57.76388
# Shear Modulus (GPa) = 23.47726 26.16774 24.82250
#
# Velocity S-wave (km/s) = 3.60000 3.80069 3.70170
# Velocity P-wave (km/s) = 6.97562 7.18715 7.08218
#
# Compressibility (1/GPa) = 0.01759202
#
# Stress axis : x y z
#
# Youngs Moduli (GPa) = 72.55246 42.86738 47.05348
#
# Poissons Ratio (x) = 0.18254 0.24183
# Poissons Ratio (y) = 0.30895 0.51701
# Poissons Ratio (z) = 0.37288 0.47102
#
# Static dielectric constant tensor:
#      x y z
#    x 3.612140 0.000000 -0.367650 
#    y 0.000000 3.288850 0.000000 
#    z -0.367650 0.000000 3.225890 
# 
# 
# High freq. dielectric constant tensor:
#      x y z
#    x 1.710180 0.000000 -0.027880 
#    y 0.000000 1.694020 0.000000 
#    z -0.027880 0.000000 1.680440 
# 
# From -- ./inp_files/23073.got.cif
#   From: 2010.06.25/outbox.cif.g09.slc.cpg/sg11_12_cif.got.tgz:23073.got - 2010.06.27 23:14:04.
