data_PCOD8068975
_publ_section_title
;
Structure prediction by ZEFSAII (Michael W. Deem and Ramdas Pophale) SiO2 
 PCOD8068975
Probable space group: P 21/M
;
_chemical_formula_sum "Si O2"
_cell_formula_units_Z 28
_cell_length_a 17.275522
_cell_length_b 9.321260
_cell_length_c 14.282938
_cell_angle_alpha 90.000000
_cell_angle_beta 130.807100
_cell_angle_gamma 90.000000
_cell_volume 1740.884407
_symmetry_space_group_name_H-M "P 21/M"
_symmetry_group_IT_number 11
_symmetry_cell_setting 'monoclinic'
loop_
_space_group_symop_operation_xyz
x,y,z
-x,1/2+y,-z
-x,-y,-z
x,1/2-y,z
loop_
_atom_site_type_symbol
_atom_site_label
_atom_site_fract_x
_atom_site_fract_y
_atom_site_fract_z
Si Si1 0.918376 0.583026 0.310440
Si Si2 0.879828 0.584527 0.489248
Si Si3 0.868369 0.083896 0.098891
Si Si4 0.735562 0.910855 0.533011
Si Si5 0.604653 0.080224 0.564726
Si Si6 0.080151 0.411188 0.179149
Si Si7 0.215804 0.584910 0.158191
O O1 0.930267 0.750000 0.297731
O O2 0.863076 0.555285 0.366004
O O3 0.847346 0.510327 0.174710
O O4 0.030630 0.513856 0.398867
O O5 0.911485 0.750000 0.532450
O O6 0.772410 0.549788 0.456646
O O7 0.873814 0.250000 0.132985
O O8 0.974361 0.030692 0.136984
O O9 0.779609 0.058298 0.950511
O O10 0.688414 0.750000 0.499613
O O11 0.837225 0.919664 0.674080
O O12 0.651904 0.023788 0.504064
O O13 0.587027 0.250000 0.543944
O O14 0.678942 0.035483 0.709548
O O15 0.500000 0.000000 0.500000
O O16 0.065515 0.250000 0.130588
O O17 0.116715 0.504878 0.120402
O O18 0.196643 0.750000 0.166008
#
# Coordination Sequence:
#
# PCOD8068975 Si02
#       7
#     4   4   4   4   4   4   4
#     4  10  19  27  42  66  92 125 163 196 219 255
#     4   9  17  31  45  62  92 127 159 190 229 267
#     4  10  18  30  43  60  91 128 155 183 225 266
#     4   9  16  29  48  67  90 122 153 184 226 271
#     4  10  20  34  50  71  93 114 147 189 233 279
#     4   9  16  26  42  62  88 122 154 180 217 264
#     4   9  19  31  45  64  88 117 152 189 224 270
#
# _framework density 16.083779
#
# number of rings (size 3 to 8) (size 9 to 14) (size 15 to 20)
#    0.000    2.571    1.429    1.286    0.000    2.857 
#    0.000    0.000    0.000    0.000    0.000    1.000 
#    0.000    0.000    0.000    0.000    0.000    0.000 
#
# Total GULP energy -347111.422210 kJ/mol
# GULP energy per Si atom -12396.836507 kJ/mol
# Density = 1.604717 g / cm^3
# Si number density = 16.083779 Si / 1000 Ang^3
#
#
#
# Elastic Constant Matrix: (Units=GPa)
#
#
# Indices 1 2 3 4 5 6 
#
# 1 94.2236 49.0128 46.4702 0.0000 -9.9045 0.0000
# 2 49.0128 75.1991 40.4274 0.0000 -10.1577 0.0000
# 3 46.4702 40.4274 69.6886 0.0000 -16.0133 0.0000
# 4 0.0000 0.0000 0.0000 22.7353 0.0000 -5.4756
# 5 -9.9045 -10.1577 -16.0133 0.0000 23.7109 0.0000
# 6 0.0000 0.0000 0.0000 -5.4756 0.0000 25.8344
#
#
#
# Elastic Compliance Matrix: (Units=1/GPa)
#
#
# Indices 1 2 3 4 5 6 
#
# 1 0.018597 -0.007944 -0.008037 0.000000 -0.001063 0.000000
# 2 -0.007944 0.022732 -0.007593 0.000000 0.001292 0.000000
# 3 -0.008037 -0.007593 0.026745 0.000000 0.011453 0.000000
# 4 0.000000 0.000000 0.000000 0.046351 0.000000 0.009824
# 5 -0.001063 0.001292 0.011453 0.000000 0.050019 0.000000
# 6 0.000000 0.000000 0.000000 0.009824 0.000000 0.040790
#
#
# Mechanical properties :
#
#
# Convention : Reuss Voigt Hill
#
# Bulk Modulus (GPa) = 47.78576 56.77023 52.27799
# Shear Modulus (GPa) = 19.27829 21.33615 20.30722
#
# Velocity S-wave (km/s) = 3.46586 3.64615 3.55715
# Velocity P-wave (km/s) = 6.76693 7.28691 7.03173
#
# Compressibility (1/GPa) = 0.02092674
#
# Stress axis : x y z
#
# Youngs Moduli (GPa) = 53.77073 43.98993 37.38977
#
# Poissons Ratio (x) = 0.34946 0.30050
# Poissons Ratio (y) = 0.42716 0.28391
# Poissons Ratio (z) = 0.43215 0.33402
#
# Static dielectric constant tensor:
#      x y z
#    x 2.984700 0.000000 -0.265290 
#    y 0.000000 3.150000 0.000000 
#    z -0.265290 0.000000 3.063860 
# 
# 
# High freq. dielectric constant tensor:
#      x y z
#    x 1.592670 0.000000 -0.024560 
#    y 0.000000 1.623410 0.000000 
#    z -0.024560 0.000000 1.599180 
# 
# From -- ./inp_files/50992.got.cif
#   From: 2010.06.25/outbox.cif.g09.slc.cpg/sg11_26_cif.got.tgz:50992.got - 2010.06.27 23:14:04.
