data_PCOD8068171
_publ_section_title
;
Structure prediction by ZEFSAII (Michael W. Deem and Ramdas Pophale) SiO2 
 PCOD8068171
Probable space group: P 21/M
;
_chemical_formula_sum "Si O2"
_cell_formula_units_Z 24
_cell_length_a 9.740282
_cell_length_b 16.696857
_cell_length_c 9.162571
_cell_angle_alpha 90.000000
_cell_angle_beta 58.677036
_cell_angle_gamma 90.000000
_cell_volume 1272.942754
_symmetry_space_group_name_H-M "P 21/M"
_symmetry_group_IT_number 11
_symmetry_cell_setting 'monoclinic'
loop_
_space_group_symop_operation_xyz
x,y,z
-x,1/2+y,-z
-x,-y,-z
x,1/2-y,z
loop_
_atom_site_type_symbol
_atom_site_label
_atom_site_fract_x
_atom_site_fract_y
_atom_site_fract_z
Si Si1 0.641764 0.900365 0.369983
Si Si2 0.925428 0.085397 0.995354
Si Si3 0.952282 0.658950 0.338562
Si Si4 0.007261 0.344881 0.353895
Si Si5 0.704099 0.417861 0.363906
Si Si6 0.791301 0.839958 0.018243
O O1 0.769542 0.843351 0.379810
O O2 0.461915 0.871656 0.510184
O O3 0.664716 0.894409 0.179736
O O4 0.675917 0.988839 0.409867
O O5 0.927058 0.099841 0.819697
O O6 0.038261 0.156989 0.991693
O O7 0.751302 0.095162 0.166870
O O8 0.000000 0.000000 0.000000
O O9 0.015143 0.750000 0.295912
O O10 0.956725 0.628063 0.501876
O O11 0.981674 0.250000 0.351487
O O12 0.845951 0.388714 0.390436
O O13 0.164614 0.370728 0.169893
O O14 0.723672 0.750000 0.053006
#
# Coordination Sequence:
#
# PCOD8068171 Si02
#       6
#     4   4   4   4   4   4
#     4  10  19  33  52  78 105 137 171 215 256 316
#     4  10  16  31  53  77 100 136 171 215 250 307
#     4  10  20  36  55  78 104 137 177 216 259 311
#     4   9  20  35  53  77 104 135 178 219 256 310
#     4  10  20  33  52  79 108 133 173 213 263 309
#     4   9  17  32  52  73  99 138 177 209 252 310
#
# _framework density 18.853950999999999
#
# number of rings (size 3 to 8) (size 9 to 14) (size 15 to 20)
#    0.000    2.333    3.333    2.000    0.000    2.667 
#    0.000    1.667    0.000    8.000    0.000    0.000 
#    0.000    0.000    0.000    0.000    0.000    0.000 
#
# Total GULP energy -297325.021990 kJ/mol
# GULP energy per Si atom -12388.542583 kJ/mol
# Density = 1.881104 g / cm^3
# Si number density = 18.853951 Si / 1000 Ang^3
#
#
#
# Elastic Constant Matrix: (Units=GPa)
#
#
# Indices 1 2 3 4 5 6 
#
# 1 59.3589 18.3604 75.6165 0.0000 -4.7271 0.0000
# 2 18.3604 53.1711 36.9161 0.0000 4.5276 0.0000
# 3 75.6165 36.9161 210.0075 0.0000 -3.9544 0.0000
# 4 0.0000 0.0000 0.0000 30.5617 0.0000 1.2375
# 5 -4.7271 4.5276 -3.9544 0.0000 41.0196 0.0000
# 6 0.0000 0.0000 0.0000 1.2375 0.0000 13.6695
#
#
#
# Elastic Compliance Matrix: (Units=1/GPa)
#
#
# Indices 1 2 3 4 5 6 
#
# 1 0.032040 -0.003822 -0.010807 0.000000 0.003072 0.000000
# 2 -0.003822 0.022188 -0.002583 0.000000 -0.003138 0.000000
# 3 -0.010807 -0.002583 0.009105 0.000000 -0.000082 0.000000
# 4 0.000000 0.000000 0.000000 0.032841 0.000000 -0.002973
# 5 0.003072 -0.003138 -0.000082 0.000000 0.025071 0.000000
# 6 0.000000 0.000000 0.000000 -0.002973 0.000000 0.073424
#
#
# Mechanical properties :
#
#
# Convention : Reuss Voigt Hill
#
# Bulk Modulus (GPa) = 34.59136 64.92483 49.75810
# Shear Modulus (GPa) = 20.94408 29.82647 25.38528
#
# Velocity S-wave (km/s) = 3.33657 3.98172 3.67334
# Velocity P-wave (km/s) = 5.76459 7.45984 6.66632
#
# Compressibility (1/GPa) = 0.02890895
#
# Stress axis : x y z
#
# Youngs Moduli (GPa) = 31.21068 45.07000 109.82477
#
# Poissons Ratio (x) = 0.17227 1.18686
# Poissons Ratio (y) = 0.11930 0.28368
# Poissons Ratio (z) = 0.33729 0.11642
#
# Static dielectric constant tensor:
#      x y z
#    x 3.088600 0.000000 -0.016350 
#    y 0.000000 3.354300 0.000000 
#    z -0.016350 0.000000 4.165260 
# 
# 
# High freq. dielectric constant tensor:
#      x y z
#    x 1.670170 0.000000 -0.001920 
#    y 0.000000 1.730020 0.000000 
#    z -0.001920 0.000000 1.758520 
# 
# From -- ./inp_files/18540.got.cif
#   From: 2010.06.25/outbox.cif.g09.slc.cpg/sg11_10_cif.got.tgz:18540.got - 2010.06.27 23:14:04.
