data_PCOD8068261
_publ_section_title
;
Structure prediction by ZEFSAII (Michael W. Deem and Ramdas Pophale) SiO2 
 PCOD8068261
Probable space group: P 21/M
;
_chemical_formula_sum "Si O2"
_cell_formula_units_Z 28
_cell_length_a 16.507500
_cell_length_b 9.069809
_cell_length_c 17.529776
_cell_angle_alpha 90.000000
_cell_angle_beta 41.725233
_cell_angle_gamma 90.000000
_cell_volume 1746.797033
_symmetry_space_group_name_H-M "P 21/M"
_symmetry_group_IT_number 11
_symmetry_cell_setting 'monoclinic'
loop_
_space_group_symop_operation_xyz
x,y,z
-x,1/2+y,-z
-x,-y,-z
x,1/2-y,z
loop_
_atom_site_type_symbol
_atom_site_label
_atom_site_fract_x
_atom_site_fract_y
_atom_site_fract_z
Si Si1 0.884813 0.585485 0.673049
Si Si2 0.043677 0.577961 0.235141
Si Si3 0.628471 0.926089 0.423449
Si Si4 0.211540 0.925209 0.566122
Si Si5 0.825307 0.922567 0.162392
Si Si6 0.086654 0.580620 0.036339
Si Si7 0.166235 0.913113 0.431295
O O1 0.838638 0.750000 0.723829
O O2 0.869960 0.484603 0.758643
O O3 0.804449 0.522071 0.659471
O O4 0.024269 0.585776 0.550715
O O5 0.014942 0.750000 0.269878
O O6 0.115455 0.554784 0.105236
O O7 0.917677 0.490593 0.318077
O O8 0.618159 0.750000 0.438449
O O9 0.713193 0.974078 0.293150
O O10 0.500000 0.000000 0.500000
O O11 0.682040 0.993505 0.463349
O O12 0.210840 0.750000 0.582046
O O13 0.237021 0.959279 0.458590
O O14 0.821775 0.750000 0.153663
O O15 0.949300 0.975009 0.116339
O O16 0.816859 0.993825 0.084035
O O17 0.098695 0.750000 0.005411
O O18 0.205721 0.750000 0.377543
#
# Coordination Sequence:
#
# PCOD8068261 Si02
#       7
#     4   4   4   4   4   4   4
#     4   9  16  24  36  58  84 114 150 181 216 263
#     4  10  17  27  42  62  91 121 149 184 223 267
#     4  11  22  36  50  67  91 119 154 192 232 270
#     4  10  19  30  45  64  85 115 154 189 225 270
#     4   9  18  32  46  64  88 115 149 188 228 268
#     4   9  17  29  45  66  89 117 151 185 224 271
#     4   8  15  26  38  55  81 113 147 181 219 263
#
# _framework density 16.029337999999999
#
# number of rings (size 3 to 8) (size 9 to 14) (size 15 to 20)
#    0.000    2.571    1.429    2.571    0.000    6.286 
#    0.000    0.000    0.000    0.000    0.000    0.000 
#    0.000    1.143    0.000    3.714    0.000    4.857 
#
# Total GULP energy -347091.979557 kJ/mol
# GULP energy per Si atom -12396.142127 kJ/mol
# Density = 1.599285 g / cm^3
# Si number density = 16.029338 Si / 1000 Ang^3
#
#
#
# Elastic Constant Matrix: (Units=GPa)
#
#
# Indices 1 2 3 4 5 6 
#
# 1 110.3118 58.4030 51.4649 0.0000 24.2349 0.0000
# 2 58.4030 89.5614 39.1667 0.0000 14.0275 0.0000
# 3 51.4649 39.1667 65.8203 0.0000 12.9134 0.0000
# 4 0.0000 0.0000 0.0000 21.8084 0.0000 6.9424
# 5 24.2349 14.0275 12.9134 0.0000 21.7256 0.0000
# 6 0.0000 0.0000 0.0000 6.9424 0.0000 30.0045
#
#
#
# Elastic Compliance Matrix: (Units=1/GPa)
#
#
# Indices 1 2 3 4 5 6 
#
# 1 0.019480 -0.007015 -0.008696 0.000000 -0.012031 0.000000
# 2 -0.007015 0.018113 -0.005132 0.000000 -0.000819 0.000000
# 3 -0.008696 -0.005132 0.025462 0.000000 -0.002120 0.000000
# 4 0.000000 0.000000 0.000000 0.049500 0.000000 -0.011453
# 5 -0.012031 -0.000819 -0.002120 0.000000 0.061238 0.000000
# 6 0.000000 0.000000 0.000000 -0.011453 0.000000 0.035978
#
#
# Mechanical properties :
#
#
# Convention : Reuss Voigt Hill
#
# Bulk Modulus (GPa) = 46.80052 62.64032 54.72042
# Shear Modulus (GPa) = 19.33627 22.48497 20.91062
#
# Velocity S-wave (km/s) = 3.47696 3.74938 3.61573
# Velocity P-wave (km/s) = 6.73641 7.60968 7.18632
#
# Compressibility (1/GPa) = 0.02136728
#
# Stress axis : x y z
#
# Youngs Moduli (GPa) = 51.33541 55.20938 39.27362
#
# Poissons Ratio (x) = 0.38731 0.34153
# Poissons Ratio (y) = 0.36014 0.20156
# Poissons Ratio (z) = 0.44643 0.28335
#
# Static dielectric constant tensor:
#      x y z
#    x 3.183250 0.000000 0.379830 
#    y 0.000000 3.193920 0.000000 
#    z 0.379830 0.000000 2.738740 
# 
# 
# High freq. dielectric constant tensor:
#      x y z
#    x 1.606910 0.000000 0.040760 
#    y 0.000000 1.629760 0.000000 
#    z 0.040760 0.000000 1.564590 
# 
# From -- ./inp_files/60093.got.cif
#   From: 2010.06.25/outbox.cif.g09.slc.cpg/sg11_31_cif.got.tgz:60093.got - 2010.06.27 23:14:04.
