data_PCOD8068901
_publ_section_title
;
Structure prediction by ZEFSAII (Michael W. Deem and Ramdas Pophale) SiO2 
 PCOD8068901
Probable space group: P 21/M
;
_chemical_formula_sum "Si O2"
_cell_formula_units_Z 28
_cell_length_a 28.212574
_cell_length_b 9.072019
_cell_length_c 9.528292
_cell_angle_alpha 90.000000
_cell_angle_beta 38.926587
_cell_angle_gamma 90.000000
_cell_volume 1532.305820
_symmetry_space_group_name_H-M "P 21/M"
_symmetry_group_IT_number 11
_symmetry_cell_setting 'monoclinic'
loop_
_space_group_symop_operation_xyz
x,y,z
-x,1/2+y,-z
-x,-y,-z
x,1/2-y,z
loop_
_atom_site_type_symbol
_atom_site_label
_atom_site_fract_x
_atom_site_fract_y
_atom_site_fract_z
Si Si1 0.814820 0.421693 0.756717
Si Si2 0.709622 0.918610 0.199189
Si Si3 0.908309 0.579566 0.091199
Si Si4 0.578426 0.922657 0.291528
Si Si5 0.262659 0.079975 0.550402
Si Si6 0.051604 0.421794 0.684410
Si Si7 0.315212 0.922461 0.160582
O O1 0.830162 0.250000 0.736591
O O2 0.894472 0.501995 0.553301
O O3 0.760749 0.458654 0.749938
O O4 0.776472 0.479390 0.987191
O O5 0.733390 0.750000 0.115896
O O6 0.631128 0.955949 0.304107
O O7 0.698093 0.948039 0.390487
O O8 0.926300 0.750000 0.022395
O O9 0.824915 0.535351 0.234537
O O10 0.916085 0.540247 0.236804
O O11 0.967133 0.485022 0.864214
O O12 0.566071 0.750000 0.295800
O O13 0.500000 0.000000 0.500000
O O14 0.614864 0.991261 0.068012
O O15 0.269228 0.250000 0.486830
O O16 0.305438 0.977523 0.341526
O O17 0.049740 0.250000 0.656832
O O18 0.333858 0.750000 0.116721
#
# Coordination Sequence:
#
# PCOD8068901 Si02
#       7
#     4   4   4   4   4   4   4
#     4  10  19  32  51  75 104 137 178 222 261 307
#     4   9  20  36  56  79 106 138 172 212 261 313
#     4   9  18  30  47  72 103 136 171 218 268 310
#     4  10  20  37  60  84 109 137 171 211 254 305
#     4  10  19  35  55  78 107 139 174 215 264 313
#     4  10  18  29  48  73 101 135 178 223 265 307
#     4  10  20  33  54  82 108 138 175 214 255 307
#
# _framework density 18.273115000000001
#
# number of rings (size 3 to 8) (size 9 to 14) (size 15 to 20)
#    0.000    2.286    1.429    1.714    0.000    3.429 
#    0.000    1.429    0.000    0.000    0.000    0.000 
#    0.000    0.000    0.000    0.000    0.000    0.000 
#
# Total GULP energy -347313.577614 kJ/mol
# GULP energy per Si atom -12404.056343 kJ/mol
# Density = 1.823152 g / cm^3
# Si number density = 18.273115 Si / 1000 Ang^3
#
#
#
# Elastic Constant Matrix: (Units=GPa)
#
#
# Indices 1 2 3 4 5 6 
#
# 1 65.7131 32.2014 46.8703 0.0000 2.2461 0.0000
# 2 32.2014 98.2637 73.1064 0.0000 -4.5239 0.0000
# 3 46.8703 73.1064 129.8134 0.0000 -9.7512 0.0000
# 4 0.0000 0.0000 0.0000 41.3221 0.0000 -1.7704
# 5 2.2461 -4.5239 -9.7512 0.0000 25.4855 0.0000
# 6 0.0000 0.0000 0.0000 -1.7704 0.0000 21.0726
#
#
#
# Elastic Compliance Matrix: (Units=1/GPa)
#
#
# Indices 1 2 3 4 5 6 
#
# 1 0.021322 -0.002085 -0.006891 0.000000 -0.004886 0.000000
# 2 -0.002085 0.017731 -0.009248 0.000000 -0.000207 0.000000
# 3 -0.006891 -0.009248 0.015775 0.000000 0.005002 0.000000
# 4 0.000000 0.000000 0.000000 0.024288 0.000000 0.002040
# 5 -0.004886 -0.000207 0.005002 0.000000 0.041546 0.000000
# 6 0.000000 0.000000 0.000000 0.002040 0.000000 0.047626
#
#
# Mechanical properties :
#
#
# Convention : Reuss Voigt Hill
#
# Bulk Modulus (GPa) = 54.40983 66.46073 60.43528
# Shear Modulus (GPa) = 23.71215 27.01686 25.36450
#
# Velocity S-wave (km/s) = 3.60620 3.84930 3.72973
# Velocity P-wave (km/s) = 6.86878 7.49706 7.18979
#
# Compressibility (1/GPa) = 0.01837903
#
# Stress axis : x y z
#
# Youngs Moduli (GPa) = 46.90080 56.39856 63.39017
#
# Poissons Ratio (x) = 0.11761 0.43682
# Poissons Ratio (y) = 0.09781 0.58624
# Poissons Ratio (z) = 0.32319 0.52158
#
# Static dielectric constant tensor:
#      x y z
#    x 3.180430 0.000000 -0.023580 
#    y 0.000000 3.395850 0.000000 
#    z -0.023580 0.000000 3.314900 
# 
# 
# High freq. dielectric constant tensor:
#      x y z
#    x 1.682090 0.000000 -0.001750 
#    y 0.000000 1.715730 0.000000 
#    z -0.001750 0.000000 1.707980 
# 
# From -- ./inp_files/28221.got.cif
#   From: 2010.06.25/outbox.cif.g09.slc.cpg/sg11_15_cif.got.tgz:28221.got - 2010.06.27 23:14:04.
