data_PCOD8068069
_publ_section_title
;
Structure prediction by ZEFSAII (Michael W. Deem and Ramdas Pophale) SiO2 
 PCOD8068069
Probable space group: P 2/M
;
_chemical_formula_sum "Si O2"
_cell_formula_units_Z 32
_cell_length_a 21.000000
_cell_length_b 9.000000
_cell_length_c 27.000000
_cell_angle_alpha 90.000000
_cell_angle_beta 160.000000
_cell_angle_gamma 90.000000
_cell_volume 1745.328791
_symmetry_space_group_name_H-M "P 2/M"
_symmetry_group_IT_number 10
_symmetry_cell_setting 'monoclinic'
loop_
_space_group_symop_operation_xyz
x,y,z
-x,y,-z
-x,-y,-z
x,-y,z
loop_
_atom_site_type_symbol
_atom_site_label
_atom_site_fract_x
_atom_site_fract_y
_atom_site_fract_z
Si Si1 0.286471 0.823370 0.351199
Si Si2 0.878822 0.171110 0.665243
Si Si3 0.688343 0.827893 0.002454
Si Si4 0.638462 0.176350 0.854148
Si Si5 0.765358 0.176516 0.473733
Si Si6 0.005336 0.176773 0.946253
Si Si7 0.956930 0.823808 0.411527
Si Si8 0.431490 0.675338 0.895259
O O1 0.500000 0.770905 0.500000
O O2 0.214483 0.760071 0.352426
O O3 0.163936 0.767480 0.213837
O O4 0.270176 0.000000 0.340889
O O5 0.818362 0.241566 0.567422
O O6 0.820079 0.000000 0.621233
O O7 0.097609 0.193421 0.828177
O O8 0.655831 0.765309 0.923224
O O9 0.572353 0.733776 0.956785
O O10 0.626985 0.000000 0.961448
O O11 0.443750 0.232380 0.689480
O O12 0.649926 0.000000 0.864028
O O13 0.804596 0.236027 0.940428
O O14 0.892312 0.230988 0.519774
O O15 0.778462 0.000000 0.485112
O O16 0.001027 0.000000 0.945111
O O17 0.000000 0.236449 0.000000
O O18 0.766246 0.749600 0.256733
O O19 0.000000 0.774809 0.500000
O O20 0.936195 0.000000 0.394168
O O21 0.412992 0.500000 0.875850
O O22 0.500000 0.720240 0.000000
#
# Coordination Sequence:
#
# PCOD8068069 Si02
#       8
#     4   4   4   4   4   4   4   4
#     4   9  16  24  34  53  86 127 163 193 233 292
#     4   9  16  26  40  62  90 123 164 203 243 293
#     4  10  18  32  53  71  94 131 172 213 254 303
#     4   9  16  27  42  64  92 124 165 205 243 291
#     4   9  17  26  41  64  88 117 156 205 250 289
#     4   9  16  24  35  55  87 129 166 194 235 293
#     4  10  20  36  56  79 104 133 176 220 262 316
#     4  11  24  38  53  77 107 137 172 216 270 325
#
# _framework density 18.334654
#
# number of rings (size 3 to 8) (size 9 to 14) (size 15 to 20)
#    0.000    2.500    1.250    1.875    1.750    4.250 
#    0.000    0.000    0.000    0.000    0.000    0.000 
#    0.000    1.000    0.000    0.500    0.000    0.000 
#
# Total GULP energy -396530.159302 kJ/mol
# GULP energy per Si atom -12391.567478 kJ/mol
# Density = 1.829292 g / cm^3
# Si number density = 18.334654 Si / 1000 Ang^3
#
#
#
# Elastic Constant Matrix: (Units=GPa)
#
#
# Indices 1 2 3 4 5 6 
#
# 1 201.6439 -2.8567 72.8545 0.0000 -16.5704 0.0000
# 2 -2.8567 -5.4632 -2.9219 0.0000 -3.0942 0.0000
# 3 72.8545 -2.9219 126.2460 0.0000 -17.8343 0.0000
# 4 0.0000 0.0000 0.0000 6.2696 0.0000 -6.9101
# 5 -16.5704 -3.0942 -17.8343 0.0000 47.6913 0.0000
# 6 0.0000 0.0000 0.0000 -6.9101 0.0000 7.9924
#
#
#
# Elastic Compliance Matrix: (Units=1/GPa)
#
#
# Indices 1 2 3 4 5 6 
#
# 1 0.006281 -0.001795 -0.003563 0.000000 0.000734 0.000000
# 2 -0.001795 -0.171809 -0.004860 0.000000 -0.013588 0.000000
# 3 -0.003563 -0.004860 0.010183 0.000000 0.002255 0.000000
# 4 0.000000 0.000000 0.000000 3.386725 0.000000 2.928105
# 5 0.000734 -0.013588 0.002255 0.000000 0.021185 0.000000
# 6 0.000000 0.000000 0.000000 2.928105 0.000000 2.656709
#
#
# Mechanical properties :
#
#
# Convention : Reuss Voigt Hill
#
# Bulk Modulus (GPa) = -5.68891 50.73093 22.52101
# Shear Modulus (GPa) = 0.85163 29.41407 15.13285
#
# Velocity S-wave (km/s) = 0.68227 4.00970 2.87604
# Velocity P-wave (km/s) = 1.57762 7.01188 4.83102
#
# Compressibility (1/GPa) = -0.17578049
#
# Stress axis : x y z
#
# Youngs Moduli (GPa) = 159.20185 -5.82040 98.20215
#
# Poissons Ratio (x) = -0.01045 0.34987
# Poissons Ratio (y) = 0.28571 0.47730
# Poissons Ratio (z) = 0.56719 -0.02829
#
# Static dielectric constant tensor:
#      x y z
#    x 4.213590 0.000000 -0.120910 
#    y 0.000000 2.697080 0.000000 
#    z -0.120910 0.000000 3.649240 
# 
# 
# High freq. dielectric constant tensor:
#      x y z
#    x 1.756120 0.000000 -0.007820 
#    y 0.000000 1.632700 0.000000 
#    z -0.007820 0.000000 1.733240 
# 
# From -- ./inp_files/93764.got.cif
#   From: 2010.06.25/outbox.ucp.g09.slc.cvg/sg10_47_cif.got.tgz:93764.got - 2010.06.28 13:37:52.
