data_PCOD8068659
_publ_section_title
;
Structure prediction by ZEFSAII (Michael W. Deem and Ramdas Pophale) SiO2 
 PCOD8068659
Probable space group: P 21/M
;
_chemical_formula_sum "Si O2"
_cell_formula_units_Z 32
_cell_length_a 16.764309
_cell_length_b 22.746012
_cell_length_c 16.178014
_cell_angle_alpha 90.000000
_cell_angle_beta 17.647045
_cell_angle_gamma 90.000000
_cell_volume 1870.153275
_symmetry_space_group_name_H-M "P 21/M"
_symmetry_group_IT_number 11
_symmetry_cell_setting 'monoclinic'
loop_
_space_group_symop_operation_xyz
x,y,z
-x,1/2+y,-z
-x,-y,-z
x,1/2-y,z
loop_
_atom_site_type_symbol
_atom_site_label
_atom_site_fract_x
_atom_site_fract_y
_atom_site_fract_z
Si Si1 0.759804 0.576939 0.754497
Si Si2 0.889082 0.683541 0.518896
Si Si3 0.490757 0.104643 0.359261
Si Si4 0.998026 0.915202 0.059700
Si Si5 0.360039 0.684361 0.939945
Si Si6 0.028677 0.047852 0.090452
Si Si7 0.270149 0.533484 0.327828
Si Si8 0.546591 0.472822 0.666102
O O1 0.846959 0.641565 0.639083
O O2 0.743167 0.533031 0.692891
O O3 0.974665 0.558118 0.610965
O O4 0.470035 0.575790 0.080510
O O5 0.962551 0.750000 0.476149
O O6 0.618121 0.684332 0.739047
O O7 0.118984 0.657838 0.232120
O O8 0.711181 0.109438 0.212528
O O9 0.581224 0.148636 0.199753
O O10 0.464888 0.041022 0.344627
O O11 0.215730 0.121291 0.675227
O O12 0.929956 0.909910 0.029604
O O13 0.997860 0.982131 0.088467
O O14 0.280180 0.750000 0.991575
O O15 0.759562 0.063478 0.402855
O O16 0.265585 0.055851 0.921846
O O17 0.373727 0.532716 0.318013
#
# Coordination Sequence:
#
# PCOD8068659 Si02
#       8
#     4   4   4   4   4   4   4   4
#     4  10  20  33  47  66  95 123 154 191 230 282
#     4  10  20  34  51  68  91 124 159 195 232 271
#     4  10  18  28  45  64  90 123 152 180 217 272
#     4   9  17  28  42  63  88 119 149 177 217 256
#     4  10  20  32  47  69  94 120 154 194 227 262
#     4   9  17  28  42  62  91 117 146 185 213 256
#     4  10  20  31  46  68  95 126 152 187 234 281
#     4  10  18  28  44  65  90 122 153 181 222 270
#
# _framework density 17.110897000000001
#
# number of rings (size 3 to 8) (size 9 to 14) (size 15 to 20)
#    0.000    2.250    0.000    3.750    0.000    7.000 
#    0.000    0.000    0.000    0.000    0.000    0.000 
#    0.000   20.000    0.000    0.000    0.000    0.000 
#
# Total GULP energy -396654.695433 kJ/mol
# GULP energy per Si atom -12395.459232 kJ/mol
# Density = 1.707195 g / cm^3
# Si number density = 17.110897 Si / 1000 Ang^3
#
#
#
# Elastic Constant Matrix: (Units=GPa)
#
#
# Indices 1 2 3 4 5 6 
#
# 1 109.9191 25.4172 28.9322 0.0000 -6.6741 0.0000
# 2 25.4172 43.9148 24.5173 0.0000 6.0408 0.0000
# 3 28.9322 24.5173 107.1152 0.0000 2.7913 0.0000
# 4 0.0000 0.0000 0.0000 22.0554 0.0000 4.7523
# 5 -6.6741 6.0408 2.7913 0.0000 21.4670 0.0000
# 6 0.0000 0.0000 0.0000 4.7523 0.0000 17.6909
#
#
#
# Elastic Compliance Matrix: (Units=1/GPa)
#
#
# Indices 1 2 3 4 5 6 
#
# 1 0.011369 -0.006362 -0.001759 0.000000 0.005554 0.000000
# 2 -0.006362 0.030632 -0.005034 0.000000 -0.009943 0.000000
# 3 -0.001759 -0.005034 0.010978 0.000000 -0.000558 0.000000
# 4 0.000000 0.000000 0.000000 0.048126 0.000000 -0.012928
# 5 0.005554 -0.009943 -0.000558 0.000000 0.051180 0.000000
# 6 0.000000 0.000000 0.000000 -0.012928 0.000000 0.059999
#
#
# Mechanical properties :
#
#
# Convention : Reuss Voigt Hill
#
# Bulk Modulus (GPa) = 37.49777 46.52028 42.00902
# Shear Modulus (GPa) = 20.20341 24.38147 22.29244
#
# Velocity S-wave (km/s) = 3.43991 3.77889 3.61338
# Velocity P-wave (km/s) = 6.14324 6.80342 6.48174
#
# Compressibility (1/GPa) = 0.02666825
#
# Stress axis : x y z
#
# Youngs Moduli (GPa) = 87.95847 32.64608 91.09423
#
# Poissons Ratio (x) = 0.20769 0.16027
# Poissons Ratio (y) = 0.55958 0.45854
# Poissons Ratio (z) = 0.15475 0.16433
#
# Static dielectric constant tensor:
#      x y z
#    x 3.098100 0.000000 -0.081090 
#    y 0.000000 2.950620 0.000000 
#    z -0.081090 0.000000 3.592630 
# 
# 
# High freq. dielectric constant tensor:
#      x y z
#    x 1.656250 0.000000 -0.008990 
#    y 0.000000 1.603910 0.000000 
#    z -0.008990 0.000000 1.686770 
# 
# From -- ./inp_files/52694.got.cif
#   From: 2010.06.25/outbox.cif.g09.slc.cpg/sg11_27_cif.got.tgz:52694.got - 2010.06.27 23:14:04.
