data_PCOD8068106
_publ_section_title
;
Structure prediction by ZEFSAII (Michael W. Deem and Ramdas Pophale) SiO2 
 PCOD8068106
Probable space group: P 2/M
;
_chemical_formula_sum "Si O2"
_cell_formula_units_Z 32
_cell_length_a 21.000000
_cell_length_b 9.000000
_cell_length_c 27.000000
_cell_angle_alpha 90.000000
_cell_angle_beta 20.000000
_cell_angle_gamma 90.000000
_cell_volume 1745.328791
_symmetry_space_group_name_H-M "P 2/M"
_symmetry_group_IT_number 10
_symmetry_cell_setting 'monoclinic'
loop_
_space_group_symop_operation_xyz
x,y,z
-x,y,-z
-x,-y,-z
x,-y,z
loop_
_atom_site_type_symbol
_atom_site_label
_atom_site_fract_x
_atom_site_fract_y
_atom_site_fract_z
Si Si1 0.975806 0.827054 0.572931
Si Si2 0.297928 0.829352 0.410195
Si Si3 0.763894 0.673772 0.376033
Si Si4 0.697011 0.830334 0.141930
Si Si5 0.921437 0.675057 0.155413
Si Si6 0.035590 0.327087 0.674214
Si Si7 0.615445 0.828342 0.315428
Si Si8 0.287832 0.323509 0.158793
O O1 0.176797 0.796096 0.450211
O O2 0.000000 0.766532 0.500000
O O3 0.808502 0.739278 0.721454
O O4 0.922358 0.000000 0.613397
O O5 0.515112 0.789566 0.241509
O O6 0.215103 0.737229 0.515824
O O7 0.283719 0.000000 0.437047
O O8 0.715783 0.500000 0.412651
O O9 0.841090 0.724831 0.266931
O O10 0.573280 0.758801 0.525681
O O11 0.931211 0.711919 0.292405
O O12 0.627566 0.804499 0.248274
O O13 0.762060 0.000000 0.086128
O O14 0.864370 0.723265 0.005049
O O15 0.911014 0.500000 0.155570
O O16 0.798995 0.751903 0.203034
O O17 0.038568 0.500000 0.662056
O O18 0.837255 0.267709 0.797173
O O19 0.617628 0.000000 0.328860
O O20 0.291888 0.500000 0.159589
O O21 0.500000 0.262239 0.000000
#
# Coordination Sequence:
#
# PCOD8068106 Si02
#       8
#     4   4   4   4   4   4   4   4
#     4   9  18  33  54  79 108 140 175 214 258 308
#     4   9  17  33  55  77 104 137 175 217 257 303
#     4  10  21  37  55  77 106 138 174 216 260 310
#     4  10  21  37  55  77 105 136 174 218 262 308
#     4  11  24  38  52  77 110 140 171 212 264 314
#     4   9  17  32  55  77 102 137 177 215 254 304
#     4  11  22  37  59  81 101 133 177 218 261 313
#     4   9  18  33  53  79 108 139 175 215 258 305
#
# _framework density 18.334654
#
# number of rings (size 3 to 8) (size 9 to 14) (size 15 to 20)
#    0.000    2.250    1.250    1.500    0.000    6.000 
#    2.250    0.000    0.000    0.000    0.000    0.000 
#    0.000    0.000    0.000    0.000    0.000    0.000 
#
# Total GULP energy -396730.859800 kJ/mol
# GULP energy per Si atom -12397.839369 kJ/mol
# Density = 1.829292 g / cm^3
# Si number density = 18.334654 Si / 1000 Ang^3
#
#
#
# Elastic Constant Matrix: (Units=GPa)
#
#
# Indices 1 2 3 4 5 6 
#
# 1 79.7285 25.4496 45.8737 0.0000 -11.5450 0.0000
# 2 25.4496 23.2015 25.9641 0.0000 -3.9124 0.0000
# 3 45.8737 25.9641 130.4271 0.0000 -20.8841 0.0000
# 4 0.0000 0.0000 0.0000 -413.4092 0.0000 -213.9028
# 5 -11.5450 -3.9124 -20.8841 0.0000 29.1140 0.0000
# 6 0.0000 0.0000 0.0000 -213.9028 0.0000 -79.9795
#
#
#
# Elastic Compliance Matrix: (Units=1/GPa)
#
#
# Indices 1 2 3 4 5 6 
#
# 1 0.020803 -0.018873 -0.002988 0.000000 0.003570 0.000000
# 2 -0.018873 0.072583 -0.008414 0.000000 -0.003766 0.000000
# 3 -0.002988 -0.008414 0.011323 0.000000 0.005806 0.000000
# 4 0.000000 0.000000 0.000000 0.006302 0.000000 -0.016856
# 5 0.003570 -0.003766 0.005806 0.000000 0.039422 0.000000
# 6 0.000000 0.000000 0.000000 -0.016856 0.000000 0.032577
#
#
# Mechanical properties :
#
#
# Convention : Reuss Voigt Hill
#
# Bulk Modulus (GPa) = 22.64555 47.54798 35.09677
# Shear Modulus (GPa) = 19.35869 -83.78364 -32.21247
#
# Velocity S-wave (km/s) = 3.25291 -6.76728 -4.19611
# Velocity P-wave (km/s) = 5.14652 5.92214 2.07185
#
# Compressibility (1/GPa) = 0.04415879
#
# Stress axis : x y z
#
# Youngs Moduli (GPa) = 48.06967 13.77724 88.31658
#
# Poissons Ratio (x) = 0.26002 0.26391
# Poissons Ratio (y) = 0.90721 0.74312
# Poissons Ratio (z) = 0.14364 0.11592
#
# Static dielectric constant tensor:
#      x y z
#    x 3.711020 0.000000 -0.230280 
#    y 0.000000 3.331140 0.000000 
#    z -0.230280 0.000000 3.471580 
# 
# 
# High freq. dielectric constant tensor:
#      x y z
#    x 1.715510 0.000000 -0.018100 
#    y 0.000000 1.705910 0.000000 
#    z -0.018100 0.000000 1.711910 
# 
# From -- ./inp_files/86761.got.cif
#   From: 2010.06.25/outbox.ucp.g09.slc.cvg/sg10_44_cif.got.tgz:86761.got - 2010.06.28 13:37:52.
