data_PCOD8068280
_publ_section_title
;
Structure prediction by ZEFSAII (Michael W. Deem and Ramdas Pophale) SiO2 
 PCOD8068280
Probable space group: P 21/M
;
_chemical_formula_sum "Si O2"
_cell_formula_units_Z 32
_cell_length_a 11.821290
_cell_length_b 9.012423
_cell_length_c 20.170595
_cell_angle_alpha 90.000000
_cell_angle_beta 121.956665
_cell_angle_gamma 90.000000
_cell_volume 1823.268850
_symmetry_space_group_name_H-M "P 21/M"
_symmetry_group_IT_number 11
_symmetry_cell_setting 'monoclinic'
loop_
_space_group_symop_operation_xyz
x,y,z
-x,1/2+y,-z
-x,-y,-z
x,1/2-y,z
loop_
_atom_site_type_symbol
_atom_site_label
_atom_site_fract_x
_atom_site_fract_y
_atom_site_fract_z
Si Si1 0.880812 0.417252 0.162109
Si Si2 0.392952 0.424555 0.772366
Si Si3 0.428382 0.422648 0.538072
Si Si4 0.427452 0.574506 0.287749
Si Si5 0.866076 0.414023 0.314987
Si Si6 0.146809 0.925584 0.253448
Si Si7 0.613230 0.573298 0.078642
Si Si8 0.846371 0.922711 0.605508
O O1 0.874060 0.250000 0.131109
O O2 0.879418 0.415542 0.240276
O O3 0.754980 0.511565 0.096785
O O4 0.017672 0.495770 0.181339
O O5 0.388032 0.250000 0.769240
O O6 0.512384 0.486901 0.763025
O O7 0.251425 0.477905 0.698340
O O8 0.413501 0.479576 0.853952
O O9 0.500000 0.500000 0.500000
O O10 0.462544 0.250000 0.543753
O O11 0.484074 0.489835 0.624099
O O12 0.269642 0.451806 0.483962
O O13 0.441319 0.750000 0.292839
O O14 0.272986 0.528707 0.246864
O O15 0.830222 0.250000 0.329701
O O16 0.012545 0.465196 0.386136
O O17 0.122892 0.750000 0.247108
O O18 0.179401 0.977938 0.337860
O O19 0.611060 0.750000 0.070743
O O20 0.500000 0.500000 0.000000
O O21 0.850956 0.750000 0.629448
#
# Coordination Sequence:
#
# PCOD8068280 Si02
#       8
#     4   4   4   4   4   4   4   4
#     4   9  17  30  48  72 101 127 156 196 237 281
#     4   9  18  33  50  69  94 127 162 191 231 291
#     4  10  18  30  46  66  93 126 163 205 247 286
#     4   9  18  31  47  68  96 129 162 199 243 287
#     4   8  15  28  44  64  90 122 156 196 240 278
#     4  10  17  27  46  70  95 125 162 201 238 279
#     4  10  19  32  54  80 102 126 156 194 237 284
#     4   9  17  28  44  65  92 123 159 204 250 288
#
# _framework density 17.550895000000001
#
# number of rings (size 3 to 8) (size 9 to 14) (size 15 to 20)
#    0.000    2.750    1.250    1.875    0.000    3.500 
#    0.000    2.500    0.000    0.750    0.000    0.000 
#    0.000    0.000    0.000    0.000    0.000    0.000 
#
# Total GULP energy -396623.482228 kJ/mol
# GULP energy per Si atom -12394.483820 kJ/mol
# Density = 1.751095 g / cm^3
# Si number density = 17.550895 Si / 1000 Ang^3
#
#
#
# Elastic Constant Matrix: (Units=GPa)
#
#
# Indices 1 2 3 4 5 6 
#
# 1 141.2758 40.8723 63.1707 0.0000 20.5659 0.0000
# 2 40.8723 58.7039 32.8519 0.0000 9.5558 0.0000
# 3 63.1707 32.8519 85.3614 0.0000 24.0865 0.0000
# 4 0.0000 0.0000 0.0000 19.9614 0.0000 8.7577
# 5 20.5659 9.5558 24.0865 0.0000 29.3257 0.0000
# 6 0.0000 0.0000 0.0000 8.7577 0.0000 25.1261
#
#
#
# Elastic Compliance Matrix: (Units=1/GPa)
#
#
# Indices 1 2 3 4 5 6 
#
# 1 0.011330 -0.004065 -0.006445 0.000000 -0.001327 0.000000
# 2 -0.004065 0.023171 -0.005966 0.000000 0.000201 0.000000
# 3 -0.006445 -0.005966 0.022072 0.000000 -0.011665 0.000000
# 4 0.000000 0.000000 0.000000 0.059140 0.000000 -0.020613
# 5 -0.001327 0.000201 -0.011665 0.000000 0.044546 0.000000
# 6 0.000000 0.000000 0.000000 -0.020613 0.000000 0.046984
#
#
# Mechanical properties :
#
#
# Convention : Reuss Voigt Hill
#
# Bulk Modulus (GPa) = 42.33692 62.12566 52.23129
# Shear Modulus (GPa) = 20.15571 24.77907 22.46739
#
# Velocity S-wave (km/s) = 3.39250 3.76152 3.58177
# Velocity P-wave (km/s) = 6.28651 7.37155 6.85054
#
# Compressibility (1/GPa) = 0.02362005
#
# Stress axis : x y z
#
# Youngs Moduli (GPa) = 88.26386 43.15765 45.30600
#
# Poissons Ratio (x) = 0.17545 0.29202
# Poissons Ratio (y) = 0.35881 0.27028
# Poissons Ratio (z) = 0.56890 0.25746
#
# Static dielectric constant tensor:
#      x y z
#    x 3.664270 0.000000 0.278440 
#    y 0.000000 3.243890 0.000000 
#    z 0.278440 0.000000 3.219180 
# 
# 
# High freq. dielectric constant tensor:
#      x y z
#    x 1.677970 0.000000 0.030450 
#    y 0.000000 1.670680 0.000000 
#    z 0.030450 0.000000 1.646870 
# 
# From -- ./inp_files/40669.got.cif
#   From: 2010.06.25/outbox.cif.g09.slc.cpg/sg11_21_cif.got.tgz:40669.got - 2010.06.27 23:14:04.
