data_PCOD8068501
_publ_section_title
;
Structure prediction by ZEFSAII (Michael W. Deem and Ramdas Pophale) SiO2 
 PCOD8068501
Probable space group: P 21/M
;
_chemical_formula_sum "Si O2"
_cell_formula_units_Z 32
_cell_length_a 13.723721
_cell_length_b 9.115987
_cell_length_c 19.630074
_cell_angle_alpha 90.000000
_cell_angle_beta 58.667052
_cell_angle_gamma 90.000000
_cell_volume 2097.667806
_symmetry_space_group_name_H-M "P 21/M"
_symmetry_group_IT_number 11
_symmetry_cell_setting 'monoclinic'
loop_
_space_group_symop_operation_xyz
x,y,z
-x,1/2+y,-z
-x,-y,-z
x,1/2-y,z
loop_
_atom_site_type_symbol
_atom_site_label
_atom_site_fract_x
_atom_site_fract_y
_atom_site_fract_z
Si Si1 0.110612 0.576662 0.490247
Si Si2 0.314865 0.584587 0.940867
Si Si3 0.913809 0.576804 0.980946
Si Si4 0.086649 0.077532 0.171197
Si Si5 0.682793 0.082082 0.902965
Si Si6 0.436928 0.420180 0.168018
Si Si7 0.011535 0.078744 0.337714
Si Si8 0.232164 0.422851 0.337311
O O1 0.108867 0.750000 0.476852
O O2 0.100795 0.542430 0.575696
O O3 0.222050 0.504014 0.414876
O O4 0.000000 0.500000 0.500000
O O5 0.270449 0.750000 0.943330
O O6 0.431482 0.552615 0.856462
O O7 0.215195 0.473336 0.955376
O O8 0.351068 0.565059 0.006123
O O9 0.921936 0.750000 0.987574
O O10 0.949203 0.524851 0.891414
O O11 0.000000 0.500000 0.000000
O O12 0.107103 0.250000 0.160506
O O13 0.995878 0.030642 0.263702
O O14 0.202711 0.005738 0.153804
O O15 0.702017 0.250000 0.875724
O O16 0.584494 0.014747 0.891779
O O17 0.417766 0.250000 0.156342
O O18 0.352686 0.467529 0.259815
O O19 0.033480 0.250000 0.329929
O O20 0.128642 0.014890 0.328061
O O21 0.224471 0.250000 0.353114
#
# Coordination Sequence:
#
# PCOD8068501 Si02
#       8
#     4   4   4   4   4   4   4   4
#     4   9  16  25  37  54  78 109 143 178 211 244
#     4   9  19  32  45  62  84 110 144 180 214 252
#     4  10  20  33  51  67  85 110 137 174 218 262
#     4   9  16  29  46  62  80 112 148 173 207 256
#     4  10  18  26  38  61  88 111 140 182 217 243
#     4  10  18  29  43  57  82 120 151 176 206 250
#     4   8  13  24  40  56  77 106 144 178 201 240
#     4   9  16  26  39  55  79 114 149 177 205 240
#
# _framework density 15.255036
#
# number of rings (size 3 to 8) (size 9 to 14) (size 15 to 20)
#    0.000    2.750    1.250    2.250    0.000    2.000 
#    0.000    0.625    0.000    0.000    0.000    0.000 
#    0.000    1.000    0.000    2.000    0.000    2.750 
#
# Total GULP energy -396430.611223 kJ/mol
# GULP energy per Si atom -12388.456601 kJ/mol
# Density = 1.522032 g / cm^3
# Si number density = 15.255036 Si / 1000 Ang^3
#
#
#
# Elastic Constant Matrix: (Units=GPa)
#
#
# Indices 1 2 3 4 5 6 
#
# 1 63.1394 26.4705 44.5048 0.0000 0.7626 0.0000
# 2 26.4705 39.9952 29.0167 0.0000 1.1265 0.0000
# 3 44.5048 29.0167 116.4801 0.0000 -4.3035 0.0000
# 4 0.0000 0.0000 0.0000 22.0829 0.0000 -0.5261
# 5 0.7626 1.1265 -4.3035 0.0000 12.4076 0.0000
# 6 0.0000 0.0000 0.0000 -0.5261 0.0000 19.2569
#
#
#
# Elastic Compliance Matrix: (Units=1/GPa)
#
#
# Indices 1 2 3 4 5 6 
#
# 1 0.025802 -0.011917 -0.006998 0.000000 -0.002931 0.000000
# 2 -0.011917 0.036395 -0.004668 0.000000 -0.004191 0.000000
# 3 -0.006998 -0.004668 0.012615 0.000000 0.005229 0.000000
# 4 0.000000 0.000000 0.000000 0.045313 0.000000 0.001238
# 5 -0.002931 -0.004191 0.005229 0.000000 0.082970 0.000000
# 6 0.000000 0.000000 0.000000 0.001238 0.000000 0.051963
#
#
# Mechanical properties :
#
#
# Convention : Reuss Voigt Hill
#
# Bulk Modulus (GPa) = 36.17205 46.62208 41.39707
# Shear Modulus (GPa) = 16.05438 18.72431 17.38935
#
# Velocity S-wave (km/s) = 3.24759 3.50725 3.37992
# Velocity P-wave (km/s) = 6.15024 6.85779 6.51363
#
# Compressibility (1/GPa) = 0.02764565
#
# Stress axis : x y z
#
# Youngs Moduli (GPa) = 38.75619 27.47629 79.27041
#
# Poissons Ratio (x) = 0.32744 0.55474
# Poissons Ratio (y) = 0.46187 0.37003
# Poissons Ratio (z) = 0.27122 0.12826
#
# Static dielectric constant tensor:
#      x y z
#    x 2.528230 0.000000 0.058550 
#    y 0.000000 2.940530 0.000000 
#    z 0.058550 0.000000 3.580500 
# 
# 
# High freq. dielectric constant tensor:
#      x y z
#    x 1.521640 0.000000 -0.003110 
#    y 0.000000 1.583330 0.000000 
#    z -0.003110 0.000000 1.595460 
# 
# From -- ./inp_files/40647.got.cif
#   From: 2010.06.25/outbox.cif.g09.slc.cpg/sg11_21_cif.got.tgz:40647.got - 2010.06.27 23:14:04.
