data_PCOD8068911
_publ_section_title
;
Structure prediction by ZEFSAII (Michael W. Deem and Ramdas Pophale) SiO2 
 PCOD8068911
Probable space group: P 21/M
;
_chemical_formula_sum "Si O2"
_cell_formula_units_Z 32
_cell_length_a 20.294285
_cell_length_b 8.918952
_cell_length_c 25.229258
_cell_angle_alpha 90.000000
_cell_angle_beta 22.891108
_cell_angle_gamma 90.000000
_cell_volume 1776.316821
_symmetry_space_group_name_H-M "P 21/M"
_symmetry_group_IT_number 11
_symmetry_cell_setting 'monoclinic'
loop_
_space_group_symop_operation_xyz
x,y,z
-x,1/2+y,-z
-x,-y,-z
x,1/2-y,z
loop_
_atom_site_type_symbol
_atom_site_label
_atom_site_fract_x
_atom_site_fract_y
_atom_site_fract_z
Si Si1 0.572004 0.923815 0.069128
Si Si2 0.981877 0.073346 0.155722
Si Si3 0.127183 0.573557 0.217264
Si Si4 0.510922 0.072645 0.335680
Si Si5 0.849256 0.426006 0.143308
Si Si6 0.166314 0.571747 0.624349
Si Si7 0.647170 0.422474 0.860076
Si Si8 0.636367 0.574367 0.139310
O O1 0.626396 0.750000 0.021637
O O2 0.722459 0.023390 0.933538
O O3 0.388937 0.956321 0.175647
O O4 0.546750 0.959853 0.149567
O O5 0.994578 0.250000 0.152668
O O6 0.861488 0.026326 0.195988
O O7 0.904617 0.008159 0.267183
O O8 0.171350 0.012312 0.005350
O O9 0.095634 0.750000 0.233169
O O10 0.174909 0.531134 0.243778
O O11 0.955388 0.485355 0.332279
O O12 0.486655 0.250000 0.354264
O O13 0.670686 0.019896 0.252454
O O14 0.351222 0.994643 0.480272
O O15 0.532981 0.017975 0.259270
O O16 0.871774 0.250000 0.120101
O O17 0.000000 0.500000 0.000000
O O18 0.176018 0.750000 0.615633
O O19 0.623400 0.250000 0.889740
O O20 0.500000 0.500000 0.000000
O O21 0.630724 0.750000 0.157977
#
# Coordination Sequence:
#
# PCOD8068911 Si02
#       8
#     4   4   4   4   4   4   4   4
#     4   9  16  29  50  77 106 139 181 218 253 308
#     4   9  18  34  57  81 103 134 179 220 256 304
#     4  10  18  29  48  76 110 142 171 215 270 312
#     4  11  24  38  53  80 111 139 172 220 272 319
#     4  10  20  36  57  79 107 137 172 216 263 313
#     4  11  22  38  57  77 104 144 183 219 260 316
#     4   8  15  26  43  71 106 139 171 212 260 307
#     4  10  18  33  57  80 105 140 180 220 257 309
#
# _framework density 18.014804000000002
#
# number of rings (size 3 to 8) (size 9 to 14) (size 15 to 20)
#    0.000    2.250    2.500    1.125    0.000    2.000 
#    0.000    1.250    0.000    0.750    0.000    0.000 
#    0.000    0.000    0.000    0.000    0.000    0.000 
#
# Total GULP energy -396578.555160 kJ/mol
# GULP energy per Si atom -12393.079849 kJ/mol
# Density = 1.797380 g / cm^3
# Si number density = 18.014804 Si / 1000 Ang^3
#
#
#
# Elastic Constant Matrix: (Units=GPa)
#
#
# Indices 1 2 3 4 5 6 
#
# 1 140.0274 30.5193 45.2789 0.0000 -17.5004 0.0000
# 2 30.5193 47.8223 28.8399 0.0000 -5.7583 0.0000
# 3 45.2789 28.8399 90.0805 0.0000 -5.1936 0.0000
# 4 0.0000 0.0000 0.0000 26.7946 0.0000 -2.0299
# 5 -17.5004 -5.7583 -5.1936 0.0000 26.4039 0.0000
# 6 0.0000 0.0000 0.0000 -2.0299 0.0000 22.2505
#
#
#
# Elastic Compliance Matrix: (Units=1/GPa)
#
#
# Indices 1 2 3 4 5 6 
#
# 1 0.009630 -0.003474 -0.003443 0.000000 0.004948 0.000000
# 2 -0.003474 0.027606 -0.006957 0.000000 0.002350 0.000000
# 3 -0.003443 -0.006957 0.015010 0.000000 -0.000847 0.000000
# 4 0.000000 0.000000 0.000000 0.037581 0.000000 0.003429
# 5 0.004948 0.002350 -0.000847 0.000000 0.041499 0.000000
# 6 0.000000 0.000000 0.000000 0.003429 0.000000 0.045256
#
#
# Mechanical properties :
#
#
# Convention : Reuss Voigt Hill
#
# Bulk Modulus (GPa) = 40.81747 54.13404 47.47576
# Shear Modulus (GPa) = 23.52994 26.64260 25.08627
#
# Velocity S-wave (km/s) = 3.61798 3.84986 3.73572
# Velocity P-wave (km/s) = 6.33719 7.06235 6.70958
#
# Compressibility (1/GPa) = 0.02449931
#
# Stress axis : x y z
#
# Youngs Moduli (GPa) = 103.83819 36.22422 66.62055
#
# Poissons Ratio (x) = 0.12583 0.22940
# Poissons Ratio (y) = 0.36069 0.46346
# Poissons Ratio (z) = 0.35755 0.25200
#
# Static dielectric constant tensor:
#      x y z
#    x 3.963050 0.000000 -0.307730 
#    y 0.000000 3.228470 0.000000 
#    z -0.307730 0.000000 3.066210 
# 
# 
# High freq. dielectric constant tensor:
#      x y z
#    x 1.720650 0.000000 -0.016800 
#    y 0.000000 1.689220 0.000000 
#    z -0.016800 0.000000 1.661960 
# 
# From -- ./inp_files/67031.got.cif
#   From: 2010.06.25/outbox.cif.g09.slc.cpg/sg11_34_cif.got.tgz:67031.got - 2010.06.27 23:14:04.
