data_PCOD8068955
_publ_section_title
;
Structure prediction by ZEFSAII (Michael W. Deem and Ramdas Pophale) SiO2 
 PCOD8068955
Probable space group: P 21/M
;
_chemical_formula_sum "Si O2"
_cell_formula_units_Z 28
_cell_length_a 15.803251
_cell_length_b 12.151670
_cell_length_c 13.784643
_cell_angle_alpha 90.000000
_cell_angle_beta 38.320310
_cell_angle_gamma 90.000000
_cell_volume 1641.382002
_symmetry_space_group_name_H-M "P 21/M"
_symmetry_group_IT_number 11
_symmetry_cell_setting 'monoclinic'
loop_
_space_group_symop_operation_xyz
x,y,z
-x,1/2+y,-z
-x,-y,-z
x,1/2-y,z
loop_
_atom_site_type_symbol
_atom_site_label
_atom_site_fract_x
_atom_site_fract_y
_atom_site_fract_z
Si Si1 0.141347 0.875553 0.192997
Si Si2 0.350668 0.975080 0.867172
Si Si3 0.827492 0.877646 0.481408
Si Si4 0.579797 0.626928 0.347541
Si Si5 0.603176 0.560284 0.535856
Si Si6 0.280697 0.003264 0.236932
Si Si7 0.530883 0.876546 0.070270
O O1 0.174628 0.750000 0.192297
O O2 0.179282 0.955753 0.246969
O O3 0.983648 0.890531 0.309004
O O4 0.224170 0.905363 0.020374
O O5 0.473101 0.895738 0.716758
O O6 0.308073 0.058808 0.817672
O O7 0.415600 0.048147 0.892550
O O8 0.786061 0.750000 0.530376
O O9 0.739544 0.934580 0.476229
O O10 0.808440 0.941083 0.599377
O O11 0.567468 0.750000 0.318498
O O12 0.623544 0.631710 0.420634
O O13 0.432538 0.565900 0.464883
O O14 0.381112 0.097248 0.104898
O O15 0.371809 0.902806 0.195118
O O16 0.546908 0.750000 0.084032
#
# Coordination Sequence:
#
# PCOD8068955 Si02
#       7
#     4   4   4   4   4   4   4
#     4  10  22  35  51  73 104 140 172 209 257 303
#     4   9  18  34  50  78 101 128 170 212 250 299
#     4  11  21  35  52  74 104 140 172 208 256 302
#     4   9  17  33  57  81 105 131 164 210 260 301
#     4   9  19  34  54  83 101 131 171 210 251 303
#     4  10  19  34  48  74 102 134 175 212 247 302
#     4  10  18  29  50  76 101 129 166 214 260 292
#
# _framework density 17.058796000000001
#
# number of rings (size 3 to 8) (size 9 to 14) (size 15 to 20)
#    0.857    1.429    1.429    2.143    0.000    1.143 
#    0.000    0.714    0.000    7.714    0.000    0.000 
#    0.000    0.000    0.000    0.000    0.000    0.000 
#
# Total GULP energy -346983.081680 kJ/mol
# GULP energy per Si atom -12392.252917 kJ/mol
# Density = 1.701997 g / cm^3
# Si number density = 17.058796 Si / 1000 Ang^3
#
#
#
# Elastic Constant Matrix: (Units=GPa)
#
#
# Indices 1 2 3 4 5 6 
#
# 1 80.7326 30.0524 53.1288 0.0000 8.1571 0.0000
# 2 30.0524 64.6687 23.9754 0.0000 -2.7317 0.0000
# 3 53.1288 23.9754 94.4834 0.0000 1.8598 0.0000
# 4 0.0000 0.0000 0.0000 12.4560 0.0000 -5.5765
# 5 8.1571 -2.7317 1.8598 0.0000 23.7365 0.0000
# 6 0.0000 0.0000 0.0000 -5.5765 0.0000 12.9015
#
#
#
# Elastic Compliance Matrix: (Units=1/GPa)
#
#
# Indices 1 2 3 4 5 6 
#
# 1 0.023021 -0.006941 -0.011029 0.000000 -0.007846 0.000000
# 2 -0.006941 0.019289 -0.001084 0.000000 0.004690 0.000000
# 3 -0.011029 -0.001084 0.017015 0.000000 0.002332 0.000000
# 4 0.000000 0.000000 0.000000 0.099545 0.000000 0.043027
# 5 -0.007846 0.004690 0.002332 0.000000 0.045182 0.000000
# 6 0.000000 0.000000 0.000000 0.043027 0.000000 0.096109
#
#
# Mechanical properties :
#
#
# Convention : Reuss Voigt Hill
#
# Bulk Modulus (GPa) = 47.13257 50.46646 48.79952
# Shear Modulus (GPa) = 14.47841 18.66735 16.57288
#
# Velocity S-wave (km/s) = 2.91647 3.31160 3.12030
# Velocity P-wave (km/s) = 6.24744 6.65359 6.45371
#
# Compressibility (1/GPa) = 0.02121675
#
# Stress axis : x y z
#
# Youngs Moduli (GPa) = 43.43831 51.84333 58.77182
#
# Poissons Ratio (x) = 0.35982 0.64821
# Poissons Ratio (y) = 0.30149 0.06372
# Poissons Ratio (z) = 0.47910 0.05621
#
# Static dielectric constant tensor:
#      x y z
#    x 3.056520 0.000000 0.208490 
#    y 0.000000 3.091350 0.000000 
#    z 0.208490 0.000000 3.249190 
# 
# 
# High freq. dielectric constant tensor:
#      x y z
#    x 1.651240 0.000000 0.019210 
#    y 0.000000 1.653140 0.000000 
#    z 0.019210 0.000000 1.648420 
# 
# From -- ./inp_files/52108.got.cif
#   From: 2010.06.25/outbox.cif.g09.slc.cpg/sg11_27_cif.got.tgz:52108.got - 2010.06.27 23:14:04.
