data_PCOD8068277
_publ_section_title
;
Structure prediction by ZEFSAII (Michael W. Deem and Ramdas Pophale) SiO2 
 PCOD8068277
Probable space group: P 21/M
;
_chemical_formula_sum "Si O2"
_cell_formula_units_Z 32
_cell_length_a 17.080056
_cell_length_b 9.236468
_cell_length_c 16.514032
_cell_angle_alpha 90.000000
_cell_angle_beta 51.125301
_cell_angle_gamma 90.000000
_cell_volume 2028.235237
_symmetry_space_group_name_H-M "P 21/M"
_symmetry_group_IT_number 11
_symmetry_cell_setting 'monoclinic'
loop_
_space_group_symop_operation_xyz
x,y,z
-x,1/2+y,-z
-x,-y,-z
x,1/2-y,z
loop_
_atom_site_type_symbol
_atom_site_label
_atom_site_fract_x
_atom_site_fract_y
_atom_site_fract_z
Si Si1 0.725438 0.582858 0.242300
Si Si2 0.958651 0.580343 0.805814
Si Si3 0.496919 0.079121 0.588034
Si Si4 0.957623 0.080526 0.648990
Si Si5 0.908023 0.919958 0.016444
Si Si6 0.816334 0.409825 0.322294
Si Si7 0.317483 0.909589 0.436971
Si Si8 0.857618 0.420588 0.549194
O O1 0.744672 0.750000 0.244873
O O2 0.608612 0.552911 0.296912
O O3 0.801679 0.527390 0.123346
O O4 0.745560 0.507258 0.313872
O O5 0.953893 0.750000 0.787655
O O6 0.913538 0.490307 0.759814
O O7 0.072234 0.525300 0.745836
O O8 0.899308 0.543010 0.926841
O O9 0.517161 0.250000 0.558795
O O10 0.583375 0.010789 0.591399
O O11 0.500000 0.000000 0.500000
O O12 0.976390 0.250000 0.650026
O O13 0.875128 0.050915 0.632776
O O14 0.062404 0.007228 0.556494
O O15 0.926896 0.750000 0.016470
O O16 0.000000 0.000000 0.000000
O O17 0.821493 0.250000 0.279828
O O18 0.770350 0.403768 0.440337
O O19 0.355016 0.750000 0.388361
O O20 0.256713 0.976067 0.399103
O O21 0.869061 0.250000 0.521056
#
# Coordination Sequence:
#
# PCOD8068277 Si02
#       8
#     4   4   4   4   4   4   4   4
#     4  10  20  31  43  65  94 115 145 196 230 246
#     4  10  19  31  45  61  87 123 154 177 215 270
#     4  10  19  30  45  65  89 118 149 183 219 259
#     4  10  19  28  44  68  91 113 143 186 227 260
#     4  10  20  32  46  65  89 120 153 187 224 264
#     4  10  17  27  45  64  85 120 157 179 208 263
#     4   9  16  28  45  62  84 118 152 174 204 262
#     4   9  17  31  46  63  89 119 148 178 217 269
#
# _framework density 15.777264000000001
#
# number of rings (size 3 to 8) (size 9 to 14) (size 15 to 20)
#    0.000    2.250    3.750    0.375    0.000    1.500 
#    0.000    0.625    0.000    0.000    0.000    0.875 
#    0.000    0.000    0.000    0.000    0.000    0.000 
#
# Total GULP energy -396531.548859 kJ/mol
# GULP energy per Si atom -12391.610902 kJ/mol
# Density = 1.574135 g / cm^3
# Si number density = 15.777264 Si / 1000 Ang^3
#
#
#
# Elastic Constant Matrix: (Units=GPa)
#
#
# Indices 1 2 3 4 5 6 
#
# 1 140.3892 35.7906 47.8180 0.0000 0.3355 0.0000
# 2 35.7906 40.5697 26.4334 0.0000 5.6325 0.0000
# 3 47.8180 26.4334 74.3844 0.0000 -0.2324 0.0000
# 4 0.0000 0.0000 0.0000 17.0726 0.0000 4.7105
# 5 0.3355 5.6325 -0.2324 0.0000 25.9037 0.0000
# 6 0.0000 0.0000 0.0000 4.7105 0.0000 21.9372
#
#
#
# Elastic Compliance Matrix: (Units=1/GPa)
#
#
# Indices 1 2 3 4 5 6 
#
# 1 0.010208 -0.006378 -0.004292 0.000000 0.001216 0.000000
# 2 -0.006378 0.037413 -0.009220 0.000000 -0.008135 0.000000
# 3 -0.004292 -0.009220 0.019486 0.000000 0.002235 0.000000
# 4 0.000000 0.000000 0.000000 0.062262 0.000000 -0.013369
# 5 0.001216 -0.008135 0.002235 0.000000 0.040378 0.000000
# 6 0.000000 0.000000 0.000000 -0.013369 0.000000 0.048455
#
#
# Mechanical properties :
#
#
# Convention : Reuss Voigt Hill
#
# Bulk Modulus (GPa) = 36.59462 52.82527 44.70995
# Shear Modulus (GPa) = 18.72018 22.66945 20.69482
#
# Velocity S-wave (km/s) = 3.44834 3.79468 3.62565
# Velocity P-wave (km/s) = 6.25297 7.26320 6.77693
#
# Compressibility (1/GPa) = 0.02732642
#
# Stress axis : x y z
#
# Youngs Moduli (GPa) = 97.96233 26.72894 51.31809
#
# Poissons Ratio (x) = 0.17048 0.22025
# Poissons Ratio (y) = 0.62480 0.47317
# Poissons Ratio (z) = 0.42045 0.24645
#
# Static dielectric constant tensor:
#      x y z
#    x 3.189860 0.000000 -0.016010 
#    y 0.000000 2.963590 0.000000 
#    z -0.016010 0.000000 3.003250 
# 
# 
# High freq. dielectric constant tensor:
#      x y z
#    x 1.604530 0.000000 0.003700 
#    y 0.000000 1.593340 0.000000 
#    z 0.003700 0.000000 1.580080 
# 
# From -- ./inp_files/60689.got.cif
#   From: 2010.06.25/outbox.cif.g09.slc.cpg/sg11_31_cif.got.tgz:60689.got - 2010.06.27 23:14:04.
