data_PCOD8068289
_publ_section_title
;
Structure prediction by ZEFSAII (Michael W. Deem and Ramdas Pophale) SiO2 
 PCOD8068289
Probable space group: P 21/M
;
_chemical_formula_sum "Si O2"
_cell_formula_units_Z 32
_cell_length_a 23.533852
_cell_length_b 8.955862
_cell_length_c 14.349341
_cell_angle_alpha 90.000000
_cell_angle_beta 135.856248
_cell_angle_gamma 90.000000
_cell_volume 2106.343266
_symmetry_space_group_name_H-M "P 21/M"
_symmetry_group_IT_number 11
_symmetry_cell_setting 'monoclinic'
loop_
_space_group_symop_operation_xyz
x,y,z
-x,1/2+y,-z
-x,-y,-z
x,1/2-y,z
loop_
_atom_site_type_symbol
_atom_site_label
_atom_site_fract_x
_atom_site_fract_y
_atom_site_fract_z
Si Si1 0.822418 0.927647 0.201781
Si Si2 0.763739 0.924480 0.823665
Si Si3 0.971671 0.576335 0.250435
Si Si4 0.396219 0.084795 0.453443
Si Si5 0.924608 0.425198 0.462110
Si Si6 0.051467 0.424145 0.980960
Si Si7 0.542767 0.583912 0.685403
Si Si8 0.301611 0.572980 0.070686
O O1 0.815197 0.750000 0.198968
O O2 0.894318 0.985578 0.217478
O O3 0.842555 0.993200 0.329103
O O4 0.738060 0.998916 0.067641
O O5 0.752889 0.750000 0.838391
O O6 0.698239 0.968698 0.665949
O O7 0.748689 0.019731 0.898484
O O8 0.853142 0.957746 0.889251
O O9 0.953554 0.750000 0.216868
O O10 0.057408 0.548722 0.406088
O O11 0.975007 0.506536 0.150721
O O12 0.401039 0.250000 0.502691
O O13 0.430955 0.086298 0.390365
O O14 0.449962 0.977773 0.582545
O O15 0.920950 0.250000 0.434735
O O16 0.000000 0.500000 0.500000
O O17 0.032501 0.250000 0.962804
O O18 0.000000 0.500000 0.000000
O O19 0.544123 0.750000 0.729724
O O20 0.604289 0.479168 0.815251
O O21 0.298388 0.750000 0.059795
#
# Coordination Sequence:
#
# PCOD8068289 Si02
#       8
#     4   4   4   4   4   4   4   4
#     4  10  17  28  42  57  79 109 135 165 205 247
#     4   9  17  30  44  54  74 106 136 168 213 252
#     4   8  15  28  44  55  75 105 132 164 209 250
#     4   8  14  24  38  54  70  96 133 168 197 236
#     4   9  16  26  40  60  78 101 133 167 203 245
#     4  10  19  32  45  60  80 107 139 175 214 250
#     4   9  16  25  36  52  76 105 130 159 199 239
#     4  11  19  25  38  59  81 104 136 172 197 236
#
# _framework density 15.192205
#
# number of rings (size 3 to 8) (size 9 to 14) (size 15 to 20)
#    0.000    2.750    1.250    3.750    0.000    3.500 
#    0.000    1.250    0.000    0.000    0.000    0.000 
#    0.000    0.000    0.000    1.125    0.000   13.500 
#
# Total GULP energy -396530.539813 kJ/mol
# GULP energy per Si atom -12391.579369 kJ/mol
# Density = 1.515763 g / cm^3
# Si number density = 15.192205 Si / 1000 Ang^3
#
#
#
# Elastic Constant Matrix: (Units=GPa)
#
#
# Indices 1 2 3 4 5 6 
#
# 1 38.8537 19.6241 40.4293 0.0000 4.5906 0.0000
# 2 19.6241 88.2586 55.2948 0.0000 9.5886 0.0000
# 3 40.4293 55.2948 134.7886 0.0000 16.7974 0.0000
# 4 0.0000 0.0000 0.0000 28.4621 0.0000 3.1366
# 5 4.5906 9.5886 16.7974 0.0000 16.0413 0.0000
# 6 0.0000 0.0000 0.0000 3.1366 0.0000 14.0885
#
#
#
# Elastic Compliance Matrix: (Units=1/GPa)
#
#
# Indices 1 2 3 4 5 6 
#
# 1 0.037647 -0.001809 -0.010744 0.000000 0.001558 0.000000
# 2 -0.001809 0.015459 -0.005419 0.000000 -0.003048 0.000000
# 3 -0.010744 -0.005419 0.013891 0.000000 -0.008231 0.000000
# 4 0.000000 0.000000 0.000000 0.036018 0.000000 -0.008019
# 5 0.001558 -0.003048 -0.008231 0.000000 0.072334 0.000000
# 6 0.000000 0.000000 0.000000 -0.008019 0.000000 0.072765
#
#
# Mechanical properties :
#
#
# Convention : Reuss Voigt Hill
#
# Bulk Modulus (GPa) = 32.20408 54.73305 43.46857
# Shear Modulus (GPa) = 16.98314 21.48855 19.23585
#
# Velocity S-wave (km/s) = 3.34711 3.76499 3.56218
# Velocity P-wave (km/s) = 6.01509 7.41657 6.75229
#
# Compressibility (1/GPa) = 0.03105196
#
# Stress axis : x y z
#
# Youngs Moduli (GPa) = 26.56260 64.68735 71.99034
#
# Poissons Ratio (x) = 0.11699 0.77348
# Poissons Ratio (y) = 0.04804 0.39015
# Poissons Ratio (z) = 0.28540 0.35057
#
# Static dielectric constant tensor:
#      x y z
#    x 2.427140 0.000000 0.125160 
#    y 0.000000 2.966520 0.000000 
#    z 0.125160 0.000000 3.465240 
# 
# 
# High freq. dielectric constant tensor:
#      x y z
#    x 1.499630 0.000000 0.019340 
#    y 0.000000 1.583430 0.000000 
#    z 0.019340 0.000000 1.600310 
# 
# From -- ./inp_files/56039.got.cif
#   From: 2010.06.25/outbox.cif.g09.slc.cpg/sg11_29_cif.got.tgz:56039.got - 2010.06.27 23:14:04.
