data_PCOD8068286
_publ_section_title
;
Structure prediction by ZEFSAII (Michael W. Deem and Ramdas Pophale) SiO2 
 PCOD8068286
Probable space group: P 21/M
;
_chemical_formula_sum "Si O2"
_cell_formula_units_Z 32
_cell_length_a 12.347621
_cell_length_b 9.354214
_cell_length_c 32.563794
_cell_angle_alpha 90.000000
_cell_angle_beta 27.448981
_cell_angle_gamma 90.000000
_cell_volume 1733.754115
_symmetry_space_group_name_H-M "P 21/M"
_symmetry_group_IT_number 11
_symmetry_cell_setting 'monoclinic'
loop_
_space_group_symop_operation_xyz
x,y,z
-x,1/2+y,-z
-x,-y,-z
x,1/2-y,z
loop_
_atom_site_type_symbol
_atom_site_label
_atom_site_fract_x
_atom_site_fract_y
_atom_site_fract_z
Si Si1 0.448474 0.581183 0.928914
Si Si2 0.372446 0.414608 0.435921
Si Si3 0.868951 0.416825 0.634644
Si Si4 0.211745 0.414564 0.257672
Si Si5 0.500703 0.419199 0.688613
Si Si6 0.814830 0.412501 0.854832
Si Si7 0.997612 0.910702 0.119363
Si Si8 0.146380 0.587202 0.689921
O O1 0.466360 0.750000 0.931908
O O2 0.563619 0.544679 0.846229
O O3 0.587983 0.500733 0.917783
O O4 0.172960 0.530161 0.024354
O O5 0.344383 0.250000 0.431453
O O6 0.438955 0.506406 0.374208
O O7 0.571439 0.429925 0.404439
O O8 0.130399 0.472474 0.536536
O O9 0.868321 0.250000 0.644345
O O10 0.768735 0.492862 0.708352
O O11 0.705115 0.456001 0.651584
O O12 0.220407 0.250000 0.267738
O O13 0.968015 0.450213 0.315743
O O14 0.477377 0.250000 0.687995
O O15 0.255627 0.486446 0.789190
O O16 0.791735 0.250000 0.846963
O O17 0.841660 0.419250 0.894415
O O18 0.048999 0.480960 0.756957
O O19 0.930559 0.750000 0.130284
O O20 0.072806 0.750000 0.726006
#
# Coordination Sequence:
#
# PCOD8068286 Si02
#       8
#     4   4   4   4   4   4   4   4
#     4   9  18  33  51  72 102 139 171 206 255 306
#     4  10  20  35  55  80 106 133 169 212 263 313
#     4  10  22  37  54  75 103 139 174 216 262 301
#     4   9  19  35  53  72  99 137 178 213 251 304
#     4  10  20  36  55  78 107 136 170 211 259 308
#     4  10  17  27  47  77 107 134 168 206 251 307
#     4   9  17  30  50  75 103 135 170 205 253 311
#     4   9  18  33  52  75 106 139 168 207 260 310
#
# _framework density 18.457056999999999
#
# number of rings (size 3 to 8) (size 9 to 14) (size 15 to 20)
#    0.000    2.500    1.250    1.875    0.000    3.500 
#    0.000    1.875    0.000    0.000    0.000    0.000 
#    0.000    0.000    0.000    0.000    0.000    0.000 
#
# Total GULP energy -396604.686765 kJ/mol
# GULP energy per Si atom -12393.896461 kJ/mol
# Density = 1.841505 g / cm^3
# Si number density = 18.457057 Si / 1000 Ang^3
#
#
#
# Elastic Constant Matrix: (Units=GPa)
#
#
# Indices 1 2 3 4 5 6 
#
# 1 33.4157 16.7681 16.0585 0.0000 8.7861 0.0000
# 2 16.7681 43.1123 22.4411 0.0000 3.7845 0.0000
# 3 16.0585 22.4411 109.0672 0.0000 -4.3473 0.0000
# 4 0.0000 0.0000 0.0000 21.4471 0.0000 6.8580
# 5 8.7861 3.7845 -4.3473 0.0000 20.0718 0.0000
# 6 0.0000 0.0000 0.0000 6.8580 0.0000 24.9937
#
#
#
# Elastic Compliance Matrix: (Units=1/GPa)
#
#
# Indices 1 2 3 4 5 6 
#
# 1 0.043098 -0.012963 -0.004371 0.000000 -0.017368 0.000000
# 2 -0.012963 0.030641 -0.004438 0.000000 -0.001064 0.000000
# 3 -0.004371 -0.004438 0.010929 0.000000 0.005117 0.000000
# 4 0.000000 0.000000 0.000000 0.051111 0.000000 -0.014024
# 5 -0.017368 -0.001064 0.005117 0.000000 0.058733 0.000000
# 6 0.000000 0.000000 0.000000 -0.014024 0.000000 0.043858
#
#
# Mechanical properties :
#
#
# Convention : Reuss Voigt Hill
#
# Bulk Modulus (GPa) = 24.31653 32.90341 28.60997
# Shear Modulus (GPa) = 16.91353 21.99101 19.45227
#
# Velocity S-wave (km/s) = 3.03045 3.45551 3.24994
# Velocity P-wave (km/s) = 5.04461 5.81261 5.44217
#
# Compressibility (1/GPa) = 0.04112430
#
# Stress axis : x y z
#
# Youngs Moduli (GPa) = 23.20302 32.63628 91.49679
#
# Poissons Ratio (x) = 0.42306 0.39990
# Poissons Ratio (y) = 0.30078 0.40609
# Poissons Ratio (z) = 0.10141 0.14485
#
# Static dielectric constant tensor:
#      x y z
#    x 3.213280 0.000000 -0.248620 
#    y 0.000000 3.275700 0.000000 
#    z -0.248620 0.000000 3.649400 
# 
# 
# High freq. dielectric constant tensor:
#      x y z
#    x 1.695700 0.000000 -0.012200 
#    y 0.000000 1.699460 0.000000 
#    z -0.012200 0.000000 1.726760 
# 
# From -- ./inp_files/45129.got.cif
#   From: 2010.06.25/outbox.cif.g09.slc.cpg/sg11_23_cif.got.tgz:45129.got - 2010.06.27 23:14:04.
