data_PCOD8068781
_publ_section_title
;
Structure prediction by ZEFSAII (Michael W. Deem and Ramdas Pophale) SiO2 
 PCOD8068781
Probable space group: P 21/M
;
_chemical_formula_sum "Si O2"
_cell_formula_units_Z 24
_cell_length_a 28.807719
_cell_length_b 8.618276
_cell_length_c 17.811808
_cell_angle_alpha 90.000000
_cell_angle_beta 160.148809
_cell_angle_gamma 90.000000
_cell_volume 1501.679852
_symmetry_space_group_name_H-M "P 21/M"
_symmetry_group_IT_number 11
_symmetry_cell_setting 'monoclinic'
loop_
_space_group_symop_operation_xyz
x,y,z
-x,1/2+y,-z
-x,-y,-z
x,1/2-y,z
loop_
_atom_site_type_symbol
_atom_site_label
_atom_site_fract_x
_atom_site_fract_y
_atom_site_fract_z
Si Si1 0.132403 0.075251 0.666329
Si Si2 0.402038 0.930343 0.048809
Si Si3 0.751556 0.925329 0.308934
Si Si4 0.086709 0.066070 0.063429
Si Si5 0.143173 0.066014 0.372537
Si Si6 0.687939 0.067895 0.506864
O O1 0.146093 0.250000 0.717827
O O2 0.122903 0.073871 0.560499
O O3 0.000000 0.000000 0.500000
O O4 0.269948 0.979621 0.898131
O O5 0.433894 0.750000 0.105457
O O6 0.529227 0.028166 0.272700
O O7 0.372412 0.973519 0.915828
O O8 0.697536 0.750000 0.238640
O O9 0.801559 0.996673 0.463523
O O10 0.094981 0.250000 0.078044
O O11 0.238112 0.994066 0.304389
O O12 0.000000 0.000000 0.000000
O O13 0.007658 0.009097 0.868564
O O14 0.127194 0.250000 0.348684
O O15 0.250187 0.016703 0.471808
O O16 0.711536 0.250000 0.534369
#
# Coordination Sequence:
#
# PCOD8068781 Si02
#       6
#     4   4   4   4   4   4
#     4   9  17  32  49  70  92 118 148 185 227 272
#     4  10  19  31  47  68  92 120 153 189 227 273
#     4   8  18  32  46  66  94 120 152 186 224 274
#     4  10  18  29  44  64  87 118 158 194 224 264
#     4  10  18  31  47  65  91 125 157 191 226 264
#     4  11  20  31  45  64  92 125 157 193 226 267
#
# _framework density 15.982101
#
# number of rings (size 3 to 8) (size 9 to 14) (size 15 to 20)
#    1.000    1.333    0.000    7.000    0.000    2.000 
#    0.000    0.000    0.000    0.000    0.000    1.167 
#    0.000    0.000    0.000    0.000    0.000    0.000 
#
# Total GULP energy -297353.869094 kJ/mol
# GULP energy per Si atom -12389.744546 kJ/mol
# Density = 1.594573 g / cm^3
# Si number density = 15.982101 Si / 1000 Ang^3
#
#
#
# Elastic Constant Matrix: (Units=GPa)
#
#
# Indices 1 2 3 4 5 6 
#
# 1 18.7754 7.2605 19.6358 0.0000 11.5251 0.0000
# 2 7.2605 91.1755 30.7906 0.0000 -1.5497 0.0000
# 3 19.6358 30.7906 118.8423 0.0000 6.2254 0.0000
# 4 0.0000 0.0000 0.0000 31.6074 0.0000 1.9181
# 5 11.5251 -1.5497 6.2254 0.0000 14.0600 0.0000
# 6 0.0000 0.0000 0.0000 1.9181 0.0000 19.8337
#
#
#
# Elastic Compliance Matrix: (Units=1/GPa)
#
#
# Indices 1 2 3 4 5 6 
#
# 1 0.137868 -0.007674 -0.015179 0.000000 -0.107137 0.000000
# 2 -0.007674 0.012553 -0.002443 0.000000 0.008755 0.000000
# 3 -0.015179 -0.002443 0.011177 0.000000 0.007224 0.000000
# 4 0.000000 0.000000 0.000000 0.031825 0.000000 -0.003078
# 5 -0.107137 0.008755 0.007224 0.000000 0.156711 0.000000
# 6 0.000000 0.000000 0.000000 -0.003078 0.000000 0.050717
#
#
# Mechanical properties :
#
#
# Convention : Reuss Voigt Hill
#
# Bulk Modulus (GPa) = 9.00848 38.24077 23.62462
# Shear Modulus (GPa) = 10.23658 24.50731 17.37194
#
# Velocity S-wave (km/s) = 2.53356 3.92014 3.30049
# Velocity P-wave (km/s) = 3.76927 6.66852 5.41649
#
# Compressibility (1/GPa) = 0.11100652
#
# Stress axis : x y z
#
# Youngs Moduli (GPa) = 7.25331 79.66370 89.46951
#
# Poissons Ratio (x) = 0.61131 1.35805
# Poissons Ratio (y) = 0.05566 0.21858
# Poissons Ratio (z) = 0.11010 0.19462
#
# Static dielectric constant tensor:
#      x y z
#    x 2.691450 0.000000 -0.194840 
#    y 0.000000 3.098330 0.000000 
#    z -0.194840 0.000000 3.403470 
# 
# 
# High freq. dielectric constant tensor:
#      x y z
#    x 1.558050 0.000000 -0.005190 
#    y 0.000000 1.632340 0.000000 
#    z -0.005190 0.000000 1.618170 
# 
# From -- ./inp_files/62266.got.cif
#   From: 2010.06.25/outbox.cif.g09.slc.cpg/sg11_32_cif.got.tgz:62266.got - 2010.06.27 23:14:04.
