data_PCOD8068442
_publ_section_title
;
Structure prediction by ZEFSAII (Michael W. Deem and Ramdas Pophale) SiO2 
 PCOD8068442
Probable space group: P 21/M
;
_chemical_formula_sum "Si O2"
_cell_formula_units_Z 32
_cell_length_a 15.480179
_cell_length_b 8.835961
_cell_length_c 22.620945
_cell_angle_alpha 90.000000
_cell_angle_beta 147.706070
_cell_angle_gamma 90.000000
_cell_volume 1653.085996
_symmetry_space_group_name_H-M "P 21/M"
_symmetry_group_IT_number 11
_symmetry_cell_setting 'monoclinic'
loop_
_space_group_symop_operation_xyz
x,y,z
-x,1/2+y,-z
-x,-y,-z
x,1/2-y,z
loop_
_atom_site_type_symbol
_atom_site_label
_atom_site_fract_x
_atom_site_fract_y
_atom_site_fract_z
Si Si1 0.160966 0.568996 0.757879
Si Si2 0.179680 0.428972 0.393387
Si Si3 0.291032 0.422368 0.945072
Si Si4 0.397378 0.069885 0.185624
Si Si5 0.129176 0.575789 0.958688
Si Si6 0.395578 0.579576 0.800094
Si Si7 0.515828 0.071535 0.640373
Si Si8 0.218036 0.074233 0.282028
O O1 0.174274 0.750000 0.771076
O O2 0.279097 0.493516 0.873663
O O3 0.228194 0.514685 0.731769
O O4 0.977885 0.510619 0.662411
O O5 0.175839 0.250000 0.390301
O O6 0.338116 0.486449 0.519325
O O7 0.179040 0.486646 0.325398
O O8 0.228178 0.250000 0.909093
O O9 0.179170 0.521048 0.922988
O O10 0.475422 0.430023 0.072515
O O11 0.396523 0.250000 0.183613
O O12 0.531788 0.000600 0.217150
O O13 0.434523 0.012720 0.271702
O O14 0.218762 0.017223 0.062120
O O15 0.177114 0.750000 0.993801
O O16 0.935791 0.553057 0.850324
O O17 0.361623 0.750000 0.761038
O O18 0.521016 0.250000 0.653778
O O19 0.636912 0.027118 0.658244
O O20 0.270825 0.250000 0.314286
#
# Coordination Sequence:
#
# PCOD8068442 Si02
#       8
#     4   4   4   4   4   4   4   4
#     4  10  17  32  55  78 106 144 183 222 268 320
#     4   9  19  36  57  82 111 140 181 228 270 320
#     4  10  18  29  46  79 119 147 175 215 266 322
#     4  10  21  39  57  79 113 146 182 227 269 318
#     4  10  19  34  58  84 110 144 181 219 270 328
#     4   8  17  31  52  78 106 143 182 218 266 319
#     4  11  23  38  57  80 105 144 189 227 272 325
#     4  10  20  37  59  84 110 138 176 225 279 328
#
# _framework density 19.357735000000002
#
# number of rings (size 3 to 8) (size 9 to 14) (size 15 to 20)
#    0.000    2.250    1.250    3.000    0.000    1.500 
#    0.000    5.625    0.000    0.000    0.000    0.000 
#    0.000    0.000    0.000    0.000    0.000    0.000 
#
# Total GULP energy -396627.584926 kJ/mol
# GULP energy per Si atom -12394.612029 kJ/mol
# Density = 1.931368 g / cm^3
# Si number density = 19.357735 Si / 1000 Ang^3
#
#
#
# Elastic Constant Matrix: (Units=GPa)
#
#
# Indices 1 2 3 4 5 6 
#
# 1 41.3100 14.4244 19.1609 0.0000 15.1316 0.0000
# 2 14.4244 55.2538 23.0218 0.0000 3.0236 0.0000
# 3 19.1609 23.0218 62.3527 0.0000 1.6244 0.0000
# 4 0.0000 0.0000 0.0000 17.2706 0.0000 2.9047
# 5 15.1316 3.0236 1.6244 0.0000 29.7817 0.0000
# 6 0.0000 0.0000 0.0000 2.9047 0.0000 20.8736
#
#
#
# Elastic Compliance Matrix: (Units=1/GPa)
#
#
# Indices 1 2 3 4 5 6 
#
# 1 0.036486 -0.004825 -0.008973 0.000000 -0.017558 0.000000
# 2 -0.004825 0.022118 -0.006698 0.000000 0.000572 0.000000
# 3 -0.008973 -0.006698 0.021162 0.000000 0.004085 0.000000
# 4 0.000000 0.000000 0.000000 0.059289 0.000000 -0.008251
# 5 -0.017558 0.000572 0.004085 0.000000 0.042218 0.000000
# 6 0.000000 0.000000 0.000000 -0.008251 0.000000 0.049056
#
#
# Mechanical properties :
#
#
# Convention : Reuss Voigt Hill
#
# Bulk Modulus (GPa) = 25.79189 30.23677 28.01433
# Shear Modulus (GPa) = 17.59044 20.40582 18.99813
#
# Velocity S-wave (km/s) = 3.01774 3.25028 3.13617
# Velocity P-wave (km/s) = 5.04927 5.45341 5.25522
#
# Compressibility (1/GPa) = 0.03877188
#
# Stress axis : x y z
#
# Youngs Moduli (GPa) = 27.40805 45.21286 47.25480
#
# Poissons Ratio (x) = 0.21817 0.42401
# Poissons Ratio (y) = 0.13225 0.31653
# Poissons Ratio (z) = 0.24593 0.30285
#
# Static dielectric constant tensor:
#      x y z
#    x 3.680980 0.000000 0.196550 
#    y 0.000000 3.324480 0.000000 
#    z 0.196550 0.000000 3.593980 
# 
# 
# High freq. dielectric constant tensor:
#      x y z
#    x 1.757780 0.000000 0.011120 
#    y 0.000000 1.732220 0.000000 
#    z 0.011120 0.000000 1.742350 
# 
# From -- ./inp_files/69083.got.cif
#   From: 2010.06.25/outbox.cif.g09.slc.cpg/sg11_35_cif.got.tgz:69083.got - 2010.06.27 23:14:04.
