data_PCOD8068623
_publ_section_title
;
Structure prediction by ZEFSAII (Michael W. Deem and Ramdas Pophale) SiO2 
 PCOD8068623
Probable space group: P 21/M
;
_chemical_formula_sum "Si O2"
_cell_formula_units_Z 32
_cell_length_a 31.633014
_cell_length_b 9.003360
_cell_length_c 21.778813
_cell_angle_alpha 90.000000
_cell_angle_beta 18.290879
_cell_angle_gamma 90.000000
_cell_volume 1946.657312
_symmetry_space_group_name_H-M "P 21/M"
_symmetry_group_IT_number 11
_symmetry_cell_setting 'monoclinic'
loop_
_space_group_symop_operation_xyz
x,y,z
-x,1/2+y,-z
-x,-y,-z
x,1/2-y,z
loop_
_atom_site_type_symbol
_atom_site_label
_atom_site_fract_x
_atom_site_fract_y
_atom_site_fract_z
Si Si1 0.428446 0.926756 0.298880
Si Si2 0.393285 0.424162 0.465334
Si Si3 0.300529 0.914618 0.294049
Si Si4 0.585099 0.913672 0.967021
Si Si5 0.613211 0.925266 0.384282
Si Si6 0.817176 0.926833 0.431889
Si Si7 0.132002 0.587316 0.830764
Si Si8 0.879675 0.087779 0.011243
O O1 0.410814 0.750000 0.326100
O O2 0.546128 0.972293 0.088608
O O3 0.481415 0.990881 0.291775
O O4 0.285507 0.995599 0.473820
O O5 0.407793 0.250000 0.435898
O O6 0.420399 0.470000 0.498502
O O7 0.246317 0.479526 0.647715
O O8 0.235522 0.750000 0.381292
O O9 0.449325 0.904004 0.115327
O O10 0.210742 0.022498 0.459879
O O11 0.308350 0.978894 0.213781
O O12 0.650441 0.750000 0.881078
O O13 0.608327 0.750000 0.383374
O O14 0.500000 0.000000 0.500000
O O15 0.758998 0.977961 0.157244
O O16 0.801296 0.750000 0.447663
O O17 0.970909 0.978371 0.205625
O O18 0.136070 0.750000 0.792426
O O19 0.146916 0.613760 0.881390
O O20 0.000000 0.500000 0.000000
O O21 0.866375 0.250000 0.996648
#
# Coordination Sequence:
#
# PCOD8068623 Si02
#       8
#     4   4   4   4   4   4   4   4
#     4  10  19  29  43  64  90 121 154 189 223 257
#     4  10  20  32  45  64  87 113 145 178 217 264
#     4   9  16  25  38  57  82 116 156 190 219 254
#     4   8  15  26  38  55  81 115 154 188 220 255
#     4  10  21  36  54  70  86 110 140 179 224 268
#     4  10  18  28  43  63  91 124 153 186 223 259
#     4  10  18  28  42  60  85 116 147 179 212 251
#     4   9  19  32  45  63  86 113 146 180 217 260
#
# _framework density 16.438435999999999
#
# number of rings (size 3 to 8) (size 9 to 14) (size 15 to 20)
#    0.000    2.500    0.000    3.750    0.000    7.500 
#    0.000    0.000    0.000    0.000    0.000    0.000 
#    0.000    1.000    0.000    3.250    0.000    4.250 
#
# Total GULP energy -396447.439471 kJ/mol
# GULP energy per Si atom -12388.982483 kJ/mol
# Density = 1.640102 g / cm^3
# Si number density = 16.438436 Si / 1000 Ang^3
#
#
#
# Elastic Constant Matrix: (Units=GPa)
#
#
# Indices 1 2 3 4 5 6 
#
# 1 72.4472 44.6109 31.5617 0.0000 15.3427 0.0000
# 2 44.6109 86.2321 31.4900 0.0000 5.0436 0.0000
# 3 31.5617 31.4900 43.6426 0.0000 15.1538 0.0000
# 4 0.0000 0.0000 0.0000 24.8803 0.0000 5.0883
# 5 15.3427 5.0436 15.1538 0.0000 27.1390 0.0000
# 6 0.0000 0.0000 0.0000 5.0883 0.0000 23.5272
#
#
#
# Elastic Compliance Matrix: (Units=1/GPa)
#
#
# Indices 1 2 3 4 5 6 
#
# 1 0.024883 -0.009249 -0.008725 0.000000 -0.007476 0.000000
# 2 -0.009249 0.019587 -0.009918 0.000000 0.007127 0.000000
# 3 -0.008725 -0.009918 0.042211 0.000000 -0.016794 0.000000
# 4 0.000000 0.000000 0.000000 0.042052 0.000000 -0.009095
# 5 -0.007476 0.007127 -0.016794 0.000000 0.049127 0.000000
# 6 0.000000 0.000000 0.000000 -0.009095 0.000000 0.044471
#
#
# Mechanical properties :
#
#
# Convention : Reuss Voigt Hill
#
# Bulk Modulus (GPa) = 32.36781 46.40521 39.38651
# Shear Modulus (GPa) = 17.33610 21.41993 19.37801
#
# Velocity S-wave (km/s) = 3.25100 3.61368 3.43712
# Velocity P-wave (km/s) = 5.81593 6.76037 6.30585
#
# Compressibility (1/GPa) = 0.03089489
#
# Stress axis : x y z
#
# Youngs Moduli (GPa) = 40.18775 51.05500 23.69048
#
# Poissons Ratio (x) = 0.47223 0.20671
# Poissons Ratio (y) = 0.37171 0.23497
# Poissons Ratio (z) = 0.35065 0.50638
#
# Static dielectric constant tensor:
#      x y z
#    x 2.857440 0.000000 0.389970 
#    y 0.000000 3.167740 0.000000 
#    z 0.389970 0.000000 3.010320 
# 
# 
# High freq. dielectric constant tensor:
#      x y z
#    x 1.600170 0.000000 0.039170 
#    y 0.000000 1.649940 0.000000 
#    z 0.039170 0.000000 1.602810 
# 
# From -- ./inp_files/67389.got.cif
#   From: 2010.06.25/outbox.cif.g09.slc.cpg/sg11_34_cif.got.tgz:67389.got - 2010.06.27 23:14:04.
