data_PCOD8068072
_publ_section_title
;
Structure prediction by ZEFSAII (Michael W. Deem and Ramdas Pophale) SiO2 
 PCOD8068072
Probable space group: P 2/M
;
_chemical_formula_sum "Si O2"
_cell_formula_units_Z 26
_cell_length_a 30.000000
_cell_length_b 9.000000
_cell_length_c 30.000000
_cell_angle_alpha 90.000000
_cell_angle_beta 10.000000
_cell_angle_gamma 90.000000
_cell_volume 1406.550239
_symmetry_space_group_name_H-M "P 2/M"
_symmetry_group_IT_number 10
_symmetry_cell_setting 'monoclinic'
loop_
_space_group_symop_operation_xyz
x,y,z
-x,y,-z
-x,-y,-z
x,-y,z
loop_
_atom_site_type_symbol
_atom_site_label
_atom_site_fract_x
_atom_site_fract_y
_atom_site_fract_z
Si Si1 0.543407 0.676423 0.058596
Si Si2 0.735269 0.500000 0.235109
Si Si3 0.407578 0.176884 0.894638
Si Si4 0.981675 0.323840 0.468373
Si Si5 0.208808 0.177268 0.641458
Si Si6 0.881397 0.175538 0.370134
Si Si7 0.269925 0.333679 0.844723
O O1 0.545822 0.500000 0.062519
O O2 0.579289 0.753386 0.070083
O O3 0.773642 0.731774 0.800331
O O4 0.278005 0.734259 0.298833
O O5 0.500000 0.500000 0.500000
O O6 0.720073 0.352734 0.218793
O O7 0.000000 0.500000 0.000000
O O8 0.149243 0.236407 0.125554
O O9 0.409879 0.000000 0.896232
O O10 0.646743 0.238587 0.630539
O O11 0.977251 0.500000 0.475211
O O12 0.000000 0.256266 0.500000
O O13 0.147467 0.230183 0.651884
O O14 0.994438 0.250159 0.883813
O O15 0.203761 0.000000 0.652034
O O16 0.490836 0.235496 0.375445
O O17 0.876052 0.000000 0.377145
O O18 0.276166 0.500000 0.860741
#
# Coordination Sequence:
#
# PCOD8068072 Si02
#       7
#     4   2   4   4   4   4   4
#     4  10  19  31  49  71  97 121 159 206 253 301
#     4  10  20  38  64  84 112 160 202 226 270 352
#     4  10  19  34  51  71  97 135 177 204 245 311
#     4   9  17  30  49  71  92 121 157 200 249 308
#     4  11  20  37  60  86 116 149 190 242 291 326
#     4   9  19  33  53  74 101 141 180 212 252 320
#     4  10  22  36  59  88 115 149 195 234 279 342
#
# _framework density 18.484942
#
# number of rings (size 3 to 8) (size 9 to 14) (size 15 to 20)
#    0.462    1.692    0.000    4.154    0.000    4.308 
#    0.000    4.615    0.000   12.000    0.000    0.000 
#    0.000    0.000    0.000    0.000    0.000    0.000 
#
# Total GULP energy -322402.073461 kJ/mol
# GULP energy per Si atom -12400.079748 kJ/mol
# Density = 1.844287 g / cm^3
# Si number density = 18.484942 Si / 1000 Ang^3
#
#
#
# Elastic Constant Matrix: (Units=GPa)
#
#
# Indices 1 2 3 4 5 6 
#
# 1 109.2849 19.5154 25.1856 0.0000 -3.8709 0.0000
# 2 19.5154 53.9108 20.5288 0.0000 1.8434 0.0000
# 3 25.1856 20.5288 123.0008 0.0000 -3.8016 0.0000
# 4 0.0000 0.0000 0.0000 24.0612 0.0000 -3.2828
# 5 -3.8709 1.8434 -3.8016 0.0000 42.0489 0.0000
# 6 0.0000 0.0000 0.0000 -3.2828 0.0000 41.1407
#
#
#
# Elastic Compliance Matrix: (Units=1/GPa)
#
#
# Indices 1 2 3 4 5 6 
#
# 1 0.010088 -0.003105 -0.001519 0.000000 0.000927 0.000000
# 2 -0.003105 0.020821 -0.002884 0.000000 -0.001459 0.000000
# 3 -0.001519 -0.002884 0.008947 0.000000 0.000796 0.000000
# 4 0.000000 0.000000 0.000000 0.042018 0.000000 0.003353
# 5 0.000927 -0.001459 0.000796 0.000000 0.024003 0.000000
# 6 0.000000 0.000000 0.000000 0.003353 0.000000 0.024574
#
#
# Mechanical properties :
#
#
# Convention : Reuss Voigt Hill
#
# Bulk Modulus (GPa) = 40.25794 46.29511 43.27652
# Shear Modulus (GPa) = 32.52072 36.18126 34.35099
#
# Velocity S-wave (km/s) = 4.19896 4.42898 4.31550
# Velocity P-wave (km/s) = 6.73308 7.15916 6.94939
#
# Compressibility (1/GPa) = 0.02483982
#
# Stress axis : x y z
#
# Youngs Moduli (GPa) = 99.13041 48.02740 111.76957
#
# Poissons Ratio (x) = 0.14913 0.16974
# Poissons Ratio (y) = 0.30781 0.32239
# Poissons Ratio (z) = 0.15054 0.13853
#
# Static dielectric constant tensor:
#      x y z
#    x 3.501460 0.000000 -0.039890 
#    y 0.000000 3.090490 0.000000 
#    z -0.039890 0.000000 3.918730 
# 
# 
# High freq. dielectric constant tensor:
#      x y z
#    x 1.724060 0.000000 -0.001720 
#    y 0.000000 1.685800 0.000000 
#    z -0.001720 0.000000 1.744150 
# 
# From -- ./inp_files/95956.got.cif
#   From: 2010.06.25/outbox.ucp.g09.slc.cvg/sg10_48_cif.got.tgz:95956.got - 2010.06.28 13:37:52.
