data_PCOD8068793
_publ_section_title
;
Structure prediction by ZEFSAII (Michael W. Deem and Ramdas Pophale) SiO2 
 PCOD8068793
Probable space group: P 21/M
;
_chemical_formula_sum "Si O2"
_cell_formula_units_Z 32
_cell_length_a 17.698625
_cell_length_b 9.331375
_cell_length_c 24.170625
_cell_angle_alpha 90.000000
_cell_angle_beta 152.431763
_cell_angle_gamma 90.000000
_cell_volume 1847.441916
_symmetry_space_group_name_H-M "P 21/M"
_symmetry_group_IT_number 11
_symmetry_cell_setting 'monoclinic'
loop_
_space_group_symop_operation_xyz
x,y,z
-x,1/2+y,-z
-x,-y,-z
x,1/2-y,z
loop_
_atom_site_type_symbol
_atom_site_label
_atom_site_fract_x
_atom_site_fract_y
_atom_site_fract_z
Si Si1 0.957091 0.414979 0.526184
Si Si2 0.520929 0.582344 0.881225
Si Si3 0.551793 0.418350 0.403205
Si Si4 0.405214 0.581332 0.689408
Si Si5 0.172670 0.084847 0.851613
Si Si6 0.636969 0.587233 0.618229
Si Si7 0.275083 0.086237 0.798111
Si Si8 0.157462 0.418547 0.346210
O O1 0.948955 0.250000 0.503739
O O2 0.782888 0.467937 0.435525
O O3 0.000000 0.500000 0.500000
O O4 0.089611 0.444557 0.659275
O O5 0.480617 0.750000 0.856854
O O6 0.492472 0.517083 0.800988
O O7 0.399590 0.512063 0.846205
O O8 0.708335 0.552865 0.019435
O O9 0.600906 0.250000 0.434994
O O10 0.514582 0.471726 0.316341
O O11 0.382691 0.444705 0.328545
O O12 0.703408 0.505869 0.526855
O O13 0.422260 0.750000 0.704656
O O14 0.113620 0.250000 0.812689
O O15 0.278557 0.050918 0.865478
O O16 0.017841 0.982912 0.754504
O O17 0.500000 0.500000 0.500000
O O18 0.590247 0.750000 0.576717
O O19 0.807904 0.554265 0.697726
O O20 0.324749 0.250000 0.818576
O O21 0.155816 0.250000 0.359182
#
# Coordination Sequence:
#
# PCOD8068793 Si02
#       8
#     4   4   4   4   4   4   4   4
#     4  10  18  29  45  65  91 120 150 186 230 276
#     4  10  20  34  51  69  91 124 165 203 235 275
#     4   9  16  30  52  74  99 128 153 185 234 288
#     4   9  17  30  49  71  95 124 159 194 228 276
#     4  10  21  35  50  68  92 126 166 200 234 279
#     4   8  15  27  46  72  98 124 151 183 231 285
#     4  10  20  33  49  69  93 123 159 199 242 287
#     4  10  19  31  48  74 102 123 153 196 237 280
#
# _framework density 17.321249000000002
#
# number of rings (size 3 to 8) (size 9 to 14) (size 15 to 20)
#    0.000    2.500    1.250    1.500    0.000    3.500 
#    0.000    2.500    0.000    0.750    0.000    0.000 
#    0.000    0.000    0.000    0.000    0.000    0.625 
#
# Total GULP energy -396483.531771 kJ/mol
# GULP energy per Si atom -12390.110368 kJ/mol
# Density = 1.728183 g / cm^3
# Si number density = 17.321249 Si / 1000 Ang^3
#
#
#
# Elastic Constant Matrix: (Units=GPa)
#
#
# Indices 1 2 3 4 5 6 
#
# 1 125.9402 36.5230 39.0789 0.0000 -14.4854 0.0000
# 2 36.5230 47.1584 26.3835 0.0000 -2.7549 0.0000
# 3 39.0789 26.3835 69.9963 0.0000 -13.4449 0.0000
# 4 0.0000 0.0000 0.0000 15.6741 0.0000 0.9240
# 5 -14.4854 -2.7549 -13.4449 0.0000 17.1502 0.0000
# 6 0.0000 0.0000 0.0000 0.9240 0.0000 23.0973
#
#
#
# Elastic Compliance Matrix: (Units=1/GPa)
#
#
# Indices 1 2 3 4 5 6 
#
# 1 0.011555 -0.007182 -0.002462 0.000000 0.006676 0.000000
# 2 -0.007182 0.031603 -0.009527 0.000000 -0.008458 0.000000
# 3 -0.002462 -0.009527 0.021849 0.000000 0.013519 0.000000
# 4 0.000000 0.000000 0.000000 0.063950 0.000000 -0.002558
# 5 0.006676 -0.008458 0.013519 0.000000 0.073186 0.000000
# 6 0.000000 0.000000 0.000000 -0.002558 0.000000 0.043398
#
#
# Mechanical properties :
#
#
# Convention : Reuss Voigt Hill
#
# Bulk Modulus (GPa) = 37.50198 49.67396 43.58797
# Shear Modulus (GPa) = 17.07827 20.59162 18.83495
#
# Velocity S-wave (km/s) = 3.14343 3.45165 3.30114
# Velocity P-wave (km/s) = 5.90531 6.68023 6.30469
#
# Compressibility (1/GPa) = 0.02666526
#
# Stress axis : x y z
#
# Youngs Moduli (GPa) = 86.54521 31.64245 45.76959
#
# Poissons Ratio (x) = 0.22724 0.11267
# Poissons Ratio (y) = 0.62153 0.43606
# Poissons Ratio (z) = 0.21305 0.30147
#
# Static dielectric constant tensor:
#      x y z
#    x 3.372760 0.000000 -0.118000 
#    y 0.000000 3.124980 0.000000 
#    z -0.118000 0.000000 3.063020 
# 
# 
# High freq. dielectric constant tensor:
#      x y z
#    x 1.681300 0.000000 -0.008960 
#    y 0.000000 1.656910 0.000000 
#    z -0.008960 0.000000 1.641770 
# 
# From -- ./inp_files/42501.got.cif
#   From: 2010.06.25/outbox.cif.g09.slc.cpg/sg11_22_cif.got.tgz:42501.got - 2010.06.27 23:14:04.
