data_PCOD8068067
_publ_section_title
;
Structure prediction by ZEFSAII (Michael W. Deem and Ramdas Pophale) SiO2 
 PCOD8068067
Probable space group: P 2/M
;
_chemical_formula_sum "Si O2"
_cell_formula_units_Z 20
_cell_length_a 30.000000
_cell_length_b 9.000000
_cell_length_c 30.000000
_cell_angle_alpha 90.000000
_cell_angle_beta 170.000000
_cell_angle_gamma 90.000000
_cell_volume 1406.550239
_symmetry_space_group_name_H-M "P 2/M"
_symmetry_group_IT_number 10
_symmetry_cell_setting 'monoclinic'
loop_
_space_group_symop_operation_xyz
x,y,z
-x,y,-z
-x,-y,-z
x,-y,z
loop_
_atom_site_type_symbol
_atom_site_label
_atom_site_fract_x
_atom_site_fract_y
_atom_site_fract_z
Si Si1 0.926762 0.322380 0.664084
Si Si2 0.067543 0.828087 0.015052
Si Si3 0.436275 0.167981 0.164291
Si Si4 0.343039 0.168876 0.527603
Si Si5 0.417115 0.678861 0.508941
O O1 0.925505 0.500000 0.663226
O O2 0.193211 0.259873 0.906810
O O3 0.893842 0.256532 0.682005
O O4 0.695763 0.257339 0.405605
O O5 0.848265 0.742167 0.771916
O O6 0.087445 0.000000 0.018414
O O7 0.000000 0.822030 0.000000
O O8 0.339584 0.745437 0.277597
O O9 0.437400 0.000000 0.145744
O O10 0.428213 0.161086 0.210549
O O11 0.442152 0.265903 0.584157
O O12 0.262899 0.000000 0.434628
O O13 0.418678 0.500000 0.507688
#
# Coordination Sequence:
#
# PCOD8068067 Si02
#       5
#     4   4   4   4   4
#     4  10  18  28  43  61  80  97 116 137 149 157
#     4  11  25  45  63  75  89 108 122 130 146 170
#     4   9  18  30  43  57  78 104 118 128 146 165
#     4   9  20  34  49  65  86 106 120 129 143 165
#     4  12  25  38  58  80  94 105 119 139 153 159
#
# _framework density 14.219186000000001
#
# number of rings (size 3 to 8) (size 9 to 14) (size 15 to 20)
#    1.200    0.600    0.000    5.400    2.800    4.000 
#    0.000    0.000    0.000    0.000    0.000    0.000 
#    0.000    0.000    0.000    0.000    0.000    0.000 
#
# Total GULP energy -247814.337776 kJ/mol
# GULP energy per Si atom -12390.716889 kJ/mol
# Density = 1.418682 g / cm^3
# Si number density = 14.219186 Si / 1000 Ang^3
#
#
#
# Elastic Constant Matrix: (Units=GPa)
#
#
# Indices 1 2 3 4 5 6 
#
# 1 0.0214 0.3715 0.7519 0.0000 0.1576 0.0000
# 2 0.3715 158.7827 48.4300 0.0000 4.2369 0.0000
# 3 0.7519 48.4300 100.3020 0.0000 8.6835 0.0000
# 4 0.0000 0.0000 0.0000 31.2584 0.0000 2.5667
# 5 0.1576 4.2369 8.6835 0.0000 1.2792 0.0000
# 6 0.0000 0.0000 0.0000 2.5667 0.0000 2.1410
#
#
#
# Elastic Compliance Matrix: (Units=1/GPa)
#
#
# Indices 1 2 3 4 5 6 
#
# 1 ********** 0.011936-17.666680 0.000000402.886943 0.000000
# 2 0.011936 0.007386 -0.003421 0.000000 -0.002712 0.000000
# 3 -17.666680 -0.003421 -0.110040 0.000000 2.935126 0.000000
# 4 0.000000 0.000000 0.000000 0.035485 0.000000 -0.042540
# 5 402.886943 -0.002712 2.935126 0.000000-68.775728 0.000000
# 6 0.000000 0.000000 0.000000 -0.042540 0.000000 0.518063
#
#
# Mechanical properties :
#
#
# Convention : Reuss Voigt Hill
#
# Bulk Modulus (GPa) = -0.00043 39.80146 19.90051
# Shear Modulus (GPa) = -0.00161 20.90590 10.45214
#
# Velocity S-wave (km/s) = -0.03368 3.83856 2.71416
# Velocity P-wave (km/s) = 0.04260 6.90639 4.88346
#
# Compressibility (1/GPa) = *************
#
# Stress axis : x y z
#
# Youngs Moduli (GPa) = -0.00044 135.39612 -9.08760
#
# Poissons Ratio (x) = -1.61605 -160.54776
# Poissons Ratio (y) = 0.00001 -0.03109
# Poissons Ratio (z) = -0.00769 0.46317
#
# Static dielectric constant tensor:
#      x y z
#    x 1.933340 0.000000 0.086680 
#    y 0.000000 3.069440 0.000000 
#    z 0.086680 0.000000 2.891990 
# 
# 
# High freq. dielectric constant tensor:
#      x y z
#    x 1.433760 0.000000 0.012320 
#    y 0.000000 1.576690 0.000000 
#    z 0.012320 0.000000 1.560440 
# 
# From -- ./inp_files/95939.got.cif
#   From: 2010.06.25/outbox.ucp.g09.slc.cvg/sg10_48_cif.got.tgz:95939.got - 2010.06.28 13:37:52.
