data_PCOD8068156
_publ_section_title
;
Structure prediction by ZEFSAII (Michael W. Deem and Ramdas Pophale) SiO2 
 PCOD8068156
Probable space group: P 21/M
;
_chemical_formula_sum "Si O2"
_cell_formula_units_Z 20
_cell_length_a 20.120116
_cell_length_b 9.555335
_cell_length_c 9.507704
_cell_angle_alpha 90.000000
_cell_angle_beta 39.412399
_cell_angle_gamma 90.000000
_cell_volume 1160.528521
_symmetry_space_group_name_H-M "P 21/M"
_symmetry_group_IT_number 11
_symmetry_cell_setting 'monoclinic'
loop_
_space_group_symop_operation_xyz
x,y,z
-x,1/2+y,-z
-x,-y,-z
x,1/2-y,z
loop_
_atom_site_type_symbol
_atom_site_label
_atom_site_fract_x
_atom_site_fract_y
_atom_site_fract_z
Si Si1 0.388447 0.750000 0.975695
Si Si2 0.430297 0.250000 0.118261
Si Si3 0.292903 0.974914 0.325879
Si Si4 0.306000 0.750000 0.809281
Si Si5 0.101832 0.411848 0.502484
Si Si6 0.877320 0.095693 0.795784
Si Si7 0.629738 0.250000 0.604150
O O1 0.508122 0.750000 0.833629
O O2 0.385283 0.750000 0.811913
O O3 0.329340 0.886940 0.130440
O O4 0.360614 0.386126 0.222374
O O5 0.512307 0.250000 0.855396
O O6 0.308394 0.886873 0.442896
O O7 0.170004 0.012266 0.511587
O O8 0.374871 0.750000 0.556612
O O9 0.230090 0.611643 0.938223
O O10 0.132601 0.250000 0.450361
O O11 0.134520 0.474303 0.298063
O O12 0.977820 0.436966 0.731692
O O13 0.897082 0.250000 0.690604
#
# Coordination Sequence:
#
# PCOD8068156 Si02
#       7
#     2   2   4   2   4   4   2
#     4  10  18  32  54  72  97 137 168 198 246 302
#     4  10  20  35  54  77  99 121 174 222 242 287
#     4  10  18  34  54  77  98 128 171 213 247 287
#     4  10  18  35  52  70 106 134 167 200 246 306
#     4  10  16  28  54  82  99 125 169 211 247 281
#     4   8  17  30  51  77 104 127 165 202 243 297
#     4  10  22  34  52  71 100 138 171 200 252 305
#
# _framework density 17.233526999999999
#
# number of rings (size 3 to 8) (size 9 to 14) (size 15 to 20)
#    0.600    2.000    3.000    2.400    1.400    0.000 
#    0.000    5.000    2.200    0.000    0.000    0.000 
#    0.000    0.000    0.000    0.000    0.000    0.000 
#
# Total GULP energy -247789.520967 kJ/mol
# GULP energy per Si atom -12389.476048 kJ/mol
# Density = 1.719430 g / cm^3
# Si number density = 17.233527 Si / 1000 Ang^3
#
#
#
# Elastic Constant Matrix: (Units=GPa)
#
#
# Indices 1 2 3 4 5 6 
#
# 1 120.7430 37.8960 47.7084 0.0000 -1.3799 0.0000
# 2 37.8960 93.1337 15.2467 0.0000 0.2182 0.0000
# 3 47.7084 15.2467 58.5123 0.0000 10.9460 0.0000
# 4 0.0000 0.0000 0.0000 12.3715 0.0000 -3.8586
# 5 -1.3799 0.2182 10.9460 0.0000 30.9213 0.0000
# 6 0.0000 0.0000 0.0000 -3.8586 0.0000 33.2578
#
#
#
# Elastic Compliance Matrix: (Units=1/GPa)
#
#
# Indices 1 2 3 4 5 6 
#
# 1 0.014005 -0.003863 -0.011282 0.000000 0.004646 0.000000
# 2 -0.003863 0.012311 -0.000011 0.000000 -0.000255 0.000000
# 3 -0.011282 -0.000011 0.028257 0.000000 -0.010506 0.000000
# 4 0.000000 0.000000 0.000000 0.083866 0.000000 0.009730
# 5 0.004646 -0.000255 -0.010506 0.000000 0.036269 0.000000
# 6 0.000000 0.000000 0.000000 0.009730 0.000000 0.031197
#
#
# Mechanical properties :
#
#
# Convention : Reuss Voigt Hill
#
# Bulk Modulus (GPa) = 41.21440 52.67681 46.94561
# Shear Modulus (GPa) = 20.46635 26.74598 23.60616
#
# Velocity S-wave (km/s) = 3.44988 3.94378 3.70507
# Velocity P-wave (km/s) = 6.31158 7.16734 6.75303
#
# Compressibility (1/GPa) = 0.02426336
#
# Stress axis : x y z
#
# Youngs Moduli (GPa) = 71.40209 81.22597 35.38896
#
# Poissons Ratio (x) = 0.31375 0.39925
# Poissons Ratio (y) = 0.27580 0.00038
# Poissons Ratio (z) = 0.80555 0.00088
#
# Static dielectric constant tensor:
#      x y z
#    x 3.381240 0.000000 -0.291740 
#    y 0.000000 3.139630 0.000000 
#    z -0.291740 0.000000 2.723040 
# 
# 
# High freq. dielectric constant tensor:
#      x y z
#    x 1.678030 0.000000 -0.028150 
#    y 0.000000 1.671300 0.000000 
#    z -0.028150 0.000000 1.607690 
# 
# From -- ./inp_files/25699.got.cif
#   From: 2010.06.25/outbox.cif.g09.slc.cpg/sg11_13_cif.got.tgz:25699.got - 2010.06.27 23:14:04.
