data_PCOD8068847
_publ_section_title
;
Structure prediction by ZEFSAII (Michael W. Deem and Ramdas Pophale) SiO2 
 PCOD8068847
Probable space group: P 21/M
;
_chemical_formula_sum "Si O2"
_cell_formula_units_Z 32
_cell_length_a 18.986130
_cell_length_b 9.011003
_cell_length_c 24.542935
_cell_angle_alpha 90.000000
_cell_angle_beta 28.681891
_cell_angle_gamma 90.000000
_cell_volume 2015.248824
_symmetry_space_group_name_H-M "P 21/M"
_symmetry_group_IT_number 11
_symmetry_cell_setting 'monoclinic'
loop_
_space_group_symop_operation_xyz
x,y,z
-x,1/2+y,-z
-x,-y,-z
x,1/2-y,z
loop_
_atom_site_type_symbol
_atom_site_label
_atom_site_fract_x
_atom_site_fract_y
_atom_site_fract_z
Si Si1 0.340492 0.078942 0.545279
Si Si2 0.149496 0.914951 0.223885
Si Si3 0.033001 0.577009 0.921100
Si Si4 0.666597 0.418990 0.338118
Si Si5 0.099206 0.573267 0.092314
Si Si6 0.370557 0.914466 0.972944
Si Si7 0.583314 0.423024 0.894628
Si Si8 0.928773 0.424742 0.306593
O O1 0.295859 0.250000 0.569312
O O2 0.510776 0.051802 0.414131
O O3 0.312390 0.031666 0.626650
O O4 0.239214 0.980535 0.573785
O O5 0.081577 0.750000 0.275145
O O6 0.241329 0.955993 0.216800
O O7 0.018245 0.029493 0.300435
O O8 0.265332 0.918534 0.096457
O O9 0.991557 0.750000 0.951442
O O10 0.205228 0.553751 0.792237
O O11 0.933386 0.497656 0.943629
O O12 0.000000 0.500000 0.000000
O O13 0.671731 0.250000 0.357434
O O14 0.074126 0.750000 0.109067
O O15 0.269717 0.534440 0.990461
O O16 0.992776 0.502582 0.209495
O O17 0.431753 0.750000 0.921382
O O18 0.514796 0.017141 0.884201
O O19 0.552285 0.250000 0.919420
O O20 0.500000 0.500000 0.000000
O O21 0.935994 0.250000 0.294262
#
# Coordination Sequence:
#
# PCOD8068847 Si02
#       8
#     4   4   4   4   4   4   4   4
#     4  10  18  29  47  65  86 113 140 178 221 257
#     4   8  15  25  34  49  75 107 140 172 206 248
#     4  11  22  35  50  67  88 113 144 182 221 264
#     4   9  19  33  47  66  86 108 143 180 215 260
#     4  10  19  31  44  60  81 109 144 180 218 258
#     4   8  15  25  37  52  73 100 134 173 210 248
#     4   9  15  22  33  49  71 100 136 171 205 245
#     4  11  19  26  39  61  85 111 143 179 215 256
#
# _framework density 15.878932000000001
#
# number of rings (size 3 to 8) (size 9 to 14) (size 15 to 20)
#    0.000    2.500    1.250    4.125    0.000    6.500 
#    0.000    0.000    0.000    0.000    0.000    0.000 
#    0.000    0.000    0.000    1.125    0.000   13.375 
#
# Total GULP energy -396555.197622 kJ/mol
# GULP energy per Si atom -12392.349926 kJ/mol
# Density = 1.584279 g / cm^3
# Si number density = 15.878932 Si / 1000 Ang^3
#
#
#
# Elastic Constant Matrix: (Units=GPa)
#
#
# Indices 1 2 3 4 5 6 
#
# 1 106.9615 62.0183 50.7194 0.0000 -36.5815 0.0000
# 2 62.0183 111.1190 40.2968 0.0000 -23.8737 0.0000
# 3 50.7194 40.2968 55.6198 0.0000 -18.4591 0.0000
# 4 0.0000 0.0000 0.0000 17.8127 0.0000 -7.8505
# 5 -36.5815 -23.8737 -18.4591 0.0000 27.5328 0.0000
# 6 0.0000 0.0000 0.0000 -7.8505 0.0000 28.4682
#
#
#
# Elastic Compliance Matrix: (Units=1/GPa)
#
#
# Indices 1 2 3 4 5 6 
#
# 1 0.025427 -0.005162 -0.012502 0.000000 0.020926 0.000000
# 2 -0.005162 0.014073 -0.004779 0.000000 0.002141 0.000000
# 3 -0.012502 -0.004779 0.033382 0.000000 0.001626 0.000000
# 4 0.000000 0.000000 0.000000 0.063907 0.000000 0.017623
# 5 0.020926 0.002141 0.001626 0.000000 0.067070 0.000000
# 6 0.000000 0.000000 0.000000 0.017623 0.000000 0.039987
#
#
# Mechanical properties :
#
#
# Convention : Reuss Voigt Hill
#
# Bulk Modulus (GPa) = 35.71838 64.41881 50.06860
# Shear Modulus (GPa) = 16.77495 22.80712 19.79103
#
# Velocity S-wave (km/s) = 3.25380 3.79398 3.53423
# Velocity P-wave (km/s) = 6.05469 7.73623 6.94653
#
# Compressibility (1/GPa) = 0.02799679
#
# Stress axis : x y z
#
# Youngs Moduli (GPa) = 39.32766 71.05720 29.95654
#
# Poissons Ratio (x) = 0.36678 0.37453
# Poissons Ratio (y) = 0.20300 0.14315
# Poissons Ratio (z) = 0.49169 0.33955
#
# Static dielectric constant tensor:
#      x y z
#    x 3.545140 0.000000 -0.754080 
#    y 0.000000 3.256570 0.000000 
#    z -0.754080 0.000000 2.867880 
# 
# 
# High freq. dielectric constant tensor:
#      x y z
#    x 1.598010 0.000000 -0.055960 
#    y 0.000000 1.624010 0.000000 
#    z -0.055960 0.000000 1.556370 
# 
# From -- ./inp_files/72086.got.cif
#   From: 2010.06.25/outbox.cif.g09.slc.cpg/sg11_37_cif.got.tgz:72086.got - 2010.06.27 23:14:04.
