data_PCOD8068446
_publ_section_title
;
Structure prediction by ZEFSAII (Michael W. Deem and Ramdas Pophale) SiO2 
 PCOD8068446
Probable space group: P 21/M
;
_chemical_formula_sum "Si O2"
_cell_formula_units_Z 32
_cell_length_a 19.359967
_cell_length_b 16.392862
_cell_length_c 10.716012
_cell_angle_alpha 90.000000
_cell_angle_beta 151.190243
_cell_angle_gamma 90.000000
_cell_volume 1638.898743
_symmetry_space_group_name_H-M "P 21/M"
_symmetry_group_IT_number 11
_symmetry_cell_setting 'monoclinic'
loop_
_space_group_symop_operation_xyz
x,y,z
-x,1/2+y,-z
-x,-y,-z
x,1/2-y,z
loop_
_atom_site_type_symbol
_atom_site_label
_atom_site_fract_x
_atom_site_fract_y
_atom_site_fract_z
Si Si1 0.584111 0.155500 0.800649
Si Si2 0.907345 0.578088 0.324387
Si Si3 0.727604 0.028832 0.873738
Si Si4 0.167237 0.841404 0.613541
Si Si5 0.313930 0.434872 0.441862
Si Si6 0.962151 0.841156 0.933751
Si Si7 0.178502 0.548924 0.412725
Si Si8 0.970144 0.904830 0.689853
O O1 0.559852 0.250000 0.719332
O O2 0.450213 0.124889 0.671919
O O3 0.599493 0.089875 0.713079
O O4 0.732238 0.147246 0.108872
O O5 0.880085 0.617361 0.419955
O O6 0.000000 0.500000 0.500000
O O7 0.002311 0.636131 0.385681
O O8 0.762832 0.546556 0.026374
O O9 0.674582 0.990074 0.661982
O O10 0.862098 0.089522 0.073911
O O11 0.164569 0.750000 0.560905
O O12 0.239688 0.891387 0.615078
O O13 0.302811 0.495362 0.544068
O O14 0.175598 0.377163 0.214565
O O15 0.989461 0.750000 0.026646
O O16 0.095882 0.899596 0.176085
O O17 0.940099 0.837377 0.748585
O O18 0.068611 0.492056 0.313115
#
# Coordination Sequence:
#
# PCOD8068446 Si02
#       8
#     4   4   4   4   4   4   4   4
#     4  11  24  38  55  81 111 144 185 228 274 328
#     4  10  17  33  59  83 112 141 178 230 278 323
#     4  11  18  37  61  82 107 144 185 230 268 329
#     4  11  21  34  55  85 114 142 181 231 278 319
#     4  11  22  38  56  77 113 153 187 214 266 341
#     4  11  21  33  55  84 114 142 176 231 283 317
#     4  11  19  36  56  80 111 141 185 230 269 327
#     4  10  17  32  56  84 108 139 177 227 273 328
#
# _framework density 19.525307000000002
#
# number of rings (size 3 to 8) (size 9 to 14) (size 15 to 20)
#    0.000    1.250    7.500    1.875    0.000    1.500 
#    0.000    0.625    0.000    0.000    0.000    0.000 
#    0.000    0.000    0.000    0.000    0.000    0.000 
#
# Total GULP energy -396564.072315 kJ/mol
# GULP energy per Si atom -12392.627260 kJ/mol
# Density = 1.948087 g / cm^3
# Si number density = 19.525307 Si / 1000 Ang^3
#
#
#
# Elastic Constant Matrix: (Units=GPa)
#
#
# Indices 1 2 3 4 5 6 
#
# 1 100.4366 39.4090 20.7629 0.0000 -3.1937 0.0000
# 2 39.4090 101.3682 25.6381 0.0000 9.2252 0.0000
# 3 20.7629 25.6381 32.5040 0.0000 9.3900 0.0000
# 4 0.0000 0.0000 0.0000 21.6075 0.0000 3.1029
# 5 -3.1937 9.2252 9.3900 0.0000 27.9037 0.0000
# 6 0.0000 0.0000 0.0000 3.1029 0.0000 26.1270
#
#
#
# Elastic Compliance Matrix: (Units=1/GPa)
#
#
# Indices 1 2 3 4 5 6 
#
# 1 0.013006 -0.003804 -0.006758 0.000000 0.005020 0.000000
# 2 -0.003804 0.013456 -0.007502 0.000000 -0.002360 0.000000
# 3 -0.006758 -0.007502 0.044868 0.000000 -0.013392 0.000000
# 4 0.000000 0.000000 0.000000 0.047083 0.000000 -0.005592
# 5 0.005020 -0.002360 -0.013392 0.000000 0.041699 0.000000
# 6 0.000000 0.000000 0.000000 -0.005592 0.000000 0.038939
#
#
# Mechanical properties :
#
#
# Convention : Reuss Voigt Hill
#
# Bulk Modulus (GPa) = 28.40701 45.10318 36.75510
# Shear Modulus (GPa) = 20.25007 25.02755 22.63881
#
# Velocity S-wave (km/s) = 3.22393 3.58411 3.40878
# Velocity P-wave (km/s) = 5.33279 6.34648 5.86159
#
# Compressibility (1/GPa) = 0.03520257
#
# Stress axis : x y z
#
# Youngs Moduli (GPa) = 76.88906 74.31569 22.28742
#
# Poissons Ratio (x) = 0.28270 0.15061
# Poissons Ratio (y) = 0.29249 0.16720
# Poissons Ratio (z) = 0.51959 0.55753
#
# Static dielectric constant tensor:
#      x y z
#    x 4.453220 0.000000 -0.230780 
#    y 0.000000 3.789310 0.000000 
#    z -0.230780 0.000000 3.360280 
# 
# 
# High freq. dielectric constant tensor:
#      x y z
#    x 1.769130 0.000000 -0.009830 
#    y 0.000000 1.756260 0.000000 
#    z -0.009830 0.000000 1.721810 
# 
# From -- ./inp_files/41737.got.cif
#   From: 2010.06.25/outbox.cif.g09.slc.cpg/sg11_21_cif.got.tgz:41737.got - 2010.06.27 23:14:04.
