data_PCOD8068296
_publ_section_title
;
Structure prediction by ZEFSAII (Michael W. Deem and Ramdas Pophale) SiO2 
 PCOD8068296
Probable space group: P 21/M
;
_chemical_formula_sum "Si O2"
_cell_formula_units_Z 32
_cell_length_a 6.930673
_cell_length_b 23.094172
_cell_length_c 17.803432
_cell_angle_alpha 90.000000
_cell_angle_beta 133.489675
_cell_angle_gamma 90.000000
_cell_volume 2067.368984
_symmetry_space_group_name_H-M "P 21/M"
_symmetry_group_IT_number 11
_symmetry_cell_setting 'monoclinic'
loop_
_space_group_symop_operation_xyz
x,y,z
-x,1/2+y,-z
-x,-y,-z
x,1/2-y,z
loop_
_atom_site_type_symbol
_atom_site_label
_atom_site_fract_x
_atom_site_fract_y
_atom_site_fract_z
Si Si1 0.077079 0.907333 0.036860
Si Si2 0.556551 0.815045 0.314437
Si Si3 0.015815 0.136193 0.828170
Si Si4 0.499585 0.815798 0.127235
Si Si5 0.778633 0.925944 0.438911
Si Si6 0.204174 0.524098 0.294371
Si Si7 0.695134 0.522017 0.836319
Si Si8 0.098708 0.981897 0.647591
O O1 0.936217 0.880935 0.072443
O O2 0.257460 0.859114 0.044437
O O3 0.850315 0.926203 0.918183
O O4 0.264168 0.961259 0.109703
O O5 0.635232 0.750000 0.358616
O O6 0.606703 0.826648 0.239986
O O7 0.743280 0.858214 0.411510
O O8 0.247954 0.825266 0.250415
O O9 0.263834 0.173502 0.867601
O O10 0.989683 0.078556 0.770960
O O11 0.397309 0.750000 0.090811
O O12 0.502531 0.954859 0.390091
O O13 0.988766 0.932082 0.562627
O O14 0.885062 0.957403 0.392504
O O15 0.199254 0.482708 0.220331
O O16 0.103288 0.487643 0.337639
O O17 0.384391 0.537659 0.755069
#
# Coordination Sequence:
#
# PCOD8068296 Si02
#       8
#     4   4   4   4   4   4   4   4
#     4   9  18  31  44  64  91 115 142 180 216 253
#     4   9  17  29  43  62  89 113 137 173 212 254
#     4   9  16  27  44  65  88 112 139 171 214 260
#     4  10  18  28  45  66  88 115 144 175 214 258
#     4   9  18  28  42  65  88 113 143 174 214 259
#     4   9  16  27  44  65  88 113 139 175 217 257
#     4   9  18  30  45  65  88 115 147 176 214 261
#     4  10  17  28  44  63  89 115 143 178 213 254
#
# _framework density 15.478611000000001
#
# number of rings (size 3 to 8) (size 9 to 14) (size 15 to 20)
#    0.000    2.750    0.000    4.500    0.000    1.500 
#    0.000    3.750    0.000    0.750    0.000    0.875 
#    0.000    0.000    0.000    0.000    0.000    0.000 
#
# Total GULP energy -396836.653005 kJ/mol
# GULP energy per Si atom -12401.145406 kJ/mol
# Density = 1.544338 g / cm^3
# Si number density = 15.478611 Si / 1000 Ang^3
#
#
#
# Elastic Constant Matrix: (Units=GPa)
#
#
# Indices 1 2 3 4 5 6 
#
# 1 85.2380 35.9937 33.5199 0.0000 1.6204 0.0000
# 2 35.9937 96.6398 49.6056 0.0000 3.9787 0.0000
# 3 33.5199 49.6056 96.0022 0.0000 5.4008 0.0000
# 4 0.0000 0.0000 0.0000 20.9174 0.0000 2.3816
# 5 1.6204 3.9787 5.4008 0.0000 12.8741 0.0000
# 6 0.0000 0.0000 0.0000 2.3816 0.0000 18.9195
#
#
#
# Elastic Compliance Matrix: (Units=1/GPa)
#
#
# Indices 1 2 3 4 5 6 
#
# 1 0.014578 -0.003845 -0.003141 0.000000 0.000671 0.000000
# 2 -0.003845 0.015119 -0.006385 0.000000 -0.001510 0.000000
# 3 -0.003141 -0.006385 0.015034 0.000000 -0.003938 0.000000
# 4 0.000000 0.000000 0.000000 0.048502 0.000000 -0.006105
# 5 0.000671 -0.001510 -0.003938 0.000000 0.079710 0.000000
# 6 0.000000 0.000000 0.000000 -0.006105 0.000000 0.053624
#
#
# Mechanical properties :
#
#
# Convention : Reuss Voigt Hill
#
# Bulk Modulus (GPa) = 55.58829 57.34648 56.46738
# Shear Modulus (GPa) = 19.28228 21.12624 20.20426
#
# Velocity S-wave (km/s) = 3.53333 3.69842 3.61682
# Velocity P-wave (km/s) = 7.25512 7.44090 7.34860
#
# Compressibility (1/GPa) = 0.01798940
#
# Stress axis : x y z
#
# Youngs Moduli (GPa) = 68.59693 66.14053 66.51652
#
# Poissons Ratio (x) = 0.25430 0.20893
# Poissons Ratio (y) = 0.26375 0.42470
# Poissons Ratio (z) = 0.21546 0.42230
#
# Static dielectric constant tensor:
#      x y z
#    x 2.906110 0.000000 -0.013210 
#    y 0.000000 2.859220 0.000000 
#    z -0.013210 0.000000 2.846710 
# 
# 
# High freq. dielectric constant tensor:
#      x y z
#    x 1.599580 0.000000 -0.001010 
#    y 0.000000 1.575130 0.000000 
#    z -0.001010 0.000000 1.573250 
# 
# From -- ./inp_files/5389.got.cif
#   From: 2010.06.25/outbox.cif.g09.slc.cpg/sg11_3_cif.got.tgz:5389.got - 2010.06.27 23:14:04.
