data_PCOD8068144
_publ_section_title
;
Structure prediction by ZEFSAII (Michael W. Deem and Ramdas Pophale) SiO2 
 PCOD8068144
Probable space group: P 21/M
;
_chemical_formula_sum "Si O2"
_cell_formula_units_Z 16
_cell_length_a 34.953829
_cell_length_b 5.302490
_cell_length_c 27.798113
_cell_angle_alpha 90.000000
_cell_angle_beta 170.717177
_cell_angle_gamma 90.000000
_cell_volume 831.085544
_symmetry_space_group_name_H-M "P 21/M"
_symmetry_group_IT_number 11
_symmetry_cell_setting 'monoclinic'
loop_
_space_group_symop_operation_xyz
x,y,z
-x,1/2+y,-z
-x,-y,-z
x,1/2-y,z
loop_
_atom_site_type_symbol
_atom_site_label
_atom_site_fract_x
_atom_site_fract_y
_atom_site_fract_z
Si Si1 0.033633 0.250000 0.688709
Si Si2 0.660964 0.750000 0.842798
Si Si3 0.528648 0.250000 0.112828
Si Si4 0.341888 0.250000 0.696251
Si Si5 0.876189 0.250000 0.063397
Si Si6 0.143867 0.750000 0.166673
Si Si7 0.872608 0.750000 0.463769
Si Si8 0.656871 0.250000 0.691327
O O1 0.799108 0.250000 0.430611
O O2 0.030955 0.499324 0.651507
O O3 0.264338 0.250000 0.008664
O O4 0.756308 0.499674 0.935664
O O5 0.378325 0.750000 0.490220
O O6 0.491916 0.500284 0.099875
O O7 0.356953 0.250000 0.854363
O O8 0.206241 0.250000 0.578763
O O9 0.155438 0.250000 0.421415
O O10 0.848717 0.250000 0.972037
O O11 0.201013 0.750000 0.181503
O O12 0.000000 0.500000 0.000000
O O13 0.500000 0.500000 0.500000
#
# Coordination Sequence:
#
# PCOD8068144 Si02
#       8
#     2   2   2   2   2   2   2   2
#     4  10  16  26  39  65  91 138 185 208 258 327
#     4  12  20  35  56  75 109 143 190 229 279 340
#     4  10  16  24  36  62  98 147 174 209 262 339
#     4  10  16  25  38  62  97 132 182 206 268 315
#     4  12  19  34  54  80 104 139 188 239 267 327
#     4  12  26  43  61  86 118 152 187 244 307 348
#     4  10  16  23  38  59 102 143 178 205 266 334
#     4  12  23  40  64  89 111 146 196 242 287 354
#
# _framework density 19.251929000000001
#
# number of rings (size 3 to 8) (size 9 to 14) (size 15 to 20)
#    0.000    1.000    7.500    5.250    0.000    0.000 
#    0.000    0.000    0.000    0.000    0.000    0.000 
#    0.000    0.000    0.000   38.250    0.000    0.000 
#
# Total GULP energy -198329.339306 kJ/mol
# GULP energy per Si atom -12395.583707 kJ/mol
# Density = 1.920811 g / cm^3
# Si number density = 19.251929 Si / 1000 Ang^3
#
#
#
# Elastic Constant Matrix: (Units=GPa)
#
#
# Indices 1 2 3 4 5 6 
#
# 1 72.9626 43.4470 55.5691 0.0000 -22.7583 0.0000
# 2 43.4470 228.2524 51.5722 0.0000 -11.5849 0.0000
# 3 55.5691 51.5722 109.0753 0.0000 -45.3397 0.0000
# 4 0.0000 0.0000 0.0000 36.7567 0.0000 -10.7553
# 5 -22.7583 -11.5849 -45.3397 0.0000 42.4322 0.0000
# 6 0.0000 0.0000 0.0000 -10.7553 0.0000 19.1096
#
#
#
# Elastic Compliance Matrix: (Units=1/GPa)
#
#
# Indices 1 2 3 4 5 6 
#
# 1 0.023151 -0.001974 -0.010657 0.000000 0.000491 0.000000
# 2 -0.001974 0.005174 -0.002328 0.000000 -0.002133 0.000000
# 3 -0.010657 -0.002328 0.023492 0.000000 0.018750 0.000000
# 4 0.000000 0.000000 0.000000 0.032570 0.000000 0.018331
# 5 0.000491 -0.002133 0.018750 0.000000 0.043283 0.000000
# 6 0.000000 0.000000 0.000000 0.018331 0.000000 0.062647
#
#
# Mechanical properties :
#
#
# Convention : Reuss Voigt Hill
#
# Bulk Modulus (GPa) = 45.66265 79.05185 62.35725
# Shear Modulus (GPa) = 21.97490 36.97317 29.47403
#
# Velocity S-wave (km/s) = 3.38218 4.38710 3.91700
# Velocity P-wave (km/s) = 6.24677 8.17393 7.27445
#
# Compressibility (1/GPa) = 0.02189974
#
# Stress axis : x y z
#
# Youngs Moduli (GPa) = 43.19558 193.25621 42.56827
#
# Poissons Ratio (x) = 0.38146 0.45365
# Poissons Ratio (y) = 0.08526 0.09908
# Poissons Ratio (z) = 0.46034 0.44983
#
# Static dielectric constant tensor:
#      x y z
#    x 3.950460 0.000000 -0.601570 
#    y 0.000000 7.466120 0.000000 
#    z -0.601570 0.000000 3.457410 
# 
# 
# High freq. dielectric constant tensor:
#      x y z
#    x 1.693970 0.000000 -0.058300 
#    y 0.000000 1.797870 0.000000 
#    z -0.058300 0.000000 1.730310 
# 
# From -- ./inp_files/70396.got.cif
#   From: 2010.06.25/outbox.cif.g09.slc.cpg/sg11_36_cif.got.tgz:70396.got - 2010.06.27 23:14:04.
