data_PCOD8068862
_publ_section_title
;
Structure prediction by ZEFSAII (Michael W. Deem and Ramdas Pophale) SiO2 
 PCOD8068862
Probable space group: P 21/M
;
_chemical_formula_sum "Si O2"
_cell_formula_units_Z 28
_cell_length_a 21.950956
_cell_length_b 9.031787
_cell_length_c 10.049535
_cell_angle_alpha 90.000000
_cell_angle_beta 60.927904
_cell_angle_gamma 90.000000
_cell_volume 1741.361685
_symmetry_space_group_name_H-M "P 21/M"
_symmetry_group_IT_number 11
_symmetry_cell_setting 'monoclinic'
loop_
_space_group_symop_operation_xyz
x,y,z
-x,1/2+y,-z
-x,-y,-z
x,1/2-y,z
loop_
_atom_site_type_symbol
_atom_site_label
_atom_site_fract_x
_atom_site_fract_y
_atom_site_fract_z
Si Si1 0.572193 0.083036 0.772431
Si Si2 0.928742 0.417676 0.048892
Si Si3 0.193584 0.424401 0.927358
Si Si4 0.562802 0.083615 0.098618
Si Si5 0.299210 0.078020 0.042879
Si Si6 0.796766 0.417845 0.339095
Si Si7 0.288090 0.075707 0.359070
O O1 0.578739 0.250000 0.710971
O O2 0.504379 0.007029 0.778758
O O3 0.640295 0.990738 0.658422
O O4 0.564438 0.082264 0.938387
O O5 0.943834 0.250000 0.985967
O O6 0.884100 0.503191 0.981542
O O7 0.881377 0.418590 0.234026
O O8 0.000000 0.500000 0.000000
O O9 0.186928 0.250000 0.912230
O O10 0.234337 0.463679 0.018702
O O11 0.234528 0.496710 0.757568
O O12 0.557652 0.250000 0.159367
O O13 0.633081 0.009788 0.079707
O O14 0.318509 0.250000 0.014094
O O15 0.278457 0.033729 0.214783
O O16 0.768053 0.250000 0.373443
O O17 0.776396 0.503033 0.494841
O O18 0.288583 0.250000 0.381634
#
# Coordination Sequence:
#
# PCOD8068862 Si02
#       7
#     4   4   4   4   4   4   4
#     4   9  16  26  40  60  89 122 157 198 237 274
#     4   9  18  31  51  75  97 120 155 193 226 270
#     4   9  17  31  50  71  96 125 155 191 231 274
#     4   9  16  25  40  62  88 121 159 197 235 275
#     4   9  18  30  46  70  97 125 157 194 236 279
#     4   9  19  32  47  71  97 123 156 192 230 276
#     4  10  18  29  47  70  96 125 158 195 235 279
#
# _framework density 16.079370999999998
#
# number of rings (size 3 to 8) (size 9 to 14) (size 15 to 20)
#    0.857    2.000    0.000    2.143    0.000    5.143 
#    0.000    0.000    0.000    1.714    0.000    0.000 
#    0.000    0.000    0.000    0.000    0.000    0.000 
#
# Total GULP energy -347003.354878 kJ/mol
# GULP energy per Si atom -12392.976960 kJ/mol
# Density = 1.604277 g / cm^3
# Si number density = 16.079371 Si / 1000 Ang^3
#
#
#
# Elastic Constant Matrix: (Units=GPa)
#
#
# Indices 1 2 3 4 5 6 
#
# 1 115.2535 65.3223 39.6930 0.0000 -13.0093 0.0000
# 2 65.3223 127.1458 39.5753 0.0000 -8.1806 0.0000
# 3 39.6930 39.5753 58.0928 0.0000 -6.8964 0.0000
# 4 0.0000 0.0000 0.0000 26.8927 0.0000 -7.2210
# 5 -13.0093 -8.1806 -6.8964 0.0000 18.1822 0.0000
# 6 0.0000 0.0000 0.0000 -7.2210 0.0000 25.8995
#
#
#
# Elastic Compliance Matrix: (Units=1/GPa)
#
#
# Indices 1 2 3 4 5 6 
#
# 1 0.014146 -0.005207 -0.005440 0.000000 0.005716 0.000000
# 2 -0.005207 0.011968 -0.004606 0.000000 -0.000088 0.000000
# 3 -0.005440 -0.004606 0.024462 0.000000 0.003314 0.000000
# 4 0.000000 0.000000 0.000000 0.040194 0.000000 0.011206
# 5 0.005716 -0.000088 0.003314 0.000000 0.060306 0.000000
# 6 0.000000 0.000000 0.000000 0.011206 0.000000 0.041735
#
#
# Mechanical properties :
#
#
# Convention : Reuss Voigt Hill
#
# Bulk Modulus (GPa) = 49.82385 65.51926 57.67156
# Shear Modulus (GPa) = 21.73850 24.58833 23.16342
#
# Velocity S-wave (km/s) = 3.68088 3.91472 3.79960
# Velocity P-wave (km/s) = 7.00847 7.82747 7.42926
#
# Compressibility (1/GPa) = 0.02007071
#
# Stress axis : x y z
#
# Youngs Moduli (GPa) = 70.69011 83.55627 40.87967
#
# Poissons Ratio (x) = 0.43506 0.22239
# Poissons Ratio (y) = 0.36806 0.18829
# Poissons Ratio (z) = 0.38456 0.38485
#
# Static dielectric constant tensor:
#      x y z
#    x 2.851700 0.000000 -0.137300 
#    y 0.000000 3.221380 0.000000 
#    z -0.137300 0.000000 2.763230 
# 
# 
# High freq. dielectric constant tensor:
#      x y z
#    x 1.595100 0.000000 -0.018750 
#    y 0.000000 1.639720 0.000000 
#    z -0.018750 0.000000 1.582810 
# 
# From -- ./inp_files/43641.got.cif
#   From: 2010.06.25/outbox.cif.g09.slc.cpg/sg11_22_cif.got.tgz:43641.got - 2010.06.27 23:14:04.
