data_PCOD8068632
_publ_section_title
;
Structure prediction by ZEFSAII (Michael W. Deem and Ramdas Pophale) SiO2 
 PCOD8068632
Probable space group: P 21/M
;
_chemical_formula_sum "Si O2"
_cell_formula_units_Z 32
_cell_length_a 18.373137
_cell_length_b 9.017376
_cell_length_c 26.454577
_cell_angle_alpha 90.000000
_cell_angle_beta 151.918235
_cell_angle_gamma 90.000000
_cell_volume 2063.180461
_symmetry_space_group_name_H-M "P 21/M"
_symmetry_group_IT_number 11
_symmetry_cell_setting 'monoclinic'
loop_
_space_group_symop_operation_xyz
x,y,z
-x,1/2+y,-z
-x,-y,-z
x,1/2-y,z
loop_
_atom_site_type_symbol
_atom_site_label
_atom_site_fract_x
_atom_site_fract_y
_atom_site_fract_z
Si Si1 0.798886 0.579962 0.911878
Si Si2 0.556355 0.423091 0.291622
Si Si3 0.758797 0.926250 0.498965
Si Si4 0.234508 0.414765 0.653623
Si Si5 0.914993 0.577796 0.873086
Si Si6 0.630231 0.078004 0.513435
Si Si7 0.977434 0.414088 0.410154
Si Si8 0.315849 0.577932 0.337816
O O1 0.844795 0.750000 0.950498
O O2 0.625199 0.545640 0.821860
O O3 0.818246 0.544202 0.864495
O O4 0.908835 0.475309 0.012432
O O5 0.594740 0.250000 0.320671
O O6 0.624587 0.507548 0.381626
O O7 0.627522 0.483084 0.282783
O O8 0.738294 0.750000 0.487309
O O9 0.928821 0.970158 0.581767
O O10 0.746700 0.994257 0.547276
O O11 0.298493 0.250000 0.703503
O O12 0.098642 0.409462 0.529890
O O13 0.166277 0.479746 0.664352
O O14 0.913854 0.750000 0.858032
O O15 0.840205 0.485361 0.781765
O O16 0.620237 0.250000 0.492718
O O17 0.696265 0.052786 0.609727
O O18 0.460009 0.010397 0.403076
O O19 0.909914 0.250000 0.359523
O O20 0.336864 0.750000 0.337263
#
# Coordination Sequence:
#
# PCOD8068632 Si02
#       8
#     4   4   4   4   4   4   4   4
#     4   9  19  32  44  62  86 113 145 177 213 256
#     4  10  18  28  43  61  86 118 148 180 214 253
#     4  10  19  29  43  63  87 115 146 181 216 252
#     4   9  16  25  38  57  81 110 144 178 212 251
#     4  10  19  31  48  66  85 111 143 180 218 255
#     4  10  20  32  46  65  87 113 146 179 213 254
#     4   8  15  26  38  55  80 111 144 173 208 253
#     4  10  20  33  48  64  86 115 144 178 216 254
#
# _framework density 15.510033999999999
#
# number of rings (size 3 to 8) (size 9 to 14) (size 15 to 20)
#    0.000    2.500    0.000    3.750    0.000    7.500 
#    0.000    0.000    0.000    0.000    0.000    0.000 
#    0.000    1.000    0.000    3.250    0.000    4.250 
#
# Total GULP energy -396812.085051 kJ/mol
# GULP energy per Si atom -12400.377658 kJ/mol
# Density = 1.547473 g / cm^3
# Si number density = 15.510034 Si / 1000 Ang^3
#
#
#
# Elastic Constant Matrix: (Units=GPa)
#
#
# Indices 1 2 3 4 5 6 
#
# 1 112.1558 57.3747 32.1767 0.0000 10.4351 0.0000
# 2 57.3747 101.5020 39.1869 0.0000 3.7497 0.0000
# 3 32.1767 39.1869 59.0313 0.0000 1.8561 0.0000
# 4 0.0000 0.0000 0.0000 22.9424 0.0000 1.9906
# 5 10.4351 3.7497 1.8561 0.0000 15.8366 0.0000
# 6 0.0000 0.0000 0.0000 1.9906 0.0000 29.1418
#
#
#
# Elastic Compliance Matrix: (Units=1/GPa)
#
#
# Indices 1 2 3 4 5 6 
#
# 1 0.013675 -0.006285 -0.003056 0.000000 -0.007164 0.000000
# 2 -0.006285 0.016207 -0.007369 0.000000 0.001168 0.000000
# 3 -0.003056 -0.007369 0.023466 0.000000 0.001008 0.000000
# 4 0.000000 0.000000 0.000000 0.043847 0.000000 -0.002995
# 5 -0.007164 0.001168 0.001008 0.000000 0.067471 0.000000
# 6 0.000000 0.000000 0.000000 -0.002995 0.000000 0.034520
#
#
# Mechanical properties :
#
#
# Convention : Reuss Voigt Hill
#
# Bulk Modulus (GPa) = 50.18494 58.90732 54.54613
# Shear Modulus (GPa) = 20.89868 23.18087 22.03978
#
# Velocity S-wave (km/s) = 3.67472 3.87016 3.77371
# Velocity P-wave (km/s) = 7.10151 7.61797 7.36427
#
# Compressibility (1/GPa) = 0.01992629
#
# Stress axis : x y z
#
# Youngs Moduli (GPa) = 73.12701 61.70284 42.61419
#
# Poissons Ratio (x) = 0.38781 0.13024
# Poissons Ratio (y) = 0.45962 0.31404
# Poissons Ratio (z) = 0.22350 0.45471
#
# Static dielectric constant tensor:
#      x y z
#    x 3.103550 0.000000 0.088820 
#    y 0.000000 3.167520 0.000000 
#    z 0.088820 0.000000 2.583200 
# 
# 
# High freq. dielectric constant tensor:
#      x y z
#    x 1.592710 0.000000 0.011590 
#    y 0.000000 1.613920 0.000000 
#    z 0.011590 0.000000 1.546500 
# 
# From -- ./inp_files/61784.got.cif
#   From: 2010.06.25/outbox.cif.g09.slc.cpg/sg11_31_cif.got.tgz:61784.got - 2010.06.27 23:14:04.
