data_PCOD8068769
_publ_section_title
;
Structure prediction by ZEFSAII (Michael W. Deem and Ramdas Pophale) SiO2 
 PCOD8068769
Probable space group: P 21/M
;
_chemical_formula_sum "Si O2"
_cell_formula_units_Z 32
_cell_length_a 15.928801
_cell_length_b 8.737174
_cell_length_c 30.649806
_cell_angle_alpha 90.000000
_cell_angle_beta 150.608739
_cell_angle_gamma 90.000000
_cell_volume 2093.440276
_symmetry_space_group_name_H-M "P 21/M"
_symmetry_group_IT_number 11
_symmetry_cell_setting 'monoclinic'
loop_
_space_group_symop_operation_xyz
x,y,z
-x,1/2+y,-z
-x,-y,-z
x,1/2-y,z
loop_
_atom_site_type_symbol
_atom_site_label
_atom_site_fract_x
_atom_site_fract_y
_atom_site_fract_z
Si Si1 0.319051 0.432117 0.829231
Si Si2 0.181591 0.927010 0.590225
Si Si3 0.605897 0.932425 0.007914
Si Si4 0.838729 0.570443 0.333010
Si Si5 0.889358 0.069304 0.185711
Si Si6 0.768145 0.072644 0.482057
Si Si7 0.240183 0.927223 0.360889
Si Si8 0.397150 0.073049 0.513532
O O1 0.326224 0.250000 0.836931
O O2 0.253918 0.486658 0.752598
O O3 0.187320 0.496351 0.805142
O O4 0.509796 0.503483 0.921416
O O5 0.155495 0.750000 0.587131
O O6 0.289853 0.954456 0.594722
O O7 0.261285 0.000292 0.670237
O O8 0.000000 0.000000 0.500000
O O9 0.607125 0.750000 0.008493
O O10 0.797583 0.998040 0.100966
O O11 0.500000 0.000000 0.000000
O O12 0.826965 0.750000 0.332508
O O13 0.036558 0.517707 0.421773
O O14 0.861215 0.250000 0.173896
O O15 0.088361 0.028549 0.272458
O O16 0.749426 0.250000 0.486423
O O17 0.642782 0.972073 0.454934
O O18 0.187325 0.750000 0.336177
O O19 0.404339 0.962408 0.405390
O O20 0.277441 0.973664 0.427618
O O21 0.356315 0.250000 0.486476
#
# Coordination Sequence:
#
# PCOD8068769 Si02
#       8
#     4   4   4   4   4   4   4   4
#     4  10  18  29  44  63  88 115 142 174 211 249
#     4   9  17  28  42  59  81 109 140 173 208 247
#     4  10  18  29  43  60  84 112 141 174 210 247
#     4   9  18  29  42  61  85 113 142 173 209 246
#     4  11  20  30  45  63  82 110 147 178 210 251
#     4   9  17  29  43  60  84 114 143 173 212 249
#     4  10  20  33  45  60  85 112 140 177 216 249
#     4  10  20  31  45  64  83 109 144 178 211 248
#
# _framework density 15.285842000000001
#
# number of rings (size 3 to 8) (size 9 to 14) (size 15 to 20)
#    0.000    2.250    0.000    6.750    0.000    6.000 
#    0.000    0.000    0.000    0.000    0.000    0.000 
#    0.000    1.000    0.000    3.250    0.000    4.750 
#
# Total GULP energy -396684.374307 kJ/mol
# GULP energy per Si atom -12396.386697 kJ/mol
# Density = 1.525105 g / cm^3
# Si number density = 15.285842 Si / 1000 Ang^3
#
#
#
# Elastic Constant Matrix: (Units=GPa)
#
#
# Indices 1 2 3 4 5 6 
#
# 1 82.9710 32.1258 42.2190 0.0000 -14.3150 0.0000
# 2 32.1258 77.3433 39.2144 0.0000 -6.0449 0.0000
# 3 42.2190 39.2144 97.4832 0.0000 -11.9153 0.0000
# 4 0.0000 0.0000 0.0000 25.7944 0.0000 -2.6819
# 5 -14.3150 -6.0449 -11.9153 0.0000 20.9150 0.0000
# 6 0.0000 0.0000 0.0000 -2.6819 0.0000 23.7525
#
#
#
# Elastic Compliance Matrix: (Units=1/GPa)
#
#
# Indices 1 2 3 4 5 6 
#
# 1 0.017564 -0.004157 -0.004957 0.000000 0.007996 0.000000
# 2 -0.004157 0.017247 -0.005241 0.000000 -0.000846 0.000000
# 3 -0.004957 -0.005241 0.014955 0.000000 0.003612 0.000000
# 4 0.000000 0.000000 0.000000 0.039229 0.000000 0.004429
# 5 0.007996 -0.000846 0.003612 0.000000 0.055098 0.000000
# 6 0.000000 0.000000 0.000000 0.004429 0.000000 0.042601
#
#
# Mechanical properties :
#
#
# Convention : Reuss Voigt Hill
#
# Bulk Modulus (GPa) = 47.49384 53.87953 50.68668
# Shear Modulus (GPa) = 22.47966 23.70827 23.09396
#
# Velocity S-wave (km/s) = 3.83903 3.94254 3.89113
# Velocity P-wave (km/s) = 7.12662 7.48661 7.30883
#
# Compressibility (1/GPa) = 0.02105536
#
# Stress axis : x y z
#
# Youngs Moduli (GPa) = 56.93476 57.98013 66.86783
#
# Poissons Ratio (x) = 0.24104 0.33147
# Poissons Ratio (y) = 0.23669 0.35046
# Poissons Ratio (z) = 0.28223 0.30388
#
# Static dielectric constant tensor:
#      x y z
#    x 2.944030 0.000000 -0.256410 
#    y 0.000000 3.059360 0.000000 
#    z -0.256410 0.000000 3.266030 
# 
# 
# High freq. dielectric constant tensor:
#      x y z
#    x 1.556480 0.000000 -0.015960 
#    y 0.000000 1.602950 0.000000 
#    z -0.015960 0.000000 1.568820 
# 
# From -- ./inp_files/73309.got.cif
#   From: 2010.06.25/outbox.cif.g09.slc.cpg/sg11_37_cif.got.tgz:73309.got - 2010.06.27 23:14:04.
