data_PCOD8068729
_publ_section_title
;
Structure prediction by ZEFSAII (Michael W. Deem and Ramdas Pophale) SiO2 
 PCOD8068729
Probable space group: P 21/M
;
_chemical_formula_sum "Si O2"
_cell_formula_units_Z 32
_cell_length_a 20.345720
_cell_length_b 8.842335
_cell_length_c 28.555400
_cell_angle_alpha 90.000000
_cell_angle_beta 20.666072
_cell_angle_gamma 90.000000
_cell_volume 1813.032533
_symmetry_space_group_name_H-M "P 21/M"
_symmetry_group_IT_number 11
_symmetry_cell_setting 'monoclinic'
loop_
_space_group_symop_operation_xyz
x,y,z
-x,1/2+y,-z
-x,-y,-z
x,1/2-y,z
loop_
_atom_site_type_symbol
_atom_site_label
_atom_site_fract_x
_atom_site_fract_y
_atom_site_fract_z
Si Si1 0.692400 0.929924 0.887373
Si Si2 0.420089 0.421614 0.670126
Si Si3 0.820048 0.924280 0.903404
Si Si4 0.277982 0.069592 0.931506
Si Si5 0.051047 0.426082 0.616618
Si Si6 0.188476 0.577702 0.615101
Si Si7 0.400080 0.573362 0.349681
Si Si8 0.955271 0.427673 0.079227
O O1 0.684681 0.750000 0.890240
O O2 0.735356 0.990379 0.911607
O O3 0.852732 0.988458 0.745027
O O4 0.500000 0.000000 0.000000
O O5 0.346473 0.250000 0.718315
O O6 0.593043 0.444424 0.518200
O O7 0.491414 0.463025 0.674556
O O8 0.253110 0.529673 0.765641
O O9 0.766065 0.750000 0.940926
O O10 0.046738 0.945649 0.752952
O O11 0.736070 0.000122 0.006436
O O12 0.268919 0.250000 0.938852
O O13 0.470445 0.015770 0.779393
O O14 0.102021 0.009209 0.019216
O O15 0.017710 0.250000 0.630346
O O16 0.135630 0.456711 0.611182
O O17 0.202020 0.487334 0.478333
O O18 0.161277 0.750000 0.613033
O O19 0.358392 0.750000 0.373427
O O20 0.973706 0.250000 0.061752
O O21 0.000000 0.500000 0.000000
#
# Coordination Sequence:
#
# PCOD8068729 Si02
#       8
#     4   4   4   4   4   4   4   4
#     4  10  19  33  55  81 104 127 154 190 236 284
#     4   9  16  28  44  65  92 123 161 205 250 288
#     4   8  15  30  52  74  94 123 162 196 232 287
#     4   9  17  30  48  69  94 127 166 203 241 288
#     4  10  18  28  46  74 102 126 158 199 236 278
#     4   8  15  29  48  67  91 124 161 201 245 290
#     4   9  16  29  47  67  94 128 164 202 242 282
#     4  11  20  30  44  65  93 125 164 208 248 287
#
# _framework density 17.649986999999999
#
# number of rings (size 3 to 8) (size 9 to 14) (size 15 to 20)
#    0.000    2.750    1.250    3.375    0.000    2.000 
#    0.000    0.625    0.000   12.000    0.000    0.000 
#    0.000    0.000    0.000    0.000    0.000    0.000 
#
# Total GULP energy -396513.132583 kJ/mol
# GULP energy per Si atom -12391.035393 kJ/mol
# Density = 1.760981 g / cm^3
# Si number density = 17.649987 Si / 1000 Ang^3
#
#
#
# Elastic Constant Matrix: (Units=GPa)
#
#
# Indices 1 2 3 4 5 6 
#
# 1 69.8037 21.4214 64.6953 0.0000 6.5517 0.0000
# 2 21.4214 58.6959 42.9274 0.0000 -4.0593 0.0000
# 3 64.6953 42.9274 175.8977 0.0000 2.0719 0.0000
# 4 0.0000 0.0000 0.0000 29.6640 0.0000 -6.2134
# 5 6.5517 -4.0593 2.0719 0.0000 27.4282 0.0000
# 6 0.0000 0.0000 0.0000 -6.2134 0.0000 11.9396
#
#
#
# Elastic Compliance Matrix: (Units=1/GPa)
#
#
# Indices 1 2 3 4 5 6 
#
# 1 0.022795 -0.003169 -0.007548 0.000000 -0.005344 0.000000
# 2 -0.003169 0.021511 -0.004134 0.000000 0.004253 0.000000
# 3 -0.007548 -0.004134 0.009465 0.000000 0.000476 0.000000
# 4 0.000000 0.000000 0.000000 0.037835 0.000000 0.019689
# 5 -0.005344 0.004253 0.000476 0.000000 0.038329 0.000000
# 6 0.000000 0.000000 0.000000 0.019689 0.000000 0.094001
#
#
# Mechanical properties :
#
#
# Convention : Reuss Voigt Hill
#
# Bulk Modulus (GPa) = 41.54680 62.49838 52.02259
# Shear Modulus (GPa) = 19.10866 25.49657 22.30262
#
# Velocity S-wave (km/s) = 3.29393 3.80487 3.55858
# Velocity P-wave (km/s) = 6.16903 7.40199 6.81346
#
# Compressibility (1/GPa) = 0.02406924
#
# Stress axis : x y z
#
# Youngs Moduli (GPa) = 43.86846 46.48739 105.65647
#
# Poissons Ratio (x) = 0.14730 0.79749
# Poissons Ratio (y) = 0.13901 0.43683
# Poissons Ratio (z) = 0.33112 0.19220
#
# Static dielectric constant tensor:
#      x y z
#    x 3.057150 0.000000 0.128370 
#    y 0.000000 3.026960 0.000000 
#    z 0.128370 0.000000 3.782170 
# 
# 
# High freq. dielectric constant tensor:
#      x y z
#    x 1.628100 0.000000 0.005630 
#    y 0.000000 1.657650 0.000000 
#    z 0.005630 0.000000 1.705810 
# 
# From -- ./inp_files/64173.got.cif
#   From: 2010.06.25/outbox.cif.g09.slc.cpg/sg11_33_cif.got.tgz:64173.got - 2010.06.27 23:14:04.
