data_PCOD8068050
_publ_section_title
;
Structure prediction by ZEFSAII (Michael W. Deem and Ramdas Pophale) SiO2 
 PCOD8068050
Probable space group: P 2/M
;
_chemical_formula_sum "Si O2"
_cell_formula_units_Z 24
_cell_length_a 9.198301
_cell_length_b 13.536468
_cell_length_c 20.917729
_cell_angle_alpha 90.000000
_cell_angle_beta 36.234155
_cell_angle_gamma 90.000000
_cell_volume 1539.496225
_symmetry_space_group_name_H-M "P 2/M"
_symmetry_group_IT_number 10
_symmetry_cell_setting 'monoclinic'
loop_
_space_group_symop_operation_xyz
x,y,z
-x,y,-z
-x,-y,-z
x,-y,z
loop_
_atom_site_type_symbol
_atom_site_label
_atom_site_fract_x
_atom_site_fract_y
_atom_site_fract_z
Si Si1 0.394509 0.272531 0.105945
Si Si2 0.848537 0.113961 0.492438
Si Si3 0.061334 0.386493 0.780095
Si Si4 0.061334 0.886493 0.280095
Si Si5 0.151463 0.386039 0.007562
Si Si6 0.605491 0.227469 0.394055
O O1 0.602636 0.321553 0.075810
O O2 0.176599 0.351811 0.175212
O O3 0.300781 0.174804 0.174805
O O4 0.500000 0.240585 0.000000
O O5 0.018828 0.129706 0.370293
O O6 0.602636 0.178447 0.575810
O O7 0.000000 0.150391 0.500000
O O8 0.769351 0.000000 0.527026
O O9 0.111148 0.500000 0.745743
O O10 0.300781 0.325196 0.674805
O O11 0.018828 0.370294 0.870293
O O12 0.823401 0.851811 0.324787
O O13 0.111148 0.000000 0.245743
O O14 0.230649 0.500000 0.972974
O O15 0.000000 0.349609 0.000000
O O16 0.500000 0.259415 0.500000
#
# Coordination Sequence:
#
# PCOD8068050 Si02
#       6
#     4   4   4   4   4   4
#     4   9  17  29  45  64  85 110 140 173 208 246
#     4   9  17  29  45  64  85 110 140 173 208 246
#     4   9  17  29  45  64  85 110 140 173 208 246
#     4   9  17  29  45  64  85 110 140 173 208 246
#     4   9  17  29  45  64  85 110 140 173 208 246
#     4   9  17  29  45  64  85 110 140 173 208 246
#
# _framework density 15.589513999999999
#
# number of rings (size 3 to 8) (size 9 to 14) (size 15 to 20)
#    0.000    3.000    0.000    1.000    0.000    6.000 
#    0.000    0.000    0.000    1.000    0.000    0.000 
#    0.000    0.000    0.000    0.000    0.000    0.000 
#
# Total GULP energy -297642.818048 kJ/mol
# GULP energy per Si atom -12401.784085 kJ/mol
# Density = 1.555403 g / cm^3
# Si number density = 15.589514 Si / 1000 Ang^3
#
#
#
# Elastic Constant Matrix: (Units=GPa)
#
#
# Indices 1 2 3 4 5 6 
#
# 1 124.7134 63.0713 52.0037 0.0000 -6.5606 0.0000
# 2 63.0713 121.0436 70.8687 0.0000 -5.5856 0.0000
# 3 52.0037 70.8687 89.6417 0.0000 -13.2529 0.0000
# 4 0.0000 0.0000 0.0000 32.5118 0.0000 -1.8817
# 5 -6.5606 -5.5856 -13.2529 0.0000 15.8637 0.0000
# 6 0.0000 0.0000 0.0000 -1.8817 0.0000 20.7380
#
#
#
# Elastic Compliance Matrix: (Units=1/GPa)
#
#
# Indices 1 2 3 4 5 6 
#
# 1 0.011480 -0.003911 -0.003502 0.000000 0.000445 0.000000
# 2 -0.003911 0.017131 -0.012119 0.000000 -0.005710 0.000000
# 3 -0.003502 -0.012119 0.025013 0.000000 0.015180 0.000000
# 4 0.000000 0.000000 0.000000 0.030920 0.000000 0.002806
# 5 0.000445 -0.005710 0.015180 0.000000 0.073892 0.000000
# 6 0.000000 0.000000 0.000000 0.002806 0.000000 0.048475
#
#
# Mechanical properties :
#
#
# Convention : Reuss Voigt Hill
#
# Bulk Modulus (GPa) = 68.68273 78.58733 73.63503
# Shear Modulus (GPa) = 19.93388 23.78636 21.86012
#
# Velocity S-wave (km/s) = 3.57973 3.91038 3.74870
# Velocity P-wave (km/s) = 7.82551 8.42068 8.12855
#
# Compressibility (1/GPa) = 0.01455970
#
# Stress axis : x y z
#
# Youngs Moduli (GPa) = 87.10812 58.37333 39.97975
#
# Poissons Ratio (x) = 0.22828 0.14003
# Poissons Ratio (y) = 0.34065 0.48451
# Poissons Ratio (z) = 0.30509 0.70742
#
# Static dielectric constant tensor:
#      x y z
#    x 2.940640 0.000000 0.016720 
#    y 0.000000 2.930610 0.000000 
#    z 0.016720 0.000000 2.958570 
# 
# 
# High freq. dielectric constant tensor:
#      x y z
#    x 1.593840 0.000000 0.000640 
#    y 0.000000 1.593450 0.000000 
#    z 0.000640 0.000000 1.594520 
# 
# From -- ./inp_files/24028.got.cif
#   From: 2010.06.25/outbox.cif.g09.slc.cpg/sg10_13_cif.got.tgz:24028.got - 2010.06.27 22:07:45.
