data_PCOD8068852
_publ_section_title
;
Structure prediction by ZEFSAII (Michael W. Deem and Ramdas Pophale) SiO2 
 PCOD8068852
Probable space group: P 21/M
;
_chemical_formula_sum "Si O2"
_cell_formula_units_Z 32
_cell_length_a 11.940129
_cell_length_b 8.633075
_cell_length_c 21.628572
_cell_angle_alpha 90.000000
_cell_angle_beta 52.216077
_cell_angle_gamma 90.000000
_cell_volume 1762.013279
_symmetry_space_group_name_H-M "P 21/M"
_symmetry_group_IT_number 11
_symmetry_cell_setting 'monoclinic'
loop_
_space_group_symop_operation_xyz
x,y,z
-x,1/2+y,-z
-x,-y,-z
x,1/2-y,z
loop_
_atom_site_type_symbol
_atom_site_label
_atom_site_fract_x
_atom_site_fract_y
_atom_site_fract_z
Si Si1 0.152896 0.067750 0.961282
Si Si2 0.736856 0.070640 0.822301
Si Si3 0.047502 0.933687 0.419163
Si Si4 0.867091 0.427991 0.232539
Si Si5 0.014921 0.928879 0.680616
Si Si6 0.356860 0.934429 0.271515
Si Si7 0.157245 0.933999 0.088505
Si Si8 0.653247 0.566729 0.217481
O O1 0.140947 0.250000 0.967286
O O2 0.259422 0.012363 0.872070
O O3 0.212687 0.007791 0.006448
O O4 0.000000 0.000000 0.000000
O O5 0.706136 0.250000 0.840071
O O6 0.632745 0.002429 0.804016
O O7 0.737810 0.001037 0.891927
O O8 0.892767 0.045140 0.742838
O O9 0.030273 0.750000 0.423526
O O10 0.210618 0.987877 0.352979
O O11 0.944356 0.011500 0.401874
O O12 0.000000 0.000000 0.500000
O O13 0.888194 0.250000 0.206966
O O14 0.718168 0.489905 0.256821
O O15 0.862017 0.447631 0.309153
O O16 0.995034 0.520533 0.157170
O O17 0.964422 0.750000 0.695334
O O18 0.360304 0.750000 0.267220
O O19 0.492073 0.995345 0.264019
O O20 0.163018 0.750000 0.081419
O O21 0.657386 0.750000 0.224106
#
# Coordination Sequence:
#
# PCOD8068852 Si02
#       8
#     4   4   4   4   4   4   4   4
#     4  11  21  31  45  67  96 129 168 215 255 293
#     4   8  15  29  49  69  92 125 164 205 248 294
#     4  10  19  33  56  82 106 130 157 195 239 288
#     4  10  19  30  47  71  99 129 164 209 251 285
#     4   9  17  29  47  74 103 128 159 200 243 287
#     4   8  16  33  53  73  97 128 164 198 239 294
#     4  10  18  29  47  69  93 125 166 211 256 298
#     4  10  20  33  50  69  94 132 171 204 245 298
#
# _framework density 18.161042999999999
#
# number of rings (size 3 to 8) (size 9 to 14) (size 15 to 20)
#    0.000    2.500    1.250    2.625    0.000    2.500 
#    0.000    3.750    0.000    0.750    0.000    0.000 
#    0.000    0.000    0.000    0.000    0.000    0.000 
#
# Total GULP energy -396429.264251 kJ/mol
# GULP energy per Si atom -12388.414508 kJ/mol
# Density = 1.811971 g / cm^3
# Si number density = 18.161043 Si / 1000 Ang^3
#
#
#
# Elastic Constant Matrix: (Units=GPa)
#
#
# Indices 1 2 3 4 5 6 
#
# 1 132.0593 29.5118 57.2997 0.0000 23.5190 0.0000
# 2 29.5118 39.6754 26.8638 0.0000 5.5981 0.0000
# 3 57.2997 26.8638 91.1474 0.0000 25.3466 0.0000
# 4 0.0000 0.0000 0.0000 23.4048 0.0000 9.5818
# 5 23.5190 5.5981 25.3466 0.0000 30.4606 0.0000
# 6 0.0000 0.0000 0.0000 9.5818 0.0000 20.4715
#
#
#
# Elastic Compliance Matrix: (Units=1/GPa)
#
#
# Indices 1 2 3 4 5 6 
#
# 1 0.011358 -0.004754 -0.004610 0.000000 -0.004060 0.000000
# 2 -0.004754 0.033627 -0.008098 0.000000 0.004230 0.000000
# 3 -0.004610 -0.008098 0.019324 0.000000 -0.011032 0.000000
# 4 0.000000 0.000000 0.000000 0.052854 0.000000 -0.024739
# 5 -0.004060 0.004230 -0.011032 0.000000 0.044366 0.000000
# 6 0.000000 0.000000 0.000000 -0.024739 0.000000 0.060427
#
#
# Mechanical properties :
#
#
# Convention : Reuss Voigt Hill
#
# Bulk Modulus (GPa) = 34.03196 54.47030 44.25113
# Shear Modulus (GPa) = 18.74922 24.81450 21.78186
#
# Velocity S-wave (km/s) = 3.21656 3.70044 3.46695
# Velocity P-wave (km/s) = 5.70743 6.95095 6.35966
#
# Compressibility (1/GPa) = 0.02938414
#
# Stress axis : x y z
#
# Youngs Moduli (GPa) = 88.04259 29.73757 51.74919
#
# Poissons Ratio (x) = 0.14138 0.23857
# Poissons Ratio (y) = 0.41858 0.41909
# Poissons Ratio (z) = 0.40588 0.24083
#
# Static dielectric constant tensor:
#      x y z
#    x 3.766640 0.000000 0.470210 
#    y 0.000000 3.264010 0.000000 
#    z 0.470210 0.000000 3.324060 
# 
# 
# High freq. dielectric constant tensor:
#      x y z
#    x 1.703400 0.000000 0.040440 
#    y 0.000000 1.697430 0.000000 
#    z 0.040440 0.000000 1.671430 
# 
# From -- ./inp_files/64185.got.cif
#   From: 2010.06.25/outbox.cif.g09.slc.cpg/sg11_33_cif.got.tgz:64185.got - 2010.06.27 23:14:04.
