data_PCOD8068136
_publ_section_title
;
Structure prediction by ZEFSAII (Michael W. Deem and Ramdas Pophale) SiO2 
 PCOD8068136
Probable space group: P 21/M
;
_chemical_formula_sum "Si O2"
_cell_formula_units_Z 32
_cell_length_a 12.198822
_cell_length_b 8.714077
_cell_length_c 24.656409
_cell_angle_alpha 90.000000
_cell_angle_beta 130.916015
_cell_angle_gamma 90.000000
_cell_volume 1980.621738
_symmetry_space_group_name_H-M "P 21/M"
_symmetry_group_IT_number 11
_symmetry_cell_setting 'monoclinic'
loop_
_space_group_symop_operation_xyz
x,y,z
-x,1/2+y,-z
-x,-y,-z
x,1/2-y,z
loop_
_atom_site_type_symbol
_atom_site_label
_atom_site_fract_x
_atom_site_fract_y
_atom_site_fract_z
Si Si1 0.876932 0.568291 0.802848
Si Si2 0.657700 0.930891 0.992815
Si Si3 0.364661 0.070548 0.891491
Si Si4 0.594302 0.067379 0.481228
Si Si5 0.961728 0.567652 0.045265
Si Si6 0.362045 0.930662 0.340684
Si Si7 0.812438 0.571572 0.618749
Si Si8 0.918295 0.074525 0.229854
O O1 0.865743 0.750000 0.803630
O O2 0.716977 0.501754 0.737574
O O3 0.923940 0.496825 0.874787
O O4 0.990570 0.518063 0.792987
O O5 0.648463 0.750000 0.987998
O O6 0.513858 0.997741 0.917374
O O7 0.665533 0.990253 0.057345
O O8 0.800207 0.990009 0.008050
O O9 0.383699 0.250000 0.895565
O O10 0.228162 0.022664 0.810340
O O11 0.600183 0.250000 0.483936
O O12 0.500000 0.000000 0.500000
O O13 0.521616 0.007448 0.401640
O O14 0.757027 0.995831 0.542751
O O15 0.971351 0.750000 0.047760
O O16 0.000000 0.500000 0.000000
O O17 0.380381 0.750000 0.339436
O O18 0.263940 0.969722 0.360438
O O19 0.767193 0.750000 0.611130
O O20 0.985446 0.553577 0.684096
O O21 0.873013 0.250000 0.207071
#
# Coordination Sequence:
#
# PCOD8068136 Si02
#       8
#     4   4   4   4   4   4   4   4
#     4  10  19  31  45  62  83 110 145 184 221 264
#     4   9  19  33  46  64  88 113 143 180 223 268
#     4  10  18  28  46  67  87 112 145 184 221 264
#     4  10  16  23  34  50  73 104 140 177 213 253
#     4  11  22  36  51  68  89 116 148 185 227 271
#     4  10  17  25  38  54  75 105 139 179 217 255
#     4   9  16  25  35  52  77 108 143 176 212 256
#     4   9  17  27  41  60  85 114 143 179 221 261
#
# _framework density 16.156542000000002
#
# number of rings (size 3 to 8) (size 9 to 14) (size 15 to 20)
#    0.000    2.250    1.250    6.000    0.000    4.000 
#    0.000    0.000    0.000    0.000    0.000    0.000 
#    0.000    0.000    0.000    1.125    0.000   14.875 
#
# Total GULP energy -396619.145436 kJ/mol
# GULP energy per Si atom -12394.348295 kJ/mol
# Density = 1.611977 g / cm^3
# Si number density = 16.156542 Si / 1000 Ang^3
#
#
#
# Elastic Constant Matrix: (Units=GPa)
#
#
# Indices 1 2 3 4 5 6 
#
# 1 48.2398 25.4147 46.8048 0.0000 8.0613 0.0000
# 2 25.4147 79.0470 47.9266 0.0000 6.7413 0.0000
# 3 46.8048 47.9266 149.0948 0.0000 24.5301 0.0000
# 4 0.0000 0.0000 0.0000 32.4937 0.0000 4.8702
# 5 8.0613 6.7413 24.5301 0.0000 16.1222 0.0000
# 6 0.0000 0.0000 0.0000 4.8702 0.0000 15.2008
#
#
#
# Elastic Compliance Matrix: (Units=1/GPa)
#
#
# Indices 1 2 3 4 5 6 
#
# 1 0.031415 -0.005144 -0.007974 0.000000 -0.001424 0.000000
# 2 -0.005144 0.016582 -0.003999 0.000000 0.001723 0.000000
# 3 -0.007974 -0.003999 0.012759 0.000000 -0.013753 0.000000
# 4 0.000000 0.000000 0.000000 0.032328 0.000000 -0.010357
# 5 -0.001424 0.001723 -0.013753 0.000000 0.082944 0.000000
# 6 0.000000 0.000000 0.000000 -0.010357 0.000000 0.069104
#
#
# Mechanical properties :
#
#
# Convention : Reuss Voigt Hill
#
# Bulk Modulus (GPa) = 37.70534 57.40820 47.55677
# Shear Modulus (GPa) = 17.34872 23.17904 20.26388
#
# Velocity S-wave (km/s) = 3.28043 3.79179 3.54534
# Velocity P-wave (km/s) = 6.14300 7.40134 6.80133
#
# Compressibility (1/GPa) = 0.02652144
#
# Stress axis : x y z
#
# Youngs Moduli (GPa) = 31.83223 60.30542 78.37847
#
# Poissons Ratio (x) = 0.31022 0.62499
# Poissons Ratio (y) = 0.16375 0.31343
# Poissons Ratio (z) = 0.25383 0.24116
#
# Static dielectric constant tensor:
#      x y z
#    x 2.582840 0.000000 0.380900 
#    y 0.000000 3.093680 0.000000 
#    z 0.380900 0.000000 3.744990 
# 
# 
# High freq. dielectric constant tensor:
#      x y z
#    x 1.539680 0.000000 0.037550 
#    y 0.000000 1.636520 0.000000 
#    z 0.037550 0.000000 1.636590 
# 
# From -- ./inp_files/68336.got.cif
#   From: 2010.06.25/outbox.cif.g09.slc.cpg/sg11_35_cif.got.tgz:68336.got - 2010.06.27 23:14:04.
