data_PCOD8068832
_publ_section_title
;
Structure prediction by ZEFSAII (Michael W. Deem and Ramdas Pophale) SiO2 
 PCOD8068832
Probable space group: P 21/M
;
_chemical_formula_sum "Si O2"
_cell_formula_units_Z 32
_cell_length_a 20.689227
_cell_length_b 8.797495
_cell_length_c 12.618080
_cell_angle_alpha 90.000000
_cell_angle_beta 115.222058
_cell_angle_gamma 90.000000
_cell_volume 2077.702826
_symmetry_space_group_name_H-M "P 21/M"
_symmetry_group_IT_number 11
_symmetry_cell_setting 'monoclinic'
loop_
_space_group_symop_operation_xyz
x,y,z
-x,1/2+y,-z
-x,-y,-z
x,1/2-y,z
loop_
_atom_site_type_symbol
_atom_site_label
_atom_site_fract_x
_atom_site_fract_y
_atom_site_fract_z
Si Si1 0.925348 0.076533 0.970315
Si Si2 0.676526 0.428256 0.006399
Si Si3 0.406626 0.928550 0.266357
Si Si4 0.332582 0.429407 0.416726
Si Si5 0.427819 0.430681 0.904366
Si Si6 0.788046 0.076146 0.766805
Si Si7 0.800947 0.570184 0.986423
Si Si8 0.435258 0.430119 0.670432
O O1 0.938547 0.250000 0.012306
O O2 0.875134 0.065201 0.828447
O O3 0.882843 0.993843 0.037394
O O4 0.000000 0.000000 0.000000
O O5 0.681942 0.250000 0.031246
O O6 0.630279 0.467214 0.870824
O O7 0.756645 0.497685 0.052404
O O8 0.640661 0.508400 0.081445
O O9 0.402319 0.750000 0.288022
O O10 0.487709 0.988855 0.314189
O O11 0.371645 0.019561 0.337559
O O12 0.326284 0.250000 0.416468
O O13 0.251661 0.500056 0.361327
O O14 0.374692 0.493151 0.548272
O O15 0.432806 0.250000 0.916169
O O16 0.418299 0.486677 0.776840
O O17 0.500000 0.500000 0.000000
O O18 0.763018 0.250000 0.760649
O O19 0.759803 0.985320 0.851070
O O20 0.802809 0.750000 0.997447
O O21 0.436346 0.250000 0.668767
#
# Coordination Sequence:
#
# PCOD8068832 Si02
#       8
#     4   4   4   4   4   4   4   4
#     4   9  17  28  45  69 101 133 158 188 226 272
#     4  11  20  32  50  69  93 121 158 203 248 290
#     4  10  18  31  47  62  88 120 146 191 250 287
#     4  11  20  30  47  67  89 119 159 195 232 287
#     4  11  21  36  52  66  88 119 160 207 255 296
#     4   9  18  30  43  63  94 126 151 183 227 266
#     4  10  18  29  46  69  94 125 160 189 228 280
#     4   9  20  35  46  62  88 118 153 202 248 283
#
# _framework density 15.401626
#
# number of rings (size 3 to 8) (size 9 to 14) (size 15 to 20)
#    0.750    1.250    2.500    3.000    0.000    0.500 
#    0.000    3.125    0.000    0.000    0.000    0.000 
#    0.000    1.000    0.000    3.000    0.000    4.625 
#
# Total GULP energy -396526.729072 kJ/mol
# GULP energy per Si atom -12391.460283 kJ/mol
# Density = 1.536657 g / cm^3
# Si number density = 15.401626 Si / 1000 Ang^3
#
#
#
# Elastic Constant Matrix: (Units=GPa)
#
#
# Indices 1 2 3 4 5 6 
#
# 1 117.5136 40.8950 40.3784 0.0000 5.3626 0.0000
# 2 40.8950 84.8836 28.9913 0.0000 0.6169 0.0000
# 3 40.3784 28.9913 69.1946 0.0000 0.2910 0.0000
# 4 0.0000 0.0000 0.0000 17.1687 0.0000 0.5199
# 5 5.3626 0.6169 0.2910 0.0000 15.6963 0.0000
# 6 0.0000 0.0000 0.0000 0.5199 0.0000 28.7754
#
#
#
# Elastic Compliance Matrix: (Units=1/GPa)
#
#
# Indices 1 2 3 4 5 6 
#
# 1 0.011843 -0.003878 -0.005270 0.000000 -0.003796 0.000000
# 2 -0.003878 0.015021 -0.004034 0.000000 0.000809 0.000000
# 3 -0.005270 -0.004034 0.019211 0.000000 0.001603 0.000000
# 4 0.000000 0.000000 0.000000 0.058277 0.000000 -0.001053
# 5 -0.003796 0.000809 0.001603 0.000000 0.064945 0.000000
# 6 0.000000 0.000000 0.000000 -0.001053 0.000000 0.034771
#
#
# Mechanical properties :
#
#
# Convention : Reuss Voigt Hill
#
# Bulk Modulus (GPa) = 50.73422 54.68014 52.70718
# Shear Modulus (GPa) = 21.09674 23.08323 22.08998
#
# Velocity S-wave (km/s) = 3.70506 3.87557 3.79128
# Velocity P-wave (km/s) = 7.16349 7.45699 7.31171
#
# Compressibility (1/GPa) = 0.01971056
#
# Stress axis : x y z
#
# Youngs Moduli (GPa) = 84.43487 66.57282 52.05392
#
# Poissons Ratio (x) = 0.25819 0.27434
# Poissons Ratio (y) = 0.32746 0.20998
# Poissons Ratio (z) = 0.44500 0.26854
#
# Static dielectric constant tensor:
#      x y z
#    x 3.005730 0.000000 0.050590 
#    y 0.000000 2.954910 0.000000 
#    z 0.050590 0.000000 2.985480 
# 
# 
# High freq. dielectric constant tensor:
#      x y z
#    x 1.582960 0.000000 0.005750 
#    y 0.000000 1.598500 0.000000 
#    z 0.005750 0.000000 1.553610 
# 
# From -- ./inp_files/42190.got.cif
#   From: 2010.06.25/outbox.cif.g09.slc.cpg/sg11_22_cif.got.tgz:42190.got - 2010.06.27 23:14:04.
